MODEL 1
REMARK VINA RESULT:     -12.4      0.000      0.000
REMARK SMILES COc1ccc(C(=O)OCCOC(=O)c2ccc(-c3c4nc(c(-c5c(F)c(F)c(F)c(F)c5F)c5ccc([nH]5)c(-c5c(F)c(F)c(F)c(F)c5F)c5nc(c(-c6c(F)c(F)c(F)c(F)c6F)c6ccc3[nH]6)C=C5)C=C4)cc2)cc1NC(=O)c1ccccc1[N+](=O)[O-]
REMARK SMILES IDX 10 1 9 2 7 3 8 4 6 5 3 6 4 7 79 8 5 9 78 10 2 11 1 12 80 13
REMARK SMILES IDX 81 14 82 16 83 17 84 18 88 19 85 20 87 21 86 22 89 23 90 24
REMARK SMILES IDX 91 25 11 26 12 27 13 28 14 29 15 30 16 31 77 32 17 33 76 34
REMARK SMILES IDX 18 35 19 36 20 37 70 38 21 39 75 40 69 41 71 42 22 43 74 44
REMARK SMILES IDX 68 45 67 46 23 48 55 49 35 50 54 51 36 52 39 53 53 54 72 55
REMARK SMILES IDX 37 56 38 57 52 59 73 60 40 61 24 62 25 63 33 64 26 65 27 66
REMARK SMILES IDX 31 67 34 68 28 69 29 70 32 71 30 72 56 73 57 74 65 75 58 76
REMARK SMILES IDX 59 77 63 78 66 79 60 80 61 81 64 82 62 83 41 84 42 85 50 86
REMARK SMILES IDX 43 87 44 88 48 89 51 90 45 91 46 92 49 93 47 94
REMARK H PARENT 80 15 71 47 39 58
REMARK Flexibility Score: inf
ROOT
ATOM      1  C   UNL A   1      31.926  29.371  24.347  1.00  0.00     0.275 C 
ENDROOT
BRANCH   1   2
ATOM      2  O   UNL A   1      30.683  28.925  23.772  1.00  0.00    -0.458 OA
BRANCH   2   3
ATOM      3  C   UNL A   1      30.700  27.711  23.169  1.00  0.00     0.338 C 
ATOM      4  O   UNL A   1      30.697  27.500  21.967  1.00  0.00    -0.246 OA
BRANCH   3   5
ATOM      5  C   UNL A   1      30.765  26.619  24.178  1.00  0.00     0.062 A 
ATOM      6  C   UNL A   1      30.920  24.747  26.231  1.00  0.00     0.142 A 
ATOM      7  C   UNL A   1      29.693  25.338  25.935  1.00  0.00     0.049 A 
ATOM      8  C   UNL A   1      32.079  25.102  25.524  1.00  0.00     0.084 A 
ATOM      9  C   UNL A   1      29.636  26.332  24.959  1.00  0.00     0.019 A 
ATOM     10  C   UNL A   1      31.960  25.935  24.416  1.00  0.00     0.045 A 
BRANCH   6  11
ATOM     11  O   UNL A   1      30.993  23.801  27.220  1.00  0.00    -0.495 OA
ATOM     12  C   UNL A   1      29.895  22.889  27.157  1.00  0.00     0.278 C 
ENDBRANCH   6  11
BRANCH   8  13
ATOM     13  N   UNL A   1      33.313  24.679  26.053  1.00  0.00    -0.319 N 
ATOM     14  C   UNL A   1      34.043  23.523  25.890  1.00  0.00     0.262 C 
ATOM     15  H   UNL A   1      33.735  25.334  26.656  1.00  0.00     0.170 HD
ATOM     16  O   UNL A   1      35.123  23.382  26.461  1.00  0.00    -0.269 OA
BRANCH  14  17
ATOM     17  C   UNL A   1      33.561  22.400  25.062  1.00  0.00     0.117 A 
ATOM     18  C   UNL A   1      32.890  21.384  25.760  1.00  0.00     0.021 A 
ATOM     19  C   UNL A   1      33.659  22.318  23.667  1.00  0.00     0.282 A 
ATOM     20  C   UNL A   1      32.266  20.345  25.068  1.00  0.00     0.001 A 
ATOM     21  C   UNL A   1      33.015  21.282  22.968  1.00  0.00     0.086 A 
ATOM     22  C   UNL A   1      32.312  20.303  23.674  1.00  0.00     0.007 A 
BRANCH  19  23
ATOM     23  N   UNL A   1      34.360  23.333  22.892  1.00  0.00     0.063 N 
ATOM     24  O   UNL A   1      33.659  24.125  22.242  1.00  0.00    -0.258 OA
ATOM     25  O   UNL A   1      35.595  23.338  22.918  1.00  0.00    -0.258 OA
ENDBRANCH  19  23
ENDBRANCH  14  17
ENDBRANCH   8  13
ENDBRANCH   3   5
ENDBRANCH   2   3
ENDBRANCH   1   2
BRANCH   1  26
ATOM     26  C   UNL A   1      31.680  30.275  25.555  1.00  0.00     0.275 C 
BRANCH  26  27
ATOM     27  O   UNL A   1      32.763  30.145  26.491  1.00  0.00    -0.458 OA
BRANCH  27  28
ATOM     28  C   UNL A   1      33.202  31.296  27.050  1.00  0.00     0.338 C 
ATOM     29  O   UNL A   1      32.616  32.358  27.147  1.00  0.00    -0.246 OA
BRANCH  28  30
ATOM     30  C   UNL A   1      34.525  31.050  27.643  1.00  0.00     0.060 A 
ATOM     31  C   UNL A   1      34.836  29.749  28.031  1.00  0.00     0.016 A 
ATOM     32  C   UNL A   1      35.407  32.093  27.908  1.00  0.00     0.016 A 
ATOM     33  C   UNL A   1      36.019  29.470  28.699  1.00  0.00     0.010 A 
ATOM     34  C   UNL A   1      36.617  31.811  28.554  1.00  0.00     0.010 A 
ATOM     35  C   UNL A   1      36.923  30.500  28.968  1.00  0.00    -0.014 A 
BRANCH  35  36
ATOM     36  C   UNL A   1      38.141  30.213  29.764  1.00  0.00     0.031 A 
ATOM     37  C   UNL A   1      39.221  29.358  29.169  1.00  0.00     0.074 A 
ATOM     38  C   UNL A   1      38.301  30.749  30.989  1.00  0.00     0.049 A 
ATOM     39  N   UNL A   1      40.275  28.837  29.741  1.00  0.00    -0.248 NA
ATOM     40  C   UNL A   1      39.095  29.042  27.737  1.00  0.00     0.031 C 
ATOM     41  C   UNL A   1      37.363  31.660  31.645  1.00  0.00     0.029 A 
ATOM     42  N   UNL A   1      39.317  30.603  31.901  1.00  0.00    -0.354 N 
ATOM     43  C   UNL A   1      40.900  28.080  28.758  1.00  0.00     0.074 A 
ATOM     44  C   UNL A   1      40.121  28.224  27.548  1.00  0.00     0.031 C 
ATOM     45  C   UNL A   1      37.852  32.001  32.849  1.00  0.00     0.029 A 
ATOM     46  C   UNL A   1      39.099  31.278  33.077  1.00  0.00     0.049 A 
ATOM     47  H   UNL A   1      40.124  30.066  31.728  1.00  0.00     0.167 HD
ATOM     48  C   UNL A   1      42.017  27.327  28.868  1.00  0.00     0.037 A 
ATOM     49  C   UNL A   1      39.805  31.275  34.225  1.00  0.00     0.037 A 
ATOM     50  C   UNL A   1      42.821  27.241  30.058  1.00  0.00     0.049 A 
ATOM     51  C   UNL A   1      41.038  30.419  34.322  1.00  0.00     0.074 A 
ATOM     52  C   UNL A   1      43.978  26.511  30.269  1.00  0.00     0.029 A 
ATOM     53  N   UNL A   1      42.561  27.929  31.233  1.00  0.00    -0.354 N 
ATOM     54  N   UNL A   1      41.585  29.650  33.413  1.00  0.00    -0.248 NA
ATOM     55  C   UNL A   1      41.741  30.414  35.614  1.00  0.00     0.031 C 
ATOM     56  C   UNL A   1      44.405  26.739  31.582  1.00  0.00     0.029 A 
ATOM     57  C   UNL A   1      43.532  27.636  32.176  1.00  0.00     0.049 A 
ATOM     58  H   UNL A   1      41.798  28.536  31.376  1.00  0.00     0.167 HD
ATOM     59  C   UNL A   1      42.695  29.077  34.016  1.00  0.00     0.074 A 
ATOM     60  C   UNL A   1      42.760  29.605  35.362  1.00  0.00     0.031 C 
ATOM     61  C   UNL A   1      43.578  28.184  33.505  1.00  0.00     0.037 A 
BRANCH  48  62
ATOM     62  C   UNL A   1      42.417  26.499  27.687  1.00  0.00     0.064 A 
ATOM     63  C   UNL A   1      43.400  26.921  26.781  1.00  0.00     0.173 A 
ATOM     64  C   UNL A   1      41.838  25.236  27.490  1.00  0.00     0.173 A 
ATOM     65  F   UNL A   1      43.970  28.126  26.918  1.00  0.00    -0.203 F 
ATOM     66  C   UNL A   1      43.781  26.110  25.713  1.00  0.00     0.198 A 
ATOM     67  C   UNL A   1      42.236  24.420  26.434  1.00  0.00     0.198 A 
ATOM     68  F   UNL A   1      40.891  24.788  28.329  1.00  0.00    -0.203 F 
ATOM     69  F   UNL A   1      44.702  26.544  24.843  1.00  0.00    -0.200 F 
ATOM     70  C   UNL A   1      43.206  24.860  25.546  1.00  0.00     0.200 A 
ATOM     71  F   UNL A   1      41.683  23.209  26.280  1.00  0.00    -0.200 F 
ATOM     72  F   UNL A   1      43.582  24.078  24.526  1.00  0.00    -0.200 F 
ENDBRANCH  48  62
BRANCH  49  73
ATOM     73  C   UNL A   1      39.332  32.065  35.392  1.00  0.00     0.064 A 
ATOM     74  C   UNL A   1      38.492  31.496  36.358  1.00  0.00     0.173 A 
ATOM     75  C   UNL A   1      39.694  33.410  35.553  1.00  0.00     0.173 A 
ATOM     76  F   UNL A   1      38.094  30.222  36.232  1.00  0.00    -0.203 F 
ATOM     77  C   UNL A   1      38.020  32.247  37.434  1.00  0.00     0.198 A 
ATOM     78  C   UNL A   1      39.246  34.152  36.643  1.00  0.00     0.198 A 
ATOM     79  F   UNL A   1      40.492  34.004  34.652  1.00  0.00    -0.203 F 
ATOM     80  F   UNL A   1      37.179  31.693  38.318  1.00  0.00    -0.200 F 
ATOM     81  C   UNL A   1      38.403  33.572  37.578  1.00  0.00     0.200 A 
ATOM     82  F   UNL A   1      39.626  35.429  36.785  1.00  0.00    -0.200 F 
ATOM     83  F   UNL A   1      37.949  34.293  38.613  1.00  0.00    -0.200 F 
ENDBRANCH  49  73
BRANCH  61  84
ATOM     84  C   UNL A   1      44.697  27.745  34.399  1.00  0.00     0.064 A 
ATOM     85  C   UNL A   1      44.598  26.581  35.173  1.00  0.00     0.173 A 
ATOM     86  C   UNL A   1      45.893  28.475  34.450  1.00  0.00     0.173 A 
ATOM     87  F   UNL A   1      43.466  25.860  35.168  1.00  0.00    -0.203 F 
ATOM     88  C   UNL A   1      45.653  26.173  35.984  1.00  0.00     0.198 A 
ATOM     89  C   UNL A   1      46.954  28.051  35.244  1.00  0.00     0.198 A 
ATOM     90  F   UNL A   1      46.035  29.592  33.721  1.00  0.00    -0.203 F 
ATOM     91  F   UNL A   1      45.525  25.078  36.746  1.00  0.00    -0.200 F 
ATOM     92  C   UNL A   1      46.831  26.904  36.014  1.00  0.00     0.200 A 
ATOM     93  F   UNL A   1      48.095  28.754  35.267  1.00  0.00    -0.200 F 
ATOM     94  F   UNL A   1      47.847  26.507  36.793  1.00  0.00    -0.200 F 
ENDBRANCH  61  84
ENDBRANCH  35  36
ENDBRANCH  28  30
ENDBRANCH  27  28
ENDBRANCH  26  27
ENDBRANCH   1  26
TORSDOF 15
ENDMDL
MODEL 2
REMARK VINA RESULT:     -12.3      1.335      2.719
REMARK SMILES COc1ccc(C(=O)OCCOC(=O)c2ccc(-c3c4nc(c(-c5c(F)c(F)c(F)c(F)c5F)c5ccc([nH]5)c(-c5c(F)c(F)c(F)c(F)c5F)c5nc(c(-c6c(F)c(F)c(F)c(F)c6F)c6ccc3[nH]6)C=C5)C=C4)cc2)cc1NC(=O)c1ccccc1[N+](=O)[O-]
REMARK SMILES IDX 10 1 9 2 7 3 8 4 6 5 3 6 4 7 79 8 5 9 78 10 2 11 1 12 80 13
REMARK SMILES IDX 81 14 82 16 83 17 84 18 88 19 85 20 87 21 86 22 89 23 90 24
REMARK SMILES IDX 91 25 11 26 12 27 13 28 14 29 15 30 16 31 77 32 17 33 76 34
REMARK SMILES IDX 18 35 19 36 20 37 70 38 21 39 75 40 69 41 71 42 22 43 74 44
REMARK SMILES IDX 68 45 67 46 23 48 55 49 35 50 54 51 36 52 39 53 53 54 72 55
REMARK SMILES IDX 37 56 38 57 52 59 73 60 40 61 24 62 25 63 33 64 26 65 27 66
REMARK SMILES IDX 31 67 34 68 28 69 29 70 32 71 30 72 56 73 57 74 65 75 58 76
REMARK SMILES IDX 59 77 63 78 66 79 60 80 61 81 64 82 62 83 41 84 42 85 50 86
REMARK SMILES IDX 43 87 44 88 48 89 51 90 45 91 46 92 49 93 47 94
REMARK H PARENT 80 15 71 47 39 58
REMARK Flexibility Score: inf
ROOT
ATOM      1  C   UNL A   1      31.699  28.904  27.316  1.00  0.00     0.275 C 
ENDROOT
BRANCH   1   2
ATOM      2  O   UNL A   1      32.408  27.856  26.627  1.00  0.00    -0.458 OA
BRANCH   2   3
ATOM      3  C   UNL A   1      31.649  26.885  26.062  1.00  0.00     0.338 C 
ATOM      4  O   UNL A   1      30.634  26.396  26.531  1.00  0.00    -0.246 OA
BRANCH   3   5
ATOM      5  C   UNL A   1      32.191  26.495  24.732  1.00  0.00     0.062 A 
ATOM      6  C   UNL A   1      32.990  25.815  22.155  1.00  0.00     0.142 A 
ATOM      7  C   UNL A   1      33.076  27.143  22.571  1.00  0.00     0.049 A 
ATOM      8  C   UNL A   1      32.484  24.825  23.010  1.00  0.00     0.084 A 
ATOM      9  C   UNL A   1      32.602  27.491  23.834  1.00  0.00     0.019 A 
ATOM     10  C   UNL A   1      32.217  25.156  24.335  1.00  0.00     0.045 A 
BRANCH   6  11
ATOM     11  O   UNL A   1      33.413  25.472  20.897  1.00  0.00    -0.495 OA
ATOM     12  C   UNL A   1      32.375  25.638  19.929  1.00  0.00     0.278 C 
ENDBRANCH   6  11
BRANCH   8  13
ATOM     13  N   UNL A   1      32.169  23.577  22.439  1.00  0.00    -0.319 N 
ATOM     14  C   UNL A   1      32.623  22.302  22.692  1.00  0.00     0.262 C 
ATOM     15  H   UNL A   1      31.497  23.625  21.721  1.00  0.00     0.170 HD
ATOM     16  O   UNL A   1      32.184  21.347  22.055  1.00  0.00    -0.269 OA
BRANCH  14  17
ATOM     17  C   UNL A   1      33.665  22.026  23.700  1.00  0.00     0.117 A 
ATOM     18  C   UNL A   1      34.922  22.592  23.436  1.00  0.00     0.021 A 
ATOM     19  C   UNL A   1      33.472  21.323  24.896  1.00  0.00     0.282 A 
ATOM     20  C   UNL A   1      35.943  22.519  24.385  1.00  0.00     0.001 A 
ATOM     21  C   UNL A   1      34.495  21.265  25.860  1.00  0.00     0.086 A 
ATOM     22  C   UNL A   1      35.726  21.873  25.602  1.00  0.00     0.007 A 
BRANCH  19  23
ATOM     23  N   UNL A   1      32.196  20.698  25.215  1.00  0.00     0.063 N 
ATOM     24  O   UNL A   1      32.080  19.491  24.949  1.00  0.00    -0.258 OA
ATOM     25  O   UNL A   1      31.311  21.400  25.715  1.00  0.00    -0.258 OA
ENDBRANCH  19  23
ENDBRANCH  14  17
ENDBRANCH   8  13
ENDBRANCH   3   5
ENDBRANCH   2   3
ENDBRANCH   1   2
BRANCH   1  26
ATOM     26  C   UNL A   1      31.777  30.220  26.542  1.00  0.00     0.275 C 
BRANCH  26  27
ATOM     27  O   UNL A   1      33.151  30.619  26.396  1.00  0.00    -0.458 OA
BRANCH  27  28
ATOM     28  C   UNL A   1      33.547  31.666  27.155  1.00  0.00     0.338 C 
ATOM     29  O   UNL A   1      32.939  32.691  27.400  1.00  0.00    -0.246 OA
BRANCH  28  30
ATOM     30  C   UNL A   1      34.846  31.337  27.759  1.00  0.00     0.060 A 
ATOM     31  C   UNL A   1      35.042  30.040  28.224  1.00  0.00     0.016 A 
ATOM     32  C   UNL A   1      35.821  32.310  27.958  1.00  0.00     0.016 A 
ATOM     33  C   UNL A   1      36.201  29.695  28.905  1.00  0.00     0.010 A 
ATOM     34  C   UNL A   1      37.006  31.960  28.617  1.00  0.00     0.010 A 
ATOM     35  C   UNL A   1      37.196  30.653  29.109  1.00  0.00    -0.014 A 
BRANCH  35  36
ATOM     36  C   UNL A   1      38.390  30.306  29.917  1.00  0.00     0.031 A 
ATOM     37  C   UNL A   1      39.449  29.427  29.320  1.00  0.00     0.074 A 
ATOM     38  C   UNL A   1      38.548  30.808  31.157  1.00  0.00     0.049 A 
ATOM     39  N   UNL A   1      40.475  28.856  29.897  1.00  0.00    -0.248 NA
ATOM     40  C   UNL A   1      39.336  29.149  27.879  1.00  0.00     0.031 C 
ATOM     41  C   UNL A   1      37.631  31.736  31.818  1.00  0.00     0.029 A 
ATOM     42  N   UNL A   1      39.542  30.606  32.082  1.00  0.00    -0.354 N 
ATOM     43  C   UNL A   1      41.089  28.101  28.907  1.00  0.00     0.074 A 
ATOM     44  C   UNL A   1      40.337  28.300  27.687  1.00  0.00     0.031 C 
ATOM     45  C   UNL A   1      38.111  32.032  33.038  1.00  0.00     0.029 A 
ATOM     46  C   UNL A   1      39.327  31.261  33.269  1.00  0.00     0.049 A 
ATOM     47  H   UNL A   1      40.333  30.045  31.909  1.00  0.00     0.167 HD
ATOM     48  C   UNL A   1      42.178  27.306  29.017  1.00  0.00     0.037 A 
ATOM     49  C   UNL A   1      40.013  31.207  34.428  1.00  0.00     0.037 A 
ATOM     50  C   UNL A   1      42.958  27.165  30.218  1.00  0.00     0.049 A 
ATOM     51  C   UNL A   1      41.214  30.306  34.525  1.00  0.00     0.074 A 
ATOM     52  C   UNL A   1      44.085  26.391  30.430  1.00  0.00     0.029 A 
ATOM     53  N   UNL A   1      42.702  27.835  31.404  1.00  0.00    -0.354 N 
ATOM     54  N   UNL A   1      41.749  29.539  33.607  1.00  0.00    -0.248 NA
ATOM     55  C   UNL A   1      41.894  30.247  35.828  1.00  0.00     0.031 C 
ATOM     56  C   UNL A   1      44.497  26.573  31.755  1.00  0.00     0.029 A 
ATOM     57  C   UNL A   1      43.646  27.487  32.355  1.00  0.00     0.049 A 
ATOM     58  H   UNL A   1      41.959  28.465  31.549  1.00  0.00     0.167 HD
ATOM     59  C   UNL A   1      42.828  28.914  34.215  1.00  0.00     0.074 A 
ATOM     60  C   UNL A   1      42.889  29.408  35.574  1.00  0.00     0.031 C 
ATOM     61  C   UNL A   1      43.688  28.002  33.698  1.00  0.00     0.037 A 
BRANCH  48  62
ATOM     62  C   UNL A   1      42.569  26.492  27.823  1.00  0.00     0.064 A 
ATOM     63  C   UNL A   1      43.521  26.939  26.897  1.00  0.00     0.173 A 
ATOM     64  C   UNL A   1      42.013  25.217  27.634  1.00  0.00     0.173 A 
ATOM     65  F   UNL A   1      44.067  28.157  27.026  1.00  0.00    -0.203 F 
ATOM     66  C   UNL A   1      43.896  26.142  25.818  1.00  0.00     0.198 A 
ATOM     67  C   UNL A   1      42.405  24.415  26.566  1.00  0.00     0.198 A 
ATOM     68  F   UNL A   1      41.097  24.745  28.493  1.00  0.00    -0.203 F 
ATOM     69  F   UNL A   1      44.786  26.599  24.928  1.00  0.00    -0.200 F 
ATOM     70  C   UNL A   1      43.345  24.879  25.659  1.00  0.00     0.200 A 
ATOM     71  F   UNL A   1      41.876  23.192  26.420  1.00  0.00    -0.200 F 
ATOM     72  F   UNL A   1      43.714  24.109  24.626  1.00  0.00    -0.200 F 
ENDBRANCH  48  62
BRANCH  49  73
ATOM     73  C   UNL A   1      39.548  31.986  35.605  1.00  0.00     0.064 A 
ATOM     74  C   UNL A   1      40.092  33.243  35.901  1.00  0.00     0.173 A 
ATOM     75  C   UNL A   1      38.567  31.479  36.470  1.00  0.00     0.173 A 
ATOM     76  F   UNL A   1      41.055  33.757  35.122  1.00  0.00    -0.203 F 
ATOM     77  C   UNL A   1      39.682  33.958  37.026  1.00  0.00     0.198 A 
ATOM     78  C   UNL A   1      38.137  32.206  37.577  1.00  0.00     0.198 A 
ATOM     79  F   UNL A   1      38.019  30.278  36.235  1.00  0.00    -0.203 F 
ATOM     80  F   UNL A   1      40.252  35.136  37.314  1.00  0.00    -0.200 F 
ATOM     81  C   UNL A   1      38.700  33.441  37.859  1.00  0.00     0.200 A 
ATOM     82  F   UNL A   1      37.181  31.709  38.374  1.00  0.00    -0.200 F 
ATOM     83  F   UNL A   1      38.307  34.129  38.940  1.00  0.00    -0.200 F 
ENDBRANCH  49  73
BRANCH  61  84
ATOM     84  C   UNL A   1      44.777  27.504  34.599  1.00  0.00     0.064 A 
ATOM     85  C   UNL A   1      45.980  28.206  34.745  1.00  0.00     0.173 A 
ATOM     86  C   UNL A   1      44.596  26.335  35.351  1.00  0.00     0.173 A 
ATOM     87  F   UNL A   1      46.203  29.322  34.033  1.00  0.00    -0.203 F 
ATOM     88  C   UNL A   1      46.975  27.744  35.601  1.00  0.00     0.198 A 
ATOM     89  C   UNL A   1      45.583  25.887  36.222  1.00  0.00     0.198 A 
ATOM     90  F   UNL A   1      43.457  25.633  35.247  1.00  0.00    -0.203 F 
ATOM     91  F   UNL A   1      48.135  28.409  35.699  1.00  0.00    -0.200 F 
ATOM     92  C   UNL A   1      46.774  26.589  36.343  1.00  0.00     0.200 A 
ATOM     93  F   UNL A   1      45.385  24.776  36.945  1.00  0.00    -0.200 F 
ATOM     94  F   UNL A   1      47.732  26.148  37.169  1.00  0.00    -0.200 F 
ENDBRANCH  61  84
ENDBRANCH  35  36
ENDBRANCH  28  30
ENDBRANCH  27  28
ENDBRANCH  26  27
ENDBRANCH   1  26
TORSDOF 15
ENDMDL
MODEL 3
REMARK VINA RESULT:     -12.3      2.193      3.878
REMARK SMILES COc1ccc(C(=O)OCCOC(=O)c2ccc(-c3c4nc(c(-c5c(F)c(F)c(F)c(F)c5F)c5ccc([nH]5)c(-c5c(F)c(F)c(F)c(F)c5F)c5nc(c(-c6c(F)c(F)c(F)c(F)c6F)c6ccc3[nH]6)C=C5)C=C4)cc2)cc1NC(=O)c1ccccc1[N+](=O)[O-]
REMARK SMILES IDX 10 1 9 2 7 3 8 4 6 5 3 6 4 7 79 8 5 9 78 10 2 11 1 12 80 13
REMARK SMILES IDX 81 14 82 16 83 17 84 18 88 19 85 20 87 21 86 22 89 23 90 24
REMARK SMILES IDX 91 25 11 26 12 27 13 28 14 29 15 30 16 31 77 32 17 33 76 34
REMARK SMILES IDX 18 35 19 36 20 37 70 38 21 39 75 40 69 41 71 42 22 43 74 44
REMARK SMILES IDX 68 45 67 46 23 48 55 49 35 50 54 51 36 52 39 53 53 54 72 55
REMARK SMILES IDX 37 56 38 57 52 59 73 60 40 61 24 62 25 63 33 64 26 65 27 66
REMARK SMILES IDX 31 67 34 68 28 69 29 70 32 71 30 72 56 73 57 74 65 75 58 76
REMARK SMILES IDX 59 77 63 78 66 79 60 80 61 81 64 82 62 83 41 84 42 85 50 86
REMARK SMILES IDX 43 87 44 88 48 89 51 90 45 91 46 92 49 93 47 94
REMARK H PARENT 80 15 71 47 39 58
REMARK Flexibility Score: inf
ROOT
ATOM      1  C   UNL A   1      33.651  31.703  27.532  1.00  0.00     0.275 C 
ENDROOT
BRANCH   1   2
ATOM      2  O   UNL A   1      33.004  30.423  27.399  1.00  0.00    -0.458 OA
BRANCH   2   3
ATOM      3  C   UNL A   1      33.576  29.546  26.538  1.00  0.00     0.338 C 
ATOM      4  O   UNL A   1      34.606  28.918  26.723  1.00  0.00    -0.246 OA
BRANCH   3   5
ATOM      5  C   UNL A   1      32.753  29.399  25.307  1.00  0.00     0.062 A 
ATOM      6  C   UNL A   1      31.117  28.930  23.106  1.00  0.00     0.142 A 
ATOM      7  C   UNL A   1      30.628  29.678  24.175  1.00  0.00     0.049 A 
ATOM      8  C   UNL A   1      32.412  28.392  23.137  1.00  0.00     0.084 A 
ATOM      9  C   UNL A   1      31.423  29.844  25.308  1.00  0.00     0.019 A 
ATOM     10  C   UNL A   1      33.261  28.747  24.180  1.00  0.00     0.045 A 
BRANCH   6  11
ATOM     11  O   UNL A   1      30.325  28.725  22.006  1.00  0.00    -0.495 OA
ATOM     12  C   UNL A   1      29.536  29.878  21.704  1.00  0.00     0.278 C 
ENDBRANCH   6  11
BRANCH   8  13
ATOM     13  N   UNL A   1      32.735  27.429  22.162  1.00  0.00    -0.319 N 
ATOM     14  C   UNL A   1      33.047  26.090  22.251  1.00  0.00     0.262 C 
ATOM     15  H   UNL A   1      32.739  27.778  21.242  1.00  0.00     0.170 HD
ATOM     16  O   UNL A   1      33.288  25.439  21.236  1.00  0.00    -0.269 OA
BRANCH  14  17
ATOM     17  C   UNL A   1      33.138  25.389  23.546  1.00  0.00     0.117 A 
ATOM     18  C   UNL A   1      34.428  25.298  24.090  1.00  0.00     0.021 A 
ATOM     19  C   UNL A   1      32.053  24.891  24.279  1.00  0.00     0.282 A 
ATOM     20  C   UNL A   1      34.619  24.785  25.375  1.00  0.00     0.001 A 
ATOM     21  C   UNL A   1      32.242  24.392  25.580  1.00  0.00     0.086 A 
ATOM     22  C   UNL A   1      33.528  24.350  26.126  1.00  0.00     0.007 A 
BRANCH  19  23
ATOM     23  N   UNL A   1      30.694  24.942  23.757  1.00  0.00     0.063 N 
ATOM     24  O   UNL A   1      30.002  25.918  24.087  1.00  0.00    -0.258 OA
ATOM     25  O   UNL A   1      30.312  24.016  23.034  1.00  0.00    -0.258 OA
ENDBRANCH  19  23
ENDBRANCH  14  17
ENDBRANCH   8  13
ENDBRANCH   3   5
ENDBRANCH   2   3
ENDBRANCH   1   2
BRANCH   1  26
ATOM     26  C   UNL A   1      32.624  32.831  27.623  1.00  0.00     0.275 C 
BRANCH  26  27
ATOM     27  O   UNL A   1      33.290  34.104  27.573  1.00  0.00    -0.458 OA
BRANCH  27  28
ATOM     28  C   UNL A   1      33.290  34.817  28.723  1.00  0.00     0.338 C 
ATOM     29  O   UNL A   1      32.473  35.635  29.101  1.00  0.00    -0.246 OA
BRANCH  28  30
ATOM     30  C   UNL A   1      34.425  34.374  29.545  1.00  0.00     0.060 A 
ATOM     31  C   UNL A   1      35.707  34.515  29.021  1.00  0.00     0.016 A 
ATOM     32  C   UNL A   1      34.231  33.736  30.767  1.00  0.00     0.016 A 
ATOM     33  C   UNL A   1      36.811  34.014  29.696  1.00  0.00     0.010 A 
ATOM     34  C   UNL A   1      35.344  33.256  31.467  1.00  0.00     0.010 A 
ATOM     35  C   UNL A   1      36.640  33.378  30.928  1.00  0.00    -0.014 A 
BRANCH  35  36
ATOM     36  C   UNL A   1      37.810  32.762  31.599  1.00  0.00     0.031 A 
ATOM     37  C   UNL A   1      38.531  31.631  30.925  1.00  0.00     0.074 A 
ATOM     38  C   UNL A   1      38.252  33.237  32.779  1.00  0.00     0.049 A 
ATOM     39  N   UNL A   1      39.454  30.836  31.401  1.00  0.00    -0.248 NA
ATOM     40  C   UNL A   1      38.160  31.356  29.528  1.00  0.00     0.031 C 
ATOM     41  C   UNL A   1      37.689  34.381  33.496  1.00  0.00     0.029 A 
ATOM     42  N   UNL A   1      39.282  32.814  33.582  1.00  0.00    -0.354 N 
ATOM     43  C   UNL A   1      39.724  29.927  30.386  1.00  0.00     0.074 A 
ATOM     44  C   UNL A   1      38.886  30.279  29.261  1.00  0.00     0.031 C 
ATOM     45  C   UNL A   1      38.387  34.576  34.627  1.00  0.00     0.029 A 
ATOM     46  C   UNL A   1      39.397  33.530  34.748  1.00  0.00     0.049 A 
ATOM     47  H   UNL A   1      39.880  32.069  33.344  1.00  0.00     0.167 HD
ATOM     48  C   UNL A   1      40.590  28.887  30.405  1.00  0.00     0.037 A 
ATOM     49  C   UNL A   1      40.199  33.334  35.814  1.00  0.00     0.037 A 
ATOM     50  C   UNL A   1      41.466  28.584  31.504  1.00  0.00     0.049 A 
ATOM     51  C   UNL A   1      41.144  32.163  35.811  1.00  0.00     0.074 A 
ATOM     52  C   UNL A   1      42.386  27.557  31.618  1.00  0.00     0.029 A 
ATOM     53  N   UNL A   1      41.544  29.324  32.673  1.00  0.00    -0.354 N 
ATOM     54  N   UNL A   1      41.345  31.265  34.879  1.00  0.00    -0.248 NA
ATOM     55  C   UNL A   1      41.958  31.966  37.020  1.00  0.00     0.031 C 
ATOM     56  C   UNL A   1      43.005  27.662  32.869  1.00  0.00     0.029 A 
ATOM     57  C   UNL A   1      42.494  28.774  33.518  1.00  0.00     0.049 A 
ATOM     58  H   UNL A   1      41.005  30.124  32.874  1.00  0.00     0.167 HD
ATOM     59  C   UNL A   1      42.310  30.403  35.381  1.00  0.00     0.074 A 
ATOM     60  C   UNL A   1      42.673  30.899  36.692  1.00  0.00     0.031 C 
ATOM     61  C   UNL A   1      42.842  29.293  34.813  1.00  0.00     0.037 A 
BRANCH  48  62
ATOM     62  C   UNL A   1      40.604  27.973  29.219  1.00  0.00     0.064 A 
ATOM     63  C   UNL A   1      39.731  26.882  29.111  1.00  0.00     0.173 A 
ATOM     64  C   UNL A   1      41.476  28.228  28.150  1.00  0.00     0.173 A 
ATOM     65  F   UNL A   1      38.891  26.588  30.114  1.00  0.00    -0.203 F 
ATOM     66  C   UNL A   1      39.739  26.072  27.977  1.00  0.00     0.198 A 
ATOM     67  C   UNL A   1      41.467  27.429  27.010  1.00  0.00     0.198 A 
ATOM     68  F   UNL A   1      42.332  29.260  28.207  1.00  0.00    -0.203 F 
ATOM     69  F   UNL A   1      38.917  25.017  27.906  1.00  0.00    -0.200 F 
ATOM     70  C   UNL A   1      40.599  26.351  26.926  1.00  0.00     0.200 A 
ATOM     71  F   UNL A   1      42.294  27.707  25.992  1.00  0.00    -0.200 F 
ATOM     72  F   UNL A   1      40.597  25.578  25.832  1.00  0.00    -0.200 F 
ENDBRANCH  48  62
BRANCH  49  73
ATOM     73  C   UNL A   1      40.103  34.232  36.994  1.00  0.00     0.064 A 
ATOM     74  C   UNL A   1      40.923  35.362  37.112  1.00  0.00     0.173 A 
ATOM     75  C   UNL A   1      39.204  33.967  38.037  1.00  0.00     0.173 A 
ATOM     76  F   UNL A   1      41.820  35.641  36.154  1.00  0.00    -0.203 F 
ATOM     77  C   UNL A   1      40.858  36.184  38.236  1.00  0.00     0.198 A 
ATOM     78  C   UNL A   1      39.119  34.804  39.147  1.00  0.00     0.198 A 
ATOM     79  F   UNL A   1      38.401  32.894  37.976  1.00  0.00    -0.203 F 
ATOM     80  F   UNL A   1      41.687  37.231  38.346  1.00  0.00    -0.200 F 
ATOM     81  C   UNL A   1      39.952  35.908  39.249  1.00  0.00     0.200 A 
ATOM     82  F   UNL A   1      38.235  34.540  40.118  1.00  0.00    -0.200 F 
ATOM     83  F   UNL A   1      39.890  36.699  40.329  1.00  0.00    -0.200 F 
ENDBRANCH  49  73
BRANCH  61  84
ATOM     84  C   UNL A   1      43.886  28.560  35.598  1.00  0.00     0.064 A 
ATOM     85  C   UNL A   1      43.540  27.547  36.503  1.00  0.00     0.173 A 
ATOM     86  C   UNL A   1      45.246  28.847  35.413  1.00  0.00     0.173 A 
ATOM     87  F   UNL A   1      42.250  27.249  36.722  1.00  0.00    -0.203 F 
ATOM     88  C   UNL A   1      44.520  26.859  37.211  1.00  0.00     0.198 A 
ATOM     89  C   UNL A   1      46.224  28.142  36.106  1.00  0.00     0.198 A 
ATOM     90  F   UNL A   1      45.624  29.806  34.554  1.00  0.00    -0.203 F 
ATOM     91  F   UNL A   1      44.168  25.920  38.099  1.00  0.00    -0.200 F 
ATOM     92  C   UNL A   1      45.861  27.152  37.008  1.00  0.00     0.200 A 
ATOM     93  F   UNL A   1      47.520  28.421  35.904  1.00  0.00    -0.200 F 
ATOM     94  F   UNL A   1      46.803  26.486  37.688  1.00  0.00    -0.200 F 
ENDBRANCH  61  84
ENDBRANCH  35  36
ENDBRANCH  28  30
ENDBRANCH  27  28
ENDBRANCH  26  27
ENDBRANCH   1  26
TORSDOF 15
ENDMDL
