MODEL 1
REMARK VINA RESULT:     -11.4      0.000      0.000
REMARK SMILES O=C1OC(c2ccc(Cl)cc2)=N/C1=C/Nc1ccc(O)c(C(=O)OCCOC(=O)c2ccc(-c3c4nc(c(-c5c(F)c(F)c(F)c(F)c5F)c5ccc([nH]5)c(-c5c(F)c(F)c(F)c(F)c5F)c5nc(c(-c6c(F)c(F)c(F)c(F)c6F)c6ccc3[nH]6)C=C5)C=C4)cc2)c1
REMARK SMILES IDX 25 1 24 2 22 3 23 4 21 5 16 6 17 7 93 8 18 9 19 10 15 11
REMARK SMILES IDX 14 13 1 14 2 15 3 16 13 17 4 18 12 19 5 20 6 21 11 22 7 23
REMARK SMILES IDX 10 24 8 25 9 26 20 27 26 29 27 30 28 31 29 32 30 33 31 34
REMARK SMILES IDX 92 35 32 36 91 37 33 38 34 39 35 40 85 41 36 42 90 43 84 44
REMARK SMILES IDX 86 45 37 46 89 47 83 48 82 49 38 51 70 52 50 53 69 54 51 55
REMARK SMILES IDX 54 56 68 57 87 58 52 59 53 60 67 62 88 63 55 64 39 65 40 66
REMARK SMILES IDX 48 67 41 68 42 69 46 70 49 71 43 72 44 73 47 74 45 75 71 76
REMARK SMILES IDX 72 77 80 78 73 79 74 80 78 81 81 82 75 83 76 84 79 85 77 86
REMARK SMILES IDX 56 87 57 88 65 89 58 90 59 91 63 92 66 93 60 94 61 95 64 96
REMARK SMILES IDX 62 97
REMARK H PARENT 15 12 20 28 86 50 54 61
REMARK Flexibility Score: inf
ROOT
ATOM      1  C   UNL A   1      41.364  20.095  27.283  1.00  0.00     0.275 C 
ENDROOT
BRANCH   1   2
ATOM      2  O   UNL A   1      41.806  19.903  25.923  1.00  0.00    -0.458 OA
BRANCH   2   3
ATOM      3  C   UNL A   1      42.815  19.016  25.744  1.00  0.00     0.342 C 
ATOM      4  O   UNL A   1      42.712  17.796  25.757  1.00  0.00    -0.246 OA
BRANCH   3   5
ATOM      5  C   UNL A   1      44.089  19.682  25.394  1.00  0.00     0.103 A 
ATOM      6  C   UNL A   1      45.151  21.708  24.505  1.00  0.00     0.039 A 
ATOM      7  C   UNL A   1      46.359  21.016  24.443  1.00  0.00     0.030 A 
ATOM      8  C   UNL A   1      44.025  21.012  24.947  1.00  0.00     0.045 A 
ATOM      9  C   UNL A   1      46.450  19.690  24.892  1.00  0.00     0.049 A 
ATOM     10  C   UNL A   1      45.317  19.027  25.375  1.00  0.00     0.130 A 
BRANCH   6  11
ATOM     11  N   UNL A   1      44.994  23.025  24.055  1.00  0.00    -0.360 N 
ATOM     12  H   UNL A   1      45.452  23.266  23.218  1.00  0.00     0.166 HD
BRANCH  11  13
ATOM     13  C   UNL A   1      44.265  24.015  24.666  1.00  0.00     0.119 C 
ATOM     14  O   UNL A   1      47.065  25.141  24.633  1.00  0.00    -0.244 OA
ATOM     15  C   UNL A   1      46.076  25.690  25.083  1.00  0.00     0.365 C 
ATOM     16  O   UNL A   1      45.984  26.936  25.631  1.00  0.00    -0.402 OA
ATOM     17  C   UNL A   1      44.681  25.183  25.172  1.00  0.00     0.168 C 
ATOM     18  C   UNL A   1      44.699  27.069  26.032  1.00  0.00     0.231 C 
ATOM     19  N   UNL A   1      43.883  26.090  25.817  1.00  0.00    -0.204 NA
BRANCH  18  20
ATOM     20  C   UNL A   1      44.381  28.324  26.708  1.00  0.00     0.037 A 
ATOM     21  C   UNL A   1      43.112  28.896  26.569  1.00  0.00     0.015 A 
ATOM     22  C   UNL A   1      45.334  28.901  27.553  1.00  0.00     0.015 A 
ATOM     23  C   UNL A   1      42.795  30.049  27.294  1.00  0.00     0.021 A 
ATOM     24  C   UNL A   1      45.019  30.064  28.260  1.00  0.00     0.021 A 
ATOM     25  C   UNL A   1      43.748  30.628  28.134  1.00  0.00     0.041 A 
ATOM     26  Cl  UNL A   1      43.349  32.038  29.034  1.00  0.00    -0.084 Cl
ENDBRANCH  18  20
ENDBRANCH  11  13
ENDBRANCH   6  11
BRANCH  10  27
ATOM     27  O   UNL A   1      45.413  17.723  25.766  1.00  0.00    -0.507 OA
ATOM     28  H   UNL A   1      44.636  17.228  25.939  1.00  0.00     0.293 HD
ENDBRANCH  10  27
ENDBRANCH   3   5
ENDBRANCH   2   3
ENDBRANCH   1   2
BRANCH   1  29
ATOM     29  C   UNL A   1      40.783  21.495  27.489  1.00  0.00     0.275 C 
BRANCH  29  30
ATOM     30  O   UNL A   1      40.508  22.123  26.224  1.00  0.00    -0.458 OA
BRANCH  30  31
ATOM     31  C   UNL A   1      39.308  22.737  26.152  1.00  0.00     0.338 C 
ATOM     32  O   UNL A   1      38.267  22.301  25.691  1.00  0.00    -0.246 OA
BRANCH  31  33
ATOM     33  C   UNL A   1      39.366  24.045  26.815  1.00  0.00     0.060 A 
ATOM     34  C   UNL A   1      40.182  25.014  26.251  1.00  0.00     0.016 A 
ATOM     35  C   UNL A   1      38.833  24.234  28.085  1.00  0.00     0.016 A 
ATOM     36  C   UNL A   1      40.627  26.086  27.015  1.00  0.00     0.010 A 
ATOM     37  C   UNL A   1      39.151  25.400  28.793  1.00  0.00     0.010 A 
ATOM     38  C   UNL A   1      40.101  26.314  28.292  1.00  0.00    -0.014 A 
BRANCH  38  39
ATOM     39  C   UNL A   1      40.559  27.482  29.100  1.00  0.00     0.031 A 
ATOM     40  C   UNL A   1      41.942  27.497  29.704  1.00  0.00     0.074 A 
ATOM     41  C   UNL A   1      39.743  28.540  29.294  1.00  0.00     0.049 A 
ATOM     42  N   UNL A   1      42.451  28.308  30.600  1.00  0.00    -0.248 NA
ATOM     43  C   UNL A   1      42.869  26.442  29.264  1.00  0.00     0.031 C 
ATOM     44  C   UNL A   1      38.397  28.688  28.736  1.00  0.00     0.029 A 
ATOM     45  N   UNL A   1      39.924  29.695  30.016  1.00  0.00    -0.354 N 
ATOM     46  C   UNL A   1      43.727  27.827  30.869  1.00  0.00     0.074 A 
ATOM     47  C   UNL A   1      43.909  26.640  30.062  1.00  0.00     0.031 C 
ATOM     48  C   UNL A   1      37.895  29.877  29.095  1.00  0.00     0.029 A 
ATOM     49  C   UNL A   1      38.830  30.525  30.004  1.00  0.00     0.049 A 
ATOM     50  H   UNL A   1      40.758  29.907  30.495  1.00  0.00     0.167 HD
ATOM     51  C   UNL A   1      44.662  28.334  31.710  1.00  0.00     0.037 A 
ATOM     52  C   UNL A   1      38.573  31.655  30.691  1.00  0.00     0.037 A 
ATOM     53  C   UNL A   1      44.494  29.550  32.465  1.00  0.00     0.049 A 
ATOM     54  C   UNL A   1      39.602  32.167  31.658  1.00  0.00     0.074 A 
ATOM     55  C   UNL A   1      45.387  30.165  33.324  1.00  0.00     0.029 A 
ATOM     56  N   UNL A   1      43.355  30.345  32.440  1.00  0.00    -0.354 N 
ATOM     57  N   UNL A   1      40.790  31.687  31.934  1.00  0.00    -0.248 NA
ATOM     58  C   UNL A   1      39.249  33.371  32.420  1.00  0.00     0.031 C 
ATOM     59  C   UNL A   1      44.770  31.298  33.865  1.00  0.00     0.029 A 
ATOM     60  C   UNL A   1      43.515  31.428  33.291  1.00  0.00     0.049 A 
ATOM     61  H   UNL A   1      42.552  30.164  31.900  1.00  0.00     0.167 HD
ATOM     62  C   UNL A   1      41.334  32.539  32.883  1.00  0.00     0.074 A 
ATOM     63  C   UNL A   1      40.355  33.580  33.119  1.00  0.00     0.031 C 
ATOM     64  C   UNL A   1      42.536  32.464  33.506  1.00  0.00     0.037 A 
BRANCH  51  65
ATOM     65  C   UNL A   1      45.939  27.559  31.894  1.00  0.00     0.064 A 
ATOM     66  C   UNL A   1      47.132  27.916  31.246  1.00  0.00     0.173 A 
ATOM     67  C   UNL A   1      45.975  26.458  32.766  1.00  0.00     0.173 A 
ATOM     68  F   UNL A   1      47.157  28.954  30.398  1.00  0.00    -0.203 F 
ATOM     69  C   UNL A   1      48.301  27.180  31.438  1.00  0.00     0.198 A 
ATOM     70  C   UNL A   1      47.154  25.749  32.984  1.00  0.00     0.198 A 
ATOM     71  F   UNL A   1      44.868  26.078  33.422  1.00  0.00    -0.203 F 
ATOM     72  F   UNL A   1      49.414  27.508  30.767  1.00  0.00    -0.200 F 
ATOM     73  C   UNL A   1      48.313  26.103  32.313  1.00  0.00     0.200 A 
ATOM     74  F   UNL A   1      47.166  24.721  33.845  1.00  0.00    -0.200 F 
ATOM     75  F   UNL A   1      49.440  25.404  32.503  1.00  0.00    -0.200 F 
ENDBRANCH  51  65
BRANCH  52  76
ATOM     76  C   UNL A   1      37.267  32.346  30.522  1.00  0.00     0.064 A 
ATOM     77  C   UNL A   1      36.231  32.168  31.449  1.00  0.00     0.173 A 
ATOM     78  C   UNL A   1      37.025  33.200  29.434  1.00  0.00     0.173 A 
ATOM     79  F   UNL A   1      36.402  31.346  32.495  1.00  0.00    -0.203 F 
ATOM     80  C   UNL A   1      35.000  32.800  31.283  1.00  0.00     0.198 A 
ATOM     81  C   UNL A   1      35.809  33.861  29.290  1.00  0.00     0.198 A 
ATOM     82  F   UNL A   1      37.983  33.409  28.517  1.00  0.00    -0.203 F 
ATOM     83  F   UNL A   1      34.010  32.570  32.157  1.00  0.00    -0.200 F 
ATOM     84  C   UNL A   1      34.792  33.653  30.209  1.00  0.00     0.200 A 
ATOM     85  F   UNL A   1      35.622  34.701  28.262  1.00  0.00    -0.200 F 
ATOM     86  F   UNL A   1      33.613  34.267  30.057  1.00  0.00    -0.200 F 
ENDBRANCH  52  76
BRANCH  64  87
ATOM     87  C   UNL A   1      42.880  33.567  34.465  1.00  0.00     0.064 A 
ATOM     88  C   UNL A   1      43.546  34.728  34.050  1.00  0.00     0.173 A 
ATOM     89  C   UNL A   1      42.506  33.470  35.814  1.00  0.00     0.173 A 
ATOM     90  F   UNL A   1      43.942  34.862  32.775  1.00  0.00    -0.203 F 
ATOM     91  C   UNL A   1      43.853  35.739  34.957  1.00  0.00     0.198 A 
ATOM     92  C   UNL A   1      42.780  34.499  36.709  1.00  0.00     0.198 A 
ATOM     93  F   UNL A   1      41.862  32.382  36.263  1.00  0.00    -0.203 F 
ATOM     94  F   UNL A   1      44.540  36.816  34.550  1.00  0.00    -0.200 F 
ATOM     95  C   UNL A   1      43.462  35.629  36.283  1.00  0.00     0.200 A 
ATOM     96  F   UNL A   1      42.389  34.396  37.987  1.00  0.00    -0.200 F 
ATOM     97  F   UNL A   1      43.750  36.607  37.152  1.00  0.00    -0.200 F 
ENDBRANCH  64  87
ENDBRANCH  38  39
ENDBRANCH  31  33
ENDBRANCH  30  31
ENDBRANCH  29  30
ENDBRANCH   1  29
TORSDOF 15
ENDMDL
MODEL 2
REMARK VINA RESULT:     -11.3      4.840     11.665
REMARK SMILES O=C1OC(c2ccc(Cl)cc2)=N/C1=C/Nc1ccc(O)c(C(=O)OCCOC(=O)c2ccc(-c3c4nc(c(-c5c(F)c(F)c(F)c(F)c5F)c5ccc([nH]5)c(-c5c(F)c(F)c(F)c(F)c5F)c5nc(c(-c6c(F)c(F)c(F)c(F)c6F)c6ccc3[nH]6)C=C5)C=C4)cc2)c1
REMARK SMILES IDX 25 1 24 2 22 3 23 4 21 5 16 6 17 7 93 8 18 9 19 10 15 11
REMARK SMILES IDX 14 13 1 14 2 15 3 16 13 17 4 18 12 19 5 20 6 21 11 22 7 23
REMARK SMILES IDX 10 24 8 25 9 26 20 27 26 29 27 30 28 31 29 32 30 33 31 34
REMARK SMILES IDX 92 35 32 36 91 37 33 38 34 39 35 40 85 41 36 42 90 43 84 44
REMARK SMILES IDX 86 45 37 46 89 47 83 48 82 49 38 51 70 52 50 53 69 54 51 55
REMARK SMILES IDX 54 56 68 57 87 58 52 59 53 60 67 62 88 63 55 64 39 65 40 66
REMARK SMILES IDX 48 67 41 68 42 69 46 70 49 71 43 72 44 73 47 74 45 75 71 76
REMARK SMILES IDX 72 77 80 78 73 79 74 80 78 81 81 82 75 83 76 84 79 85 77 86
REMARK SMILES IDX 56 87 57 88 65 89 58 90 59 91 63 92 66 93 60 94 61 95 64 96
REMARK SMILES IDX 62 97
REMARK H PARENT 15 12 20 28 86 50 54 61
REMARK Flexibility Score: inf
ROOT
ATOM      1  C   UNL A   1      33.781  33.962  28.230  1.00  0.00     0.275 C 
ENDROOT
BRANCH   1   2
ATOM      2  O   UNL A   1      34.193  35.144  28.947  1.00  0.00    -0.458 OA
BRANCH   2   3
ATOM      3  C   UNL A   1      33.207  35.850  29.552  1.00  0.00     0.342 C 
ATOM      4  O   UNL A   1      32.114  36.119  29.071  1.00  0.00    -0.246 OA
BRANCH   3   5
ATOM      5  C   UNL A   1      33.536  36.176  30.958  1.00  0.00     0.103 A 
ATOM      6  C   UNL A   1      34.085  35.290  33.179  1.00  0.00     0.039 A 
ATOM      7  C   UNL A   1      33.929  36.573  33.701  1.00  0.00     0.030 A 
ATOM      8  C   UNL A   1      33.849  35.110  31.816  1.00  0.00     0.045 A 
ATOM      9  C   UNL A   1      33.626  37.657  32.862  1.00  0.00     0.049 A 
ATOM     10  C   UNL A   1      33.438  37.458  31.490  1.00  0.00     0.130 A 
BRANCH   6  11
ATOM     11  N   UNL A   1      34.369  34.168  33.968  1.00  0.00    -0.360 N 
ATOM     12  H   UNL A   1      33.599  33.670  34.324  1.00  0.00     0.166 HD
BRANCH  11  13
ATOM     13  C   UNL A   1      35.615  33.694  34.295  1.00  0.00     0.119 C 
ATOM     14  O   UNL A   1      34.767  31.896  32.024  1.00  0.00    -0.244 OA
ATOM     15  C   UNL A   1      35.823  31.840  32.627  1.00  0.00     0.365 C 
ATOM     16  O   UNL A   1      36.875  31.000  32.404  1.00  0.00    -0.402 OA
ATOM     17  C   UNL A   1      36.289  32.660  33.778  1.00  0.00     0.168 C 
ATOM     18  C   UNL A   1      37.785  31.285  33.363  1.00  0.00     0.231 C 
ATOM     19  N   UNL A   1      37.514  32.224  34.209  1.00  0.00    -0.204 NA
BRANCH  18  20
ATOM     20  C   UNL A   1      38.987  30.455  33.351  1.00  0.00     0.037 A 
ATOM     21  C   UNL A   1      38.938  29.152  32.846  1.00  0.00     0.015 A 
ATOM     22  C   UNL A   1      40.198  31.008  33.779  1.00  0.00     0.015 A 
ATOM     23  C   UNL A   1      40.115  28.404  32.759  1.00  0.00     0.021 A 
ATOM     24  C   UNL A   1      41.369  30.249  33.709  1.00  0.00     0.021 A 
ATOM     25  C   UNL A   1      41.324  28.954  33.190  1.00  0.00     0.041 A 
ATOM     26  Cl  UNL A   1      42.772  28.034  33.069  1.00  0.00    -0.084 Cl
ENDBRANCH  18  20
ENDBRANCH  11  13
ENDBRANCH   6  11
BRANCH  10  27
ATOM     27  O   UNL A   1      33.100  38.515  30.695  1.00  0.00    -0.507 OA
ATOM     28  H   UNL A   1      32.707  38.364  29.858  1.00  0.00     0.293 HD
ENDBRANCH  10  27
ENDBRANCH   3   5
ENDBRANCH   2   3
ENDBRANCH   1   2
BRANCH   1  29
ATOM     29  C   UNL A   1      34.877  32.896  28.232  1.00  0.00     0.275 C 
BRANCH  29  30
ATOM     30  O   UNL A   1      34.404  31.681  28.840  1.00  0.00    -0.458 OA
BRANCH  30  31
ATOM     31  C   UNL A   1      34.447  30.598  28.034  1.00  0.00     0.338 C 
ATOM     32  O   UNL A   1      33.582  30.190  27.278  1.00  0.00    -0.246 OA
BRANCH  31  33
ATOM     33  C   UNL A   1      35.771  29.968  28.099  1.00  0.00     0.060 A 
ATOM     34  C   UNL A   1      36.179  29.457  29.322  1.00  0.00     0.016 A 
ATOM     35  C   UNL A   1      36.683  30.095  27.057  1.00  0.00     0.016 A 
ATOM     36  C   UNL A   1      37.528  29.250  29.580  1.00  0.00     0.010 A 
ATOM     37  C   UNL A   1      38.017  29.727  27.268  1.00  0.00     0.010 A 
ATOM     38  C   UNL A   1      38.471  29.356  28.550  1.00  0.00    -0.014 A 
BRANCH  38  39
ATOM     39  C   UNL A   1      39.917  29.104  28.822  1.00  0.00     0.031 A 
ATOM     40  C   UNL A   1      40.758  30.151  29.509  1.00  0.00     0.074 A 
ATOM     41  C   UNL A   1      40.485  27.934  28.460  1.00  0.00     0.049 A 
ATOM     42  N   UNL A   1      42.061  30.215  29.646  1.00  0.00    -0.248 NA
ATOM     43  C   UNL A   1      40.043  31.297  30.094  1.00  0.00     0.031 C 
ATOM     44  C   UNL A   1      39.790  26.811  27.830  1.00  0.00     0.029 A 
ATOM     45  N   UNL A   1      41.782  27.492  28.570  1.00  0.00    -0.354 N 
ATOM     46  C   UNL A   1      42.319  31.426  30.279  1.00  0.00     0.074 A 
ATOM     47  C   UNL A   1      41.043  32.079  30.476  1.00  0.00     0.031 C 
ATOM     48  C   UNL A   1      40.649  25.799  27.651  1.00  0.00     0.029 A 
ATOM     49  C   UNL A   1      41.980  26.239  28.043  1.00  0.00     0.049 A 
ATOM     50  H   UNL A   1      42.500  28.023  28.987  1.00  0.00     0.167 HD
ATOM     51  C   UNL A   1      43.514  31.942  30.662  1.00  0.00     0.037 A 
ATOM     52  C   UNL A   1      43.112  25.538  27.839  1.00  0.00     0.037 A 
ATOM     53  C   UNL A   1      44.773  31.258  30.514  1.00  0.00     0.049 A 
ATOM     54  C   UNL A   1      44.427  26.153  28.222  1.00  0.00     0.074 A 
ATOM     55  C   UNL A   1      46.036  31.679  30.892  1.00  0.00     0.029 A 
ATOM     56  N   UNL A   1      44.927  29.998  29.949  1.00  0.00    -0.354 N 
ATOM     57  N   UNL A   1      44.666  27.312  28.785  1.00  0.00    -0.248 NA
ATOM     58  C   UNL A   1      45.632  25.369  27.928  1.00  0.00     0.031 C 
ATOM     59  C   UNL A   1      46.960  30.704  30.505  1.00  0.00     0.029 A 
ATOM     60  C   UNL A   1      46.267  29.641  29.946  1.00  0.00     0.049 A 
ATOM     61  H   UNL A   1      44.193  29.441  29.601  1.00  0.00     0.167 HD
ATOM     62  C   UNL A   1      46.043  27.387  28.933  1.00  0.00     0.074 A 
ATOM     63  C   UNL A   1      46.586  26.146  28.420  1.00  0.00     0.031 C 
ATOM     64  C   UNL A   1      46.791  28.397  29.443  1.00  0.00     0.037 A 
BRANCH  51  65
ATOM     65  C   UNL A   1      43.527  33.329  31.244  1.00  0.00     0.064 A 
ATOM     66  C   UNL A   1      43.552  33.561  32.628  1.00  0.00     0.173 A 
ATOM     67  C   UNL A   1      43.553  34.449  30.395  1.00  0.00     0.173 A 
ATOM     68  F   UNL A   1      43.523  32.532  33.487  1.00  0.00    -0.203 F 
ATOM     69  C   UNL A   1      43.567  34.858  33.139  1.00  0.00     0.198 A 
ATOM     70  C   UNL A   1      43.606  35.742  30.910  1.00  0.00     0.198 A 
ATOM     71  F   UNL A   1      43.543  34.289  29.064  1.00  0.00    -0.203 F 
ATOM     72  F   UNL A   1      43.536  35.055  34.465  1.00  0.00    -0.200 F 
ATOM     73  C   UNL A   1      43.602  35.947  32.280  1.00  0.00     0.200 A 
ATOM     74  F   UNL A   1      43.660  36.791  30.076  1.00  0.00    -0.200 F 
ATOM     75  F   UNL A   1      43.626  37.192  32.773  1.00  0.00    -0.200 F 
ENDBRANCH  51  65
BRANCH  52  76
ATOM     76  C   UNL A   1      43.049  24.197  27.198  1.00  0.00     0.064 A 
ATOM     77  C   UNL A   1      42.685  23.061  27.934  1.00  0.00     0.173 A 
ATOM     78  C   UNL A   1      43.348  24.021  25.837  1.00  0.00     0.173 A 
ATOM     79  F   UNL A   1      42.410  23.171  29.242  1.00  0.00    -0.203 F 
ATOM     80  C   UNL A   1      42.643  21.802  27.341  1.00  0.00     0.198 A 
ATOM     81  C   UNL A   1      43.268  22.768  25.236  1.00  0.00     0.198 A 
ATOM     82  F   UNL A   1      43.700  25.074  25.084  1.00  0.00    -0.203 F 
ATOM     83  F   UNL A   1      42.343  20.726  28.080  1.00  0.00    -0.200 F 
ATOM     84  C   UNL A   1      42.926  21.657  25.990  1.00  0.00     0.200 A 
ATOM     85  F   UNL A   1      43.521  22.638  23.926  1.00  0.00    -0.200 F 
ATOM     86  F   UNL A   1      42.875  20.447  25.418  1.00  0.00    -0.200 F 
ENDBRANCH  52  76
BRANCH  64  87
ATOM     87  C   UNL A   1      48.274  28.177  29.520  1.00  0.00     0.064 A 
ATOM     88  C   UNL A   1      49.137  28.582  28.492  1.00  0.00     0.173 A 
ATOM     89  C   UNL A   1      48.841  27.581  30.657  1.00  0.00     0.173 A 
ATOM     90  F   UNL A   1      48.645  29.141  27.376  1.00  0.00    -0.203 F 
ATOM     91  C   UNL A   1      50.510  28.371  28.586  1.00  0.00     0.198 A 
ATOM     92  C   UNL A   1      50.217  27.405  30.764  1.00  0.00     0.198 A 
ATOM     93  F   UNL A   1      48.061  27.179  31.672  1.00  0.00    -0.203 F 
ATOM     94  F   UNL A   1      51.310  28.714  27.567  1.00  0.00    -0.200 F 
ATOM     95  C   UNL A   1      51.050  27.791  29.725  1.00  0.00     0.200 A 
ATOM     96  F   UNL A   1      50.737  26.858  31.871  1.00  0.00    -0.200 F 
ATOM     97  F   UNL A   1      52.372  27.597  29.817  1.00  0.00    -0.200 F 
ENDBRANCH  64  87
ENDBRANCH  38  39
ENDBRANCH  31  33
ENDBRANCH  30  31
ENDBRANCH  29  30
ENDBRANCH   1  29
TORSDOF 15
ENDMDL
MODEL 3
REMARK VINA RESULT:     -11.2      3.247      5.290
REMARK SMILES O=C1OC(c2ccc(Cl)cc2)=N/C1=C/Nc1ccc(O)c(C(=O)OCCOC(=O)c2ccc(-c3c4nc(c(-c5c(F)c(F)c(F)c(F)c5F)c5ccc([nH]5)c(-c5c(F)c(F)c(F)c(F)c5F)c5nc(c(-c6c(F)c(F)c(F)c(F)c6F)c6ccc3[nH]6)C=C5)C=C4)cc2)c1
REMARK SMILES IDX 25 1 24 2 22 3 23 4 21 5 16 6 17 7 93 8 18 9 19 10 15 11
REMARK SMILES IDX 14 13 1 14 2 15 3 16 13 17 4 18 12 19 5 20 6 21 11 22 7 23
REMARK SMILES IDX 10 24 8 25 9 26 20 27 26 29 27 30 28 31 29 32 30 33 31 34
REMARK SMILES IDX 92 35 32 36 91 37 33 38 34 39 35 40 85 41 36 42 90 43 84 44
REMARK SMILES IDX 86 45 37 46 89 47 83 48 82 49 38 51 70 52 50 53 69 54 51 55
REMARK SMILES IDX 54 56 68 57 87 58 52 59 53 60 67 62 88 63 55 64 39 65 40 66
REMARK SMILES IDX 48 67 41 68 42 69 46 70 49 71 43 72 44 73 47 74 45 75 71 76
REMARK SMILES IDX 72 77 80 78 73 79 74 80 78 81 81 82 75 83 76 84 79 85 77 86
REMARK SMILES IDX 56 87 57 88 65 89 58 90 59 91 63 92 66 93 60 94 61 95 64 96
REMARK SMILES IDX 62 97
REMARK H PARENT 15 12 20 28 86 50 54 61
REMARK Flexibility Score: inf
ROOT
ATOM      1  C   UNL A   1      46.649  23.955  26.083  1.00  0.00     0.275 C 
ENDROOT
BRANCH   1   2
ATOM      2  O   UNL A   1      46.231  22.574  26.074  1.00  0.00    -0.458 OA
BRANCH   2   3
ATOM      3  C   UNL A   1      45.755  22.103  24.895  1.00  0.00     0.342 C 
ATOM      4  O   UNL A   1      46.078  22.493  23.781  1.00  0.00    -0.246 OA
BRANCH   3   5
ATOM      5  C   UNL A   1      44.860  20.939  25.080  1.00  0.00     0.103 A 
ATOM      6  C   UNL A   1      42.835  20.078  26.167  1.00  0.00     0.039 A 
ATOM      7  C   UNL A   1      43.189  18.796  25.752  1.00  0.00     0.030 A 
ATOM      8  C   UNL A   1      43.702  21.125  25.852  1.00  0.00     0.045 A 
ATOM      9  C   UNL A   1      44.336  18.585  24.972  1.00  0.00     0.049 A 
ATOM     10  C   UNL A   1      45.167  19.658  24.629  1.00  0.00     0.130 A 
BRANCH   6  11
ATOM     11  N   UNL A   1      41.714  20.348  26.961  1.00  0.00    -0.360 N 
ATOM     12  H   UNL A   1      41.542  19.733  27.710  1.00  0.00     0.166 HD
BRANCH  11  13
ATOM     13  C   UNL A   1      40.830  21.386  26.800  1.00  0.00     0.119 C 
ATOM     14  O   UNL A   1      39.474  19.097  25.376  1.00  0.00    -0.244 OA
ATOM     15  C   UNL A   1      39.039  20.228  25.491  1.00  0.00     0.365 C 
ATOM     16  O   UNL A   1      37.843  20.717  25.054  1.00  0.00    -0.402 OA
ATOM     17  C   UNL A   1      39.667  21.411  26.138  1.00  0.00     0.168 C 
ATOM     18  C   UNL A   1      37.844  22.033  25.369  1.00  0.00     0.231 C 
ATOM     19  N   UNL A   1      38.873  22.517  25.985  1.00  0.00    -0.204 NA
BRANCH  18  20
ATOM     20  C   UNL A   1      36.666  22.781  24.938  1.00  0.00     0.037 A 
ATOM     21  C   UNL A   1      36.100  23.746  25.776  1.00  0.00     0.015 A 
ATOM     22  C   UNL A   1      36.164  22.572  23.650  1.00  0.00     0.015 A 
ATOM     23  C   UNL A   1      35.029  24.515  25.313  1.00  0.00     0.021 A 
ATOM     24  C   UNL A   1      35.080  23.329  23.199  1.00  0.00     0.021 A 
ATOM     25  C   UNL A   1      34.523  24.304  24.028  1.00  0.00     0.041 A 
ATOM     26  Cl  UNL A   1      33.213  25.262  23.458  1.00  0.00    -0.084 Cl
ENDBRANCH  18  20
ENDBRANCH  11  13
ENDBRANCH   6  11
BRANCH  10  27
ATOM     27  O   UNL A   1      46.302  19.430  23.908  1.00  0.00    -0.507 OA
ATOM     28  H   UNL A   1      47.135  19.682  24.255  1.00  0.00     0.293 HD
ENDBRANCH  10  27
ENDBRANCH   3   5
ENDBRANCH   2   3
ENDBRANCH   1   2
BRANCH   1  29
ATOM     29  C   UNL A   1      45.476  24.891  26.376  1.00  0.00     0.275 C 
BRANCH  29  30
ATOM     30  O   UNL A   1      44.796  25.249  25.159  1.00  0.00    -0.458 OA
BRANCH  30  31
ATOM     31  C   UNL A   1      43.492  24.902  25.123  1.00  0.00     0.338 C 
ATOM     32  O   UNL A   1      42.973  23.999  24.489  1.00  0.00    -0.246 OA
BRANCH  31  33
ATOM     33  C   UNL A   1      42.719  25.723  26.064  1.00  0.00     0.060 A 
ATOM     34  C   UNL A   1      42.971  27.087  26.079  1.00  0.00     0.016 A 
ATOM     35  C   UNL A   1      41.955  25.142  27.069  1.00  0.00     0.016 A 
ATOM     36  C   UNL A   1      42.629  27.849  27.188  1.00  0.00     0.010 A 
ATOM     37  C   UNL A   1      41.467  25.947  28.106  1.00  0.00     0.010 A 
ATOM     38  C   UNL A   1      41.847  27.300  28.212  1.00  0.00    -0.014 A 
BRANCH  38  39
ATOM     39  C   UNL A   1      41.455  28.130  29.390  1.00  0.00     0.031 A 
ATOM     40  C   UNL A   1      42.230  28.036  30.681  1.00  0.00     0.074 A 
ATOM     41  C   UNL A   1      40.407  28.976  29.310  1.00  0.00     0.049 A 
ATOM     42  N   UNL A   1      41.931  28.505  31.869  1.00  0.00    -0.248 NA
ATOM     43  C   UNL A   1      43.497  27.289  30.641  1.00  0.00     0.031 C 
ATOM     44  C   UNL A   1      39.591  29.207  28.116  1.00  0.00     0.029 A 
ATOM     45  N   UNL A   1      39.843  29.801  30.253  1.00  0.00    -0.354 N 
ATOM     46  C   UNL A   1      42.938  28.063  32.719  1.00  0.00     0.074 A 
ATOM     47  C   UNL A   1      43.845  27.267  31.920  1.00  0.00     0.031 C 
ATOM     48  C   UNL A   1      38.668  30.141  28.382  1.00  0.00     0.029 A 
ATOM     49  C   UNL A   1      38.746  30.489  29.793  1.00  0.00     0.049 A 
ATOM     50  H   UNL A   1      40.192  29.892  31.169  1.00  0.00     0.167 HD
ATOM     51  C   UNL A   1      43.091  28.304  34.045  1.00  0.00     0.037 A 
ATOM     52  C   UNL A   1      37.860  31.268  30.441  1.00  0.00     0.037 A 
ATOM     53  C   UNL A   1      42.215  29.147  34.819  1.00  0.00     0.049 A 
ATOM     54  C   UNL A   1      38.020  31.477  31.920  1.00  0.00     0.074 A 
ATOM     55  C   UNL A   1      42.296  29.478  36.160  1.00  0.00     0.029 A 
ATOM     56  N   UNL A   1      41.099  29.802  34.314  1.00  0.00    -0.354 N 
ATOM     57  N   UNL A   1      38.952  31.026  32.723  1.00  0.00    -0.248 NA
ATOM     58  C   UNL A   1      36.996  32.290  32.586  1.00  0.00     0.031 C 
ATOM     59  C   UNL A   1      41.200  30.285  36.481  1.00  0.00     0.029 A 
ATOM     60  C   UNL A   1      40.470  30.513  35.325  1.00  0.00     0.049 A 
ATOM     61  H   UNL A   1      40.799  29.766  33.377  1.00  0.00     0.167 HD
ATOM     62  C   UNL A   1      38.641  31.518  33.982  1.00  0.00     0.074 A 
ATOM     63  C   UNL A   1      37.445  32.320  33.832  1.00  0.00     0.031 C 
ATOM     64  C   UNL A   1      39.287  31.318  35.158  1.00  0.00     0.037 A 
BRANCH  51  65
ATOM     65  C   UNL A   1      44.226  27.620  34.758  1.00  0.00     0.064 A 
ATOM     66  C   UNL A   1      44.095  26.343  35.324  1.00  0.00     0.173 A 
ATOM     67  C   UNL A   1      45.482  28.244  34.842  1.00  0.00     0.173 A 
ATOM     68  F   UNL A   1      42.919  25.701  35.279  1.00  0.00    -0.203 F 
ATOM     69  C   UNL A   1      45.166  25.732  35.975  1.00  0.00     0.198 A 
ATOM     70  C   UNL A   1      46.560  27.615  35.461  1.00  0.00     0.198 A 
ATOM     71  F   UNL A   1      45.671  29.460  34.308  1.00  0.00    -0.203 F 
ATOM     72  F   UNL A   1      45.001  24.535  36.555  1.00  0.00    -0.200 F 
ATOM     73  C   UNL A   1      46.399  26.365  36.036  1.00  0.00     0.200 A 
ATOM     74  F   UNL A   1      47.755  28.221  35.500  1.00  0.00    -0.200 F 
ATOM     75  F   UNL A   1      47.429  25.772  36.655  1.00  0.00    -0.200 F 
ENDBRANCH  51  65
BRANCH  52  76
ATOM     76  C   UNL A   1      36.717  31.867  29.701  1.00  0.00     0.064 A 
ATOM     77  C   UNL A   1      35.660  31.071  29.240  1.00  0.00     0.173 A 
ATOM     78  C   UNL A   1      36.654  33.245  29.440  1.00  0.00     0.173 A 
ATOM     79  F   UNL A   1      35.681  29.745  29.444  1.00  0.00    -0.203 F 
ATOM     80  C   UNL A   1      34.597  31.626  28.530  1.00  0.00     0.198 A 
ATOM     81  C   UNL A   1      35.573  33.804  28.765  1.00  0.00     0.198 A 
ATOM     82  F   UNL A   1      37.638  34.055  29.861  1.00  0.00    -0.203 F 
ATOM     83  F   UNL A   1      33.626  30.834  28.056  1.00  0.00    -0.200 F 
ATOM     84  C   UNL A   1      34.549  32.993  28.301  1.00  0.00     0.200 A 
ATOM     85  F   UNL A   1      35.522  35.129  28.565  1.00  0.00    -0.200 F 
ATOM     86  F   UNL A   1      33.522  33.527  27.627  1.00  0.00    -0.200 F 
ENDBRANCH  52  76
BRANCH  64  87
ATOM     87  C   UNL A   1      38.741  32.023  36.366  1.00  0.00     0.064 A 
ATOM     88  C   UNL A   1      39.055  33.359  36.649  1.00  0.00     0.173 A 
ATOM     89  C   UNL A   1      37.863  31.356  37.235  1.00  0.00     0.173 A 
ATOM     90  F   UNL A   1      39.903  34.037  35.861  1.00  0.00    -0.203 F 
ATOM     91  C   UNL A   1      38.534  33.993  37.774  1.00  0.00     0.198 A 
ATOM     92  C   UNL A   1      37.316  32.003  38.337  1.00  0.00     0.198 A 
ATOM     93  F   UNL A   1      37.526  30.077  37.007  1.00  0.00    -0.203 F 
ATOM     94  F   UNL A   1      38.893  35.253  38.057  1.00  0.00    -0.200 F 
ATOM     95  C   UNL A   1      37.658  33.319  38.612  1.00  0.00     0.200 A 
ATOM     96  F   UNL A   1      36.458  31.354  39.137  1.00  0.00    -0.200 F 
ATOM     97  F   UNL A   1      37.152  33.933  39.689  1.00  0.00    -0.200 F 
ENDBRANCH  64  87
ENDBRANCH  38  39
ENDBRANCH  31  33
ENDBRANCH  30  31
ENDBRANCH  29  30
ENDBRANCH   1  29
TORSDOF 15
ENDMDL
