MODEL 1
REMARK VINA RESULT:     -11.8      0.000      0.000
REMARK SMILES Cc1nc(C[C@H](C(=O)OCCOC(=O)c2ccc(-c3c4nc(c(-c5c(F)c(F)c(F)c(F)c5F)c5ccc([nH]5)c(-c5c(F)c(F)c(F)c(F)c5F)c5nc(c(-c6c(F)c(F)c(F)c(F)c6F)c6ccc3[nH]6)C=C5)C=C4)cc2)c2ccccc2Br)cs1
REMARK SMILES IDX 10 1 9 2 7 3 8 4 6 5 5 6 4 7 1 8 2 9 3 10 86 11 85 12 78 13
REMARK SMILES IDX 79 14 83 15 80 16 82 17 84 18 81 19 11 20 12 21 13 22 14 23
REMARK SMILES IDX 15 24 16 25 77 26 17 27 76 28 18 29 19 30 20 31 70 32 21 33
REMARK SMILES IDX 75 34 69 35 71 36 22 37 74 38 68 39 67 40 23 42 55 43 35 44
REMARK SMILES IDX 54 45 36 46 39 47 53 48 72 49 37 50 38 51 52 53 73 54 40 55
REMARK SMILES IDX 24 56 25 57 33 58 26 59 27 60 31 61 34 62 28 63 29 64 32 65
REMARK SMILES IDX 30 66 56 67 57 68 65 69 58 70 59 71 63 72 66 73 60 74 61 75
REMARK SMILES IDX 64 76 62 77 41 78 42 79 50 80 43 81 44 82 48 83 51 84 45 85
REMARK SMILES IDX 46 86 49 87 47 88
REMARK H PARENT 71 41 39 52
REMARK Flexibility Score: inf
ROOT
ATOM      1  C   UNL A   1      31.560  29.231  26.016  1.00  0.00     0.274 C 
ENDROOT
BRANCH   1   2
ATOM      2  O   UNL A   1      32.641  28.834  25.148  1.00  0.00    -0.462 OA
BRANCH   2   3
ATOM      3  C   UNL A   1      32.322  28.593  23.849  1.00  0.00     0.313 C 
ATOM      4  O   UNL A   1      33.015  28.944  22.898  1.00  0.00    -0.252 OA
BRANCH   3   5
ATOM      5  C   UNL A   1      30.989  27.864  23.657  1.00  0.00     0.136 C 
BRANCH   5   6
ATOM      6  C   UNL A   1      30.334  28.421  22.384  1.00  0.00     0.077 C 
BRANCH   6   7
ATOM      7  C   UNL A   1      29.564  29.700  22.469  1.00  0.00     0.053 A 
ATOM      8  C   UNL A   1      28.022  32.253  20.349  1.00  0.00     0.079 C 
ATOM      9  C   UNL A   1      28.541  31.389  21.444  1.00  0.00     0.090 A 
ATOM     10  N   UNL A   1      29.201  30.268  21.253  1.00  0.00    -0.247 NA
ATOM     11  S   UNL A   1      28.317  31.834  23.086  1.00  0.00    -0.127 S 
ATOM     12  C   UNL A   1      29.162  30.424  23.574  1.00  0.00     0.090 A 
ENDBRANCH   6   7
ENDBRANCH   5   6
BRANCH   5  13
ATOM     13  C   UNL A   1      31.064  26.357  23.914  1.00  0.00    -0.019 A 
ATOM     14  C   UNL A   1      30.527  25.935  25.156  1.00  0.00     0.006 A 
ATOM     15  C   UNL A   1      31.627  25.364  23.092  1.00  0.00     0.022 A 
ATOM     16  C   UNL A   1      30.514  24.596  25.546  1.00  0.00     0.000 A 
ATOM     17  C   UNL A   1      31.584  24.013  23.480  1.00  0.00     0.016 A 
ATOM     18  Br  UNL A   1      32.530  25.681  21.454  1.00  0.00    -0.051 Br
ATOM     19  C   UNL A   1      31.029  23.630  24.698  1.00  0.00     0.001 A 
ENDBRANCH   5  13
ENDBRANCH   3   5
ENDBRANCH   2   3
ENDBRANCH   1   2
BRANCH   1  20
ATOM     20  C   UNL A   1      31.746  30.667  26.488  1.00  0.00     0.275 C 
BRANCH  20  21
ATOM     21  O   UNL A   1      33.135  31.020  26.389  1.00  0.00    -0.458 OA
BRANCH  21  22
ATOM     22  C   UNL A   1      33.566  31.951  27.266  1.00  0.00     0.338 C 
ATOM     23  O   UNL A   1      33.020  32.994  27.580  1.00  0.00    -0.246 OA
BRANCH  22  24
ATOM     24  C   UNL A   1      34.855  31.524  27.829  1.00  0.00     0.060 A 
ATOM     25  C   UNL A   1      35.053  30.188  28.172  1.00  0.00     0.016 A 
ATOM     26  C   UNL A   1      35.825  32.479  28.125  1.00  0.00     0.016 A 
ATOM     27  C   UNL A   1      36.176  29.816  28.907  1.00  0.00     0.010 A 
ATOM     28  C   UNL A   1      37.000  32.086  28.771  1.00  0.00     0.010 A 
ATOM     29  C   UNL A   1      37.170  30.759  29.206  1.00  0.00    -0.014 A 
BRANCH  29  30
ATOM     30  C   UNL A   1      38.366  30.379  30.006  1.00  0.00     0.031 A 
ATOM     31  C   UNL A   1      39.411  29.473  29.410  1.00  0.00     0.074 A 
ATOM     32  C   UNL A   1      38.521  30.831  31.265  1.00  0.00     0.049 A 
ATOM     33  N   UNL A   1      40.406  28.855  29.996  1.00  0.00    -0.248 NA
ATOM     34  C   UNL A   1      39.312  29.215  27.965  1.00  0.00     0.031 C 
ATOM     35  C   UNL A   1      37.614  31.747  31.954  1.00  0.00     0.029 A 
ATOM     36  N   UNL A   1      39.504  30.577  32.190  1.00  0.00    -0.354 N 
ATOM     37  C   UNL A   1      41.007  28.086  29.009  1.00  0.00     0.074 A 
ATOM     38  C   UNL A   1      40.271  28.319  27.783  1.00  0.00     0.031 C 
ATOM     39  C   UNL A   1      38.098  32.007  33.178  1.00  0.00     0.029 A 
ATOM     40  C   UNL A   1      39.304  31.213  33.390  1.00  0.00     0.049 A 
ATOM     41  H   UNL A   1      40.276  29.994  32.011  1.00  0.00     0.167 HD
ATOM     42  C   UNL A   1      42.071  27.256  29.118  1.00  0.00     0.037 A 
ATOM     43  C   UNL A   1      39.991  31.138  34.545  1.00  0.00     0.037 A 
ATOM     44  C   UNL A   1      42.845  27.079  30.319  1.00  0.00     0.049 A 
ATOM     45  C   UNL A   1      41.174  30.218  34.642  1.00  0.00     0.074 A 
ATOM     46  C   UNL A   1      43.954  26.276  30.526  1.00  0.00     0.029 A 
ATOM     47  N   UNL A   1      42.602  27.738  31.515  1.00  0.00    -0.354 N 
ATOM     48  N   UNL A   1      41.690  29.438  33.724  1.00  0.00    -0.248 NA
ATOM     49  C   UNL A   1      41.855  30.150  35.943  1.00  0.00     0.031 C 
ATOM     50  C   UNL A   1      44.369  26.433  31.852  1.00  0.00     0.029 A 
ATOM     51  C   UNL A   1      43.537  27.357  32.464  1.00  0.00     0.049 A 
ATOM     52  H   UNL A   1      41.873  28.382  31.668  1.00  0.00     0.167 HD
ATOM     53  C   UNL A   1      42.754  28.788  34.333  1.00  0.00     0.074 A 
ATOM     54  C   UNL A   1      42.825  29.282  35.692  1.00  0.00     0.031 C 
ATOM     55  C   UNL A   1      43.591  27.858  33.813  1.00  0.00     0.037 A 
BRANCH  42  56
ATOM     56  C   UNL A   1      42.445  26.445  27.913  1.00  0.00     0.064 A 
ATOM     57  C   UNL A   1      43.412  26.879  26.996  1.00  0.00     0.173 A 
ATOM     58  C   UNL A   1      41.840  25.198  27.692  1.00  0.00     0.173 A 
ATOM     59  F   UNL A   1      44.008  28.069  27.155  1.00  0.00    -0.203 F 
ATOM     60  C   UNL A   1      43.745  26.102  25.888  1.00  0.00     0.198 A 
ATOM     61  C   UNL A   1      42.192  24.414  26.597  1.00  0.00     0.198 A 
ATOM     62  F   UNL A   1      40.912  24.736  28.543  1.00  0.00    -0.203 F 
ATOM     63  F   UNL A   1      44.642  26.553  25.001  1.00  0.00    -0.200 F 
ATOM     64  C   UNL A   1      43.139  24.869  25.692  1.00  0.00     0.200 A 
ATOM     65  F   UNL A   1      41.614  23.218  26.415  1.00  0.00    -0.200 F 
ATOM     66  F   UNL A   1      43.465  24.122  24.628  1.00  0.00    -0.200 F 
ENDBRANCH  42  56
BRANCH  43  67
ATOM     67  C   UNL A   1      39.548  31.942  35.712  1.00  0.00     0.064 A 
ATOM     68  C   UNL A   1      40.086  33.213  35.954  1.00  0.00     0.173 A 
ATOM     69  C   UNL A   1      38.560  31.470  36.589  1.00  0.00     0.173 A 
ATOM     70  F   UNL A   1      41.052  33.694  35.157  1.00  0.00    -0.203 F 
ATOM     71  C   UNL A   1      39.652  33.983  37.031  1.00  0.00     0.198 A 
ATOM     72  C   UNL A   1      38.109  32.251  37.651  1.00  0.00     0.198 A 
ATOM     73  F   UNL A   1      38.017  30.259  36.400  1.00  0.00    -0.203 F 
ATOM     74  F   UNL A   1      40.202  35.183  37.259  1.00  0.00    -0.200 F 
ATOM     75  C   UNL A   1      38.658  33.506  37.873  1.00  0.00     0.200 A 
ATOM     76  F   UNL A   1      37.140  31.791  38.453  1.00  0.00    -0.200 F 
ATOM     77  F   UNL A   1      38.232  34.252  38.900  1.00  0.00    -0.200 F 
ENDBRANCH  43  67
BRANCH  55  78
ATOM     78  C   UNL A   1      44.661  27.325  34.715  1.00  0.00     0.064 A 
ATOM     79  C   UNL A   1      44.450  26.183  35.502  1.00  0.00     0.173 A 
ATOM     80  C   UNL A   1      45.918  27.945  34.772  1.00  0.00     0.173 A 
ATOM     81  F   UNL A   1      43.259  25.568  35.491  1.00  0.00    -0.203 F 
ATOM     82  C   UNL A   1      45.457  25.691  36.326  1.00  0.00     0.198 A 
ATOM     83  C   UNL A   1      46.928  27.438  35.583  1.00  0.00     0.198 A 
ATOM     84  F   UNL A   1      46.166  29.039  34.035  1.00  0.00    -0.203 F 
ATOM     85  F   UNL A   1      45.224  24.620  37.098  1.00  0.00    -0.200 F 
ATOM     86  C   UNL A   1      46.695  26.315  36.363  1.00  0.00     0.200 A 
ATOM     87  F   UNL A   1      48.126  28.038  35.614  1.00  0.00    -0.200 F 
ATOM     88  F   UNL A   1      47.663  25.838  37.158  1.00  0.00    -0.200 F 
ENDBRANCH  55  78
ENDBRANCH  29  30
ENDBRANCH  22  24
ENDBRANCH  21  22
ENDBRANCH  20  21
ENDBRANCH   1  20
TORSDOF 14
ENDMDL
MODEL 2
REMARK VINA RESULT:     -11.7      0.161      1.628
REMARK SMILES Cc1nc(C[C@H](C(=O)OCCOC(=O)c2ccc(-c3c4nc(c(-c5c(F)c(F)c(F)c(F)c5F)c5ccc([nH]5)c(-c5c(F)c(F)c(F)c(F)c5F)c5nc(c(-c6c(F)c(F)c(F)c(F)c6F)c6ccc3[nH]6)C=C5)C=C4)cc2)c2ccccc2Br)cs1
REMARK SMILES IDX 10 1 9 2 7 3 8 4 6 5 5 6 4 7 1 8 2 9 3 10 86 11 85 12 78 13
REMARK SMILES IDX 79 14 83 15 80 16 82 17 84 18 81 19 11 20 12 21 13 22 14 23
REMARK SMILES IDX 15 24 16 25 77 26 17 27 76 28 18 29 19 30 20 31 70 32 21 33
REMARK SMILES IDX 75 34 69 35 71 36 22 37 74 38 68 39 67 40 23 42 55 43 35 44
REMARK SMILES IDX 54 45 36 46 39 47 53 48 72 49 37 50 38 51 52 53 73 54 40 55
REMARK SMILES IDX 24 56 25 57 33 58 26 59 27 60 31 61 34 62 28 63 29 64 32 65
REMARK SMILES IDX 30 66 56 67 57 68 65 69 58 70 59 71 63 72 66 73 60 74 61 75
REMARK SMILES IDX 64 76 62 77 41 78 42 79 50 80 43 81 44 82 48 83 51 84 45 85
REMARK SMILES IDX 46 86 49 87 47 88
REMARK H PARENT 71 41 39 52
REMARK Flexibility Score: inf
ROOT
ATOM      1  C   UNL A   1      31.512  29.498  25.742  1.00  0.00     0.274 C 
ENDROOT
BRANCH   1   2
ATOM      2  O   UNL A   1      32.614  29.246  24.846  1.00  0.00    -0.462 OA
BRANCH   2   3
ATOM      3  C   UNL A   1      32.300  28.743  23.623  1.00  0.00     0.313 C 
ATOM      4  O   UNL A   1      33.011  28.870  22.629  1.00  0.00    -0.252 OA
BRANCH   3   5
ATOM      5  C   UNL A   1      30.953  28.018  23.571  1.00  0.00     0.136 C 
BRANCH   5   6
ATOM      6  C   UNL A   1      30.215  28.500  22.313  1.00  0.00     0.077 C 
BRANCH   6   7
ATOM      7  C   UNL A   1      29.414  29.760  22.384  1.00  0.00     0.053 A 
ATOM      8  C   UNL A   1      27.875  32.293  20.237  1.00  0.00     0.079 C 
ATOM      9  C   UNL A   1      28.383  31.433  21.341  1.00  0.00     0.090 A 
ATOM     10  N   UNL A   1      29.073  30.330  21.162  1.00  0.00    -0.247 NA
ATOM     11  S   UNL A   1      28.101  31.861  22.979  1.00  0.00    -0.127 S 
ATOM     12  C   UNL A   1      28.963  30.467  23.481  1.00  0.00     0.090 A 
ENDBRANCH   6   7
ENDBRANCH   5   6
BRANCH   5  13
ATOM     13  C   UNL A   1      31.035  26.530  23.919  1.00  0.00    -0.019 A 
ATOM     14  C   UNL A   1      30.541  26.189  25.204  1.00  0.00     0.006 A 
ATOM     15  C   UNL A   1      31.567  25.486  23.142  1.00  0.00     0.022 A 
ATOM     16  C   UNL A   1      30.540  24.877  25.677  1.00  0.00     0.000 A 
ATOM     17  C   UNL A   1      31.536  24.162  23.616  1.00  0.00     0.016 A 
ATOM     18  Br  UNL A   1      32.412  25.696  21.457  1.00  0.00    -0.051 Br
ATOM     19  C   UNL A   1      31.023  23.858  24.874  1.00  0.00     0.001 A 
ENDBRANCH   5  13
ENDBRANCH   3   5
ENDBRANCH   2   3
ENDBRANCH   1   2
BRANCH   1  20
ATOM     20  C   UNL A   1      31.744  30.778  26.535  1.00  0.00     0.275 C 
BRANCH  20  21
ATOM     21  O   UNL A   1      33.129  31.147  26.441  1.00  0.00    -0.458 OA
BRANCH  21  22
ATOM     22  C   UNL A   1      33.554  32.055  27.345  1.00  0.00     0.338 C 
ATOM     23  O   UNL A   1      33.005  33.087  27.686  1.00  0.00    -0.246 OA
BRANCH  22  24
ATOM     24  C   UNL A   1      34.844  31.616  27.900  1.00  0.00     0.060 A 
ATOM     25  C   UNL A   1      35.014  30.290  28.292  1.00  0.00     0.016 A 
ATOM     26  C   UNL A   1      35.844  32.556  28.139  1.00  0.00     0.016 A 
ATOM     27  C   UNL A   1      36.141  29.917  29.020  1.00  0.00     0.010 A 
ATOM     28  C   UNL A   1      37.020  32.157  28.778  1.00  0.00     0.010 A 
ATOM     29  C   UNL A   1      37.165  30.844  29.262  1.00  0.00    -0.014 A 
BRANCH  29  30
ATOM     30  C   UNL A   1      38.367  30.464  30.053  1.00  0.00     0.031 A 
ATOM     31  C   UNL A   1      39.410  29.563  29.448  1.00  0.00     0.074 A 
ATOM     32  C   UNL A   1      38.528  30.911  31.313  1.00  0.00     0.049 A 
ATOM     33  N   UNL A   1      40.410  28.946  30.025  1.00  0.00    -0.248 NA
ATOM     34  C   UNL A   1      39.303  29.310  28.002  1.00  0.00     0.031 C 
ATOM     35  C   UNL A   1      37.623  31.823  32.011  1.00  0.00     0.029 A 
ATOM     36  N   UNL A   1      39.517  30.657  32.231  1.00  0.00    -0.354 N 
ATOM     37  C   UNL A   1      41.008  28.181  29.031  1.00  0.00     0.074 A 
ATOM     38  C   UNL A   1      40.264  28.418  27.811  1.00  0.00     0.031 C 
ATOM     39  C   UNL A   1      38.114  32.080  33.233  1.00  0.00     0.029 A 
ATOM     40  C   UNL A   1      39.323  31.288  33.435  1.00  0.00     0.049 A 
ATOM     41  H   UNL A   1      40.290  30.076  32.045  1.00  0.00     0.167 HD
ATOM     42  C   UNL A   1      42.075  27.354  29.131  1.00  0.00     0.037 A 
ATOM     43  C   UNL A   1      40.017  31.210  34.586  1.00  0.00     0.037 A 
ATOM     44  C   UNL A   1      42.856  27.175  30.327  1.00  0.00     0.049 A 
ATOM     45  C   UNL A   1      41.202  30.293  34.672  1.00  0.00     0.074 A 
ATOM     46  C   UNL A   1      43.968  26.374  30.524  1.00  0.00     0.029 A 
ATOM     47  N   UNL A   1      42.618  27.829  31.527  1.00  0.00    -0.354 N 
ATOM     48  N   UNL A   1      41.715  29.517  33.748  1.00  0.00    -0.248 NA
ATOM     49  C   UNL A   1      41.891  30.221  35.968  1.00  0.00     0.031 C 
ATOM     50  C   UNL A   1      44.390  26.526  31.849  1.00  0.00     0.029 A 
ATOM     51  C   UNL A   1      43.560  27.446  32.469  1.00  0.00     0.049 A 
ATOM     52  H   UNL A   1      41.889  28.470  31.686  1.00  0.00     0.167 HD
ATOM     53  C   UNL A   1      42.784  28.867  34.348  1.00  0.00     0.074 A 
ATOM     54  C   UNL A   1      42.862  29.357  35.708  1.00  0.00     0.031 C 
ATOM     55  C   UNL A   1      43.620  27.942  33.819  1.00  0.00     0.037 A 
BRANCH  42  56
ATOM     56  C   UNL A   1      42.443  26.549  27.921  1.00  0.00     0.064 A 
ATOM     57  C   UNL A   1      43.391  26.997  26.990  1.00  0.00     0.173 A 
ATOM     58  C   UNL A   1      41.853  25.293  27.707  1.00  0.00     0.173 A 
ATOM     59  F   UNL A   1      43.972  28.195  27.142  1.00  0.00    -0.203 F 
ATOM     60  C   UNL A   1      43.720  26.225  25.877  1.00  0.00     0.198 A 
ATOM     61  C   UNL A   1      42.202  24.515  26.608  1.00  0.00     0.198 A 
ATOM     62  F   UNL A   1      40.944  24.818  28.572  1.00  0.00    -0.203 F 
ATOM     63  F   UNL A   1      44.598  26.689  24.978  1.00  0.00    -0.200 F 
ATOM     64  C   UNL A   1      43.130  24.984  25.689  1.00  0.00     0.200 A 
ATOM     65  F   UNL A   1      41.639  23.310  26.434  1.00  0.00    -0.200 F 
ATOM     66  F   UNL A   1      43.451  24.241  24.621  1.00  0.00    -0.200 F 
ENDBRANCH  42  56
BRANCH  43  67
ATOM     67  C   UNL A   1      39.579  32.008  35.758  1.00  0.00     0.064 A 
ATOM     68  C   UNL A   1      38.601  31.519  36.635  1.00  0.00     0.173 A 
ATOM     69  C   UNL A   1      40.148  33.258  36.042  1.00  0.00     0.173 A 
ATOM     70  F   UNL A   1      38.011  30.341  36.388  1.00  0.00    -0.203 F 
ATOM     71  C   UNL A   1      38.208  32.252  37.752  1.00  0.00     0.198 A 
ATOM     72  C   UNL A   1      39.773  33.979  37.174  1.00  0.00     0.198 A 
ATOM     73  F   UNL A   1      41.087  33.769  35.232  1.00  0.00    -0.203 F 
ATOM     74  F   UNL A   1      37.251  31.777  38.560  1.00  0.00    -0.200 F 
ATOM     75  C   UNL A   1      38.801  33.476  38.027  1.00  0.00     0.200 A 
ATOM     76  F   UNL A   1      40.357  35.154  37.441  1.00  0.00    -0.200 F 
ATOM     77  F   UNL A   1      38.432  34.174  39.109  1.00  0.00    -0.200 F 
ENDBRANCH  43  67
BRANCH  55  78
ATOM     78  C   UNL A   1      44.698  27.408  34.713  1.00  0.00     0.064 A 
ATOM     79  C   UNL A   1      45.932  28.063  34.836  1.00  0.00     0.173 A 
ATOM     80  C   UNL A   1      44.483  26.250  35.473  1.00  0.00     0.173 A 
ATOM     81  F   UNL A   1      46.187  29.164  34.116  1.00  0.00    -0.203 F 
ATOM     82  C   UNL A   1      46.921  27.564  35.679  1.00  0.00     0.198 A 
ATOM     83  C   UNL A   1      45.467  25.766  36.329  1.00  0.00     0.198 A 
ATOM     84  F   UNL A   1      43.317  25.593  35.389  1.00  0.00    -0.203 F 
ATOM     85  F   UNL A   1      48.107  28.182  35.756  1.00  0.00    -0.200 F 
ATOM     86  C   UNL A   1      46.686  26.420  36.428  1.00  0.00     0.200 A 
ATOM     87  F   UNL A   1      45.238  24.664  37.057  1.00  0.00    -0.200 F 
ATOM     88  F   UNL A   1      47.640  25.942  37.240  1.00  0.00    -0.200 F 
ENDBRANCH  55  78
ENDBRANCH  29  30
ENDBRANCH  22  24
ENDBRANCH  21  22
ENDBRANCH  20  21
ENDBRANCH   1  20
TORSDOF 14
ENDMDL
MODEL 3
REMARK VINA RESULT:     -11.6      4.886      9.846
REMARK SMILES Cc1nc(C[C@H](C(=O)OCCOC(=O)c2ccc(-c3c4nc(c(-c5c(F)c(F)c(F)c(F)c5F)c5ccc([nH]5)c(-c5c(F)c(F)c(F)c(F)c5F)c5nc(c(-c6c(F)c(F)c(F)c(F)c6F)c6ccc3[nH]6)C=C5)C=C4)cc2)c2ccccc2Br)cs1
REMARK SMILES IDX 10 1 9 2 7 3 8 4 6 5 5 6 4 7 1 8 2 9 3 10 86 11 85 12 78 13
REMARK SMILES IDX 79 14 83 15 80 16 82 17 84 18 81 19 11 20 12 21 13 22 14 23
REMARK SMILES IDX 15 24 16 25 77 26 17 27 76 28 18 29 19 30 20 31 70 32 21 33
REMARK SMILES IDX 75 34 69 35 71 36 22 37 74 38 68 39 67 40 23 42 55 43 35 44
REMARK SMILES IDX 54 45 36 46 39 47 53 48 72 49 37 50 38 51 52 53 73 54 40 55
REMARK SMILES IDX 24 56 25 57 33 58 26 59 27 60 31 61 34 62 28 63 29 64 32 65
REMARK SMILES IDX 30 66 56 67 57 68 65 69 58 70 59 71 63 72 66 73 60 74 61 75
REMARK SMILES IDX 64 76 62 77 41 78 42 79 50 80 43 81 44 82 48 83 51 84 45 85
REMARK SMILES IDX 46 86 49 87 47 88
REMARK H PARENT 71 41 39 52
REMARK Flexibility Score: inf
ROOT
ATOM      1  C   UNL A   1      36.649  22.259  23.785  1.00  0.00     0.274 C 
ENDROOT
BRANCH   1   2
ATOM      2  O   UNL A   1      35.490  22.918  24.333  1.00  0.00    -0.462 OA
BRANCH   2   3
ATOM      3  C   UNL A   1      34.461  23.153  23.477  1.00  0.00     0.313 C 
ATOM      4  O   UNL A   1      34.595  23.680  22.376  1.00  0.00    -0.252 OA
BRANCH   3   5
ATOM      5  C   UNL A   1      33.091  22.730  24.014  1.00  0.00     0.136 C 
BRANCH   5   6
ATOM      6  C   UNL A   1      32.022  23.442  23.172  1.00  0.00     0.077 C 
BRANCH   6   7
ATOM      7  C   UNL A   1      31.508  24.769  23.629  1.00  0.00     0.053 A 
ATOM      8  C   UNL A   1      28.412  26.703  23.876  1.00  0.00     0.079 C 
ATOM      9  C   UNL A   1      29.800  26.168  23.905  1.00  0.00     0.090 A 
ATOM     10  N   UNL A   1      30.140  24.970  23.484  1.00  0.00    -0.247 NA
ATOM     11  S   UNL A   1      31.092  27.129  24.496  1.00  0.00    -0.127 S 
ATOM     12  C   UNL A   1      32.183  25.847  24.166  1.00  0.00     0.090 A 
ENDBRANCH   6   7
ENDBRANCH   5   6
BRANCH   5  13
ATOM     13  C   UNL A   1      32.984  21.237  24.332  1.00  0.00    -0.019 A 
ATOM     14  C   UNL A   1      32.528  20.430  23.259  1.00  0.00     0.006 A 
ATOM     15  C   UNL A   1      33.244  20.589  25.552  1.00  0.00     0.022 A 
ATOM     16  C   UNL A   1      32.377  19.048  23.378  1.00  0.00     0.000 A 
ATOM     17  C   UNL A   1      33.115  19.192  25.656  1.00  0.00     0.016 A 
ATOM     18  Br  UNL A   1      33.726  21.454  27.170  1.00  0.00    -0.051 Br
ATOM     19  C   UNL A   1      32.687  18.426  24.576  1.00  0.00     0.001 A 
ENDBRANCH   5  13
ENDBRANCH   3   5
ENDBRANCH   2   3
ENDBRANCH   1   2
BRANCH   1  20
ATOM     20  C   UNL A   1      37.085  21.103  24.677  1.00  0.00     0.275 C 
BRANCH  20  21
ATOM     21  O   UNL A   1      37.592  21.628  25.915  1.00  0.00    -0.458 OA
BRANCH  21  22
ATOM     22  C   UNL A   1      38.913  21.448  26.128  1.00  0.00     0.338 C 
ATOM     23  O   UNL A   1      39.574  20.445  25.933  1.00  0.00    -0.246 OA
BRANCH  22  24
ATOM     24  C   UNL A   1      39.489  22.693  26.660  1.00  0.00     0.060 A 
ATOM     25  C   UNL A   1      39.050  23.923  26.173  1.00  0.00     0.016 A 
ATOM     26  C   UNL A   1      40.551  22.628  27.559  1.00  0.00     0.016 A 
ATOM     27  C   UNL A   1      39.739  25.088  26.501  1.00  0.00     0.010 A 
ATOM     28  C   UNL A   1      41.175  23.809  27.968  1.00  0.00     0.010 A 
ATOM     29  C   UNL A   1      40.803  25.047  27.412  1.00  0.00    -0.014 A 
BRANCH  29  30
ATOM     30  C   UNL A   1      41.559  26.282  27.758  1.00  0.00     0.031 A 
ATOM     31  C   UNL A   1      40.910  27.350  28.597  1.00  0.00     0.074 A 
ATOM     32  C   UNL A   1      42.820  26.459  27.320  1.00  0.00     0.049 A 
ATOM     33  N   UNL A   1      41.304  28.576  28.832  1.00  0.00    -0.248 NA
ATOM     34  C   UNL A   1      39.637  26.995  29.244  1.00  0.00     0.031 C 
ATOM     35  C   UNL A   1      43.590  25.493  26.538  1.00  0.00     0.029 A 
ATOM     36  N   UNL A   1      43.678  27.521  27.474  1.00  0.00    -0.354 N 
ATOM     37  C   UNL A   1      40.300  29.158  29.594  1.00  0.00     0.074 A 
ATOM     38  C   UNL A   1      39.279  28.149  29.790  1.00  0.00     0.031 C 
ATOM     39  C   UNL A   1      44.816  25.988  26.310  1.00  0.00     0.029 A 
ATOM     40  C   UNL A   1      44.891  27.339  26.857  1.00  0.00     0.049 A 
ATOM     41  H   UNL A   1      43.445  28.334  27.976  1.00  0.00     0.167 HD
ATOM     42  C   UNL A   1      40.233  30.420  30.078  1.00  0.00     0.037 A 
ATOM     43  C   UNL A   1      45.935  28.178  26.714  1.00  0.00     0.037 A 
ATOM     44  C   UNL A   1      41.279  31.400  29.943  1.00  0.00     0.049 A 
ATOM     45  C   UNL A   1      45.843  29.570  27.267  1.00  0.00     0.074 A 
ATOM     46  C   UNL A   1      41.315  32.700  30.416  1.00  0.00     0.029 A 
ATOM     47  N   UNL A   1      42.489  31.175  29.302  1.00  0.00    -0.354 N 
ATOM     48  N   UNL A   1      44.858  30.136  27.922  1.00  0.00    -0.248 NA
ATOM     49  C   UNL A   1      46.998  30.450  27.040  1.00  0.00     0.031 C 
ATOM     50  C   UNL A   1      42.538  33.270  30.044  1.00  0.00     0.029 A 
ATOM     51  C   UNL A   1      43.276  32.314  29.365  1.00  0.00     0.049 A 
ATOM     52  H   UNL A   1      42.750  30.331  28.868  1.00  0.00     0.167 HD
ATOM     53  C   UNL A   1      45.273  31.433  28.186  1.00  0.00     0.074 A 
ATOM     54  C   UNL A   1      46.608  31.565  27.641  1.00  0.00     0.031 C 
ATOM     55  C   UNL A   1      44.602  32.427  28.816  1.00  0.00     0.037 A 
BRANCH  42  56
ATOM     56  C   UNL A   1      38.970  30.830  30.774  1.00  0.00     0.064 A 
ATOM     57  C   UNL A   1      37.872  31.352  30.076  1.00  0.00     0.173 A 
ATOM     58  C   UNL A   1      38.850  30.668  32.164  1.00  0.00     0.173 A 
ATOM     59  F   UNL A   1      37.942  31.539  28.751  1.00  0.00    -0.203 F 
ATOM     60  C   UNL A   1      36.707  31.718  30.748  1.00  0.00     0.198 A 
ATOM     61  C   UNL A   1      37.676  31.012  32.828  1.00  0.00     0.198 A 
ATOM     62  F   UNL A   1      39.870  30.167  32.876  1.00  0.00    -0.203 F 
ATOM     63  F   UNL A   1      35.684  32.254  30.068  1.00  0.00    -0.200 F 
ATOM     64  C   UNL A   1      36.608  31.544  32.121  1.00  0.00     0.200 A 
ATOM     65  F   UNL A   1      37.578  30.832  34.153  1.00  0.00    -0.200 F 
ATOM     66  F   UNL A   1      35.485  31.892  32.763  1.00  0.00    -0.200 F 
ENDBRANCH  42  56
BRANCH  43  67
ATOM     67  C   UNL A   1      47.144  27.721  25.983  1.00  0.00     0.064 A 
ATOM     68  C   UNL A   1      48.258  27.229  26.676  1.00  0.00     0.173 A 
ATOM     69  C   UNL A   1      47.199  27.740  24.582  1.00  0.00     0.173 A 
ATOM     70  F   UNL A   1      48.260  27.218  28.017  1.00  0.00    -0.203 F 
ATOM     71  C   UNL A   1      49.383  26.773  25.994  1.00  0.00     0.198 A 
ATOM     72  C   UNL A   1      48.314  27.259  23.900  1.00  0.00     0.198 A 
ATOM     73  F   UNL A   1      46.158  28.203  23.875  1.00  0.00    -0.203 F 
ATOM     74  F   UNL A   1      50.447  26.334  26.679  1.00  0.00    -0.200 F 
ATOM     75  C   UNL A   1      49.407  26.779  24.607  1.00  0.00     0.200 A 
ATOM     76  F   UNL A   1      48.328  27.256  22.561  1.00  0.00    -0.200 F 
ATOM     77  F   UNL A   1      50.484  26.327  23.952  1.00  0.00    -0.200 F 
ENDBRANCH  43  67
BRANCH  55  78
ATOM     78  C   UNL A   1      45.309  33.740  28.959  1.00  0.00     0.064 A 
ATOM     79  C   UNL A   1      46.138  34.006  30.059  1.00  0.00     0.173 A 
ATOM     80  C   UNL A   1      45.179  34.730  27.975  1.00  0.00     0.173 A 
ATOM     81  F   UNL A   1      46.278  33.095  31.033  1.00  0.00    -0.203 F 
ATOM     82  C   UNL A   1      46.798  35.225  30.175  1.00  0.00     0.198 A 
ATOM     83  C   UNL A   1      45.857  35.940  28.084  1.00  0.00     0.198 A 
ATOM     84  F   UNL A   1      44.399  34.520  26.904  1.00  0.00    -0.203 F 
ATOM     85  F   UNL A   1      47.557  35.474  31.252  1.00  0.00    -0.200 F 
ATOM     86  C   UNL A   1      46.662  36.188  29.187  1.00  0.00     0.200 A 
ATOM     87  F   UNL A   1      45.729  36.868  27.126  1.00  0.00    -0.200 F 
ATOM     88  F   UNL A   1      47.300  37.362  29.300  1.00  0.00    -0.200 F 
ENDBRANCH  55  78
ENDBRANCH  29  30
ENDBRANCH  22  24
ENDBRANCH  21  22
ENDBRANCH  20  21
ENDBRANCH   1  20
TORSDOF 14
ENDMDL
