MODEL 1
REMARK VINA RESULT:     -10.8      0.000      0.000
REMARK SMILES C=CC[N@@H+](CC(=O)OCCOC(=O)c1ccc(-c2c3nc(c(-c4c(F)c(F)c(F)c(F)c4F)c4ccc([nH]4)c(-c4c(F)c(F)c(F)c(F)c4F)c4nc(c(-c5c(F)c(F)c(F)c(F)c5F)c5ccc2[nH]5)C=C4)C=C3)cc1)C[C@H]1CCC[C@H](C)C1
REMARK SMILES IDX 9 1 8 2 6 3 7 4 5 5 4 6 3 8 2 9 1 10 77 11 78 12 79 13 84 14
REMARK SMILES IDX 80 15 82 16 81 17 83 18 10 19 11 20 12 21 13 22 14 23 15 24
REMARK SMILES IDX 76 25 16 26 75 27 17 28 18 29 19 30 69 31 20 32 74 33 68 34
REMARK SMILES IDX 70 35 21 36 73 37 67 38 66 39 22 41 54 42 34 43 53 44 35 45
REMARK SMILES IDX 38 46 52 47 71 48 36 49 37 50 51 52 72 53 39 54 23 55 24 56
REMARK SMILES IDX 32 57 25 58 26 59 30 60 33 61 27 62 28 63 31 64 29 65 55 66
REMARK SMILES IDX 56 67 64 68 57 69 58 70 62 71 65 72 59 73 60 74 63 75 61 76
REMARK SMILES IDX 40 77 41 78 49 79 42 80 43 81 47 82 50 83 44 84 45 85 48 86
REMARK SMILES IDX 46 87
REMARK H PARENT 4 7 70 40 38 51
REMARK Flexibility Score: inf
ROOT
ATOM      1  C   UNL A   1      32.099  31.010  26.901  1.00  0.00     0.274 C 
ENDROOT
BRANCH   1   2
ATOM      2  O   UNL A   1      32.620  29.848  27.585  1.00  0.00    -0.458 OA
BRANCH   2   3
ATOM      3  C   UNL A   1      32.106  28.649  27.203  1.00  0.00     0.361 C 
ATOM      4  O   UNL A   1      31.170  28.099  27.783  1.00  0.00    -0.245 OA
BRANCH   3   5
ATOM      5  C   UNL A   1      32.665  28.078  25.898  1.00  0.00     0.386 C 
BRANCH   5   6
ATOM      6  N   UNL A   1      31.766  27.910  24.756  1.00  0.00    -0.322 N 
ATOM      7  H   UNL A   1      30.827  28.061  25.127  1.00  0.00     0.348 HD
BRANCH   6   8
ATOM      8  C   UNL A   1      31.467  26.561  24.344  1.00  0.00     0.290 C 
BRANCH   8   9
ATOM      9  C   UNL A   1      30.116  26.119  24.833  1.00  0.00     0.025 C 
ATOM     10  C   UNL A   1      29.892  25.486  25.991  1.00  0.00     0.010 C 
ENDBRANCH   8   9
ENDBRANCH   6   8
BRANCH   6  11
ATOM     11  C   UNL A   1      31.425  29.066  23.935  1.00  0.00     0.266 C 
BRANCH  11  12
ATOM     12  C   UNL A   1      29.962  29.576  23.849  1.00  0.00     0.044 C 
ATOM     13  C   UNL A   1      29.781  31.090  23.856  1.00  0.00     0.009 C 
ATOM     14  C   UNL A   1      29.296  28.973  22.586  1.00  0.00     0.012 C 
ATOM     15  C   UNL A   1      28.293  31.438  23.826  1.00  0.00     0.001 C 
ATOM     16  C   UNL A   1      27.822  29.368  22.394  1.00  0.00    -0.014 C 
ATOM     17  C   UNL A   1      27.608  30.874  22.586  1.00  0.00     0.003 C 
ATOM     18  C   UNL A   1      26.893  28.536  23.281  1.00  0.00     0.007 C 
ENDBRANCH  11  12
ENDBRANCH   6  11
ENDBRANCH   5   6
ENDBRANCH   3   5
ENDBRANCH   2   3
ENDBRANCH   1   2
BRANCH   1  19
ATOM     19  C   UNL A   1      32.999  32.241  27.124  1.00  0.00     0.275 C 
BRANCH  19  20
ATOM     20  O   UNL A   1      32.312  33.475  27.462  1.00  0.00    -0.458 OA
BRANCH  20  21
ATOM     21  C   UNL A   1      32.966  34.269  28.324  1.00  0.00     0.338 C 
ATOM     22  O   UNL A   1      32.637  35.383  28.691  1.00  0.00    -0.246 OA
BRANCH  21  23
ATOM     23  C   UNL A   1      34.193  33.768  28.911  1.00  0.00     0.060 A 
ATOM     24  C   UNL A   1      34.021  32.962  30.047  1.00  0.00     0.016 A 
ATOM     25  C   UNL A   1      35.439  34.285  28.564  1.00  0.00     0.016 A 
ATOM     26  C   UNL A   1      35.108  32.648  30.838  1.00  0.00     0.010 A 
ATOM     27  C   UNL A   1      36.542  33.945  29.347  1.00  0.00     0.010 A 
ATOM     28  C   UNL A   1      36.377  33.112  30.468  1.00  0.00    -0.014 A 
BRANCH  28  29
ATOM     29  C   UNL A   1      37.537  32.489  31.123  1.00  0.00     0.031 A 
ATOM     30  C   UNL A   1      37.964  32.851  32.502  1.00  0.00     0.074 A 
ATOM     31  C   UNL A   1      38.141  31.514  30.420  1.00  0.00     0.049 A 
ATOM     32  N   UNL A   1      38.941  32.346  33.209  1.00  0.00    -0.248 NA
ATOM     33  C   UNL A   1      37.206  33.910  33.182  1.00  0.00     0.031 C 
ATOM     34  C   UNL A   1      37.737  31.086  29.075  1.00  0.00     0.029 A 
ATOM     35  N   UNL A   1      39.187  30.696  30.731  1.00  0.00    -0.354 N 
ATOM     36  C   UNL A   1      38.929  33.031  34.413  1.00  0.00     0.074 A 
ATOM     37  C   UNL A   1      37.845  33.991  34.344  1.00  0.00     0.031 C 
ATOM     38  C   UNL A   1      38.516  30.069  28.687  1.00  0.00     0.029 A 
ATOM     39  C   UNL A   1      39.490  29.805  29.734  1.00  0.00     0.049 A 
ATOM     40  H   UNL A   1      39.674  30.741  31.586  1.00  0.00     0.167 HD
ATOM     41  C   UNL A   1      39.763  32.863  35.468  1.00  0.00     0.037 A 
ATOM     42  C   UNL A   1      40.462  28.881  29.670  1.00  0.00     0.037 A 
ATOM     43  C   UNL A   1      40.831  31.896  35.501  1.00  0.00     0.049 A 
ATOM     44  C   UNL A   1      41.368  28.727  30.849  1.00  0.00     0.074 A 
ATOM     45  C   UNL A   1      41.733  31.635  36.517  1.00  0.00     0.029 A 
ATOM     46  N   UNL A   1      41.142  31.029  34.461  1.00  0.00    -0.354 N 
ATOM     47  N   UNL A   1      41.355  29.382  31.984  1.00  0.00    -0.248 NA
ATOM     48  C   UNL A   1      42.421  27.714  30.742  1.00  0.00     0.031 C 
ATOM     49  C   UNL A   1      42.608  30.632  36.079  1.00  0.00     0.029 A 
ATOM     50  C   UNL A   1      42.233  30.246  34.802  1.00  0.00     0.049 A 
ATOM     51  H   UNL A   1      40.656  30.978  33.605  1.00  0.00     0.167 HD
ATOM     52  C   UNL A   1      42.401  28.871  32.729  1.00  0.00     0.074 A 
ATOM     53  C   UNL A   1      43.011  27.827  31.925  1.00  0.00     0.031 C 
ATOM     54  C   UNL A   1      42.827  29.236  33.963  1.00  0.00     0.037 A 
BRANCH  41  55
ATOM     55  C   UNL A   1      39.579  33.764  36.652  1.00  0.00     0.064 A 
ATOM     56  C   UNL A   1      38.798  33.385  37.752  1.00  0.00     0.173 A 
ATOM     57  C   UNL A   1      40.234  35.003  36.706  1.00  0.00     0.173 A 
ATOM     58  F   UNL A   1      38.141  32.216  37.743  1.00  0.00    -0.203 F 
ATOM     59  C   UNL A   1      38.672  34.220  38.861  1.00  0.00     0.198 A 
ATOM     60  C   UNL A   1      40.120  35.826  37.823  1.00  0.00     0.198 A 
ATOM     61  F   UNL A   1      40.995  35.411  35.679  1.00  0.00    -0.203 F 
ATOM     62  F   UNL A   1      37.900  33.850  39.893  1.00  0.00    -0.200 F 
ATOM     63  C   UNL A   1      39.338  35.436  38.898  1.00  0.00     0.200 A 
ATOM     64  F   UNL A   1      40.769  36.999  37.859  1.00  0.00    -0.200 F 
ATOM     65  F   UNL A   1      39.221  36.234  39.969  1.00  0.00    -0.200 F 
ENDBRANCH  41  55
BRANCH  42  66
ATOM     66  C   UNL A   1      40.589  28.060  28.445  1.00  0.00     0.064 A 
ATOM     67  C   UNL A   1      41.391  28.479  27.378  1.00  0.00     0.173 A 
ATOM     68  C   UNL A   1      39.993  26.792  28.364  1.00  0.00     0.173 A 
ATOM     69  F   UNL A   1      41.976  29.684  27.414  1.00  0.00    -0.203 F 
ATOM     70  C   UNL A   1      41.597  27.656  26.273  1.00  0.00     0.198 A 
ATOM     71  C   UNL A   1      40.218  25.962  27.270  1.00  0.00     0.198 A 
ATOM     72  F   UNL A   1      39.232  26.343  29.373  1.00  0.00    -0.203 F 
ATOM     73  F   UNL A   1      42.363  28.080  25.259  1.00  0.00    -0.200 F 
ATOM     74  C   UNL A   1      41.020  26.394  26.225  1.00  0.00     0.200 A 
ATOM     75  F   UNL A   1      39.677  24.736  27.239  1.00  0.00    -0.200 F 
ATOM     76  F   UNL A   1      41.240  25.595  25.174  1.00  0.00    -0.200 F 
ENDBRANCH  42  66
BRANCH  54  77
ATOM     77  C   UNL A   1      44.021  28.504  34.488  1.00  0.00     0.064 A 
ATOM     78  C   UNL A   1      43.877  27.305  35.200  1.00  0.00     0.173 A 
ATOM     79  C   UNL A   1      45.313  29.006  34.283  1.00  0.00     0.173 A 
ATOM     80  F   UNL A   1      42.656  26.804  35.437  1.00  0.00    -0.203 F 
ATOM     81  C   UNL A   1      44.988  26.644  35.711  1.00  0.00     0.198 A 
ATOM     82  C   UNL A   1      46.423  28.332  34.780  1.00  0.00     0.198 A 
ATOM     83  F   UNL A   1      45.495  30.152  33.609  1.00  0.00    -0.203 F 
ATOM     84  F   UNL A   1      44.828  25.523  36.429  1.00  0.00    -0.200 F 
ATOM     85  C   UNL A   1      46.261  27.156  35.498  1.00  0.00     0.200 A 
ATOM     86  F   UNL A   1      47.653  28.825  34.573  1.00  0.00    -0.200 F 
ATOM     87  F   UNL A   1      47.330  26.522  35.998  1.00  0.00    -0.200 F 
ENDBRANCH  54  77
ENDBRANCH  28  29
ENDBRANCH  21  23
ENDBRANCH  20  21
ENDBRANCH  19  20
ENDBRANCH   1  19
TORSDOF 16
ENDMDL
MODEL 2
REMARK VINA RESULT:     -10.7      1.582      8.092
REMARK SMILES C=CC[N@@H+](CC(=O)OCCOC(=O)c1ccc(-c2c3nc(c(-c4c(F)c(F)c(F)c(F)c4F)c4ccc([nH]4)c(-c4c(F)c(F)c(F)c(F)c4F)c4nc(c(-c5c(F)c(F)c(F)c(F)c5F)c5ccc2[nH]5)C=C4)C=C3)cc1)C[C@H]1CCC[C@H](C)C1
REMARK SMILES IDX 9 1 8 2 6 3 7 4 5 5 4 6 3 8 2 9 1 10 77 11 78 12 79 13 84 14
REMARK SMILES IDX 80 15 82 16 81 17 83 18 10 19 11 20 12 21 13 22 14 23 15 24
REMARK SMILES IDX 76 25 16 26 75 27 17 28 18 29 19 30 69 31 20 32 74 33 68 34
REMARK SMILES IDX 70 35 21 36 73 37 67 38 66 39 22 41 54 42 34 43 53 44 35 45
REMARK SMILES IDX 38 46 52 47 71 48 36 49 37 50 51 52 72 53 39 54 23 55 24 56
REMARK SMILES IDX 32 57 25 58 26 59 30 60 33 61 27 62 28 63 31 64 29 65 55 66
REMARK SMILES IDX 56 67 64 68 57 69 58 70 62 71 65 72 59 73 60 74 63 75 61 76
REMARK SMILES IDX 40 77 41 78 49 79 42 80 43 81 47 82 50 83 44 84 45 85 48 86
REMARK SMILES IDX 46 87
REMARK H PARENT 4 7 70 40 38 51
REMARK Flexibility Score: inf
ROOT
ATOM      1  C   UNL A   1      31.598  31.599  26.771  1.00  0.00     0.274 C 
ENDROOT
BRANCH   1   2
ATOM      2  O   UNL A   1      32.711  30.783  26.341  1.00  0.00    -0.458 OA
BRANCH   2   3
ATOM      3  C   UNL A   1      32.600  29.448  26.574  1.00  0.00     0.361 C 
ATOM      4  O   UNL A   1      33.233  28.860  27.450  1.00  0.00    -0.245 OA
BRANCH   3   5
ATOM      5  C   UNL A   1      31.514  28.729  25.772  1.00  0.00     0.386 C 
BRANCH   5   6
ATOM      6  N   UNL A   1      31.633  28.668  24.314  1.00  0.00    -0.322 N 
ATOM      7  H   UNL A   1      32.107  29.531  24.047  1.00  0.00     0.348 HD
BRANCH   6   8
ATOM      8  C   UNL A   1      30.458  28.986  23.542  1.00  0.00     0.290 C 
BRANCH   8   9
ATOM      9  C   UNL A   1      29.780  27.747  23.027  1.00  0.00     0.025 C 
ATOM     10  C   UNL A   1      29.331  26.747  23.795  1.00  0.00     0.010 C 
ENDBRANCH   8   9
ENDBRANCH   6   8
BRANCH   6  11
ATOM     11  C   UNL A   1      32.812  28.053  23.717  1.00  0.00     0.266 C 
BRANCH  11  12
ATOM     12  C   UNL A   1      33.074  26.531  23.864  1.00  0.00     0.044 C 
ATOM     13  C   UNL A   1      33.472  25.795  22.589  1.00  0.00     0.009 C 
ATOM     14  C   UNL A   1      34.153  26.313  24.955  1.00  0.00     0.012 C 
ATOM     15  C   UNL A   1      33.639  24.303  22.877  1.00  0.00     0.001 C 
ATOM     16  C   UNL A   1      34.488  24.838  25.233  1.00  0.00    -0.014 C 
ATOM     17  C   UNL A   1      34.707  24.050  23.936  1.00  0.00     0.003 C 
ATOM     18  C   UNL A   1      33.442  24.180  26.137  1.00  0.00     0.007 C 
ENDBRANCH  11  12
ENDBRANCH   6  11
ENDBRANCH   5   6
ENDBRANCH   3   5
ENDBRANCH   2   3
ENDBRANCH   1   2
BRANCH   1  19
ATOM     19  C   UNL A   1      31.976  33.093  26.797  1.00  0.00     0.275 C 
BRANCH  19  20
ATOM     20  O   UNL A   1      32.630  33.559  28.008  1.00  0.00    -0.458 OA
BRANCH  20  21
ATOM     21  C   UNL A   1      33.921  33.896  27.859  1.00  0.00     0.338 C 
ATOM     22  O   UNL A   1      34.369  34.810  27.189  1.00  0.00    -0.246 OA
BRANCH  21  23
ATOM     23  C   UNL A   1      34.912  33.117  28.574  1.00  0.00     0.060 A 
ATOM     24  C   UNL A   1      36.214  33.643  28.546  1.00  0.00     0.016 A 
ATOM     25  C   UNL A   1      34.661  31.813  28.992  1.00  0.00     0.016 A 
ATOM     26  C   UNL A   1      37.277  32.867  28.959  1.00  0.00     0.010 A 
ATOM     27  C   UNL A   1      35.732  31.038  29.436  1.00  0.00     0.010 A 
ATOM     28  C   UNL A   1      37.033  31.574  29.438  1.00  0.00    -0.014 A 
BRANCH  28  29
ATOM     29  C   UNL A   1      38.119  30.914  30.176  1.00  0.00     0.031 A 
ATOM     30  C   UNL A   1      39.049  29.946  29.531  1.00  0.00     0.074 A 
ATOM     31  C   UNL A   1      38.265  31.300  31.456  1.00  0.00     0.049 A 
ATOM     32  N   UNL A   1      40.074  29.329  30.058  1.00  0.00    -0.248 NA
ATOM     33  C   UNL A   1      38.808  29.626  28.118  1.00  0.00     0.031 C 
ATOM     34  C   UNL A   1      37.405  32.279  32.132  1.00  0.00     0.029 A 
ATOM     35  N   UNL A   1      39.183  30.950  32.403  1.00  0.00    -0.354 N 
ATOM     36  C   UNL A   1      40.597  28.536  29.049  1.00  0.00     0.074 A 
ATOM     37  C   UNL A   1      39.776  28.748  27.874  1.00  0.00     0.031 C 
ATOM     38  C   UNL A   1      37.851  32.466  33.380  1.00  0.00     0.029 A 
ATOM     39  C   UNL A   1      38.996  31.595  33.599  1.00  0.00     0.049 A 
ATOM     40  H   UNL A   1      39.906  30.301  32.243  1.00  0.00     0.167 HD
ATOM     41  C   UNL A   1      41.664  27.704  29.122  1.00  0.00     0.037 A 
ATOM     42  C   UNL A   1      39.672  31.483  34.753  1.00  0.00     0.037 A 
ATOM     43  C   UNL A   1      42.458  27.518  30.310  1.00  0.00     0.049 A 
ATOM     44  C   UNL A   1      40.840  30.551  34.799  1.00  0.00     0.074 A 
ATOM     45  C   UNL A   1      43.564  26.707  30.496  1.00  0.00     0.029 A 
ATOM     46  N   UNL A   1      42.225  28.157  31.522  1.00  0.00    -0.354 N 
ATOM     47  N   UNL A   1      41.327  29.799  33.842  1.00  0.00    -0.248 NA
ATOM     48  C   UNL A   1      41.550  30.449  36.076  1.00  0.00     0.031 C 
ATOM     49  C   UNL A   1      43.979  26.831  31.828  1.00  0.00     0.029 A 
ATOM     50  C   UNL A   1      43.152  27.743  32.465  1.00  0.00     0.049 A 
ATOM     51  H   UNL A   1      41.505  28.808  31.686  1.00  0.00     0.167 HD
ATOM     52  C   UNL A   1      42.397  29.123  34.399  1.00  0.00     0.074 A 
ATOM     53  C   UNL A   1      42.506  29.580  35.773  1.00  0.00     0.031 C 
ATOM     54  C   UNL A   1      43.212  28.202  33.830  1.00  0.00     0.037 A 
BRANCH  41  55
ATOM     55  C   UNL A   1      42.010  26.908  27.900  1.00  0.00     0.064 A 
ATOM     56  C   UNL A   1      42.938  27.372  26.957  1.00  0.00     0.173 A 
ATOM     57  C   UNL A   1      41.443  25.642  27.696  1.00  0.00     0.173 A 
ATOM     58  F   UNL A   1      43.499  28.582  27.099  1.00  0.00    -0.203 F 
ATOM     59  C   UNL A   1      43.278  26.599  25.847  1.00  0.00     0.198 A 
ATOM     60  C   UNL A   1      41.797  24.866  26.596  1.00  0.00     0.198 A 
ATOM     61  F   UNL A   1      40.551  25.153  28.571  1.00  0.00    -0.203 F 
ATOM     62  F   UNL A   1      44.149  27.071  24.944  1.00  0.00    -0.200 F 
ATOM     63  C   UNL A   1      42.712  25.345  25.672  1.00  0.00     0.200 A 
ATOM     64  F   UNL A   1      41.253  23.651  26.431  1.00  0.00    -0.200 F 
ATOM     65  F   UNL A   1      43.045  24.600  24.608  1.00  0.00    -0.200 F 
ENDBRANCH  41  55
BRANCH  42  66
ATOM     66  C   UNL A   1      39.235  32.284  35.919  1.00  0.00     0.064 A 
ATOM     67  C   UNL A   1      38.343  31.758  36.860  1.00  0.00     0.173 A 
ATOM     68  C   UNL A   1      39.784  33.551  36.167  1.00  0.00     0.173 A 
ATOM     69  F   UNL A   1      37.794  30.552  36.660  1.00  0.00    -0.203 F 
ATOM     70  C   UNL A   1      38.019  32.469  38.013  1.00  0.00     0.198 A 
ATOM     71  C   UNL A   1      39.476  34.251  37.330  1.00  0.00     0.198 A 
ATOM     72  F   UNL A   1      40.658  34.085  35.301  1.00  0.00    -0.203 F 
ATOM     73  F   UNL A   1      37.157  31.949  38.897  1.00  0.00    -0.200 F 
ATOM     74  C   UNL A   1      38.594  33.710  38.252  1.00  0.00     0.200 A 
ATOM     75  F   UNL A   1      40.052  35.438  37.567  1.00  0.00    -0.200 F 
ATOM     76  F   UNL A   1      38.301  34.381  39.373  1.00  0.00    -0.200 F 
ENDBRANCH  42  66
BRANCH  54  77
ATOM     77  C   UNL A   1      44.269  27.624  34.717  1.00  0.00     0.064 A 
ATOM     78  C   UNL A   1      44.032  26.456  35.454  1.00  0.00     0.173 A 
ATOM     79  C   UNL A   1      45.520  28.244  34.834  1.00  0.00     0.173 A 
ATOM     80  F   UNL A   1      42.840  25.845  35.387  1.00  0.00    -0.203 F 
ATOM     81  C   UNL A   1      45.008  25.938  36.299  1.00  0.00     0.198 A 
ATOM     82  C   UNL A   1      46.499  27.713  35.666  1.00  0.00     0.198 A 
ATOM     83  F   UNL A   1      45.786  29.365  34.147  1.00  0.00    -0.203 F 
ATOM     84  F   UNL A   1      44.747  24.846  37.031  1.00  0.00    -0.200 F 
ATOM     85  C   UNL A   1      46.241  26.566  36.403  1.00  0.00     0.200 A 
ATOM     86  F   UNL A   1      47.692  28.318  35.765  1.00  0.00    -0.200 F 
ATOM     87  F   UNL A   1      47.178  26.071  37.223  1.00  0.00    -0.200 F 
ENDBRANCH  54  77
ENDBRANCH  28  29
ENDBRANCH  21  23
ENDBRANCH  20  21
ENDBRANCH  19  20
ENDBRANCH   1  19
TORSDOF 16
ENDMDL
MODEL 3
REMARK VINA RESULT:     -10.5      6.541     10.568
REMARK SMILES C=CC[N@@H+](CC(=O)OCCOC(=O)c1ccc(-c2c3nc(c(-c4c(F)c(F)c(F)c(F)c4F)c4ccc([nH]4)c(-c4c(F)c(F)c(F)c(F)c4F)c4nc(c(-c5c(F)c(F)c(F)c(F)c5F)c5ccc2[nH]5)C=C4)C=C3)cc1)C[C@H]1CCC[C@H](C)C1
REMARK SMILES IDX 9 1 8 2 6 3 7 4 5 5 4 6 3 8 2 9 1 10 77 11 78 12 79 13 84 14
REMARK SMILES IDX 80 15 82 16 81 17 83 18 10 19 11 20 12 21 13 22 14 23 15 24
REMARK SMILES IDX 76 25 16 26 75 27 17 28 18 29 19 30 69 31 20 32 74 33 68 34
REMARK SMILES IDX 70 35 21 36 73 37 67 38 66 39 22 41 54 42 34 43 53 44 35 45
REMARK SMILES IDX 38 46 52 47 71 48 36 49 37 50 51 52 72 53 39 54 23 55 24 56
REMARK SMILES IDX 32 57 25 58 26 59 30 60 33 61 27 62 28 63 31 64 29 65 55 66
REMARK SMILES IDX 56 67 64 68 57 69 58 70 62 71 65 72 59 73 60 74 63 75 61 76
REMARK SMILES IDX 40 77 41 78 49 79 42 80 43 81 47 82 50 83 44 84 45 85 48 86
REMARK SMILES IDX 46 87
REMARK H PARENT 4 7 70 40 38 51
REMARK Flexibility Score: inf
ROOT
ATOM      1  C   UNL A   1      38.775  20.918  25.302  1.00  0.00     0.274 C 
ENDROOT
BRANCH   1   2
ATOM      2  O   UNL A   1      37.332  20.837  25.309  1.00  0.00    -0.458 OA
BRANCH   2   3
ATOM      3  C   UNL A   1      36.674  21.938  25.762  1.00  0.00     0.361 C 
ATOM      4  O   UNL A   1      37.181  23.059  25.804  1.00  0.00    -0.245 OA
BRANCH   3   5
ATOM      5  C   UNL A   1      35.192  21.734  26.083  1.00  0.00     0.386 C 
BRANCH   5   6
ATOM      6  N   UNL A   1      34.244  21.572  24.979  1.00  0.00    -0.322 N 
ATOM      7  H   UNL A   1      34.586  20.772  24.446  1.00  0.00     0.348 HD
BRANCH   6   8
ATOM      8  C   UNL A   1      34.375  22.471  23.859  1.00  0.00     0.290 C 
BRANCH   8   9
ATOM      9  C   UNL A   1      33.050  22.735  23.203  1.00  0.00     0.025 C 
ATOM     10  C   UNL A   1      32.893  23.177  21.949  1.00  0.00     0.010 C 
ENDBRANCH   8   9
ENDBRANCH   6   8
BRANCH   6  11
ATOM     11  C   UNL A   1      33.076  20.719  25.157  1.00  0.00     0.266 C 
BRANCH  11  12
ATOM     12  C   UNL A   1      33.041  19.286  24.561  1.00  0.00     0.044 C 
ATOM     13  C   UNL A   1      32.528  19.171  23.129  1.00  0.00     0.009 C 
ATOM     14  C   UNL A   1      34.459  18.667  24.663  1.00  0.00     0.012 C 
ATOM     15  C   UNL A   1      32.497  17.703  22.703  1.00  0.00     0.001 C 
ATOM     16  C   UNL A   1      34.562  17.225  24.139  1.00  0.00    -0.014 C 
ATOM     17  C   UNL A   1      33.880  17.066  22.775  1.00  0.00     0.003 C 
ATOM     18  C   UNL A   1      34.046  16.212  25.164  1.00  0.00     0.007 C 
ENDBRANCH  11  12
ENDBRANCH   6  11
ENDBRANCH   5   6
ENDBRANCH   3   5
ENDBRANCH   2   3
ENDBRANCH   1   2
BRANCH   1  19
ATOM     19  C   UNL A   1      39.408  19.683  25.974  1.00  0.00     0.275 C 
BRANCH  19  20
ATOM     20  O   UNL A   1      40.643  19.202  25.379  1.00  0.00    -0.458 OA
BRANCH  20  21
ATOM     21  C   UNL A   1      41.741  19.388  26.128  1.00  0.00     0.338 C 
ATOM     22  O   UNL A   1      42.493  18.528  26.553  1.00  0.00    -0.246 OA
BRANCH  21  23
ATOM     23  C   UNL A   1      42.108  20.747  26.471  1.00  0.00     0.060 A 
ATOM     24  C   UNL A   1      42.439  21.566  25.379  1.00  0.00     0.016 A 
ATOM     25  C   UNL A   1      42.401  21.122  27.779  1.00  0.00     0.016 A 
ATOM     26  C   UNL A   1      43.051  22.784  25.594  1.00  0.00     0.010 A 
ATOM     27  C   UNL A   1      42.993  22.365  27.998  1.00  0.00     0.010 A 
ATOM     28  C   UNL A   1      43.297  23.200  26.908  1.00  0.00    -0.014 A 
BRANCH  28  29
ATOM     29  C   UNL A   1      43.627  24.619  27.113  1.00  0.00     0.031 A 
ATOM     30  C   UNL A   1      42.652  25.589  27.683  1.00  0.00     0.074 A 
ATOM     31  C   UNL A   1      44.894  24.964  26.821  1.00  0.00     0.049 A 
ATOM     32  N   UNL A   1      42.831  26.856  27.954  1.00  0.00    -0.248 NA
ATOM     33  C   UNL A   1      41.307  25.086  27.990  1.00  0.00     0.031 C 
ATOM     34  C   UNL A   1      45.908  24.042  26.298  1.00  0.00     0.029 A 
ATOM     35  N   UNL A   1      45.553  26.153  26.943  1.00  0.00    -0.354 N 
ATOM     36  C   UNL A   1      41.621  27.309  28.454  1.00  0.00     0.074 A 
ATOM     37  C   UNL A   1      40.710  26.182  28.448  1.00  0.00     0.031 C 
ATOM     38  C   UNL A   1      47.067  24.696  26.162  1.00  0.00     0.029 A 
ATOM     39  C   UNL A   1      46.865  26.084  26.551  1.00  0.00     0.049 A 
ATOM     40  H   UNL A   1      45.129  26.976  27.278  1.00  0.00     0.167 HD
ATOM     41  C   UNL A   1      41.316  28.563  28.866  1.00  0.00     0.037 A 
ATOM     42  C   UNL A   1      47.800  27.045  26.499  1.00  0.00     0.037 A 
ATOM     43  C   UNL A   1      42.249  29.661  28.857  1.00  0.00     0.049 A 
ATOM     44  C   UNL A   1      47.427  28.419  26.957  1.00  0.00     0.074 A 
ATOM     45  C   UNL A   1      42.051  30.971  29.258  1.00  0.00     0.029 A 
ATOM     46  N   UNL A   1      43.565  29.574  28.420  1.00  0.00    -0.354 N 
ATOM     47  N   UNL A   1      46.278  28.843  27.423  1.00  0.00    -0.248 NA
ATOM     48  C   UNL A   1      48.470  29.444  26.881  1.00  0.00     0.031 C 
ATOM     49  C   UNL A   1      43.236  31.682  29.033  1.00  0.00     0.029 A 
ATOM     50  C   UNL A   1      44.184  30.809  28.521  1.00  0.00     0.049 A 
ATOM     51  H   UNL A   1      43.994  28.753  28.086  1.00  0.00     0.167 HD
ATOM     52  C   UNL A   1      46.451  30.188  27.690  1.00  0.00     0.074 A 
ATOM     53  C   UNL A   1      47.830  30.502  27.360  1.00  0.00     0.031 C 
ATOM     54  C   UNL A   1      45.551  31.087  28.157  1.00  0.00     0.037 A 
BRANCH  41  55
ATOM     55  C   UNL A   1      39.913  28.822  29.325  1.00  0.00     0.064 A 
ATOM     56  C   UNL A   1      38.909  29.228  28.435  1.00  0.00     0.173 A 
ATOM     57  C   UNL A   1      39.557  28.614  30.666  1.00  0.00     0.173 A 
ATOM     58  F   UNL A   1      39.201  29.453  27.145  1.00  0.00    -0.203 F 
ATOM     59  C   UNL A   1      37.600  29.425  28.873  1.00  0.00     0.198 A 
ATOM     60  C   UNL A   1      38.246  28.796  31.097  1.00  0.00     0.198 A 
ATOM     61  F   UNL A   1      40.481  28.225  31.558  1.00  0.00    -0.203 F 
ATOM     62  F   UNL A   1      36.660  29.837  28.010  1.00  0.00    -0.200 F 
ATOM     63  C   UNL A   1      37.269  29.203  30.202  1.00  0.00     0.200 A 
ATOM     64  F   UNL A   1      37.926  28.575  32.381  1.00  0.00    -0.200 F 
ATOM     65  F   UNL A   1      36.009  29.386  30.619  1.00  0.00    -0.200 F 
ENDBRANCH  41  55
BRANCH  42  66
ATOM     66  C   UNL A   1      49.151  26.703  25.999  1.00  0.00     0.064 A 
ATOM     67  C   UNL A   1      49.500  26.922  24.662  1.00  0.00     0.173 A 
ATOM     68  C   UNL A   1      50.148  26.248  26.875  1.00  0.00     0.173 A 
ATOM     69  F   UNL A   1      48.576  27.354  23.791  1.00  0.00    -0.203 F 
ATOM     70  C   UNL A   1      50.802  26.704  24.218  1.00  0.00     0.198 A 
ATOM     71  C   UNL A   1      51.454  26.052  26.435  1.00  0.00     0.198 A 
ATOM     72  F   UNL A   1      49.862  26.043  28.169  1.00  0.00    -0.203 F 
ATOM     73  F   UNL A   1      51.112  26.914  22.932  1.00  0.00    -0.200 F 
ATOM     74  C   UNL A   1      51.780  26.279  25.107  1.00  0.00     0.200 A 
ATOM     75  F   UNL A   1      52.399  25.664  27.302  1.00  0.00    -0.200 F 
ATOM     76  F   UNL A   1      53.037  26.095  24.684  1.00  0.00    -0.200 F 
ENDBRANCH  42  66
BRANCH  54  77
ATOM     77  C   UNL A   1      46.044  32.491  28.310  1.00  0.00     0.064 A 
ATOM     78  C   UNL A   1      46.632  32.922  29.508  1.00  0.00     0.173 A 
ATOM     79  C   UNL A   1      45.923  33.409  27.259  1.00  0.00     0.173 A 
ATOM     80  F   UNL A   1      46.746  32.080  30.545  1.00  0.00    -0.203 F 
ATOM     81  C   UNL A   1      47.063  34.236  29.655  1.00  0.00     0.198 A 
ATOM     82  C   UNL A   1      46.372  34.717  27.404  1.00  0.00     0.198 A 
ATOM     83  F   UNL A   1      45.364  33.037  26.097  1.00  0.00    -0.203 F 
ATOM     84  F   UNL A   1      47.581  34.643  30.822  1.00  0.00    -0.200 F 
ATOM     85  C   UNL A   1      46.935  35.132  28.603  1.00  0.00     0.200 A 
ATOM     86  F   UNL A   1      46.250  35.582  26.387  1.00  0.00    -0.200 F 
ATOM     87  F   UNL A   1      47.343  36.400  28.749  1.00  0.00    -0.200 F 
ENDBRANCH  54  77
ENDBRANCH  28  29
ENDBRANCH  21  23
ENDBRANCH  20  21
ENDBRANCH  19  20
ENDBRANCH   1  19
TORSDOF 16
ENDMDL
