MODEL 1
REMARK VINA RESULT:     -12.8      0.000      0.000
REMARK SMILES O=C(OCCOC(=O)[C@@H]1CCC[C@@H](C(=O)N2CCN3C(=O)NC[C@@H]3C2)C1)c1ccc(-c2c3nc(c(-c4c(F)c(F)c(F)c(F)c4F)c4ccc([nH]4)c(-c4c(F)c(F)c(F)c(F)c4F)c4nc(c(-c5c(F)c(F)c(F)c(F)c5F)c5ccc2[nH]5)C=C4)C=C3)cc1
REMARK SMILES IDX 4 1 3 2 2 3 1 4 27 5 28 6 89 7 29 8 88 9 30 10 31 11 32 12
REMARK SMILES IDX 82 13 33 14 87 15 81 16 83 17 34 18 86 19 80 20 79 21 35 23
REMARK SMILES IDX 67 24 47 25 66 26 48 27 51 28 65 29 84 30 49 31 50 32 64 34
REMARK SMILES IDX 85 35 52 36 36 37 37 38 45 39 38 40 39 41 43 42 46 43 40 44
REMARK SMILES IDX 41 45 44 46 42 47 68 48 69 49 77 50 70 51 71 52 75 53 78 54
REMARK SMILES IDX 72 55 73 56 76 57 74 58 53 59 54 60 62 61 55 62 56 63 60 64
REMARK SMILES IDX 63 65 57 66 58 67 61 68 59 69 5 70 6 71 7 72 8 73 9 74 10 75
REMARK SMILES IDX 26 76 11 77 13 78 12 79 14 80 15 81 16 82 17 83 25 84 18 85
REMARK SMILES IDX 24 86 19 87 23 88 20 89 22 90 21 91
REMARK H PARENT 83 22 51 33 22 92
REMARK Flexibility Score: inf
ROOT
ATOM      1  C   UNL A   1      31.497  31.968  26.844  1.00  0.00     0.275 C 
ENDROOT
BRANCH   1   2
ATOM      2  O   UNL A   1      32.585  32.896  26.803  1.00  0.00    -0.458 OA
BRANCH   2   3
ATOM      3  C   UNL A   1      33.401  33.291  27.801  1.00  0.00     0.338 C 
ATOM      4  O   UNL A   1      33.073  34.288  28.446  1.00  0.00    -0.246 OA
BRANCH   3   5
ATOM      5  C   UNL A   1      34.747  32.684  28.104  1.00  0.00     0.060 A 
ATOM      6  C   UNL A   1      35.992  33.318  28.185  1.00  0.00     0.016 A 
ATOM      7  C   UNL A   1      34.699  31.335  28.478  1.00  0.00     0.016 A 
ATOM      8  C   UNL A   1      37.103  32.690  28.769  1.00  0.00     0.010 A 
ATOM      9  C   UNL A   1      35.771  30.734  29.135  1.00  0.00     0.010 A 
ATOM     10  C   UNL A   1      36.986  31.415  29.312  1.00  0.00    -0.014 A 
BRANCH  10  11
ATOM     11  C   UNL A   1      38.121  30.736  29.989  1.00  0.00     0.031 A 
ATOM     12  C   UNL A   1      38.452  31.178  31.384  1.00  0.00     0.074 A 
ATOM     13  C   UNL A   1      38.885  29.811  29.368  1.00  0.00     0.049 A 
ATOM     14  N   UNL A   1      39.451  30.833  32.152  1.00  0.00    -0.248 NA
ATOM     15  C   UNL A   1      37.552  32.180  31.987  1.00  0.00     0.031 C 
ATOM     16  C   UNL A   1      38.687  29.291  28.014  1.00  0.00     0.029 A 
ATOM     17  N   UNL A   1      40.030  29.171  29.787  1.00  0.00    -0.354 N 
ATOM     18  C   UNL A   1      39.264  31.550  33.322  1.00  0.00     0.074 A 
ATOM     19  C   UNL A   1      38.203  32.497  33.090  1.00  0.00     0.031 C 
ATOM     20  C   UNL A   1      39.709  28.478  27.687  1.00  0.00     0.029 A 
ATOM     21  C   UNL A   1      40.623  28.390  28.819  1.00  0.00     0.049 A 
ATOM     22  H   UNL A   1      40.393  29.263  30.698  1.00  0.00     0.167 HD
ATOM     23  C   UNL A   1      39.827  31.347  34.533  1.00  0.00     0.037 A 
ATOM     24  C   UNL A   1      41.771  27.684  28.853  1.00  0.00     0.037 A 
ATOM     25  C   UNL A   1      40.852  30.378  34.769  1.00  0.00     0.049 A 
ATOM     26  C   UNL A   1      42.501  27.580  30.170  1.00  0.00     0.074 A 
ATOM     27  C   UNL A   1      41.466  30.038  35.957  1.00  0.00     0.029 A 
ATOM     28  N   UNL A   1      41.421  29.593  33.774  1.00  0.00    -0.354 N 
ATOM     29  N   UNL A   1      42.222  28.152  31.317  1.00  0.00    -0.248 NA
ATOM     30  C   UNL A   1      43.661  26.678  30.219  1.00  0.00     0.031 C 
ATOM     31  C   UNL A   1      42.449  29.083  35.671  1.00  0.00     0.029 A 
ATOM     32  C   UNL A   1      42.403  28.788  34.316  1.00  0.00     0.049 A 
ATOM     33  H   UNL A   1      41.162  29.609  32.825  1.00  0.00     0.167 HD
ATOM     34  C   UNL A   1      43.112  27.616  32.239  1.00  0.00     0.074 A 
ATOM     35  C   UNL A   1      43.956  26.692  31.511  1.00  0.00     0.031 C 
ATOM     36  C   UNL A   1      43.203  27.848  33.572  1.00  0.00     0.037 A 
BRANCH  23  37
ATOM     37  C   UNL A   1      39.271  32.157  35.665  1.00  0.00     0.064 A 
ATOM     38  C   UNL A   1      39.733  33.462  35.917  1.00  0.00     0.173 A 
ATOM     39  C   UNL A   1      38.345  31.604  36.556  1.00  0.00     0.173 A 
ATOM     40  F   UNL A   1      40.644  34.025  35.108  1.00  0.00    -0.203 F 
ATOM     41  C   UNL A   1      39.338  34.154  37.057  1.00  0.00     0.198 A 
ATOM     42  C   UNL A   1      37.921  32.317  37.674  1.00  0.00     0.198 A 
ATOM     43  F   UNL A   1      37.878  30.362  36.363  1.00  0.00    -0.203 F 
ATOM     44  F   UNL A   1      39.874  35.352  37.330  1.00  0.00    -0.200 F 
ATOM     45  C   UNL A   1      38.431  33.582  37.933  1.00  0.00     0.200 A 
ATOM     46  F   UNL A   1      37.041  31.766  38.522  1.00  0.00    -0.200 F 
ATOM     47  F   UNL A   1      38.066  34.240  39.043  1.00  0.00    -0.200 F 
ENDBRANCH  23  37
BRANCH  24  48
ATOM     48  C   UNL A   1      42.272  26.953  27.654  1.00  0.00     0.064 A 
ATOM     49  C   UNL A   1      41.892  25.626  27.403  1.00  0.00     0.173 A 
ATOM     50  C   UNL A   1      43.197  27.536  26.775  1.00  0.00     0.173 A 
ATOM     51  F   UNL A   1      41.028  25.013  28.225  1.00  0.00    -0.203 F 
ATOM     52  C   UNL A   1      42.447  24.898  26.349  1.00  0.00     0.198 A 
ATOM     53  C   UNL A   1      43.736  26.814  25.707  1.00  0.00     0.198 A 
ATOM     54  F   UNL A   1      43.595  28.803  26.963  1.00  0.00    -0.203 F 
ATOM     55  F   UNL A   1      42.110  23.613  26.175  1.00  0.00    -0.200 F 
ATOM     56  C   UNL A   1      43.370  25.493  25.504  1.00  0.00     0.200 A 
ATOM     57  F   UNL A   1      44.627  27.392  24.889  1.00  0.00    -0.200 F 
ATOM     58  F   UNL A   1      43.915  24.787  24.502  1.00  0.00    -0.200 F 
ENDBRANCH  24  48
BRANCH  36  59
ATOM     59  C   UNL A   1      44.189  27.030  34.350  1.00  0.00     0.064 A 
ATOM     60  C   UNL A   1      45.483  27.489  34.626  1.00  0.00     0.173 A 
ATOM     61  C   UNL A   1      43.796  25.796  34.894  1.00  0.00     0.173 A 
ATOM     62  F   UNL A   1      45.909  28.655  34.117  1.00  0.00    -0.203 F 
ATOM     63  C   UNL A   1      46.356  26.733  35.402  1.00  0.00     0.198 A 
ATOM     64  C   UNL A   1      44.658  25.062  35.702  1.00  0.00     0.198 A 
ATOM     65  F   UNL A   1      42.563  25.317  34.665  1.00  0.00    -0.203 F 
ATOM     66  F   UNL A   1      47.605  27.169  35.617  1.00  0.00    -0.200 F 
ATOM     67  C   UNL A   1      45.939  25.529  35.950  1.00  0.00     0.200 A 
ATOM     68  F   UNL A   1      44.243  23.910  36.247  1.00  0.00    -0.200 F 
ATOM     69  F   UNL A   1      46.774  24.814  36.717  1.00  0.00    -0.200 F 
ENDBRANCH  36  59
ENDBRANCH  10  11
ENDBRANCH   3   5
ENDBRANCH   2   3
ENDBRANCH   1   2
BRANCH   1  70
ATOM     70  C   UNL A   1      31.923  30.499  26.720  1.00  0.00     0.274 C 
BRANCH  70  71
ATOM     71  O   UNL A   1      32.385  30.097  25.408  1.00  0.00    -0.462 OA
BRANCH  71  72
ATOM     72  C   UNL A   1      31.550  29.282  24.695  1.00  0.00     0.309 C 
ATOM     73  O   UNL A   1      30.493  29.651  24.198  1.00  0.00    -0.252 OA
BRANCH  72  74
ATOM     74  C   UNL A   1      32.033  27.828  24.604  1.00  0.00     0.100 C 
ATOM     75  C   UNL A   1      33.004  27.613  23.451  1.00  0.00     0.015 C 
ATOM     76  C   UNL A   1      30.884  26.837  24.482  1.00  0.00     0.028 C 
ATOM     77  C   UNL A   1      33.529  26.175  23.452  1.00  0.00     0.002 C 
ATOM     78  C   UNL A   1      31.276  25.346  24.415  1.00  0.00     0.079 C 
ATOM     79  C   UNL A   1      32.432  25.107  23.436  1.00  0.00     0.013 C 
BRANCH  78  80
ATOM     80  C   UNL A   1      31.590  24.814  25.805  1.00  0.00     0.225 C 
ATOM     81  O   UNL A   1      31.308  25.439  26.826  1.00  0.00    -0.275 OA
BRANCH  80  82
ATOM     82  N   UNL A   1      32.005  23.501  25.865  1.00  0.00    -0.339 N 
ATOM     83  C   UNL A   1      31.233  22.305  25.476  1.00  0.00     0.141 C 
ATOM     84  C   UNL A   1      33.326  23.272  26.426  1.00  0.00     0.146 C 
ATOM     85  C   UNL A   1      32.076  21.178  24.809  1.00  0.00     0.143 C 
ATOM     86  C   UNL A   1      34.145  22.469  25.450  1.00  0.00     0.125 C 
ATOM     87  N   UNL A   1      33.485  21.210  25.169  1.00  0.00    -0.317 N 
ATOM     88  C   UNL A   1      35.503  22.042  25.981  1.00  0.00     0.144 C 
ATOM     89  C   UNL A   1      34.413  20.187  25.054  1.00  0.00     0.317 C 
ATOM     90  N   UNL A   1      35.638  20.705  25.468  1.00  0.00    -0.336 N 
ATOM     91  O   UNL A   1      34.222  19.052  24.674  1.00  0.00    -0.249 OA
ATOM     92  H   UNL A   1      36.492  20.216  25.415  1.00  0.00     0.165 HD
ENDBRANCH  80  82
ENDBRANCH  78  80
ENDBRANCH  72  74
ENDBRANCH  71  72
ENDBRANCH  70  71
ENDBRANCH   1  70
TORSDOF 13
ENDMDL
MODEL 2
REMARK VINA RESULT:     -12.7      4.310     10.130
REMARK SMILES O=C(OCCOC(=O)[C@@H]1CCC[C@@H](C(=O)N2CCN3C(=O)NC[C@@H]3C2)C1)c1ccc(-c2c3nc(c(-c4c(F)c(F)c(F)c(F)c4F)c4ccc([nH]4)c(-c4c(F)c(F)c(F)c(F)c4F)c4nc(c(-c5c(F)c(F)c(F)c(F)c5F)c5ccc2[nH]5)C=C4)C=C3)cc1
REMARK SMILES IDX 4 1 3 2 2 3 1 4 27 5 28 6 89 7 29 8 88 9 30 10 31 11 32 12
REMARK SMILES IDX 82 13 33 14 87 15 81 16 83 17 34 18 86 19 80 20 79 21 35 23
REMARK SMILES IDX 67 24 47 25 66 26 48 27 51 28 65 29 84 30 49 31 50 32 64 34
REMARK SMILES IDX 85 35 52 36 36 37 37 38 45 39 38 40 39 41 43 42 46 43 40 44
REMARK SMILES IDX 41 45 44 46 42 47 68 48 69 49 77 50 70 51 71 52 75 53 78 54
REMARK SMILES IDX 72 55 73 56 76 57 74 58 53 59 54 60 62 61 55 62 56 63 60 64
REMARK SMILES IDX 63 65 57 66 58 67 61 68 59 69 5 70 6 71 7 72 8 73 9 74 10 75
REMARK SMILES IDX 26 76 11 77 13 78 12 79 14 80 15 81 16 82 17 83 25 84 18 85
REMARK SMILES IDX 24 86 19 87 23 88 20 89 22 90 21 91
REMARK H PARENT 83 22 51 33 22 92
REMARK Flexibility Score: inf
ROOT
ATOM      1  C   UNL A   1      37.477  21.092  24.458  1.00  0.00     0.275 C 
ENDROOT
BRANCH   1   2
ATOM      2  O   UNL A   1      37.963  21.255  25.792  1.00  0.00    -0.458 OA
BRANCH   2   3
ATOM      3  C   UNL A   1      39.228  21.460  26.216  1.00  0.00     0.338 C 
ATOM      4  O   UNL A   1      40.022  20.523  26.118  1.00  0.00    -0.246 OA
BRANCH   3   5
ATOM      5  C   UNL A   1      39.709  22.704  26.917  1.00  0.00     0.060 A 
ATOM      6  C   UNL A   1      40.753  22.837  27.840  1.00  0.00     0.016 A 
ATOM      7  C   UNL A   1      39.104  23.886  26.473  1.00  0.00     0.016 A 
ATOM      8  C   UNL A   1      41.283  24.092  28.178  1.00  0.00     0.010 A 
ATOM      9  C   UNL A   1      39.676  25.129  26.737  1.00  0.00     0.010 A 
ATOM     10  C   UNL A   1      40.795  25.248  27.577  1.00  0.00    -0.014 A 
BRANCH  10  11
ATOM     11  C   UNL A   1      41.364  26.589  27.864  1.00  0.00     0.031 A 
ATOM     12  C   UNL A   1      42.808  26.810  27.521  1.00  0.00     0.074 A 
ATOM     13  C   UNL A   1      40.654  27.561  28.477  1.00  0.00     0.049 A 
ATOM     14  N   UNL A   1      43.574  27.839  27.767  1.00  0.00    -0.248 NA
ATOM     15  C   UNL A   1      43.499  25.699  26.839  1.00  0.00     0.031 C 
ATOM     16  C   UNL A   1      39.246  27.485  28.875  1.00  0.00     0.029 A 
ATOM     17  N   UNL A   1      41.040  28.805  28.923  1.00  0.00    -0.354 N 
ATOM     18  C   UNL A   1      44.808  27.499  27.237  1.00  0.00     0.074 A 
ATOM     19  C   UNL A   1      44.753  26.109  26.858  1.00  0.00     0.031 C 
ATOM     20  C   UNL A   1      38.912  28.591  29.567  1.00  0.00     0.029 A 
ATOM     21  C   UNL A   1      40.070  29.473  29.638  1.00  0.00     0.049 A 
ATOM     22  H   UNL A   1      41.931  29.184  28.746  1.00  0.00     0.167 HD
ATOM     23  C   UNL A   1      45.855  28.305  26.954  1.00  0.00     0.037 A 
ATOM     24  C   UNL A   1      40.118  30.663  30.270  1.00  0.00     0.037 A 
ATOM     25  C   UNL A   1      45.889  29.694  27.295  1.00  0.00     0.049 A 
ATOM     26  C   UNL A   1      41.354  31.510  30.093  1.00  0.00     0.074 A 
ATOM     27  C   UNL A   1      46.865  30.629  27.019  1.00  0.00     0.029 A 
ATOM     28  N   UNL A   1      44.887  30.343  28.004  1.00  0.00    -0.354 N 
ATOM     29  N   UNL A   1      42.465  31.228  29.455  1.00  0.00    -0.248 NA
ATOM     30  C   UNL A   1      41.320  32.865  30.661  1.00  0.00     0.031 C 
ATOM     31  C   UNL A   1      46.478  31.836  27.610  1.00  0.00     0.029 A 
ATOM     32  C   UNL A   1      45.235  31.664  28.202  1.00  0.00     0.049 A 
ATOM     33  H   UNL A   1      44.054  29.924  28.318  1.00  0.00     0.167 HD
ATOM     34  C   UNL A   1      43.221  32.393  29.470  1.00  0.00     0.074 A 
ATOM     35  C   UNL A   1      42.452  33.377  30.201  1.00  0.00     0.031 C 
ATOM     36  C   UNL A   1      44.430  32.634  28.904  1.00  0.00     0.037 A 
BRANCH  23  37
ATOM     37  C   UNL A   1      46.982  27.680  26.190  1.00  0.00     0.064 A 
ATOM     38  C   UNL A   1      48.104  27.152  26.856  1.00  0.00     0.173 A 
ATOM     39  C   UNL A   1      46.992  27.687  24.791  1.00  0.00     0.173 A 
ATOM     40  F   UNL A   1      48.155  27.151  28.197  1.00  0.00    -0.203 F 
ATOM     41  C   UNL A   1      49.220  26.720  26.148  1.00  0.00     0.198 A 
ATOM     42  C   UNL A   1      48.095  27.214  24.085  1.00  0.00     0.198 A 
ATOM     43  F   UNL A   1      45.950  28.184  24.110  1.00  0.00    -0.203 F 
ATOM     44  F   UNL A   1      50.317  26.322  26.807  1.00  0.00    -0.200 F 
ATOM     45  C   UNL A   1      49.214  26.749  24.763  1.00  0.00     0.200 A 
ATOM     46  F   UNL A   1      48.090  27.240  22.745  1.00  0.00    -0.200 F 
ATOM     47  F   UNL A   1      50.296  26.351  24.080  1.00  0.00    -0.200 F 
ENDBRANCH  23  37
BRANCH  24  48
ATOM     48  C   UNL A   1      38.958  31.175  31.055  1.00  0.00     0.064 A 
ATOM     49  C   UNL A   1      38.854  30.934  32.433  1.00  0.00     0.173 A 
ATOM     50  C   UNL A   1      37.896  31.850  30.436  1.00  0.00     0.173 A 
ATOM     51  F   UNL A   1      39.832  30.273  33.071  1.00  0.00    -0.203 F 
ATOM     52  C   UNL A   1      37.717  31.308  33.152  1.00  0.00     0.198 A 
ATOM     53  C   UNL A   1      36.767  32.242  31.160  1.00  0.00     0.198 A 
ATOM     54  F   UNL A   1      37.941  32.110  29.121  1.00  0.00    -0.203 F 
ATOM     55  F   UNL A   1      37.622  31.006  34.454  1.00  0.00    -0.200 F 
ATOM     56  C   UNL A   1      36.674  31.959  32.514  1.00  0.00     0.200 A 
ATOM     57  F   UNL A   1      35.760  32.875  30.542  1.00  0.00    -0.200 F 
ATOM     58  F   UNL A   1      35.576  32.302  33.202  1.00  0.00    -0.200 F 
ENDBRANCH  24  48
BRANCH  36  59
ATOM     59  C   UNL A   1      44.960  34.033  28.974  1.00  0.00     0.064 A 
ATOM     60  C   UNL A   1      44.635  35.001  28.015  1.00  0.00     0.173 A 
ATOM     61  C   UNL A   1      45.747  34.427  30.068  1.00  0.00     0.173 A 
ATOM     62  F   UNL A   1      43.897  34.670  26.945  1.00  0.00    -0.203 F 
ATOM     63  C   UNL A   1      45.094  36.309  28.139  1.00  0.00     0.198 A 
ATOM     64  C   UNL A   1      46.171  35.744  30.210  1.00  0.00     0.198 A 
ATOM     65  F   UNL A   1      46.080  33.538  31.018  1.00  0.00    -0.203 F 
ATOM     66  F   UNL A   1      44.809  37.209  27.188  1.00  0.00    -0.200 F 
ATOM     67  C   UNL A   1      45.849  36.681  29.242  1.00  0.00     0.200 A 
ATOM     68  F   UNL A   1      46.881  36.105  31.287  1.00  0.00    -0.200 F 
ATOM     69  F   UNL A   1      46.270  37.947  29.371  1.00  0.00    -0.200 F 
ENDBRANCH  36  59
ENDBRANCH  10  11
ENDBRANCH   3   5
ENDBRANCH   2   3
ENDBRANCH   1   2
BRANCH   1  70
ATOM     70  C   UNL A   1      36.634  22.270  23.951  1.00  0.00     0.274 C 
BRANCH  70  71
ATOM     71  O   UNL A   1      35.231  22.224  24.305  1.00  0.00    -0.462 OA
BRANCH  71  72
ATOM     72  C   UNL A   1      34.495  23.338  24.011  1.00  0.00     0.309 C 
ATOM     73  O   UNL A   1      34.699  24.057  23.040  1.00  0.00    -0.252 OA
BRANCH  72  74
ATOM     74  C   UNL A   1      33.399  23.646  25.040  1.00  0.00     0.100 C 
ATOM     75  C   UNL A   1      33.453  22.712  26.241  1.00  0.00     0.015 C 
ATOM     76  C   UNL A   1      32.001  23.605  24.438  1.00  0.00     0.028 C 
ATOM     77  C   UNL A   1      32.405  23.112  27.282  1.00  0.00     0.002 C 
ATOM     78  C   UNL A   1      30.837  23.933  25.395  1.00  0.00     0.079 C 
ATOM     79  C   UNL A   1      30.978  23.197  26.733  1.00  0.00     0.013 C 
BRANCH  78  80
ATOM     80  C   UNL A   1      30.712  25.438  25.585  1.00  0.00     0.225 C 
ATOM     81  O   UNL A   1      31.100  26.005  26.605  1.00  0.00    -0.275 OA
BRANCH  80  82
ATOM     82  N   UNL A   1      30.344  26.155  24.467  1.00  0.00    -0.339 N 
ATOM     83  C   UNL A   1      28.981  26.330  23.932  1.00  0.00     0.141 C 
ATOM     84  C   UNL A   1      31.427  26.755  23.707  1.00  0.00     0.146 C 
ATOM     85  C   UNL A   1      28.697  27.738  23.327  1.00  0.00     0.143 C 
ATOM     86  C   UNL A   1      31.160  28.230  23.546  1.00  0.00     0.125 C 
ATOM     87  N   UNL A   1      29.892  28.432  22.874  1.00  0.00    -0.317 N 
ATOM     88  C   UNL A   1      32.152  28.946  22.645  1.00  0.00     0.144 C 
ATOM     89  C   UNL A   1      29.971  29.498  21.994  1.00  0.00     0.317 C 
ATOM     90  N   UNL A   1      31.315  29.858  21.913  1.00  0.00    -0.336 N 
ATOM     91  O   UNL A   1      29.063  30.033  21.394  1.00  0.00    -0.249 OA
ATOM     92  H   UNL A   1      31.649  30.640  21.417  1.00  0.00     0.165 HD
ENDBRANCH  80  82
ENDBRANCH  78  80
ENDBRANCH  72  74
ENDBRANCH  71  72
ENDBRANCH  70  71
ENDBRANCH   1  70
TORSDOF 13
ENDMDL
MODEL 3
REMARK VINA RESULT:     -12.7      1.181      1.628
REMARK SMILES O=C(OCCOC(=O)[C@@H]1CCC[C@@H](C(=O)N2CCN3C(=O)NC[C@@H]3C2)C1)c1ccc(-c2c3nc(c(-c4c(F)c(F)c(F)c(F)c4F)c4ccc([nH]4)c(-c4c(F)c(F)c(F)c(F)c4F)c4nc(c(-c5c(F)c(F)c(F)c(F)c5F)c5ccc2[nH]5)C=C4)C=C3)cc1
REMARK SMILES IDX 4 1 3 2 2 3 1 4 27 5 28 6 89 7 29 8 88 9 30 10 31 11 32 12
REMARK SMILES IDX 82 13 33 14 87 15 81 16 83 17 34 18 86 19 80 20 79 21 35 23
REMARK SMILES IDX 67 24 47 25 66 26 48 27 51 28 65 29 84 30 49 31 50 32 64 34
REMARK SMILES IDX 85 35 52 36 36 37 37 38 45 39 38 40 39 41 43 42 46 43 40 44
REMARK SMILES IDX 41 45 44 46 42 47 68 48 69 49 77 50 70 51 71 52 75 53 78 54
REMARK SMILES IDX 72 55 73 56 76 57 74 58 53 59 54 60 62 61 55 62 56 63 60 64
REMARK SMILES IDX 63 65 57 66 58 67 61 68 59 69 5 70 6 71 7 72 8 73 9 74 10 75
REMARK SMILES IDX 26 76 11 77 13 78 12 79 14 80 15 81 16 82 17 83 25 84 18 85
REMARK SMILES IDX 24 86 19 87 23 88 20 89 22 90 21 91
REMARK H PARENT 83 22 51 33 22 92
REMARK Flexibility Score: inf
ROOT
ATOM      1  C   UNL A   1      31.839  33.136  26.771  1.00  0.00     0.275 C 
ENDROOT
BRANCH   1   2
ATOM      2  O   UNL A   1      32.193  33.821  27.975  1.00  0.00    -0.458 OA
BRANCH   2   3
ATOM      3  C   UNL A   1      33.391  34.316  28.349  1.00  0.00     0.338 C 
ATOM      4  O   UNL A   1      33.508  35.541  28.413  1.00  0.00    -0.246 OA
BRANCH   3   5
ATOM      5  C   UNL A   1      34.632  33.490  28.569  1.00  0.00     0.060 A 
ATOM      6  C   UNL A   1      35.953  33.789  28.217  1.00  0.00     0.016 A 
ATOM      7  C   UNL A   1      34.429  32.342  29.345  1.00  0.00     0.016 A 
ATOM      8  C   UNL A   1      37.038  33.075  28.749  1.00  0.00     0.010 A 
ATOM      9  C   UNL A   1      35.500  31.681  29.944  1.00  0.00     0.010 A 
ATOM     10  C   UNL A   1      36.825  32.057  29.672  1.00  0.00    -0.014 A 
BRANCH  10  11
ATOM     11  C   UNL A   1      37.947  31.314  30.303  1.00  0.00     0.031 A 
ATOM     12  C   UNL A   1      38.376  31.750  31.673  1.00  0.00     0.074 A 
ATOM     13  C   UNL A   1      38.618  30.334  29.659  1.00  0.00     0.049 A 
ATOM     14  N   UNL A   1      39.388  31.350  32.395  1.00  0.00    -0.248 NA
ATOM     15  C   UNL A   1      37.574  32.816  32.304  1.00  0.00     0.031 C 
ATOM     16  C   UNL A   1      38.318  29.811  28.324  1.00  0.00     0.029 A 
ATOM     17  N   UNL A   1      39.739  29.626  30.030  1.00  0.00    -0.354 N 
ATOM     18  C   UNL A   1      39.308  32.092  33.562  1.00  0.00     0.074 A 
ATOM     19  C   UNL A   1      38.299  33.104  33.368  1.00  0.00     0.031 C 
ATOM     20  C   UNL A   1      39.269  28.929  27.960  1.00  0.00     0.029 A 
ATOM     21  C   UNL A   1      40.231  28.796  29.046  1.00  0.00     0.049 A 
ATOM     22  H   UNL A   1      40.152  29.705  30.920  1.00  0.00     0.167 HD
ATOM     23  C   UNL A   1      39.916  31.867  34.747  1.00  0.00     0.037 A 
ATOM     24  C   UNL A   1      41.331  28.016  29.035  1.00  0.00     0.037 A 
ATOM     25  C   UNL A   1      40.888  30.837  34.946  1.00  0.00     0.049 A 
ATOM     26  C   UNL A   1      42.118  27.881  30.315  1.00  0.00     0.074 A 
ATOM     27  C   UNL A   1      41.537  30.472  36.107  1.00  0.00     0.029 A 
ATOM     28  N   UNL A   1      41.354  30.005  33.936  1.00  0.00    -0.354 N 
ATOM     29  N   UNL A   1      41.935  28.485  31.466  1.00  0.00    -0.248 NA
ATOM     30  C   UNL A   1      43.219  26.907  30.321  1.00  0.00     0.031 C 
ATOM     31  C   UNL A   1      42.441  29.452  35.788  1.00  0.00     0.029 A 
ATOM     32  C   UNL A   1      42.308  29.145  34.442  1.00  0.00     0.049 A 
ATOM     33  H   UNL A   1      41.049  30.026  33.001  1.00  0.00     0.167 HD
ATOM     34  C   UNL A   1      42.834  27.904  32.350  1.00  0.00     0.074 A 
ATOM     35  C   UNL A   1      43.579  26.917  31.596  1.00  0.00     0.031 C 
ATOM     36  C   UNL A   1      43.008  28.145  33.674  1.00  0.00     0.037 A 
BRANCH  23  37
ATOM     37  C   UNL A   1      39.471  32.726  35.892  1.00  0.00     0.064 A 
ATOM     38  C   UNL A   1      40.125  33.937  36.187  1.00  0.00     0.173 A 
ATOM     39  C   UNL A   1      38.454  32.302  36.753  1.00  0.00     0.173 A 
ATOM     40  F   UNL A   1      41.128  34.371  35.407  1.00  0.00    -0.203 F 
ATOM     41  C   UNL A   1      39.821  34.653  37.339  1.00  0.00     0.198 A 
ATOM     42  C   UNL A   1      38.124  33.044  37.885  1.00  0.00     0.198 A 
ATOM     43  F   UNL A   1      37.804  31.153  36.519  1.00  0.00    -0.203 F 
ATOM     44  F   UNL A   1      40.531  35.746  37.653  1.00  0.00    -0.200 F 
ATOM     45  C   UNL A   1      38.820  34.207  38.186  1.00  0.00     0.200 A 
ATOM     46  F   UNL A   1      37.154  32.616  38.704  1.00  0.00    -0.200 F 
ATOM     47  F   UNL A   1      38.540  34.886  39.307  1.00  0.00    -0.200 F 
ENDBRANCH  23  37
BRANCH  24  48
ATOM     48  C   UNL A   1      41.723  27.241  27.823  1.00  0.00     0.064 A 
ATOM     49  C   UNL A   1      41.354  25.895  27.674  1.00  0.00     0.173 A 
ATOM     50  C   UNL A   1      42.535  27.801  26.826  1.00  0.00     0.173 A 
ATOM     51  F   UNL A   1      40.597  25.304  28.610  1.00  0.00    -0.203 F 
ATOM     52  C   UNL A   1      41.814  25.130  26.602  1.00  0.00     0.198 A 
ATOM     53  C   UNL A   1      42.979  27.040  25.741  1.00  0.00     0.198 A 
ATOM     54  F   UNL A   1      42.918  29.083  26.914  1.00  0.00    -0.203 F 
ATOM     55  F   UNL A   1      41.495  23.831  26.523  1.00  0.00    -0.200 F 
ATOM     56  C   UNL A   1      42.628  25.703  25.637  1.00  0.00     0.200 A 
ATOM     57  F   UNL A   1      43.764  27.597  24.808  1.00  0.00    -0.200 F 
ATOM     58  F   UNL A   1      43.084  24.962  24.617  1.00  0.00    -0.200 F 
ENDBRANCH  24  48
BRANCH  36  59
ATOM     59  C   UNL A   1      43.976  27.274  34.414  1.00  0.00     0.064 A 
ATOM     60  C   UNL A   1      45.306  27.657  34.630  1.00  0.00     0.173 A 
ATOM     61  C   UNL A   1      43.536  26.068  34.984  1.00  0.00     0.173 A 
ATOM     62  F   UNL A   1      45.777  28.793  34.094  1.00  0.00    -0.203 F 
ATOM     63  C   UNL A   1      46.167  26.855  35.373  1.00  0.00     0.198 A 
ATOM     64  C   UNL A   1      44.387  25.289  35.760  1.00  0.00     0.198 A 
ATOM     65  F   UNL A   1      42.268  25.662  34.813  1.00  0.00    -0.203 F 
ATOM     66  F   UNL A   1      47.447  27.217  35.530  1.00  0.00    -0.200 F 
ATOM     67  C   UNL A   1      45.703  25.680  35.948  1.00  0.00     0.200 A 
ATOM     68  F   UNL A   1      43.930  24.167  36.332  1.00  0.00    -0.200 F 
ATOM     69  F   UNL A   1      46.528  24.922  36.683  1.00  0.00    -0.200 F 
ENDBRANCH  36  59
ENDBRANCH  10  11
ENDBRANCH   3   5
ENDBRANCH   2   3
ENDBRANCH   1   2
BRANCH   1  70
ATOM     70  C   UNL A   1      31.914  31.606  26.877  1.00  0.00     0.274 C 
BRANCH  70  71
ATOM     71  O   UNL A   1      31.362  30.882  25.752  1.00  0.00    -0.462 OA
BRANCH  71  72
ATOM     72  C   UNL A   1      32.089  29.814  25.303  1.00  0.00     0.309 C 
ATOM     73  O   UNL A   1      33.248  29.589  25.629  1.00  0.00    -0.252 OA
BRANCH  72  74
ATOM     74  C   UNL A   1      31.335  28.927  24.303  1.00  0.00     0.100 C 
ATOM     75  C   UNL A   1      29.982  29.512  23.916  1.00  0.00     0.015 C 
ATOM     76  C   UNL A   1      31.138  27.506  24.812  1.00  0.00     0.028 C 
ATOM     77  C   UNL A   1      29.307  28.644  22.851  1.00  0.00     0.002 C 
ATOM     78  C   UNL A   1      30.414  26.534  23.858  1.00  0.00     0.079 C 
ATOM     79  C   UNL A   1      29.162  27.171  23.241  1.00  0.00     0.013 C 
BRANCH  78  80
ATOM     80  C   UNL A   1      31.372  26.021  22.793  1.00  0.00     0.225 C 
ATOM     81  O   UNL A   1      31.936  26.773  21.999  1.00  0.00    -0.275 OA
BRANCH  80  82
ATOM     82  N   UNL A   1      31.745  24.698  22.908  1.00  0.00    -0.339 N 
ATOM     83  C   UNL A   1      32.849  24.021  22.203  1.00  0.00     0.141 C 
ATOM     84  C   UNL A   1      30.920  23.875  23.776  1.00  0.00     0.146 C 
ATOM     85  C   UNL A   1      33.602  22.952  23.052  1.00  0.00     0.143 C 
ATOM     86  C   UNL A   1      31.799  23.200  24.798  1.00  0.00     0.125 C 
ATOM     87  N   UNL A   1      32.802  22.395  24.132  1.00  0.00    -0.317 N 
ATOM     88  C   UNL A   1      31.073  22.199  25.678  1.00  0.00     0.144 C 
ATOM     89  C   UNL A   1      33.019  21.214  24.824  1.00  0.00     0.317 C 
ATOM     90  N   UNL A   1      32.029  21.132  25.802  1.00  0.00    -0.336 N 
ATOM     91  O   UNL A   1      33.890  20.394  24.635  1.00  0.00    -0.249 OA
ATOM     92  H   UNL A   1      31.990  20.430  26.491  1.00  0.00     0.165 HD
ENDBRANCH  80  82
ENDBRANCH  78  80
ENDBRANCH  72  74
ENDBRANCH  71  72
ENDBRANCH  70  71
ENDBRANCH   1  70
TORSDOF 13
ENDMDL
