MODEL 1
REMARK VINA RESULT:     -12.7      0.000      0.000
REMARK SMILES CCCc1cc2c(cc1Cl)C=C(C(=O)OCCOC(=O)c1ccc(-c3c4nc(c(-c5c(F)c(F)c(F)c(F)c5F)c5ccc([nH]5)c(-c5c(F)c(F)c(F)c(F)c5F)c5nc(c(-c6c(F)c(F)c(F)c(F)c6F)c6ccc3[nH]6)C=C5)C=C4)cc1)[C@H](C(F)(F)F)O2
REMARK SMILES IDX 16 1 15 2 13 3 14 4 12 5 4 6 5 7 9 8 6 9 8 10 10 11 7 12
REMARK SMILES IDX 89 13 11 14 84 15 3 16 2 17 1 18 85 19 86 20 87 21 88 22
REMARK SMILES IDX 17 23 18 24 19 25 20 26 21 27 22 28 83 29 23 30 82 31 24 32
REMARK SMILES IDX 25 33 26 34 76 35 27 36 81 37 75 38 77 39 28 40 80 41 74 42
REMARK SMILES IDX 73 43 29 45 61 46 41 47 60 48 42 49 45 50 59 51 78 52 43 53
REMARK SMILES IDX 44 54 58 56 79 57 46 58 30 59 31 60 39 61 32 62 33 63 37 64
REMARK SMILES IDX 40 65 34 66 35 67 38 68 36 69 62 70 63 71 71 72 64 73 65 74
REMARK SMILES IDX 69 75 72 76 66 77 67 78 70 79 68 80 47 81 48 82 56 83 49 84
REMARK SMILES IDX 50 85 54 86 57 87 51 88 52 89 55 90 53 91
REMARK H PARENT 77 44 45 55
REMARK Flexibility Score: inf
ROOT
ATOM      1  C   UNL A   1      31.416  29.696  24.916  1.00  0.00     0.275 C 
ENDROOT
BRANCH   1   2
ATOM      2  O   UNL A   1      32.578  28.851  25.058  1.00  0.00    -0.459 OA
BRANCH   2   3
ATOM      3  C   UNL A   1      33.197  28.489  23.914  1.00  0.00     0.338 C 
ATOM      4  O   UNL A   1      33.668  29.240  23.077  1.00  0.00    -0.246 OA
BRANCH   3   5
ATOM      5  C   UNL A   1      33.312  27.020  23.837  1.00  0.00     0.087 C 
ATOM      6  C   UNL A   1      34.432  22.210  24.812  1.00  0.00    -0.026 A 
ATOM      7  C   UNL A   1      34.386  23.001  23.644  1.00  0.00     0.052 A 
ATOM      8  C   UNL A   1      34.067  22.804  26.032  1.00  0.00     0.045 A 
ATOM      9  C   UNL A   1      34.004  24.339  23.694  1.00  0.00     0.128 A 
ATOM     10  C   UNL A   1      33.745  24.163  26.089  1.00  0.00     0.032 A 
ATOM     11  Cl  UNL A   1      34.029  21.928  27.521  1.00  0.00    -0.084 Cl
ATOM     12  C   UNL A   1      33.746  24.931  24.923  1.00  0.00     0.019 A 
ATOM     13  O   UNL A   1      33.979  25.038  22.516  1.00  0.00    -0.475 OA
ATOM     14  C   UNL A   1      33.585  26.371  24.977  1.00  0.00     0.027 C 
ATOM     15  C   UNL A   1      33.237  26.301  22.515  1.00  0.00     0.316 C 
BRANCH   6  16
ATOM     16  C   UNL A   1      34.929  20.785  24.709  1.00  0.00     0.037 C 
BRANCH  16  17
ATOM     17  C   UNL A   1      33.836  19.716  24.626  1.00  0.00     0.001 C 
ATOM     18  C   UNL A   1      34.369  18.305  24.425  1.00  0.00     0.004 C 
ENDBRANCH  16  17
ENDBRANCH   6  16
BRANCH  15  19
ATOM     19  C   UNL A   1      31.809  26.090  21.981  1.00  0.00     0.430 C 
ATOM     20  F   UNL A   1      31.823  25.680  20.689  1.00  0.00    -0.167 F 
ATOM     21  F   UNL A   1      31.122  25.167  22.688  1.00  0.00    -0.167 F 
ATOM     22  F   UNL A   1      31.095  27.242  22.000  1.00  0.00    -0.167 F 
ENDBRANCH  15  19
ENDBRANCH   3   5
ENDBRANCH   2   3
ENDBRANCH   1   2
BRANCH   1  23
ATOM     23  C   UNL A   1      31.443  30.845  25.924  1.00  0.00     0.275 C 
BRANCH  23  24
ATOM     24  O   UNL A   1      32.514  30.650  26.870  1.00  0.00    -0.458 OA
BRANCH  24  25
ATOM     25  C   UNL A   1      33.172  31.766  27.250  1.00  0.00     0.338 C 
ATOM     26  O   UNL A   1      32.761  32.914  27.251  1.00  0.00    -0.246 OA
BRANCH  25  27
ATOM     27  C   UNL A   1      34.496  31.398  27.772  1.00  0.00     0.060 A 
ATOM     28  C   UNL A   1      35.431  32.363  28.127  1.00  0.00     0.016 A 
ATOM     29  C   UNL A   1      34.741  30.058  28.047  1.00  0.00     0.016 A 
ATOM     30  C   UNL A   1      36.620  31.964  28.751  1.00  0.00     0.010 A 
ATOM     31  C   UNL A   1      35.865  29.674  28.773  1.00  0.00     0.010 A 
ATOM     32  C   UNL A   1      36.837  30.618  29.117  1.00  0.00    -0.014 A 
BRANCH  32  33
ATOM     33  C   UNL A   1      38.057  30.204  29.870  1.00  0.00     0.031 A 
ATOM     34  C   UNL A   1      38.277  30.632  31.301  1.00  0.00     0.074 A 
ATOM     35  C   UNL A   1      39.006  29.473  29.249  1.00  0.00     0.049 A 
ATOM     36  N   UNL A   1      39.280  30.358  32.103  1.00  0.00    -0.248 NA
ATOM     37  C   UNL A   1      37.266  31.514  31.904  1.00  0.00     0.031 C 
ATOM     38  C   UNL A   1      38.981  29.078  27.841  1.00  0.00     0.029 A 
ATOM     39  N   UNL A   1      40.168  28.917  29.726  1.00  0.00    -0.354 N 
ATOM     40  C   UNL A   1      39.030  31.053  33.281  1.00  0.00     0.074 A 
ATOM     41  C   UNL A   1      37.817  31.812  33.072  1.00  0.00     0.031 C 
ATOM     42  C   UNL A   1      40.031  28.281  27.587  1.00  0.00     0.029 A 
ATOM     43  C   UNL A   1      40.824  28.137  28.804  1.00  0.00     0.049 A 
ATOM     44  H   UNL A   1      40.501  29.063  30.642  1.00  0.00     0.167 HD
ATOM     45  C   UNL A   1      39.722  31.033  34.445  1.00  0.00     0.037 A 
ATOM     46  C   UNL A   1      41.925  27.372  28.927  1.00  0.00     0.037 A 
ATOM     47  C   UNL A   1      40.892  30.229  34.681  1.00  0.00     0.049 A 
ATOM     48  C   UNL A   1      42.631  27.299  30.252  1.00  0.00     0.074 A 
ATOM     49  C   UNL A   1      41.618  30.083  35.851  1.00  0.00     0.029 A 
ATOM     50  N   UNL A   1      41.499  29.423  33.730  1.00  0.00    -0.354 N 
ATOM     51  N   UNL A   1      42.341  27.906  31.375  1.00  0.00    -0.248 NA
ATOM     52  C   UNL A   1      43.814  26.430  30.327  1.00  0.00     0.031 C 
ATOM     53  C   UNL A   1      42.676  29.204  35.603  1.00  0.00     0.029 A 
ATOM     54  C   UNL A   1      42.589  28.775  34.289  1.00  0.00     0.049 A 
ATOM     55  H   UNL A   1      41.199  29.324  32.798  1.00  0.00     0.167 HD
ATOM     56  C   UNL A   1      43.291  27.482  32.294  1.00  0.00     0.074 A 
ATOM     57  C   UNL A   1      44.155  26.549  31.603  1.00  0.00     0.031 C 
ATOM     58  C   UNL A   1      43.435  27.840  33.593  1.00  0.00     0.037 A 
BRANCH  45  59
ATOM     59  C   UNL A   1      39.208  31.874  35.579  1.00  0.00     0.064 A 
ATOM     60  C   UNL A   1      38.342  31.343  36.548  1.00  0.00     0.173 A 
ATOM     61  C   UNL A   1      39.631  33.203  35.738  1.00  0.00     0.173 A 
ATOM     62  F   UNL A   1      37.904  30.079  36.440  1.00  0.00    -0.203 F 
ATOM     63  C   UNL A   1      37.896  32.117  37.615  1.00  0.00     0.198 A 
ATOM     64  C   UNL A   1      39.206  33.966  36.823  1.00  0.00     0.198 A 
ATOM     65  F   UNL A   1      40.468  33.758  34.850  1.00  0.00    -0.203 F 
ATOM     66  F   UNL A   1      37.034  31.600  38.501  1.00  0.00    -0.200 F 
ATOM     67  C   UNL A   1      38.334  33.425  37.757  1.00  0.00     0.200 A 
ATOM     68  F   UNL A   1      39.643  35.224  36.969  1.00  0.00    -0.200 F 
ATOM     69  F   UNL A   1      37.913  34.165  38.792  1.00  0.00    -0.200 F 
ENDBRANCH  45  59
BRANCH  46  70
ATOM     70  C   UNL A   1      42.376  26.547  27.776  1.00  0.00     0.064 A 
ATOM     71  C   UNL A   1      43.366  27.025  26.904  1.00  0.00     0.173 A 
ATOM     72  C   UNL A   1      41.861  25.266  27.541  1.00  0.00     0.173 A 
ATOM     73  F   UNL A   1      43.875  28.253  27.078  1.00  0.00    -0.203 F 
ATOM     74  C   UNL A   1      43.817  26.253  25.836  1.00  0.00     0.198 A 
ATOM     75  C   UNL A   1      42.331  24.484  26.487  1.00  0.00     0.198 A 
ATOM     76  F   UNL A   1      40.918  24.762  28.352  1.00  0.00    -0.203 F 
ATOM     77  F   UNL A   1      44.743  26.744  25.001  1.00  0.00    -0.200 F 
ATOM     78  C   UNL A   1      43.306  24.980  25.633  1.00  0.00     0.200 A 
ATOM     79  F   UNL A   1      41.845  23.249  26.302  1.00  0.00    -0.200 F 
ATOM     80  F   UNL A   1      43.749  24.232  24.614  1.00  0.00    -0.200 F 
ENDBRANCH  46  70
BRANCH  58  81
ATOM     81  C   UNL A   1      44.554  27.211  34.366  1.00  0.00     0.064 A 
ATOM     82  C   UNL A   1      45.808  27.829  34.471  1.00  0.00     0.173 A 
ATOM     83  C   UNL A   1      44.349  26.012  35.065  1.00  0.00     0.173 A 
ATOM     84  F   UNL A   1      46.054  28.971  33.811  1.00  0.00    -0.203 F 
ATOM     85  C   UNL A   1      46.821  27.262  35.238  1.00  0.00     0.198 A 
ATOM     86  C   UNL A   1      45.357  25.460  35.850  1.00  0.00     0.198 A 
ATOM     87  F   UNL A   1      43.164  25.386  35.002  1.00  0.00    -0.203 F 
ATOM     88  F   UNL A   1      48.024  27.853  35.300  1.00  0.00    -0.200 F 
ATOM     89  C   UNL A   1      46.593  26.083  35.933  1.00  0.00     0.200 A 
ATOM     90  F   UNL A   1      45.131  24.328  36.531  1.00  0.00    -0.200 F 
ATOM     91  F   UNL A   1      47.567  25.546  36.681  1.00  0.00    -0.200 F 
ENDBRANCH  58  81
ENDBRANCH  32  33
ENDBRANCH  25  27
ENDBRANCH  24  25
ENDBRANCH  23  24
ENDBRANCH   1  23
TORSDOF 14
ENDMDL
MODEL 2
REMARK VINA RESULT:     -12.7      4.357      9.884
REMARK SMILES CCCc1cc2c(cc1Cl)C=C(C(=O)OCCOC(=O)c1ccc(-c3c4nc(c(-c5c(F)c(F)c(F)c(F)c5F)c5ccc([nH]5)c(-c5c(F)c(F)c(F)c(F)c5F)c5nc(c(-c6c(F)c(F)c(F)c(F)c6F)c6ccc3[nH]6)C=C5)C=C4)cc1)[C@H](C(F)(F)F)O2
REMARK SMILES IDX 16 1 15 2 13 3 14 4 12 5 4 6 5 7 9 8 6 9 8 10 10 11 7 12
REMARK SMILES IDX 89 13 11 14 84 15 3 16 2 17 1 18 85 19 86 20 87 21 88 22
REMARK SMILES IDX 17 23 18 24 19 25 20 26 21 27 22 28 83 29 23 30 82 31 24 32
REMARK SMILES IDX 25 33 26 34 76 35 27 36 81 37 75 38 77 39 28 40 80 41 74 42
REMARK SMILES IDX 73 43 29 45 61 46 41 47 60 48 42 49 45 50 59 51 78 52 43 53
REMARK SMILES IDX 44 54 58 56 79 57 46 58 30 59 31 60 39 61 32 62 33 63 37 64
REMARK SMILES IDX 40 65 34 66 35 67 38 68 36 69 62 70 63 71 71 72 64 73 65 74
REMARK SMILES IDX 69 75 72 76 66 77 67 78 70 79 68 80 47 81 48 82 56 83 49 84
REMARK SMILES IDX 50 85 54 86 57 87 51 88 52 89 55 90 53 91
REMARK H PARENT 77 44 45 55
REMARK Flexibility Score: inf
ROOT
ATOM      1  C   UNL A   1      35.418  20.777  25.146  1.00  0.00     0.275 C 
ENDROOT
BRANCH   1   2
ATOM      2  O   UNL A   1      35.296  21.938  25.998  1.00  0.00    -0.459 OA
BRANCH   2   3
ATOM      3  C   UNL A   1      34.168  22.023  26.735  1.00  0.00     0.338 C 
ATOM      4  O   UNL A   1      33.824  21.260  27.622  1.00  0.00    -0.246 OA
BRANCH   3   5
ATOM      5  C   UNL A   1      33.415  23.241  26.381  1.00  0.00     0.087 C 
ATOM      6  C   UNL A   1      32.186  27.951  25.100  1.00  0.00    -0.026 A 
ATOM      7  C   UNL A   1      31.647  26.990  25.980  1.00  0.00     0.052 A 
ATOM      8  C   UNL A   1      33.310  27.595  24.334  1.00  0.00     0.045 A 
ATOM      9  C   UNL A   1      32.215  25.725  26.103  1.00  0.00     0.128 A 
ATOM     10  C   UNL A   1      33.917  26.348  24.506  1.00  0.00     0.032 A 
ATOM     11  Cl  UNL A   1      34.030  28.664  23.182  1.00  0.00    -0.084 Cl
ATOM     12  C   UNL A   1      33.384  25.430  25.413  1.00  0.00     0.019 A 
ATOM     13  O   UNL A   1      31.629  24.845  26.974  1.00  0.00    -0.475 OA
ATOM     14  C   UNL A   1      34.086  24.204  25.736  1.00  0.00     0.027 C 
ATOM     15  C   UNL A   1      31.990  23.433  26.828  1.00  0.00     0.316 C 
BRANCH   6  16
ATOM     16  C   UNL A   1      31.574  29.334  25.065  1.00  0.00     0.037 C 
BRANCH  16  17
ATOM     17  C   UNL A   1      31.775  30.170  26.332  1.00  0.00     0.001 C 
ATOM     18  C   UNL A   1      33.212  30.189  26.835  1.00  0.00     0.004 C 
ENDBRANCH  16  17
ENDBRANCH   6  16
BRANCH  15  19
ATOM     19  C   UNL A   1      30.945  22.693  25.973  1.00  0.00     0.430 C 
ATOM     20  F   UNL A   1      29.781  22.532  26.649  1.00  0.00    -0.167 F 
ATOM     21  F   UNL A   1      30.656  23.347  24.827  1.00  0.00    -0.167 F 
ATOM     22  F   UNL A   1      31.364  21.447  25.644  1.00  0.00    -0.167 F 
ENDBRANCH  15  19
ENDBRANCH   3   5
ENDBRANCH   2   3
ENDBRANCH   1   2
BRANCH   1  23
ATOM     23  C   UNL A   1      36.879  20.349  25.005  1.00  0.00     0.275 C 
BRANCH  23  24
ATOM     24  O   UNL A   1      37.751  21.466  25.270  1.00  0.00    -0.458 OA
BRANCH  24  25
ATOM     25  C   UNL A   1      38.901  21.172  25.913  1.00  0.00     0.338 C 
ATOM     26  O   UNL A   1      39.476  20.098  25.966  1.00  0.00    -0.246 OA
BRANCH  25  27
ATOM     27  C   UNL A   1      39.453  22.396  26.511  1.00  0.00     0.060 A 
ATOM     28  C   UNL A   1      40.605  22.371  27.288  1.00  0.00     0.016 A 
ATOM     29  C   UNL A   1      38.881  23.613  26.156  1.00  0.00     0.016 A 
ATOM     30  C   UNL A   1      41.167  23.581  27.714  1.00  0.00     0.010 A 
ATOM     31  C   UNL A   1      39.504  24.814  26.477  1.00  0.00     0.010 A 
ATOM     32  C   UNL A   1      40.648  24.820  27.283  1.00  0.00    -0.014 A 
BRANCH  32  33
ATOM     33  C   UNL A   1      41.302  26.110  27.653  1.00  0.00     0.031 A 
ATOM     34  C   UNL A   1      42.702  26.438  27.193  1.00  0.00     0.074 A 
ATOM     35  C   UNL A   1      40.652  26.980  28.452  1.00  0.00     0.049 A 
ATOM     36  N   UNL A   1      43.418  27.513  27.421  1.00  0.00    -0.248 NA
ATOM     37  C   UNL A   1      43.411  25.414  26.410  1.00  0.00     0.031 C 
ATOM     38  C   UNL A   1      39.340  26.752  29.060  1.00  0.00     0.029 A 
ATOM     39  N   UNL A   1      40.997  28.241  28.879  1.00  0.00    -0.354 N 
ATOM     40  C   UNL A   1      44.658  27.280  26.837  1.00  0.00     0.074 A 
ATOM     41  C   UNL A   1      44.623  25.939  26.299  1.00  0.00     0.031 C 
ATOM     42  C   UNL A   1      38.957  27.861  29.713  1.00  0.00     0.029 A 
ATOM     43  C   UNL A   1      40.010  28.866  29.602  1.00  0.00     0.049 A 
ATOM     44  H   UNL A   1      41.869  28.655  28.685  1.00  0.00     0.167 HD
ATOM     45  C   UNL A   1      45.717  28.117  26.723  1.00  0.00     0.037 A 
ATOM     46  C   UNL A   1      39.946  30.115  30.101  1.00  0.00     0.037 A 
ATOM     47  C   UNL A   1      45.734  29.476  27.197  1.00  0.00     0.049 A 
ATOM     48  C   UNL A   1      41.100  31.056  29.890  1.00  0.00     0.074 A 
ATOM     49  C   UNL A   1      46.732  30.425  27.060  1.00  0.00     0.029 A 
ATOM     50  N   UNL A   1      44.697  30.081  27.890  1.00  0.00    -0.354 N 
ATOM     51  N   UNL A   1      42.235  30.843  29.273  1.00  0.00    -0.248 NA
ATOM     52  C   UNL A   1      40.959  32.411  30.439  1.00  0.00     0.031 C 
ATOM     53  C   UNL A   1      46.307  31.601  27.687  1.00  0.00     0.029 A 
ATOM     54  C   UNL A   1      45.030  31.394  28.184  1.00  0.00     0.049 A 
ATOM     55  H   UNL A   1      43.849  29.644  28.135  1.00  0.00     0.167 HD
ATOM     56  C   UNL A   1      42.938  32.038  29.344  1.00  0.00     0.074 A 
ATOM     57  C   UNL A   1      42.091  32.980  30.046  1.00  0.00     0.031 C 
ATOM     58  C   UNL A   1      44.175  32.324  28.874  1.00  0.00     0.037 A 
BRANCH  45  59
ATOM     59  C   UNL A   1      46.939  27.606  26.013  1.00  0.00     0.064 A 
ATOM     60  C   UNL A   1      47.067  27.702  24.619  1.00  0.00     0.173 A 
ATOM     61  C   UNL A   1      48.018  27.073  26.734  1.00  0.00     0.173 A 
ATOM     62  F   UNL A   1      46.062  28.199  23.881  1.00  0.00    -0.203 F 
ATOM     63  C   UNL A   1      48.216  27.257  23.970  1.00  0.00     0.198 A 
ATOM     64  C   UNL A   1      49.179  26.656  26.085  1.00  0.00     0.198 A 
ATOM     65  F   UNL A   1      47.956  26.969  28.070  1.00  0.00    -0.203 F 
ATOM     66  F   UNL A   1      48.295  27.319  22.634  1.00  0.00    -0.200 F 
ATOM     67  C   UNL A   1      49.274  26.742  24.704  1.00  0.00     0.200 A 
ATOM     68  F   UNL A   1      50.207  26.175  26.796  1.00  0.00    -0.200 F 
ATOM     69  F   UNL A   1      50.384  26.327  24.079  1.00  0.00    -0.200 F 
ENDBRANCH  45  59
BRANCH  46  70
ATOM     70  C   UNL A   1      38.704  30.571  30.776  1.00  0.00     0.064 A 
ATOM     71  C   UNL A   1      38.622  30.588  32.177  1.00  0.00     0.173 A 
ATOM     72  C   UNL A   1      37.595  31.027  30.052  1.00  0.00     0.173 A 
ATOM     73  F   UNL A   1      39.652  30.144  32.913  1.00  0.00    -0.203 F 
ATOM     74  C   UNL A   1      37.474  31.037  32.826  1.00  0.00     0.198 A 
ATOM     75  C   UNL A   1      36.456  31.499  30.702  1.00  0.00     0.198 A 
ATOM     76  F   UNL A   1      37.628  31.036  28.711  1.00  0.00    -0.203 F 
ATOM     77  F   UNL A   1      37.412  31.016  34.164  1.00  0.00    -0.200 F 
ATOM     78  C   UNL A   1      36.395  31.500  32.088  1.00  0.00     0.200 A 
ATOM     79  F   UNL A   1      35.420  31.959  29.987  1.00  0.00    -0.200 F 
ATOM     80  F   UNL A   1      35.297  31.944  32.712  1.00  0.00    -0.200 F 
ENDBRANCH  46  70
BRANCH  58  81
ATOM     81  C   UNL A   1      44.691  33.716  29.080  1.00  0.00     0.064 A 
ATOM     82  C   UNL A   1      44.468  34.726  28.134  1.00  0.00     0.173 A 
ATOM     83  C   UNL A   1      45.355  34.059  30.267  1.00  0.00     0.173 A 
ATOM     84  F   UNL A   1      43.848  34.443  26.978  1.00  0.00    -0.203 F 
ATOM     85  C   UNL A   1      44.905  36.027  28.362  1.00  0.00     0.198 A 
ATOM     86  C   UNL A   1      45.768  35.367  30.504  1.00  0.00     0.198 A 
ATOM     87  F   UNL A   1      45.584  33.130  31.207  1.00  0.00    -0.203 F 
ATOM     88  F   UNL A   1      44.710  36.972  27.430  1.00  0.00    -0.200 F 
ATOM     89  C   UNL A   1      45.546  36.349  29.550  1.00  0.00     0.200 A 
ATOM     90  F   UNL A   1      46.376  35.680  31.656  1.00  0.00    -0.200 F 
ATOM     91  F   UNL A   1      45.954  37.606  29.772  1.00  0.00    -0.200 F 
ENDBRANCH  58  81
ENDBRANCH  32  33
ENDBRANCH  25  27
ENDBRANCH  24  25
ENDBRANCH  23  24
ENDBRANCH   1  23
TORSDOF 14
ENDMDL
MODEL 3
REMARK VINA RESULT:     -12.7      0.355      1.985
REMARK SMILES CCCc1cc2c(cc1Cl)C=C(C(=O)OCCOC(=O)c1ccc(-c3c4nc(c(-c5c(F)c(F)c(F)c(F)c5F)c5ccc([nH]5)c(-c5c(F)c(F)c(F)c(F)c5F)c5nc(c(-c6c(F)c(F)c(F)c(F)c6F)c6ccc3[nH]6)C=C5)C=C4)cc1)[C@H](C(F)(F)F)O2
REMARK SMILES IDX 16 1 15 2 13 3 14 4 12 5 4 6 5 7 9 8 6 9 8 10 10 11 7 12
REMARK SMILES IDX 89 13 11 14 84 15 3 16 2 17 1 18 85 19 86 20 87 21 88 22
REMARK SMILES IDX 17 23 18 24 19 25 20 26 21 27 22 28 83 29 23 30 82 31 24 32
REMARK SMILES IDX 25 33 26 34 76 35 27 36 81 37 75 38 77 39 28 40 80 41 74 42
REMARK SMILES IDX 73 43 29 45 61 46 41 47 60 48 42 49 45 50 59 51 78 52 43 53
REMARK SMILES IDX 44 54 58 56 79 57 46 58 30 59 31 60 39 61 32 62 33 63 37 64
REMARK SMILES IDX 40 65 34 66 35 67 38 68 36 69 62 70 63 71 71 72 64 73 65 74
REMARK SMILES IDX 69 75 72 76 66 77 67 78 70 79 68 80 47 81 48 82 56 83 49 84
REMARK SMILES IDX 50 85 54 86 57 87 51 88 52 89 55 90 53 91
REMARK H PARENT 77 44 45 55
REMARK Flexibility Score: inf
ROOT
ATOM      1  C   UNL A   1      31.817  29.289  25.027  1.00  0.00     0.275 C 
ENDROOT
BRANCH   1   2
ATOM      2  O   UNL A   1      33.180  28.818  24.937  1.00  0.00    -0.459 OA
BRANCH   2   3
ATOM      3  C   UNL A   1      33.578  28.365  23.730  1.00  0.00     0.338 C 
ATOM      4  O   UNL A   1      33.975  29.043  22.798  1.00  0.00    -0.246 OA
BRANCH   3   5
ATOM      5  C   UNL A   1      33.552  26.890  23.702  1.00  0.00     0.087 C 
ATOM      6  C   UNL A   1      34.258  22.031  24.809  1.00  0.00    -0.026 A 
ATOM      7  C   UNL A   1      34.239  22.784  23.615  1.00  0.00     0.052 A 
ATOM      8  C   UNL A   1      34.000  22.696  26.019  1.00  0.00     0.045 A 
ATOM      9  C   UNL A   1      33.985  24.153  23.631  1.00  0.00     0.128 A 
ATOM     10  C   UNL A   1      33.809  24.081  26.039  1.00  0.00     0.032 A 
ATOM     11  Cl  UNL A   1      33.942  21.877  27.540  1.00  0.00    -0.084 Cl
ATOM     12  C   UNL A   1      33.833  24.807  24.847  1.00  0.00     0.019 A 
ATOM     13  O   UNL A   1      33.977  24.812  22.430  1.00  0.00    -0.475 OA
ATOM     14  C   UNL A   1      33.810  26.256  24.854  1.00  0.00     0.027 C 
ATOM     15  C   UNL A   1      33.357  26.139  22.411  1.00  0.00     0.316 C 
BRANCH   6  16
ATOM     16  C   UNL A   1      34.616  20.562  24.739  1.00  0.00     0.037 C 
BRANCH  16  17
ATOM     17  C   UNL A   1      33.462  19.626  24.370  1.00  0.00     0.001 C 
ATOM     18  C   UNL A   1      32.846  18.908  25.564  1.00  0.00     0.004 C 
ENDBRANCH  16  17
ENDBRANCH   6  16
BRANCH  15  19
ATOM     19  C   UNL A   1      31.895  26.047  21.939  1.00  0.00     0.430 C 
ATOM     20  F   UNL A   1      31.821  25.666  20.639  1.00  0.00    -0.167 F 
ATOM     21  F   UNL A   1      31.172  25.160  22.658  1.00  0.00    -0.167 F 
ATOM     22  F   UNL A   1      31.271  27.247  22.013  1.00  0.00    -0.167 F 
ENDBRANCH  15  19
ENDBRANCH   3   5
ENDBRANCH   2   3
ENDBRANCH   1   2
BRANCH   1  23
ATOM     23  C   UNL A   1      31.743  30.626  25.765  1.00  0.00     0.275 C 
BRANCH  23  24
ATOM     24  O   UNL A   1      32.521  30.566  26.977  1.00  0.00    -0.458 OA
BRANCH  24  25
ATOM     25  C   UNL A   1      33.204  31.688  27.291  1.00  0.00     0.338 C 
ATOM     26  O   UNL A   1      32.805  32.841  27.261  1.00  0.00    -0.246 OA
BRANCH  25  27
ATOM     27  C   UNL A   1      34.540  31.326  27.782  1.00  0.00     0.060 A 
ATOM     28  C   UNL A   1      35.496  32.292  28.072  1.00  0.00     0.016 A 
ATOM     29  C   UNL A   1      34.782  29.993  28.097  1.00  0.00     0.016 A 
ATOM     30  C   UNL A   1      36.701  31.903  28.671  1.00  0.00     0.010 A 
ATOM     31  C   UNL A   1      35.926  29.623  28.799  1.00  0.00     0.010 A 
ATOM     32  C   UNL A   1      36.917  30.569  29.078  1.00  0.00    -0.014 A 
BRANCH  32  33
ATOM     33  C   UNL A   1      38.158  30.168  29.804  1.00  0.00     0.031 A 
ATOM     34  C   UNL A   1      38.425  30.636  31.215  1.00  0.00     0.074 A 
ATOM     35  C   UNL A   1      39.083  29.413  29.176  1.00  0.00     0.049 A 
ATOM     36  N   UNL A   1      39.450  30.379  31.993  1.00  0.00    -0.248 NA
ATOM     37  C   UNL A   1      37.437  31.542  31.823  1.00  0.00     0.031 C 
ATOM     38  C   UNL A   1      39.012  28.978  27.781  1.00  0.00     0.029 A 
ATOM     39  N   UNL A   1      40.256  28.863  29.633  1.00  0.00    -0.354 N 
ATOM     40  C   UNL A   1      39.240  31.110  33.157  1.00  0.00     0.074 A 
ATOM     41  C   UNL A   1      38.027  31.870  32.963  1.00  0.00     0.031 C 
ATOM     42  C   UNL A   1      40.049  28.167  27.519  1.00  0.00     0.029 A 
ATOM     43  C   UNL A   1      40.878  28.053  28.714  1.00  0.00     0.049 A 
ATOM     44  H   UNL A   1      40.617  29.034  30.533  1.00  0.00     0.167 HD
ATOM     45  C   UNL A   1      39.968  31.119  34.300  1.00  0.00     0.037 A 
ATOM     46  C   UNL A   1      41.979  27.285  28.825  1.00  0.00     0.037 A 
ATOM     47  C   UNL A   1      41.141  30.314  34.523  1.00  0.00     0.049 A 
ATOM     48  C   UNL A   1      42.725  27.246  30.130  1.00  0.00     0.074 A 
ATOM     49  C   UNL A   1      41.901  30.197  35.674  1.00  0.00     0.029 A 
ATOM     50  N   UNL A   1      41.712  29.477  33.578  1.00  0.00    -0.354 N 
ATOM     51  N   UNL A   1      42.473  27.886  31.244  1.00  0.00    -0.248 NA
ATOM     52  C   UNL A   1      43.904  26.371  30.194  1.00  0.00     0.031 C 
ATOM     53  C   UNL A   1      42.946  29.304  35.420  1.00  0.00     0.029 A 
ATOM     54  C   UNL A   1      42.816  28.838  34.121  1.00  0.00     0.049 A 
ATOM     55  H   UNL A   1      41.384  29.353  32.658  1.00  0.00     0.167 HD
ATOM     56  C   UNL A   1      43.449  27.483  32.145  1.00  0.00     0.074 A 
ATOM     57  C   UNL A   1      44.285  26.524  31.455  1.00  0.00     0.031 C 
ATOM     58  C   UNL A   1      43.634  27.878  33.427  1.00  0.00     0.037 A 
BRANCH  45  59
ATOM     59  C   UNL A   1      39.494  31.996  35.424  1.00  0.00     0.064 A 
ATOM     60  C   UNL A   1      39.914  33.330  35.536  1.00  0.00     0.173 A 
ATOM     61  C   UNL A   1      38.565  31.522  36.362  1.00  0.00     0.173 A 
ATOM     62  F   UNL A   1      40.806  33.832  34.668  1.00  0.00    -0.203 F 
ATOM     63  C   UNL A   1      39.445  34.148  36.561  1.00  0.00     0.198 A 
ATOM     64  C   UNL A   1      38.074  32.351  37.369  1.00  0.00     0.198 A 
ATOM     65  F   UNL A   1      38.119  30.259  36.295  1.00  0.00    -0.203 F 
ATOM     66  F   UNL A   1      39.896  35.404  36.672  1.00  0.00    -0.200 F 
ATOM     67  C   UNL A   1      38.520  33.661  37.471  1.00  0.00     0.200 A 
ATOM     68  F   UNL A   1      37.167  31.885  38.237  1.00  0.00    -0.200 F 
ATOM     69  F   UNL A   1      38.060  34.453  38.449  1.00  0.00    -0.200 F 
ENDBRANCH  45  59
BRANCH  46  70
ATOM     70  C   UNL A   1      42.389  26.424  27.687  1.00  0.00     0.064 A 
ATOM     71  C   UNL A   1      41.774  25.180  27.479  1.00  0.00     0.173 A 
ATOM     72  C   UNL A   1      43.368  26.829  26.770  1.00  0.00     0.173 A 
ATOM     73  F   UNL A   1      40.845  24.741  28.340  1.00  0.00    -0.203 F 
ATOM     74  C   UNL A   1      42.129  24.372  26.401  1.00  0.00     0.198 A 
ATOM     75  C   UNL A   1      43.705  26.031  25.678  1.00  0.00     0.198 A 
ATOM     76  F   UNL A   1      43.980  28.014  26.922  1.00  0.00    -0.203 F 
ATOM     77  F   UNL A   1      41.547  23.176  26.242  1.00  0.00    -0.200 F 
ATOM     78  C   UNL A   1      43.089  24.802  25.497  1.00  0.00     0.200 A 
ATOM     79  F   UNL A   1      44.623  26.456  24.798  1.00  0.00    -0.200 F 
ATOM     80  F   UNL A   1      43.421  24.031  24.453  1.00  0.00    -0.200 F 
ENDBRANCH  46  70
BRANCH  58  81
ATOM     81  C   UNL A   1      44.773  27.264  34.184  1.00  0.00     0.064 A 
ATOM     82  C   UNL A   1      44.622  26.059  34.883  1.00  0.00     0.173 A 
ATOM     83  C   UNL A   1      46.046  27.853  34.153  1.00  0.00     0.173 A 
ATOM     84  F   UNL A   1      43.420  25.465  34.951  1.00  0.00    -0.203 F 
ATOM     85  C   UNL A   1      45.701  25.471  35.536  1.00  0.00     0.198 A 
ATOM     86  C   UNL A   1      47.130  27.250  34.786  1.00  0.00     0.198 A 
ATOM     87  F   UNL A   1      46.244  29.002  33.490  1.00  0.00    -0.203 F 
ATOM     88  F   UNL A   1      45.527  24.334  36.225  1.00  0.00    -0.200 F 
ATOM     89  C   UNL A   1      46.955  26.062  35.480  1.00  0.00     0.200 A 
ATOM     90  F   UNL A   1      48.343  27.814  34.721  1.00  0.00    -0.200 F 
ATOM     91  F   UNL A   1      47.995  25.487  36.098  1.00  0.00    -0.200 F 
ENDBRANCH  58  81
ENDBRANCH  32  33
ENDBRANCH  25  27
ENDBRANCH  24  25
ENDBRANCH  23  24
ENDBRANCH   1  23
TORSDOF 14
ENDMDL
