MODEL 1
REMARK VINA RESULT:     -12.8      0.000      0.000
REMARK SMILES CCc1cc2c(=O)c(-c3nc(C)cs3)coc2cc1O[C@H](C)C(=O)OCCOC(=O)c1ccc(-c2c3nc(c(-c4c(F)c(F)c(F)c(F)c4F)c4ccc([nH]4)c(-c4c(F)c(F)c(F)c(F)c4F)c4nc(c(-c5c(F)c(F)c(F)c(F)c5F)c5ccc2[nH]5)C=C4)C=C3)cc1
REMARK SMILES IDX 26 1 25 2 23 3 24 4 21 5 22 6 20 7 19 8 3 9 4 10 5 11 18 12
REMARK SMILES IDX 6 13 17 14 7 15 8 16 16 17 15 18 2 19 1 20 9 21 10 22 14 23
REMARK SMILES IDX 11 24 13 25 12 26 27 27 28 28 29 29 30 30 31 31 32 32 93 33
REMARK SMILES IDX 33 34 92 35 34 36 35 37 36 38 86 39 37 40 91 41 85 42 87 43
REMARK SMILES IDX 38 44 90 45 84 46 83 47 39 49 71 50 51 51 70 52 52 53 55 54
REMARK SMILES IDX 69 55 88 56 53 57 54 58 68 60 89 61 56 62 40 63 41 64 49 65
REMARK SMILES IDX 42 66 43 67 47 68 50 69 44 70 45 71 48 72 46 73 72 74 73 75
REMARK SMILES IDX 81 76 74 77 75 78 79 79 82 80 76 81 77 82 80 83 78 84 57 85
REMARK SMILES IDX 58 86 66 87 59 88 60 89 64 90 67 91 61 92 62 93 65 94 63 95
REMARK H PARENT 87 48 55 59
REMARK Flexibility Score: inf
ROOT
ATOM      1  C   UNL A   1      31.341  29.167  24.895  1.00  0.00     0.274 C 
ENDROOT
BRANCH   1   2
ATOM      2  O   UNL A   1      31.935  28.977  23.596  1.00  0.00    -0.459 OA
BRANCH   2   3
ATOM      3  C   UNL A   1      31.181  28.281  22.704  1.00  0.00     0.347 C 
ATOM      4  O   UNL A   1      30.317  28.799  22.002  1.00  0.00    -0.248 OA
BRANCH   3   5
ATOM      5  C   UNL A   1      31.539  26.781  22.623  1.00  0.00     0.279 C 
ATOM      6  C   UNL A   1      33.046  26.531  22.580  1.00  0.00     0.066 C 
BRANCH   5   7
ATOM      7  O   UNL A   1      31.028  25.985  23.685  1.00  0.00    -0.479 OA
BRANCH   7   8
ATOM      8  C   UNL A   1      31.569  24.768  23.982  1.00  0.00     0.127 A 
ATOM      9  C   UNL A   1      32.181  24.653  25.245  1.00  0.00    -0.005 A 
ATOM     10  C   UNL A   1      32.617  23.381  25.668  1.00  0.00     0.023 A 
ATOM     11  C   UNL A   1      32.490  22.262  24.841  1.00  0.00     0.066 A 
ATOM     12  C   UNL A   1      31.528  23.655  23.129  1.00  0.00     0.094 A 
ATOM     13  C   UNL A   1      32.902  20.926  25.308  1.00  0.00     0.202 A 
ATOM     14  C   UNL A   1      31.968  22.404  23.564  1.00  0.00     0.141 A 
ATOM     15  O   UNL A   1      33.378  20.780  26.427  1.00  0.00    -0.288 OA
ATOM     16  C   UNL A   1      32.715  19.812  24.347  1.00  0.00     0.094 A 
ATOM     17  O   UNL A   1      31.840  21.353  22.691  1.00  0.00    -0.463 OA
ATOM     18  C   UNL A   1      32.226  20.108  23.134  1.00  0.00     0.211 A 
BRANCH   9  19
ATOM     19  C   UNL A   1      32.365  25.787  26.239  1.00  0.00     0.036 C 
ATOM     20  C   UNL A   1      33.619  26.650  26.160  1.00  0.00     0.009 C 
ENDBRANCH   9  19
BRANCH  16  21
ATOM     21  C   UNL A   1      33.106  18.478  24.647  1.00  0.00     0.130 A 
ATOM     22  N   UNL A   1      32.352  17.575  25.253  1.00  0.00    -0.241 NA
ATOM     23  S   UNL A   1      34.711  17.925  24.298  1.00  0.00    -0.122 S 
ATOM     24  C   UNL A   1      33.009  16.359  25.345  1.00  0.00     0.049 A 
ATOM     25  C   UNL A   1      34.310  16.372  24.888  1.00  0.00     0.090 A 
ATOM     26  C   UNL A   1      32.271  15.196  25.898  1.00  0.00     0.067 C 
ENDBRANCH  16  21
ENDBRANCH   7   8
ENDBRANCH   5   7
ENDBRANCH   3   5
ENDBRANCH   2   3
ENDBRANCH   1   2
BRANCH   1  27
ATOM     27  C   UNL A   1      31.730  30.510  25.529  1.00  0.00     0.275 C 
BRANCH  27  28
ATOM     28  O   UNL A   1      32.472  30.360  26.758  1.00  0.00    -0.458 OA
BRANCH  28  29
ATOM     29  C   UNL A   1      33.117  31.476  27.166  1.00  0.00     0.338 C 
ATOM     30  O   UNL A   1      32.652  32.601  27.251  1.00  0.00    -0.246 OA
BRANCH  29  31
ATOM     31  C   UNL A   1      34.470  31.163  27.659  1.00  0.00     0.060 A 
ATOM     32  C   UNL A   1      34.732  29.830  27.990  1.00  0.00     0.016 A 
ATOM     33  C   UNL A   1      35.413  32.154  27.934  1.00  0.00     0.016 A 
ATOM     34  C   UNL A   1      35.919  29.476  28.617  1.00  0.00     0.010 A 
ATOM     35  C   UNL A   1      36.607  31.801  28.579  1.00  0.00     0.010 A 
ATOM     36  C   UNL A   1      36.851  30.465  28.946  1.00  0.00    -0.014 A 
BRANCH  36  37
ATOM     37  C   UNL A   1      38.003  30.089  29.797  1.00  0.00     0.031 A 
ATOM     38  C   UNL A   1      39.082  29.212  29.229  1.00  0.00     0.074 A 
ATOM     39  C   UNL A   1      38.133  30.609  31.030  1.00  0.00     0.049 A 
ATOM     40  N   UNL A   1      40.172  28.759  29.796  1.00  0.00    -0.248 NA
ATOM     41  C   UNL A   1      38.915  28.795  27.827  1.00  0.00     0.031 C 
ATOM     42  C   UNL A   1      37.197  31.542  31.654  1.00  0.00     0.029 A 
ATOM     43  N   UNL A   1      39.119  30.440  31.970  1.00  0.00    -0.354 N 
ATOM     44  C   UNL A   1      40.805  27.986  28.832  1.00  0.00     0.074 A 
ATOM     45  C   UNL A   1      39.978  28.025  27.645  1.00  0.00     0.031 C 
ATOM     46  C   UNL A   1      37.660  31.875  32.872  1.00  0.00     0.029 A 
ATOM     47  C   UNL A   1      38.901  31.146  33.126  1.00  0.00     0.049 A 
ATOM     48  H   UNL A   1      39.907  29.866  31.828  1.00  0.00     0.167 HD
ATOM     49  C   UNL A   1      41.971  27.305  28.930  1.00  0.00     0.037 A 
ATOM     50  C   UNL A   1      39.617  31.185  34.266  1.00  0.00     0.037 A 
ATOM     51  C   UNL A   1      42.804  27.288  30.103  1.00  0.00     0.049 A 
ATOM     52  C   UNL A   1      40.877  30.368  34.371  1.00  0.00     0.074 A 
ATOM     53  C   UNL A   1      44.004  26.629  30.303  1.00  0.00     0.029 A 
ATOM     54  N   UNL A   1      42.521  27.968  31.278  1.00  0.00    -0.354 N 
ATOM     55  N   UNL A   1      41.457  29.619  33.465  1.00  0.00    -0.248 NA
ATOM     56  C   UNL A   1      41.579  30.399  35.662  1.00  0.00     0.031 C 
ATOM     57  C   UNL A   1      44.428  26.881  31.613  1.00  0.00     0.029 A 
ATOM     58  C   UNL A   1      43.513  27.730  32.214  1.00  0.00     0.049 A 
ATOM     59  H   UNL A   1      41.730  28.536  31.425  1.00  0.00     0.167 HD
ATOM     60  C   UNL A   1      42.603  29.112  34.064  1.00  0.00     0.074 A 
ATOM     61  C   UNL A   1      42.640  29.645  35.411  1.00  0.00     0.031 C 
ATOM     62  C   UNL A   1      43.540  28.282  33.545  1.00  0.00     0.037 A 
BRANCH  49  63
ATOM     63  C   UNL A   1      42.388  26.484  27.747  1.00  0.00     0.064 A 
ATOM     64  C   UNL A   1      41.889  25.192  27.526  1.00  0.00     0.173 A 
ATOM     65  C   UNL A   1      43.300  27.005  26.816  1.00  0.00     0.173 A 
ATOM     66  F   UNL A   1      41.028  24.644  28.397  1.00  0.00    -0.203 F 
ATOM     67  C   UNL A   1      42.308  24.441  26.431  1.00  0.00     0.198 A 
ATOM     68  C   UNL A   1      43.700  26.261  25.710  1.00  0.00     0.198 A 
ATOM     69  F   UNL A   1      43.806  28.236  26.981  1.00  0.00    -0.203 F 
ATOM     70  F   UNL A   1      41.856  23.191  26.265  1.00  0.00    -0.200 F 
ATOM     71  C   UNL A   1      43.209  24.977  25.522  1.00  0.00     0.200 A 
ATOM     72  F   UNL A   1      44.566  26.782  24.830  1.00  0.00    -0.200 F 
ATOM     73  F   UNL A   1      43.615  24.252  24.471  1.00  0.00    -0.200 F 
ENDBRANCH  49  63
BRANCH  50  74
ATOM     74  C   UNL A   1      39.155  32.024  35.400  1.00  0.00     0.064 A 
ATOM     75  C   UNL A   1      38.384  31.476  36.434  1.00  0.00     0.173 A 
ATOM     76  C   UNL A   1      39.473  33.387  35.474  1.00  0.00     0.173 A 
ATOM     77  F   UNL A   1      38.031  30.183  36.393  1.00  0.00    -0.203 F 
ATOM     78  C   UNL A   1      37.941  32.264  37.495  1.00  0.00     0.198 A 
ATOM     79  C   UNL A   1      39.051  34.169  36.547  1.00  0.00     0.198 A 
ATOM     80  F   UNL A   1      40.203  33.960  34.505  1.00  0.00    -0.203 F 
ATOM     81  F   UNL A   1      37.171  31.726  38.450  1.00  0.00    -0.200 F 
ATOM     82  C   UNL A   1      38.280  33.607  37.554  1.00  0.00     0.200 A 
ATOM     83  F   UNL A   1      39.386  35.465  36.602  1.00  0.00    -0.200 F 
ATOM     84  F   UNL A   1      37.857  34.364  38.576  1.00  0.00    -0.200 F 
ENDBRANCH  50  74
BRANCH  62  85
ATOM     85  C   UNL A   1      44.707  27.934  34.420  1.00  0.00     0.064 A 
ATOM     86  C   UNL A   1      45.873  28.714  34.434  1.00  0.00     0.173 A 
ATOM     87  C   UNL A   1      44.643  26.828  35.279  1.00  0.00     0.173 A 
ATOM     88  F   UNL A   1      45.986  29.773  33.619  1.00  0.00    -0.203 F 
ATOM     89  C   UNL A   1      46.943  28.382  35.262  1.00  0.00     0.198 A 
ATOM     90  C   UNL A   1      45.705  26.513  36.123  1.00  0.00     0.198 A 
ATOM     91  F   UNL A   1      43.546  26.055  35.305  1.00  0.00    -0.203 F 
ATOM     92  F   UNL A   1      48.064  29.115  35.230  1.00  0.00    -0.200 F 
ATOM     93  C   UNL A   1      46.855  27.287  36.109  1.00  0.00     0.200 A 
ATOM     94  F   UNL A   1      45.615  25.460  36.947  1.00  0.00    -0.200 F 
ATOM     95  F   UNL A   1      47.884  26.972  36.907  1.00  0.00    -0.200 F 
ENDBRANCH  62  85
ENDBRANCH  36  37
ENDBRANCH  29  31
ENDBRANCH  28  29
ENDBRANCH  27  28
ENDBRANCH   1  27
TORSDOF 15
ENDMDL
MODEL 2
REMARK VINA RESULT:     -12.5      0.738      7.200
REMARK SMILES CCc1cc2c(=O)c(-c3nc(C)cs3)coc2cc1O[C@H](C)C(=O)OCCOC(=O)c1ccc(-c2c3nc(c(-c4c(F)c(F)c(F)c(F)c4F)c4ccc([nH]4)c(-c4c(F)c(F)c(F)c(F)c4F)c4nc(c(-c5c(F)c(F)c(F)c(F)c5F)c5ccc2[nH]5)C=C4)C=C3)cc1
REMARK SMILES IDX 26 1 25 2 23 3 24 4 21 5 22 6 20 7 19 8 3 9 4 10 5 11 18 12
REMARK SMILES IDX 6 13 17 14 7 15 8 16 16 17 15 18 2 19 1 20 9 21 10 22 14 23
REMARK SMILES IDX 11 24 13 25 12 26 27 27 28 28 29 29 30 30 31 31 32 32 93 33
REMARK SMILES IDX 33 34 92 35 34 36 35 37 36 38 86 39 37 40 91 41 85 42 87 43
REMARK SMILES IDX 38 44 90 45 84 46 83 47 39 49 71 50 51 51 70 52 52 53 55 54
REMARK SMILES IDX 69 55 88 56 53 57 54 58 68 60 89 61 56 62 40 63 41 64 49 65
REMARK SMILES IDX 42 66 43 67 47 68 50 69 44 70 45 71 48 72 46 73 72 74 73 75
REMARK SMILES IDX 81 76 74 77 75 78 79 79 82 80 76 81 77 82 80 83 78 84 57 85
REMARK SMILES IDX 58 86 66 87 59 88 60 89 64 90 67 91 61 92 62 93 65 94 63 95
REMARK H PARENT 87 48 55 59
REMARK Flexibility Score: inf
ROOT
ATOM      1  C   UNL A   1      32.076  29.257  24.964  1.00  0.00     0.274 C 
ENDROOT
BRANCH   1   2
ATOM      2  O   UNL A   1      30.862  28.644  24.490  1.00  0.00    -0.459 OA
BRANCH   2   3
ATOM      3  C   UNL A   1      30.812  27.288  24.594  1.00  0.00     0.347 C 
ATOM      4  O   UNL A   1      30.538  26.702  25.637  1.00  0.00    -0.248 OA
BRANCH   3   5
ATOM      5  C   UNL A   1      31.093  26.551  23.267  1.00  0.00     0.279 C 
ATOM      6  C   UNL A   1      30.761  27.395  22.037  1.00  0.00     0.066 C 
BRANCH   5   7
ATOM      7  O   UNL A   1      32.433  26.105  23.101  1.00  0.00    -0.479 OA
BRANCH   7   8
ATOM      8  C   UNL A   1      32.799  24.829  23.417  1.00  0.00     0.127 A 
ATOM      9  C   UNL A   1      33.754  24.696  24.444  1.00  0.00    -0.005 A 
ATOM     10  C   UNL A   1      34.054  23.402  24.918  1.00  0.00     0.023 A 
ATOM     11  C   UNL A   1      33.455  22.271  24.359  1.00  0.00     0.066 A 
ATOM     12  C   UNL A   1      32.273  23.681  22.808  1.00  0.00     0.094 A 
ATOM     13  C   UNL A   1      33.735  20.925  24.893  1.00  0.00     0.202 A 
ATOM     14  C   UNL A   1      32.584  22.409  23.289  1.00  0.00     0.141 A 
ATOM     15  O   UNL A   1      34.512  20.779  25.829  1.00  0.00    -0.288 OA
ATOM     16  C   UNL A   1      33.039  19.800  24.225  1.00  0.00     0.094 A 
ATOM     17  O   UNL A   1      31.983  21.338  22.676  1.00  0.00    -0.463 OA
ATOM     18  C   UNL A   1      32.248  20.085  23.180  1.00  0.00     0.211 A 
BRANCH   9  19
ATOM     19  C   UNL A   1      34.463  25.844  25.141  1.00  0.00     0.036 C 
ATOM     20  C   UNL A   1      33.790  26.522  26.329  1.00  0.00     0.009 C 
ENDBRANCH   9  19
BRANCH  16  21
ATOM     21  C   UNL A   1      33.244  18.446  24.608  1.00  0.00     0.130 A 
ATOM     22  N   UNL A   1      32.378  17.693  25.267  1.00  0.00    -0.241 NA
ATOM     23  S   UNL A   1      34.756  17.657  24.298  1.00  0.00    -0.122 S 
ATOM     24  C   UNL A   1      32.863  16.406  25.435  1.00  0.00     0.049 A 
ATOM     25  C   UNL A   1      34.150  16.213  24.983  1.00  0.00     0.090 A 
ATOM     26  C   UNL A   1      31.975  15.392  26.058  1.00  0.00     0.067 C 
ENDBRANCH  16  21
ENDBRANCH   7   8
ENDBRANCH   5   7
ENDBRANCH   3   5
ENDBRANCH   2   3
ENDBRANCH   1   2
BRANCH   1  27
ATOM     27  C   UNL A   1      31.810  30.396  25.958  1.00  0.00     0.275 C 
BRANCH  27  28
ATOM     28  O   UNL A   1      32.641  30.324  27.136  1.00  0.00    -0.458 OA
BRANCH  28  29
ATOM     29  C   UNL A   1      33.369  31.437  27.380  1.00  0.00     0.338 C 
ATOM     30  O   UNL A   1      32.964  32.587  27.406  1.00  0.00    -0.246 OA
BRANCH  29  31
ATOM     31  C   UNL A   1      34.750  31.099  27.772  1.00  0.00     0.060 A 
ATOM     32  C   UNL A   1      35.023  29.753  28.035  1.00  0.00     0.016 A 
ATOM     33  C   UNL A   1      35.716  32.074  28.022  1.00  0.00     0.016 A 
ATOM     34  C   UNL A   1      36.246  29.370  28.569  1.00  0.00     0.010 A 
ATOM     35  C   UNL A   1      36.947  31.691  28.574  1.00  0.00     0.010 A 
ATOM     36  C   UNL A   1      37.204  30.341  28.874  1.00  0.00    -0.014 A 
BRANCH  36  37
ATOM     37  C   UNL A   1      38.407  29.928  29.633  1.00  0.00     0.031 A 
ATOM     38  C   UNL A   1      38.589  30.413  31.043  1.00  0.00     0.074 A 
ATOM     39  C   UNL A   1      39.275  29.048  29.103  1.00  0.00     0.049 A 
ATOM     40  N   UNL A   1      39.564  30.181  31.885  1.00  0.00    -0.248 NA
ATOM     41  C   UNL A   1      37.520  31.271  31.582  1.00  0.00     0.031 C 
ATOM     42  C   UNL A   1      39.154  28.439  27.780  1.00  0.00     0.029 A 
ATOM     43  N   UNL A   1      40.418  28.500  29.625  1.00  0.00    -0.354 N 
ATOM     44  C   UNL A   1      39.241  30.881  33.039  1.00  0.00     0.074 A 
ATOM     45  C   UNL A   1      37.984  31.552  32.791  1.00  0.00     0.031 C 
ATOM     46  C   UNL A   1      40.179  27.589  27.597  1.00  0.00     0.029 A 
ATOM     47  C   UNL A   1      41.046  27.627  28.773  1.00  0.00     0.049 A 
ATOM     48  H   UNL A   1      40.757  28.713  30.525  1.00  0.00     0.167 HD
ATOM     49  C   UNL A   1      39.933  30.956  34.200  1.00  0.00     0.037 A 
ATOM     50  C   UNL A   1      42.200  26.948  28.922  1.00  0.00     0.037 A 
ATOM     51  C   UNL A   1      41.171  30.268  34.453  1.00  0.00     0.049 A 
ATOM     52  C   UNL A   1      42.982  27.100  30.198  1.00  0.00     0.074 A 
ATOM     53  C   UNL A   1      41.950  30.279  35.597  1.00  0.00     0.029 A 
ATOM     54  N   UNL A   1      41.809  29.438  33.543  1.00  0.00    -0.354 N 
ATOM     55  N   UNL A   1      42.685  27.784  31.277  1.00  0.00    -0.248 NA
ATOM     56  C   UNL A   1      44.266  26.387  30.276  1.00  0.00     0.031 C 
ATOM     57  C   UNL A   1      43.080  29.485  35.364  1.00  0.00     0.029 A 
ATOM     58  C   UNL A   1      42.982  28.947  34.091  1.00  0.00     0.049 A 
ATOM     59  H   UNL A   1      41.477  29.230  32.639  1.00  0.00     0.167 HD
ATOM     60  C   UNL A   1      43.726  27.564  32.169  1.00  0.00     0.074 A 
ATOM     61  C   UNL A   1      44.661  26.676  31.507  1.00  0.00     0.031 C 
ATOM     62  C   UNL A   1      43.893  28.052  33.422  1.00  0.00     0.037 A 
BRANCH  49  63
ATOM     63  C   UNL A   1      39.385  31.854  35.268  1.00  0.00     0.064 A 
ATOM     64  C   UNL A   1      38.535  31.377  36.277  1.00  0.00     0.173 A 
ATOM     65  C   UNL A   1      39.721  33.216  35.282  1.00  0.00     0.173 A 
ATOM     66  F   UNL A   1      38.170  30.086  36.296  1.00  0.00    -0.203 F 
ATOM     67  C   UNL A   1      38.022  32.236  37.245  1.00  0.00     0.198 A 
ATOM     68  C   UNL A   1      39.225  34.068  36.264  1.00  0.00     0.198 A 
ATOM     69  F   UNL A   1      40.531  33.723  34.339  1.00  0.00    -0.203 F 
ATOM     70  F   UNL A   1      37.174  31.769  38.172  1.00  0.00    -0.200 F 
ATOM     71  C   UNL A   1      38.370  33.580  37.241  1.00  0.00     0.200 A 
ATOM     72  F   UNL A   1      39.567  35.364  36.262  1.00  0.00    -0.200 F 
ATOM     73  F   UNL A   1      37.872  34.406  38.170  1.00  0.00    -0.200 F 
ENDBRANCH  49  63
BRANCH  50  74
ATOM     74  C   UNL A   1      42.686  26.068  27.829  1.00  0.00     0.064 A 
ATOM     75  C   UNL A   1      43.523  26.566  26.821  1.00  0.00     0.173 A 
ATOM     76  C   UNL A   1      42.324  24.715  27.770  1.00  0.00     0.173 A 
ATOM     77  F   UNL A   1      43.872  27.861  26.821  1.00  0.00    -0.203 F 
ATOM     78  C   UNL A   1      43.972  25.744  25.790  1.00  0.00     0.198 A 
ATOM     79  C   UNL A   1      42.794  23.888  26.752  1.00  0.00     0.198 A 
ATOM     80  F   UNL A   1      41.520  24.193  28.708  1.00  0.00    -0.203 F 
ATOM     81  F   UNL A   1      44.737  26.254  24.815  1.00  0.00    -0.200 F 
ATOM     82  C   UNL A   1      43.613  24.405  25.760  1.00  0.00     0.200 A 
ATOM     83  F   UNL A   1      42.449  22.593  26.730  1.00  0.00    -0.200 F 
ATOM     84  F   UNL A   1      44.048  23.614  24.769  1.00  0.00    -0.200 F 
ENDBRANCH  50  74
BRANCH  62  85
ATOM     85  C   UNL A   1      45.107  27.602  34.177  1.00  0.00     0.064 A 
ATOM     86  C   UNL A   1      46.306  28.328  34.142  1.00  0.00     0.173 A 
ATOM     87  C   UNL A   1      45.059  26.447  34.972  1.00  0.00     0.173 A 
ATOM     88  F   UNL A   1      46.405  29.431  33.384  1.00  0.00    -0.203 F 
ATOM     89  C   UNL A   1      47.421  27.901  34.859  1.00  0.00     0.198 A 
ATOM     90  C   UNL A   1      46.168  26.037  35.707  1.00  0.00     0.198 A 
ATOM     91  F   UNL A   1      43.932  25.722  35.042  1.00  0.00    -0.203 F 
ATOM     92  F   UNL A   1      48.570  28.587  34.779  1.00  0.00    -0.200 F 
ATOM     93  C   UNL A   1      47.349  26.760  35.645  1.00  0.00     0.200 A 
ATOM     94  F   UNL A   1      46.094  24.939  36.473  1.00  0.00    -0.200 F 
ATOM     95  F   UNL A   1      48.421  26.354  36.337  1.00  0.00    -0.200 F 
ENDBRANCH  62  85
ENDBRANCH  36  37
ENDBRANCH  29  31
ENDBRANCH  28  29
ENDBRANCH  27  28
ENDBRANCH   1  27
TORSDOF 15
ENDMDL
MODEL 3
REMARK VINA RESULT:     -12.5      4.448      7.828
REMARK SMILES CCc1cc2c(=O)c(-c3nc(C)cs3)coc2cc1O[C@H](C)C(=O)OCCOC(=O)c1ccc(-c2c3nc(c(-c4c(F)c(F)c(F)c(F)c4F)c4ccc([nH]4)c(-c4c(F)c(F)c(F)c(F)c4F)c4nc(c(-c5c(F)c(F)c(F)c(F)c5F)c5ccc2[nH]5)C=C4)C=C3)cc1
REMARK SMILES IDX 26 1 25 2 23 3 24 4 21 5 22 6 20 7 19 8 3 9 4 10 5 11 18 12
REMARK SMILES IDX 6 13 17 14 7 15 8 16 16 17 15 18 2 19 1 20 9 21 10 22 14 23
REMARK SMILES IDX 11 24 13 25 12 26 27 27 28 28 29 29 30 30 31 31 32 32 93 33
REMARK SMILES IDX 33 34 92 35 34 36 35 37 36 38 86 39 37 40 91 41 85 42 87 43
REMARK SMILES IDX 38 44 90 45 84 46 83 47 39 49 71 50 51 51 70 52 52 53 55 54
REMARK SMILES IDX 69 55 88 56 53 57 54 58 68 60 89 61 56 62 40 63 41 64 49 65
REMARK SMILES IDX 42 66 43 67 47 68 50 69 44 70 45 71 48 72 46 73 72 74 73 75
REMARK SMILES IDX 81 76 74 77 75 78 79 79 82 80 76 81 77 82 80 83 78 84 57 85
REMARK SMILES IDX 58 86 66 87 59 88 60 89 64 90 67 91 61 92 62 93 65 94 63 95
REMARK H PARENT 87 48 55 59
REMARK Flexibility Score: inf
ROOT
ATOM      1  C   UNL A   1      35.351  21.095  25.120  1.00  0.00     0.274 C 
ENDROOT
BRANCH   1   2
ATOM      2  O   UNL A   1      34.343  20.145  24.723  1.00  0.00    -0.459 OA
BRANCH   2   3
ATOM      3  C   UNL A   1      33.060  20.595  24.783  1.00  0.00     0.347 C 
ATOM      4  O   UNL A   1      32.121  19.905  25.168  1.00  0.00    -0.248 OA
BRANCH   3   5
ATOM      5  C   UNL A   1      32.898  22.071  24.360  1.00  0.00     0.279 C 
ATOM      6  C   UNL A   1      32.090  22.235  23.073  1.00  0.00     0.066 C 
BRANCH   5   7
ATOM      7  O   UNL A   1      32.286  22.909  25.331  1.00  0.00    -0.479 OA
BRANCH   7   8
ATOM      8  C   UNL A   1      31.927  24.192  25.034  1.00  0.00     0.127 A 
ATOM      9  C   UNL A   1      32.971  25.138  25.013  1.00  0.00    -0.005 A 
ATOM     10  C   UNL A   1      32.685  26.443  24.562  1.00  0.00     0.023 A 
ATOM     11  C   UNL A   1      31.392  26.810  24.184  1.00  0.00     0.066 A 
ATOM     12  C   UNL A   1      30.618  24.599  24.735  1.00  0.00     0.094 A 
ATOM     13  C   UNL A   1      31.110  28.162  23.665  1.00  0.00     0.202 A 
ATOM     14  C   UNL A   1      30.356  25.896  24.294  1.00  0.00     0.141 A 
ATOM     15  O   UNL A   1      32.008  28.990  23.573  1.00  0.00    -0.288 OA
ATOM     16  C   UNL A   1      29.703  28.437  23.290  1.00  0.00     0.094 A 
ATOM     17  O   UNL A   1      29.058  26.199  23.965  1.00  0.00    -0.463 OA
ATOM     18  C   UNL A   1      28.803  27.462  23.481  1.00  0.00     0.211 A 
BRANCH   9  19
ATOM     19  C   UNL A   1      34.417  24.861  25.385  1.00  0.00     0.036 C 
ATOM     20  C   UNL A   1      35.402  24.459  24.294  1.00  0.00     0.009 C 
ENDBRANCH   9  19
BRANCH  16  21
ATOM     21  C   UNL A   1      29.279  29.708  22.814  1.00  0.00     0.130 A 
ATOM     22  N   UNL A   1      28.959  29.993  21.562  1.00  0.00    -0.241 NA
ATOM     23  S   UNL A   1      29.225  31.078  23.875  1.00  0.00    -0.122 S 
ATOM     24  C   UNL A   1      28.537  31.306  21.442  1.00  0.00     0.049 A 
ATOM     25  C   UNL A   1      28.631  32.049  22.599  1.00  0.00     0.090 A 
ATOM     26  C   UNL A   1      28.031  31.769  20.125  1.00  0.00     0.067 C 
ENDBRANCH  16  21
ENDBRANCH   7   8
ENDBRANCH   5   7
ENDBRANCH   3   5
ENDBRANCH   2   3
ENDBRANCH   1   2
BRANCH   1  27
ATOM     27  C   UNL A   1      36.772  20.528  25.000  1.00  0.00     0.275 C 
BRANCH  27  28
ATOM     28  O   UNL A   1      37.791  21.550  25.017  1.00  0.00    -0.458 OA
BRANCH  28  29
ATOM     29  C   UNL A   1      38.858  21.269  25.798  1.00  0.00     0.338 C 
ATOM     30  O   UNL A   1      39.461  20.211  25.863  1.00  0.00    -0.246 OA
BRANCH  29  31
ATOM     31  C   UNL A   1      39.338  22.472  26.503  1.00  0.00     0.060 A 
ATOM     32  C   UNL A   1      38.767  23.694  26.132  1.00  0.00     0.016 A 
ATOM     33  C   UNL A   1      40.413  22.439  27.392  1.00  0.00     0.016 A 
ATOM     34  C   UNL A   1      39.275  24.890  26.622  1.00  0.00     0.010 A 
ATOM     35  C   UNL A   1      40.936  23.647  27.876  1.00  0.00     0.010 A 
ATOM     36  C   UNL A   1      40.385  24.876  27.471  1.00  0.00    -0.014 A 
BRANCH  36  37
ATOM     37  C   UNL A   1      41.031  26.166  27.805  1.00  0.00     0.031 A 
ATOM     38  C   UNL A   1      42.434  26.429  27.336  1.00  0.00     0.074 A 
ATOM     39  C   UNL A   1      40.335  27.130  28.434  1.00  0.00     0.049 A 
ATOM     40  N   UNL A   1      43.189  27.482  27.519  1.00  0.00    -0.248 NA
ATOM     41  C   UNL A   1      43.069  25.363  26.545  1.00  0.00     0.031 C 
ATOM     42  C   UNL A   1      38.941  27.023  28.857  1.00  0.00     0.029 A 
ATOM     43  N   UNL A   1      40.706  28.397  28.807  1.00  0.00    -0.354 N 
ATOM     44  C   UNL A   1      44.393  27.197  26.890  1.00  0.00     0.074 A 
ATOM     45  C   UNL A   1      44.273  25.871  26.325  1.00  0.00     0.031 C 
ATOM     46  C   UNL A   1      38.566  28.183  29.422  1.00  0.00     0.029 A 
ATOM     47  C   UNL A   1      39.707  29.096  29.436  1.00  0.00     0.049 A 
ATOM     48  H   UNL A   1      41.602  28.769  28.639  1.00  0.00     0.167 HD
ATOM     49  C   UNL A   1      45.498  27.973  26.794  1.00  0.00     0.037 A 
ATOM     50  C   UNL A   1      39.720  30.331  29.975  1.00  0.00     0.037 A 
ATOM     51  C   UNL A   1      45.607  29.302  27.337  1.00  0.00     0.049 A 
ATOM     52  C   UNL A   1      40.982  31.147  29.911  1.00  0.00     0.074 A 
ATOM     53  C   UNL A   1      46.684  30.169  27.293  1.00  0.00     0.029 A 
ATOM     54  N   UNL A   1      44.593  29.956  28.021  1.00  0.00    -0.354 N 
ATOM     55  N   UNL A   1      42.126  30.862  29.337  1.00  0.00    -0.248 NA
ATOM     56  C   UNL A   1      40.956  32.459  30.576  1.00  0.00     0.031 C 
ATOM     57  C   UNL A   1      46.333  31.335  27.984  1.00  0.00     0.029 A 
ATOM     58  C   UNL A   1      45.025  31.209  28.422  1.00  0.00     0.049 A 
ATOM     59  H   UNL A   1      43.699  29.584  28.196  1.00  0.00     0.167 HD
ATOM     60  C   UNL A   1      42.945  31.964  29.547  1.00  0.00     0.074 A 
ATOM     61  C   UNL A   1      42.164  32.928  30.295  1.00  0.00     0.031 C 
ATOM     62  C   UNL A   1      44.227  32.161  29.153  1.00  0.00     0.037 A 
BRANCH  49  63
ATOM     63  C   UNL A   1      46.696  27.380  26.115  1.00  0.00     0.064 A 
ATOM     64  C   UNL A   1      46.919  27.530  24.738  1.00  0.00     0.173 A 
ATOM     65  C   UNL A   1      47.637  26.652  26.859  1.00  0.00     0.173 A 
ATOM     66  F   UNL A   1      46.038  28.201  23.981  1.00  0.00    -0.203 F 
ATOM     67  C   UNL A   1      48.028  26.950  24.126  1.00  0.00     0.198 A 
ATOM     68  C   UNL A   1      48.757  26.094  26.249  1.00  0.00     0.198 A 
ATOM     69  F   UNL A   1      47.470  26.481  28.178  1.00  0.00    -0.203 F 
ATOM     70  F   UNL A   1      48.198  27.064  22.803  1.00  0.00    -0.200 F 
ATOM     71  C   UNL A   1      48.948  26.236  24.882  1.00  0.00     0.200 A 
ATOM     72  F   UNL A   1      49.647  25.410  26.981  1.00  0.00    -0.200 F 
ATOM     73  F   UNL A   1      50.011  25.676  24.292  1.00  0.00    -0.200 F 
ENDBRANCH  49  63
BRANCH  50  74
ATOM     74  C   UNL A   1      38.499  30.865  30.628  1.00  0.00     0.064 A 
ATOM     75  C   UNL A   1      37.479  31.461  29.874  1.00  0.00     0.173 A 
ATOM     76  C   UNL A   1      38.327  30.792  32.018  1.00  0.00     0.173 A 
ATOM     77  F   UNL A   1      37.612  31.578  28.545  1.00  0.00    -0.203 F 
ATOM     78  C   UNL A   1      36.337  31.972  30.487  1.00  0.00     0.198 A 
ATOM     79  C   UNL A   1      37.173  31.281  32.627  1.00  0.00     0.198 A 
ATOM     80  F   UNL A   1      39.277  30.238  32.784  1.00  0.00    -0.203 F 
ATOM     81  F   UNL A   1      35.395  32.573  29.748  1.00  0.00    -0.200 F 
ATOM     82  C   UNL A   1      36.182  31.875  31.862  1.00  0.00     0.200 A 
ATOM     83  F   UNL A   1      37.025  31.180  33.955  1.00  0.00    -0.200 F 
ATOM     84  F   UNL A   1      35.081  32.364  32.450  1.00  0.00    -0.200 F 
ENDBRANCH  50  74
BRANCH  62  85
ATOM     85  C   UNL A   1      44.851  33.483  29.485  1.00  0.00     0.064 A 
ATOM     86  C   UNL A   1      45.593  33.672  30.661  1.00  0.00     0.173 A 
ATOM     87  C   UNL A   1      44.732  34.564  28.600  1.00  0.00     0.173 A 
ATOM     88  F   UNL A   1      45.721  32.672  31.545  1.00  0.00    -0.203 F 
ATOM     89  C   UNL A   1      46.174  34.904  30.947  1.00  0.00     0.198 A 
ATOM     90  C   UNL A   1      45.335  35.788  28.878  1.00  0.00     0.198 A 
ATOM     91  F   UNL A   1      44.037  34.431  27.460  1.00  0.00    -0.203 F 
ATOM     92  F   UNL A   1      46.844  35.076  32.095  1.00  0.00    -0.200 F 
ATOM     93  C   UNL A   1      46.050  35.958  30.054  1.00  0.00     0.200 A 
ATOM     94  F   UNL A   1      45.223  36.802  28.009  1.00  0.00    -0.200 F 
ATOM     95  F   UNL A   1      46.614  37.141  30.330  1.00  0.00    -0.200 F 
ENDBRANCH  62  85
ENDBRANCH  36  37
ENDBRANCH  29  31
ENDBRANCH  28  29
ENDBRANCH  27  28
ENDBRANCH   1  27
TORSDOF 15
ENDMDL
