MODEL 1
REMARK VINA RESULT:     -12.3      0.000      0.000
REMARK SMILES O=C(OCCOC(=O)c1cc(Cl)cn(Cc2ccc(Cl)cc2)c1=O)c1ccc(-c2c3nc(c(-c4c(F)c(F)c(F)c(F)c4F)c4ccc([nH]4)c(-c4c(F)c(F)c(F)c(F)c4F)c4nc(c(-c5c(F)c(F)c(F)c(F)c5F)c5ccc2[nH]5)C=C4)C=C3)cc1
REMARK SMILES IDX 4 1 3 2 2 3 1 4 25 5 26 6 87 7 27 8 86 9 28 10 29 11 30 12
REMARK SMILES IDX 80 13 31 14 85 15 79 16 81 17 32 18 84 19 78 20 77 21 33 23
REMARK SMILES IDX 65 24 45 25 64 26 46 27 49 28 63 29 82 30 47 31 48 32 62 34
REMARK SMILES IDX 83 35 50 36 34 37 35 38 43 39 36 40 37 41 41 42 44 43 38 44
REMARK SMILES IDX 39 45 42 46 40 47 66 48 67 49 75 50 68 51 69 52 73 53 76 54
REMARK SMILES IDX 70 55 71 56 74 57 72 58 51 59 52 60 60 61 53 62 54 63 58 64
REMARK SMILES IDX 61 65 55 66 56 67 59 68 57 69 5 70 6 71 7 72 8 73 9 74 10 75
REMARK SMILES IDX 23 76 11 77 14 78 24 79 12 80 13 81 15 82 16 83 17 84 22 85
REMARK SMILES IDX 18 86 21 87 19 88 20 89
REMARK H PARENT 81 22 49 33
REMARK Flexibility Score: inf
ROOT
ATOM      1  C   UNL A   1      43.576  21.361  25.389  1.00  0.00     0.275 C 
ENDROOT
BRANCH   1   2
ATOM      2  O   UNL A   1      42.957  22.593  24.982  1.00  0.00    -0.458 OA
BRANCH   2   3
ATOM      3  C   UNL A   1      43.592  23.793  24.946  1.00  0.00     0.338 C 
ATOM      4  O   UNL A   1      44.616  23.946  24.287  1.00  0.00    -0.246 OA
BRANCH   3   5
ATOM      5  C   UNL A   1      43.243  24.810  25.975  1.00  0.00     0.060 A 
ATOM      6  C   UNL A   1      42.489  24.355  27.063  1.00  0.00     0.016 A 
ATOM      7  C   UNL A   1      43.619  26.155  25.935  1.00  0.00     0.016 A 
ATOM      8  C   UNL A   1      41.998  25.256  28.009  1.00  0.00     0.010 A 
ATOM      9  C   UNL A   1      43.141  27.058  26.892  1.00  0.00     0.010 A 
ATOM     10  C   UNL A   1      42.301  26.624  27.921  1.00  0.00    -0.014 A 
BRANCH  10  11
ATOM     11  C   UNL A   1      41.891  27.539  29.012  1.00  0.00     0.031 A 
ATOM     12  C   UNL A   1      40.769  28.527  28.869  1.00  0.00     0.074 A 
ATOM     13  C   UNL A   1      42.566  27.455  30.173  1.00  0.00     0.049 A 
ATOM     14  N   UNL A   1      40.159  29.201  29.812  1.00  0.00    -0.248 NA
ATOM     15  C   UNL A   1      40.240  28.779  27.522  1.00  0.00     0.031 C 
ATOM     16  C   UNL A   1      43.721  26.585  30.406  1.00  0.00     0.029 A 
ATOM     17  N   UNL A   1      42.394  28.108  31.365  1.00  0.00    -0.354 N 
ATOM     18  C   UNL A   1      39.121  29.881  29.188  1.00  0.00     0.074 A 
ATOM     19  C   UNL A   1      39.229  29.606  27.773  1.00  0.00     0.031 C 
ATOM     20  C   UNL A   1      44.152  26.755  31.662  1.00  0.00     0.029 A 
ATOM     21  C   UNL A   1      43.326  27.766  32.311  1.00  0.00     0.049 A 
ATOM     22  H   UNL A   1      41.671  28.757  31.525  1.00  0.00     0.167 HD
ATOM     23  C   UNL A   1      38.146  30.619  29.766  1.00  0.00     0.037 A 
ATOM     24  C   UNL A   1      43.510  28.230  33.560  1.00  0.00     0.037 A 
ATOM     25  C   UNL A   1      38.122  30.978  31.159  1.00  0.00     0.049 A 
ATOM     26  C   UNL A   1      42.535  29.223  34.117  1.00  0.00     0.074 A 
ATOM     27  C   UNL A   1      37.162  31.700  31.847  1.00  0.00     0.029 A 
ATOM     28  N   UNL A   1      39.135  30.695  32.061  1.00  0.00    -0.354 N 
ATOM     29  N   UNL A   1      41.439  29.691  33.571  1.00  0.00    -0.248 NA
ATOM     30  C   UNL A   1      42.810  29.748  35.461  1.00  0.00     0.031 C 
ATOM     31  C   UNL A   1      37.632  31.920  33.145  1.00  0.00     0.029 A 
ATOM     32  C   UNL A   1      38.862  31.295  33.278  1.00  0.00     0.049 A 
ATOM     33  H   UNL A   1      39.931  30.149  31.865  1.00  0.00     0.167 HD
ATOM     34  C   UNL A   1      40.881  30.546  34.508  1.00  0.00     0.074 A 
ATOM     35  C   UNL A   1      41.755  30.528  35.663  1.00  0.00     0.031 C 
ATOM     36  C   UNL A   1      39.743  31.275  34.418  1.00  0.00     0.037 A 
BRANCH  23  37
ATOM     37  C   UNL A   1      36.979  31.055  28.935  1.00  0.00     0.064 A 
ATOM     38  C   UNL A   1      35.950  30.143  28.658  1.00  0.00     0.173 A 
ATOM     39  C   UNL A   1      36.781  32.396  28.584  1.00  0.00     0.173 A 
ATOM     40  F   UNL A   1      36.082  28.859  29.017  1.00  0.00    -0.203 F 
ATOM     41  C   UNL A   1      34.764  30.556  28.057  1.00  0.00     0.198 A 
ATOM     42  C   UNL A   1      35.588  32.810  27.995  1.00  0.00     0.198 A 
ATOM     43  F   UNL A   1      37.724  33.310  28.858  1.00  0.00    -0.203 F 
ATOM     44  F   UNL A   1      33.789  29.667  27.815  1.00  0.00    -0.200 F 
ATOM     45  C   UNL A   1      34.580  31.892  27.735  1.00  0.00     0.200 A 
ATOM     46  F   UNL A   1      35.399  34.105  27.705  1.00  0.00    -0.200 F 
ATOM     47  F   UNL A   1      33.423  32.298  27.191  1.00  0.00    -0.200 F 
ENDBRANCH  23  37
BRANCH  24  48
ATOM     48  C   UNL A   1      44.674  27.740  34.341  1.00  0.00     0.064 A 
ATOM     49  C   UNL A   1      44.578  26.604  35.151  1.00  0.00     0.173 A 
ATOM     50  C   UNL A   1      45.927  28.362  34.228  1.00  0.00     0.173 A 
ATOM     51  F   UNL A   1      43.398  25.983  35.299  1.00  0.00    -0.203 F 
ATOM     52  C   UNL A   1      45.695  26.104  35.816  1.00  0.00     0.198 A 
ATOM     53  C   UNL A   1      47.049  27.844  34.868  1.00  0.00     0.198 A 
ATOM     54  F   UNL A   1      46.070  29.450  33.454  1.00  0.00    -0.203 F 
ATOM     55  F   UNL A   1      45.577  25.023  36.600  1.00  0.00    -0.200 F 
ATOM     56  C   UNL A   1      46.932  26.716  35.663  1.00  0.00     0.200 A 
ATOM     57  F   UNL A   1      48.244  28.426  34.697  1.00  0.00    -0.200 F 
ATOM     58  F   UNL A   1      48.010  26.216  36.282  1.00  0.00    -0.200 F 
ENDBRANCH  24  48
BRANCH  36  59
ATOM     59  C   UNL A   1      39.367  32.128  35.590  1.00  0.00     0.064 A 
ATOM     60  C   UNL A   1      39.771  33.467  35.670  1.00  0.00     0.173 A 
ATOM     61  C   UNL A   1      38.513  31.633  36.588  1.00  0.00     0.173 A 
ATOM     62  F   UNL A   1      40.597  33.979  34.745  1.00  0.00    -0.203 F 
ATOM     63  C   UNL A   1      39.336  34.282  36.710  1.00  0.00     0.198 A 
ATOM     64  C   UNL A   1      38.058  32.459  37.611  1.00  0.00     0.198 A 
ATOM     65  F   UNL A   1      38.094  30.360  36.549  1.00  0.00    -0.203 F 
ATOM     66  F   UNL A   1      39.751  35.554  36.780  1.00  0.00    -0.200 F 
ATOM     67  C   UNL A   1      38.470  33.782  37.672  1.00  0.00     0.200 A 
ATOM     68  F   UNL A   1      37.208  31.979  38.529  1.00  0.00    -0.200 F 
ATOM     69  F   UNL A   1      38.032  34.576  38.657  1.00  0.00    -0.200 F 
ENDBRANCH  36  59
ENDBRANCH  10  11
ENDBRANCH   3   5
ENDBRANCH   2   3
ENDBRANCH   1   2
BRANCH   1  70
ATOM     70  C   UNL A   1      42.647  20.420  26.165  1.00  0.00     0.275 C 
BRANCH  70  71
ATOM     71  O   UNL A   1      41.422  21.046  26.577  1.00  0.00    -0.458 OA
BRANCH  71  72
ATOM     72  C   UNL A   1      40.292  20.509  26.043  1.00  0.00     0.343 C 
ATOM     73  O   UNL A   1      40.105  19.325  25.802  1.00  0.00    -0.246 OA
BRANCH  72  74
ATOM     74  C   UNL A   1      39.232  21.526  25.979  1.00  0.00     0.126 A 
ATOM     75  C   UNL A   1      39.478  22.678  26.627  1.00  0.00     0.043 A 
ATOM     76  C   UNL A   1      37.977  21.354  25.189  1.00  0.00     0.265 A 
ATOM     77  C   UNL A   1      38.584  23.795  26.491  1.00  0.00     0.058 A 
ATOM     78  N   UNL A   1      37.148  22.485  25.115  1.00  0.00    -0.309 N 
ATOM     79  O   UNL A   1      37.718  20.277  24.658  1.00  0.00    -0.268 OA
ATOM     80  Cl  UNL A   1      39.007  25.295  27.216  1.00  0.00    -0.083 Cl
ATOM     81  C   UNL A   1      37.487  23.681  25.736  1.00  0.00     0.110 A 
BRANCH  78  82
ATOM     82  C   UNL A   1      35.874  22.406  24.388  1.00  0.00     0.161 C 
BRANCH  82  83
ATOM     83  C   UNL A   1      34.843  23.379  24.918  1.00  0.00    -0.028 A 
ATOM     84  C   UNL A   1      34.183  23.138  26.133  1.00  0.00     0.007 A 
ATOM     85  C   UNL A   1      34.513  24.525  24.179  1.00  0.00     0.007 A 
ATOM     86  C   UNL A   1      33.183  24.002  26.579  1.00  0.00     0.021 A 
ATOM     87  C   UNL A   1      33.537  25.407  24.644  1.00  0.00     0.021 A 
ATOM     88  C   UNL A   1      32.865  25.133  25.833  1.00  0.00     0.041 A 
ATOM     89  Cl  UNL A   1      31.630  26.196  26.384  1.00  0.00    -0.084 Cl
ENDBRANCH  82  83
ENDBRANCH  78  82
ENDBRANCH  72  74
ENDBRANCH  71  72
ENDBRANCH  70  71
ENDBRANCH   1  70
TORSDOF 13
ENDMDL
MODEL 2
REMARK VINA RESULT:     -12.0      5.794     10.523
REMARK SMILES O=C(OCCOC(=O)c1cc(Cl)cn(Cc2ccc(Cl)cc2)c1=O)c1ccc(-c2c3nc(c(-c4c(F)c(F)c(F)c(F)c4F)c4ccc([nH]4)c(-c4c(F)c(F)c(F)c(F)c4F)c4nc(c(-c5c(F)c(F)c(F)c(F)c5F)c5ccc2[nH]5)C=C4)C=C3)cc1
REMARK SMILES IDX 4 1 3 2 2 3 1 4 25 5 26 6 87 7 27 8 86 9 28 10 29 11 30 12
REMARK SMILES IDX 80 13 31 14 85 15 79 16 81 17 32 18 84 19 78 20 77 21 33 23
REMARK SMILES IDX 65 24 45 25 64 26 46 27 49 28 63 29 82 30 47 31 48 32 62 34
REMARK SMILES IDX 83 35 50 36 34 37 35 38 43 39 36 40 37 41 41 42 44 43 38 44
REMARK SMILES IDX 39 45 42 46 40 47 66 48 67 49 75 50 68 51 69 52 73 53 76 54
REMARK SMILES IDX 70 55 71 56 74 57 72 58 51 59 52 60 60 61 53 62 54 63 58 64
REMARK SMILES IDX 61 65 55 66 56 67 59 68 57 69 5 70 6 71 7 72 8 73 9 74 10 75
REMARK SMILES IDX 23 76 11 77 14 78 24 79 12 80 13 81 15 82 16 83 17 84 22 85
REMARK SMILES IDX 18 86 21 87 19 88 20 89
REMARK H PARENT 81 22 49 33
REMARK Flexibility Score: inf
ROOT
ATOM      1  C   UNL A   1      34.362  34.035  31.442  1.00  0.00     0.275 C 
ENDROOT
BRANCH   1   2
ATOM      2  O   UNL A   1      34.703  32.666  31.722  1.00  0.00    -0.458 OA
BRANCH   2   3
ATOM      3  C   UNL A   1      35.674  32.283  32.591  1.00  0.00     0.338 C 
ATOM      4  O   UNL A   1      35.667  32.669  33.756  1.00  0.00    -0.246 OA
BRANCH   3   5
ATOM      5  C   UNL A   1      36.920  31.686  32.041  1.00  0.00     0.060 A 
ATOM      6  C   UNL A   1      37.157  31.895  30.677  1.00  0.00     0.016 A 
ATOM      7  C   UNL A   1      37.857  30.957  32.779  1.00  0.00     0.016 A 
ATOM      8  C   UNL A   1      38.226  31.264  30.039  1.00  0.00     0.010 A 
ATOM      9  C   UNL A   1      38.939  30.336  32.144  1.00  0.00     0.010 A 
ATOM     10  C   UNL A   1      39.117  30.457  30.763  1.00  0.00    -0.014 A 
BRANCH  10  11
ATOM     11  C   UNL A   1      40.325  29.915  30.096  1.00  0.00     0.031 A 
ATOM     12  C   UNL A   1      40.434  28.487  29.645  1.00  0.00     0.074 A 
ATOM     13  C   UNL A   1      41.350  30.763  29.894  1.00  0.00     0.049 A 
ATOM     14  N   UNL A   1      41.323  27.958  28.841  1.00  0.00    -0.248 NA
ATOM     15  C   UNL A   1      39.421  27.535  30.119  1.00  0.00     0.031 C 
ATOM     16  C   UNL A   1      41.387  32.153  30.354  1.00  0.00     0.029 A 
ATOM     17  N   UNL A   1      42.554  30.586  29.265  1.00  0.00    -0.354 N 
ATOM     18  C   UNL A   1      40.925  26.643  28.641  1.00  0.00     0.074 A 
ATOM     19  C   UNL A   1      39.760  26.425  29.469  1.00  0.00     0.031 C 
ATOM     20  C   UNL A   1      42.552  32.704  29.990  1.00  0.00     0.029 A 
ATOM     21  C   UNL A   1      43.355  31.699  29.301  1.00  0.00     0.049 A 
ATOM     22  H   UNL A   1      42.818  29.743  28.830  1.00  0.00     0.167 HD
ATOM     23  C   UNL A   1      41.464  25.731  27.798  1.00  0.00     0.037 A 
ATOM     24  C   UNL A   1      44.607  31.887  28.848  1.00  0.00     0.037 A 
ATOM     25  C   UNL A   1      42.691  25.928  27.073  1.00  0.00     0.049 A 
ATOM     26  C   UNL A   1      45.281  30.780  28.096  1.00  0.00     0.074 A 
ATOM     27  C   UNL A   1      43.304  25.075  26.172  1.00  0.00     0.029 A 
ATOM     28  N   UNL A   1      43.519  27.028  27.213  1.00  0.00    -0.354 N 
ATOM     29  N   UNL A   1      44.794  29.615  27.741  1.00  0.00    -0.248 NA
ATOM     30  C   UNL A   1      46.669  31.007  27.674  1.00  0.00     0.031 C 
ATOM     31  C   UNL A   1      44.543  25.625  25.828  1.00  0.00     0.029 A 
ATOM     32  C   UNL A   1      44.677  26.841  26.478  1.00  0.00     0.049 A 
ATOM     33  H   UNL A   1      43.315  27.824  27.756  1.00  0.00     0.167 HD
ATOM     34  C   UNL A   1      45.804  28.979  27.035  1.00  0.00     0.074 A 
ATOM     35  C   UNL A   1      46.930  29.890  27.006  1.00  0.00     0.031 C 
ATOM     36  C   UNL A   1      45.793  27.753  26.461  1.00  0.00     0.037 A 
BRANCH  23  37
ATOM     37  C   UNL A   1      40.726  24.452  27.548  1.00  0.00     0.064 A 
ATOM     38  C   UNL A   1      39.612  24.454  26.696  1.00  0.00     0.173 A 
ATOM     39  C   UNL A   1      41.221  23.216  27.980  1.00  0.00     0.173 A 
ATOM     40  F   UNL A   1      39.133  25.614  26.225  1.00  0.00    -0.203 F 
ATOM     41  C   UNL A   1      39.017  23.264  26.285  1.00  0.00     0.198 A 
ATOM     42  C   UNL A   1      40.634  22.026  27.557  1.00  0.00     0.198 A 
ATOM     43  F   UNL A   1      42.304  23.164  28.770  1.00  0.00    -0.203 F 
ATOM     44  F   UNL A   1      37.961  23.291  25.458  1.00  0.00    -0.200 F 
ATOM     45  C   UNL A   1      39.535  22.050  26.708  1.00  0.00     0.200 A 
ATOM     46  F   UNL A   1      41.148  20.851  27.947  1.00  0.00    -0.200 F 
ATOM     47  F   UNL A   1      38.988  20.902  26.284  1.00  0.00    -0.200 F 
ENDBRANCH  23  37
BRANCH  24  48
ATOM     48  C   UNL A   1      45.274  33.187  29.109  1.00  0.00     0.064 A 
ATOM     49  C   UNL A   1      46.022  33.399  30.271  1.00  0.00     0.173 A 
ATOM     50  C   UNL A   1      45.237  34.218  28.156  1.00  0.00     0.173 A 
ATOM     51  F   UNL A   1      46.078  32.447  31.215  1.00  0.00    -0.203 F 
ATOM     52  C   UNL A   1      46.712  34.592  30.471  1.00  0.00     0.198 A 
ATOM     53  C   UNL A   1      45.951  35.398  28.342  1.00  0.00     0.198 A 
ATOM     54  F   UNL A   1      44.540  34.057  27.020  1.00  0.00    -0.203 F 
ATOM     55  F   UNL A   1      47.408  34.780  31.601  1.00  0.00    -0.200 F 
ATOM     56  C   UNL A   1      46.687  35.585  29.501  1.00  0.00     0.200 A 
ATOM     57  F   UNL A   1      45.942  36.341  27.391  1.00  0.00    -0.200 F 
ATOM     58  F   UNL A   1      47.374  36.721  29.683  1.00  0.00    -0.200 F 
ENDBRANCH  24  48
BRANCH  36  59
ATOM     59  C   UNL A   1      47.034  27.303  25.753  1.00  0.00     0.064 A 
ATOM     60  C   UNL A   1      47.257  27.628  24.409  1.00  0.00     0.173 A 
ATOM     61  C   UNL A   1      48.051  26.633  26.450  1.00  0.00     0.173 A 
ATOM     62  F   UNL A   1      46.308  28.257  23.699  1.00  0.00    -0.203 F 
ATOM     63  C   UNL A   1      48.455  27.295  23.784  1.00  0.00     0.198 A 
ATOM     64  C   UNL A   1      49.258  26.326  25.830  1.00  0.00     0.198 A 
ATOM     65  F   UNL A   1      47.886  26.309  27.741  1.00  0.00    -0.203 F 
ATOM     66  F   UNL A   1      48.640  27.594  22.491  1.00  0.00    -0.200 F 
ATOM     67  C   UNL A   1      49.459  26.656  24.498  1.00  0.00     0.200 A 
ATOM     68  F   UNL A   1      50.233  25.725  26.527  1.00  0.00    -0.200 F 
ATOM     69  F   UNL A   1      50.621  26.360  23.902  1.00  0.00    -0.200 F 
ENDBRANCH  36  59
ENDBRANCH  10  11
ENDBRANCH   3   5
ENDBRANCH   2   3
ENDBRANCH   1   2
BRANCH   1  70
ATOM     70  C   UNL A   1      34.128  34.330  29.956  1.00  0.00     0.275 C 
BRANCH  70  71
ATOM     71  O   UNL A   1      34.487  33.235  29.098  1.00  0.00    -0.458 OA
BRANCH  71  72
ATOM     72  C   UNL A   1      33.556  32.906  28.163  1.00  0.00     0.343 C 
ATOM     73  O   UNL A   1      32.709  33.656  27.699  1.00  0.00    -0.246 OA
BRANCH  72  74
ATOM     74  C   UNL A   1      33.832  31.565  27.626  1.00  0.00     0.126 A 
ATOM     75  C   UNL A   1      35.092  31.118  27.773  1.00  0.00     0.043 A 
ATOM     76  C   UNL A   1      32.785  30.694  27.016  1.00  0.00     0.265 A 
ATOM     77  C   UNL A   1      35.427  29.762  27.434  1.00  0.00     0.058 A 
ATOM     78  N   UNL A   1      33.193  29.388  26.699  1.00  0.00    -0.309 N 
ATOM     79  O   UNL A   1      31.654  31.128  26.815  1.00  0.00    -0.268 OA
ATOM     80  Cl  UNL A   1      37.010  29.185  27.772  1.00  0.00    -0.083 Cl
ATOM     81  C   UNL A   1      34.487  28.947  26.946  1.00  0.00     0.110 A 
BRANCH  78  82
ATOM     82  C   UNL A   1      32.243  28.465  26.063  1.00  0.00     0.161 C 
BRANCH  82  83
ATOM     83  C   UNL A   1      32.932  27.293  25.397  1.00  0.00    -0.028 A 
ATOM     84  C   UNL A   1      33.232  27.319  24.026  1.00  0.00     0.007 A 
ATOM     85  C   UNL A   1      33.253  26.149  26.143  1.00  0.00     0.007 A 
ATOM     86  C   UNL A   1      33.801  26.208  23.405  1.00  0.00     0.021 A 
ATOM     87  C   UNL A   1      33.854  25.051  25.527  1.00  0.00     0.021 A 
ATOM     88  C   UNL A   1      34.111  25.080  24.158  1.00  0.00     0.041 A 
ATOM     89  Cl  UNL A   1      34.810  23.709  23.389  1.00  0.00    -0.084 Cl
ENDBRANCH  82  83
ENDBRANCH  78  82
ENDBRANCH  72  74
ENDBRANCH  71  72
ENDBRANCH  70  71
ENDBRANCH   1  70
TORSDOF 13
ENDMDL
MODEL 3
REMARK VINA RESULT:     -12.0      4.366      9.304
REMARK SMILES O=C(OCCOC(=O)c1cc(Cl)cn(Cc2ccc(Cl)cc2)c1=O)c1ccc(-c2c3nc(c(-c4c(F)c(F)c(F)c(F)c4F)c4ccc([nH]4)c(-c4c(F)c(F)c(F)c(F)c4F)c4nc(c(-c5c(F)c(F)c(F)c(F)c5F)c5ccc2[nH]5)C=C4)C=C3)cc1
REMARK SMILES IDX 4 1 3 2 2 3 1 4 25 5 26 6 87 7 27 8 86 9 28 10 29 11 30 12
REMARK SMILES IDX 80 13 31 14 85 15 79 16 81 17 32 18 84 19 78 20 77 21 33 23
REMARK SMILES IDX 65 24 45 25 64 26 46 27 49 28 63 29 82 30 47 31 48 32 62 34
REMARK SMILES IDX 83 35 50 36 34 37 35 38 43 39 36 40 37 41 41 42 44 43 38 44
REMARK SMILES IDX 39 45 42 46 40 47 66 48 67 49 75 50 68 51 69 52 73 53 76 54
REMARK SMILES IDX 70 55 71 56 74 57 72 58 51 59 52 60 60 61 53 62 54 63 58 64
REMARK SMILES IDX 61 65 55 66 56 67 59 68 57 69 5 70 6 71 7 72 8 73 9 74 10 75
REMARK SMILES IDX 23 76 11 77 14 78 24 79 12 80 13 81 15 82 16 83 17 84 22 85
REMARK SMILES IDX 18 86 21 87 19 88 20 89
REMARK H PARENT 81 22 49 33
REMARK Flexibility Score: inf
ROOT
ATOM      1  C   UNL A   1      33.118  30.078  25.794  1.00  0.00     0.275 C 
ENDROOT
BRANCH   1   2
ATOM      2  O   UNL A   1      33.928  29.651  26.903  1.00  0.00    -0.458 OA
BRANCH   2   3
ATOM      3  C   UNL A   1      34.613  30.494  27.718  1.00  0.00     0.338 C 
ATOM      4  O   UNL A   1      34.312  31.681  27.796  1.00  0.00    -0.246 OA
BRANCH   3   5
ATOM      5  C   UNL A   1      35.934  30.053  28.243  1.00  0.00     0.060 A 
ATOM      6  C   UNL A   1      37.008  30.115  27.348  1.00  0.00     0.016 A 
ATOM      7  C   UNL A   1      36.172  29.603  29.545  1.00  0.00     0.016 A 
ATOM      8  C   UNL A   1      38.255  29.599  27.702  1.00  0.00     0.010 A 
ATOM      9  C   UNL A   1      37.427  29.100  29.908  1.00  0.00     0.010 A 
ATOM     10  C   UNL A   1      38.472  29.063  28.981  1.00  0.00    -0.014 A 
BRANCH  10  11
ATOM     11  C   UNL A   1      39.838  28.654  29.384  1.00  0.00     0.031 A 
ATOM     12  C   UNL A   1      40.429  27.321  29.024  1.00  0.00     0.074 A 
ATOM     13  C   UNL A   1      40.561  29.536  30.098  1.00  0.00     0.049 A 
ATOM     14  N   UNL A   1      41.681  26.943  29.101  1.00  0.00    -0.248 NA
ATOM     15  C   UNL A   1      39.530  26.291  28.488  1.00  0.00     0.031 C 
ATOM     16  C   UNL A   1      40.067  30.832  30.569  1.00  0.00     0.029 A 
ATOM     17  N   UNL A   1      41.849  29.481  30.560  1.00  0.00    -0.354 N 
ATOM     18  C   UNL A   1      41.733  25.673  28.540  1.00  0.00     0.074 A 
ATOM     19  C   UNL A   1      40.377  25.308  28.199  1.00  0.00     0.031 C 
ATOM     20  C   UNL A   1      41.040  31.451  31.250  1.00  0.00     0.029 A 
ATOM     21  C   UNL A   1      42.212  30.583  31.291  1.00  0.00     0.049 A 
ATOM     22  H   UNL A   1      42.454  28.725  30.384  1.00  0.00     0.167 HD
ATOM     23  C   UNL A   1      42.830  24.920  28.292  1.00  0.00     0.037 A 
ATOM     24  C   UNL A   1      43.356  30.860  31.942  1.00  0.00     0.037 A 
ATOM     25  C   UNL A   1      44.155  25.249  28.745  1.00  0.00     0.049 A 
ATOM     26  C   UNL A   1      44.502  29.900  31.834  1.00  0.00     0.074 A 
ATOM     27  C   UNL A   1      45.337  24.564  28.521  1.00  0.00     0.029 A 
ATOM     28  N   UNL A   1      44.462  26.322  29.565  1.00  0.00    -0.354 N 
ATOM     29  N   UNL A   1      44.589  28.804  31.122  1.00  0.00    -0.248 NA
ATOM     30  C   UNL A   1      45.709  30.211  32.611  1.00  0.00     0.031 C 
ATOM     31  C   UNL A   1      46.344  25.180  29.269  1.00  0.00     0.029 A 
ATOM     32  C   UNL A   1      45.799  26.274  29.921  1.00  0.00     0.049 A 
ATOM     33  H   UNL A   1      43.824  27.015  29.852  1.00  0.00     0.167 HD
ATOM     34  C   UNL A   1      45.864  28.305  31.342  1.00  0.00     0.074 A 
ATOM     35  C   UNL A   1      46.519  29.223  32.252  1.00  0.00     0.031 C 
ATOM     36  C   UNL A   1      46.438  27.190  30.832  1.00  0.00     0.037 A 
BRANCH  23  37
ATOM     37  C   UNL A   1      42.687  23.690  27.449  1.00  0.00     0.064 A 
ATOM     38  C   UNL A   1      43.049  23.736  26.095  1.00  0.00     0.173 A 
ATOM     39  C   UNL A   1      42.388  22.442  28.008  1.00  0.00     0.173 A 
ATOM     40  F   UNL A   1      43.384  24.906  25.533  1.00  0.00    -0.203 F 
ATOM     41  C   UNL A   1      43.115  22.577  25.327  1.00  0.00     0.198 A 
ATOM     42  C   UNL A   1      42.468  21.281  27.242  1.00  0.00     0.198 A 
ATOM     43  F   UNL A   1      42.069  22.345  29.307  1.00  0.00    -0.203 F 
ATOM     44  F   UNL A   1      43.477  22.645  24.038  1.00  0.00    -0.200 F 
ATOM     45  C   UNL A   1      42.835  21.348  25.905  1.00  0.00     0.200 A 
ATOM     46  F   UNL A   1      42.221  20.090  27.805  1.00  0.00    -0.200 F 
ATOM     47  F   UNL A   1      42.935  20.226  25.177  1.00  0.00    -0.200 F 
ENDBRANCH  23  37
BRANCH  24  48
ATOM     48  C   UNL A   1      43.441  32.108  32.741  1.00  0.00     0.064 A 
ATOM     49  C   UNL A   1      43.062  32.135  34.087  1.00  0.00     0.173 A 
ATOM     50  C   UNL A   1      43.979  33.281  32.187  1.00  0.00     0.173 A 
ATOM     51  F   UNL A   1      42.533  31.042  34.657  1.00  0.00    -0.203 F 
ATOM     52  C   UNL A   1      43.221  33.288  34.852  1.00  0.00     0.198 A 
ATOM     53  C   UNL A   1      44.165  34.423  32.959  1.00  0.00     0.198 A 
ATOM     54  F   UNL A   1      44.365  33.300  30.901  1.00  0.00    -0.203 F 
ATOM     55  F   UNL A   1      42.835  33.296  36.136  1.00  0.00    -0.200 F 
ATOM     56  C   UNL A   1      43.785  34.426  34.292  1.00  0.00     0.200 A 
ATOM     57  F   UNL A   1      44.732  35.510  32.419  1.00  0.00    -0.200 F 
ATOM     58  F   UNL A   1      43.962  35.526  35.037  1.00  0.00    -0.200 F 
ENDBRANCH  24  48
BRANCH  36  59
ATOM     59  C   UNL A   1      47.845  26.879  31.241  1.00  0.00     0.064 A 
ATOM     60  C   UNL A   1      48.113  25.968  32.271  1.00  0.00     0.173 A 
ATOM     61  C   UNL A   1      48.930  27.418  30.534  1.00  0.00     0.173 A 
ATOM     62  F   UNL A   1      47.108  25.438  32.984  1.00  0.00    -0.203 F 
ATOM     63  C   UNL A   1      49.421  25.608  32.581  1.00  0.00     0.198 A 
ATOM     64  C   UNL A   1      50.234  27.034  30.827  1.00  0.00     0.198 A 
ATOM     65  F   UNL A   1      48.720  28.288  29.535  1.00  0.00    -0.203 F 
ATOM     66  F   UNL A   1      49.659  24.752  33.583  1.00  0.00    -0.200 F 
ATOM     67  C   UNL A   1      50.479  26.131  31.850  1.00  0.00     0.200 A 
ATOM     68  F   UNL A   1      51.253  27.527  30.110  1.00  0.00    -0.200 F 
ATOM     69  F   UNL A   1      51.736  25.762  32.133  1.00  0.00    -0.200 F 
ENDBRANCH  36  59
ENDBRANCH  10  11
ENDBRANCH   3   5
ENDBRANCH   2   3
ENDBRANCH   1   2
BRANCH   1  70
ATOM     70  C   UNL A   1      31.639  29.689  25.914  1.00  0.00     0.275 C 
BRANCH  70  71
ATOM     71  O   UNL A   1      31.381  28.324  25.553  1.00  0.00    -0.458 OA
BRANCH  71  72
ATOM     72  C   UNL A   1      31.519  27.424  26.564  1.00  0.00     0.343 C 
ATOM     73  O   UNL A   1      31.186  27.598  27.728  1.00  0.00    -0.246 OA
BRANCH  72  74
ATOM     74  C   UNL A   1      31.941  26.122  26.028  1.00  0.00     0.126 A 
ATOM     75  C   UNL A   1      31.204  25.062  26.403  1.00  0.00     0.043 A 
ATOM     76  C   UNL A   1      33.068  25.959  25.064  1.00  0.00     0.265 A 
ATOM     77  C   UNL A   1      31.428  23.772  25.808  1.00  0.00     0.058 A 
ATOM     78  N   UNL A   1      33.233  24.667  24.538  1.00  0.00    -0.309 N 
ATOM     79  O   UNL A   1      33.787  26.913  24.778  1.00  0.00    -0.268 OA
ATOM     80  Cl  UNL A   1      30.373  22.476  26.204  1.00  0.00    -0.083 Cl
ATOM     81  C   UNL A   1      32.393  23.620  24.895  1.00  0.00     0.110 A 
BRANCH  78  82
ATOM     82  C   UNL A   1      34.337  24.397  23.606  1.00  0.00     0.161 C 
BRANCH  82  83
ATOM     83  C   UNL A   1      35.508  23.713  24.278  1.00  0.00    -0.028 A 
ATOM     84  C   UNL A   1      36.062  24.230  25.460  1.00  0.00     0.007 A 
ATOM     85  C   UNL A   1      36.076  22.566  23.705  1.00  0.00     0.007 A 
ATOM     86  C   UNL A   1      37.186  23.636  26.034  1.00  0.00     0.021 A 
ATOM     87  C   UNL A   1      37.179  21.953  24.299  1.00  0.00     0.021 A 
ATOM     88  C   UNL A   1      37.738  22.500  25.451  1.00  0.00     0.041 A 
ATOM     89  Cl  UNL A   1      39.127  21.770  26.159  1.00  0.00    -0.084 Cl
ENDBRANCH  82  83
ENDBRANCH  78  82
ENDBRANCH  72  74
ENDBRANCH  71  72
ENDBRANCH  70  71
ENDBRANCH   1  70
TORSDOF 13
ENDMDL
