MODEL 1
REMARK VINA RESULT:     -11.4      0.000      0.000
REMARK SMILES O=C(COCCNC(=O)c1cc(Cl)c2c(c1)OCCO2)OCCOC(=O)c1ccc(-c2c3nc(c(-c4c(F)c(F)c(F)c(F)c4F)c4ccc([nH]4)c(-c4c(F)c(F)c(F)c(F)c4F)c4nc(c(-c5c(F)c(F)c(F)c(F)c5F)c5ccc2[nH]5)C=C4)C=C3)cc1
REMARK SMILES IDX 21 1 2 2 1 3 3 4 4 5 5 6 6 7 7 8 8 9 9 11 10 12 11 13 16 14
REMARK SMILES IDX 12 15 15 16 13 17 14 18 17 19 20 20 18 21 19 22 22 23 23 24
REMARK SMILES IDX 24 25 25 26 26 27 27 28 28 29 89 30 29 31 88 32 30 33 31 34
REMARK SMILES IDX 32 35 82 36 33 37 87 38 81 39 83 40 34 41 86 42 80 43 79 44
REMARK SMILES IDX 35 46 67 47 47 48 66 49 48 50 51 51 65 52 84 53 49 54 50 55
REMARK SMILES IDX 64 57 85 58 52 59 36 60 37 61 45 62 38 63 39 64 43 65 46 66
REMARK SMILES IDX 40 67 41 68 44 69 42 70 68 71 69 72 77 73 70 74 71 75 75 76
REMARK SMILES IDX 78 77 72 78 73 79 76 80 74 81 53 82 54 83 62 84 55 85 56 86
REMARK SMILES IDX 60 87 63 88 57 89 58 90 61 91 59 92
REMARK H PARENT 7 10 83 45 51 56
REMARK Flexibility Score: inf
ROOT
ATOM      1  O   UNL A   1      41.446  20.880  26.558  1.00  0.00    -0.460 OA
ENDROOT
BRANCH   1   2
ATOM      2  C   UNL A   1      40.221  20.530  26.106  1.00  0.00     0.332 C 
ATOM      3  O   UNL A   1      40.010  19.368  25.758  1.00  0.00    -0.250 OA
BRANCH   2   4
ATOM      4  C   UNL A   1      39.100  21.575  26.059  1.00  0.00     0.282 C 
BRANCH   4   5
ATOM      5  O   UNL A   1      38.162  21.487  25.001  1.00  0.00    -0.368 OA
BRANCH   5   6
ATOM      6  C   UNL A   1      36.782  21.491  25.385  1.00  0.00     0.182 C 
BRANCH   6   7
ATOM      7  C   UNL A   1      36.395  22.651  26.315  1.00  0.00     0.144 C 
BRANCH   7   8
ATOM      8  N   UNL A   1      35.085  22.497  26.941  1.00  0.00    -0.350 N 
ATOM      9  C   UNL A   1      33.882  23.095  26.668  1.00  0.00     0.251 C 
ATOM     10  H   UNL A   1      35.062  21.854  27.687  1.00  0.00     0.163 HD
ATOM     11  O   UNL A   1      32.918  22.921  27.406  1.00  0.00    -0.269 OA
BRANCH   9  12
ATOM     12  C   UNL A   1      33.731  23.943  25.475  1.00  0.00     0.045 A 
ATOM     13  C   UNL A   1      33.533  23.367  24.219  1.00  0.00     0.038 A 
ATOM     14  C   UNL A   1      33.748  25.330  25.629  1.00  0.00     0.064 A 
ATOM     15  C   UNL A   1      33.448  24.185  23.095  1.00  0.00     0.087 A 
ATOM     16  C   UNL A   1      33.655  26.143  24.502  1.00  0.00     0.163 A 
ATOM     17  Cl  UNL A   1      33.278  23.428  21.552  1.00  0.00    -0.080 Cl
ATOM     18  C   UNL A   1      33.509  25.578  23.226  1.00  0.00     0.179 A 
ATOM     19  O   UNL A   1      33.723  27.495  24.724  1.00  0.00    -0.486 OA
ATOM     20  O   UNL A   1      33.441  26.342  22.088  1.00  0.00    -0.485 OA
ATOM     21  C   UNL A   1      34.014  28.213  23.522  1.00  0.00     0.271 C 
ATOM     22  C   UNL A   1      33.155  27.713  22.375  1.00  0.00     0.271 C 
ENDBRANCH   9  12
ENDBRANCH   7   8
ENDBRANCH   6   7
ENDBRANCH   5   6
ENDBRANCH   4   5
ENDBRANCH   2   4
ENDBRANCH   1   2
BRANCH   1  23
ATOM     23  C   UNL A   1      42.699  20.365  26.063  1.00  0.00     0.274 C 
BRANCH  23  24
ATOM     24  C   UNL A   1      43.601  21.496  25.571  1.00  0.00     0.275 C 
BRANCH  24  25
ATOM     25  O   UNL A   1      42.810  22.610  25.111  1.00  0.00    -0.458 OA
BRANCH  25  26
ATOM     26  C   UNL A   1      43.465  23.799  25.027  1.00  0.00     0.338 C 
ATOM     27  O   UNL A   1      44.347  24.097  24.251  1.00  0.00    -0.246 OA
BRANCH  26  28
ATOM     28  C   UNL A   1      42.832  24.761  25.956  1.00  0.00     0.060 A 
ATOM     29  C   UNL A   1      43.403  26.031  26.077  1.00  0.00     0.016 A 
ATOM     30  C   UNL A   1      41.705  24.422  26.711  1.00  0.00     0.016 A 
ATOM     31  C   UNL A   1      42.852  26.962  26.962  1.00  0.00     0.010 A 
ATOM     32  C   UNL A   1      41.172  25.348  27.617  1.00  0.00     0.010 A 
ATOM     33  C   UNL A   1      41.753  26.617  27.760  1.00  0.00    -0.014 A 
BRANCH  33  34
ATOM     34  C   UNL A   1      41.342  27.515  28.869  1.00  0.00     0.031 A 
ATOM     35  C   UNL A   1      42.137  27.484  30.145  1.00  0.00     0.074 A 
ATOM     36  C   UNL A   1      40.298  28.354  28.752  1.00  0.00     0.049 A 
ATOM     37  N   UNL A   1      41.983  28.188  31.238  1.00  0.00    -0.248 NA
ATOM     38  C   UNL A   1      43.265  26.539  30.191  1.00  0.00     0.031 C 
ATOM     39  C   UNL A   1      39.475  28.526  27.559  1.00  0.00     0.029 A 
ATOM     40  N   UNL A   1      39.754  29.226  29.666  1.00  0.00    -0.354 N 
ATOM     41  C   UNL A   1      43.020  27.806  32.077  1.00  0.00     0.074 A 
ATOM     42  C   UNL A   1      43.773  26.781  31.389  1.00  0.00     0.031 C 
ATOM     43  C   UNL A   1      38.522  29.441  27.816  1.00  0.00     0.029 A 
ATOM     44  C   UNL A   1      38.656  29.904  29.198  1.00  0.00     0.049 A 
ATOM     45  H   UNL A   1      40.119  29.352  30.572  1.00  0.00     0.167 HD
ATOM     46  C   UNL A   1      43.327  28.273  33.309  1.00  0.00     0.037 A 
ATOM     47  C   UNL A   1      37.848  30.786  29.821  1.00  0.00     0.037 A 
ATOM     48  C   UNL A   1      42.551  29.240  34.034  1.00  0.00     0.049 A 
ATOM     49  C   UNL A   1      38.117  31.165  31.257  1.00  0.00     0.074 A 
ATOM     50  C   UNL A   1      42.768  29.743  35.304  1.00  0.00     0.029 A 
ATOM     51  N   UNL A   1      41.392  29.832  33.559  1.00  0.00    -0.354 N 
ATOM     52  N   UNL A   1      39.115  30.821  32.033  1.00  0.00    -0.248 NA
ATOM     53  C   UNL A   1      37.137  32.052  31.905  1.00  0.00     0.031 C 
ATOM     54  C   UNL A   1      41.711  30.602  35.619  1.00  0.00     0.029 A 
ATOM     55  C   UNL A   1      40.860  30.668  34.527  1.00  0.00     0.049 A 
ATOM     56  H   UNL A   1      41.004  29.682  32.667  1.00  0.00     0.167 HD
ATOM     57  C   UNL A   1      38.898  31.465  33.246  1.00  0.00     0.074 A 
ATOM     58  C   UNL A   1      37.677  32.230  33.103  1.00  0.00     0.031 C 
ATOM     59  C   UNL A   1      39.645  31.426  34.376  1.00  0.00     0.037 A 
BRANCH  46  60
ATOM     60  C   UNL A   1      44.552  27.716  33.961  1.00  0.00     0.064 A 
ATOM     61  C   UNL A   1      45.800  28.338  33.809  1.00  0.00     0.173 A 
ATOM     62  C   UNL A   1      44.477  26.569  34.764  1.00  0.00     0.173 A 
ATOM     63  F   UNL A   1      45.921  29.429  33.037  1.00  0.00    -0.203 F 
ATOM     64  C   UNL A   1      46.935  27.822  34.428  1.00  0.00     0.198 A 
ATOM     65  C   UNL A   1      45.610  26.068  35.397  1.00  0.00     0.198 A 
ATOM     66  F   UNL A   1      43.305  25.939  34.935  1.00  0.00    -0.203 F 
ATOM     67  F   UNL A   1      48.124  28.413  34.246  1.00  0.00    -0.200 F 
ATOM     68  C   UNL A   1      46.837  26.692  35.226  1.00  0.00     0.200 A 
ATOM     69  F   UNL A   1      45.515  24.978  36.172  1.00  0.00    -0.200 F 
ATOM     70  F   UNL A   1      47.929  26.198  35.827  1.00  0.00    -0.200 F 
ENDBRANCH  46  60
BRANCH  47  71
ATOM     71  C   UNL A   1      36.686  31.372  29.104  1.00  0.00     0.064 A 
ATOM     72  C   UNL A   1      36.667  32.728  28.751  1.00  0.00     0.173 A 
ATOM     73  C   UNL A   1      35.554  30.603  28.802  1.00  0.00     0.173 A 
ATOM     74  F   UNL A   1      37.713  33.512  29.050  1.00  0.00    -0.203 F 
ATOM     75  C   UNL A   1      35.554  33.296  28.134  1.00  0.00     0.198 A 
ATOM     76  C   UNL A   1      34.449  31.166  28.166  1.00  0.00     0.198 A 
ATOM     77  F   UNL A   1      35.516  29.303  29.131  1.00  0.00    -0.203 F 
ATOM     78  F   UNL A   1      35.543  34.605  27.849  1.00  0.00    -0.200 F 
ATOM     79  C   UNL A   1      34.447  32.514  27.839  1.00  0.00     0.200 A 
ATOM     80  F   UNL A   1      33.384  30.407  27.879  1.00  0.00    -0.200 F 
ATOM     81  F   UNL A   1      33.375  33.061  27.251  1.00  0.00    -0.200 F 
ENDBRANCH  47  71
BRANCH  59  82
ATOM     82  C   UNL A   1      39.184  32.234  35.553  1.00  0.00     0.064 A 
ATOM     83  C   UNL A   1      38.344  31.684  36.533  1.00  0.00     0.173 A 
ATOM     84  C   UNL A   1      39.655  33.541  35.750  1.00  0.00     0.173 A 
ATOM     85  F   UNL A   1      37.857  30.443  36.385  1.00  0.00    -0.203 F 
ATOM     86  C   UNL A   1      37.987  32.417  37.662  1.00  0.00     0.198 A 
ATOM     87  C   UNL A   1      39.318  34.261  36.892  1.00  0.00     0.198 A 
ATOM     88  F   UNL A   1      40.468  34.109  34.846  1.00  0.00    -0.203 F 
ATOM     89  F   UNL A   1      37.162  31.881  38.572  1.00  0.00    -0.200 F 
ATOM     90  C   UNL A   1      38.482  33.699  37.846  1.00  0.00     0.200 A 
ATOM     91  F   UNL A   1      39.808  35.494  37.076  1.00  0.00    -0.200 F 
ATOM     92  F   UNL A   1      38.152  34.396  38.943  1.00  0.00    -0.200 F 
ENDBRANCH  59  82
ENDBRANCH  33  34
ENDBRANCH  26  28
ENDBRANCH  25  26
ENDBRANCH  24  25
ENDBRANCH  23  24
ENDBRANCH   1  23
TORSDOF 16
ENDMDL
MODEL 2
REMARK VINA RESULT:     -11.4      1.438      2.202
REMARK SMILES O=C(COCCNC(=O)c1cc(Cl)c2c(c1)OCCO2)OCCOC(=O)c1ccc(-c2c3nc(c(-c4c(F)c(F)c(F)c(F)c4F)c4ccc([nH]4)c(-c4c(F)c(F)c(F)c(F)c4F)c4nc(c(-c5c(F)c(F)c(F)c(F)c5F)c5ccc2[nH]5)C=C4)C=C3)cc1
REMARK SMILES IDX 21 1 2 2 1 3 3 4 4 5 5 6 6 7 7 8 8 9 9 11 10 12 11 13 16 14
REMARK SMILES IDX 12 15 15 16 13 17 14 18 17 19 20 20 18 21 19 22 22 23 23 24
REMARK SMILES IDX 24 25 25 26 26 27 27 28 28 29 89 30 29 31 88 32 30 33 31 34
REMARK SMILES IDX 32 35 82 36 33 37 87 38 81 39 83 40 34 41 86 42 80 43 79 44
REMARK SMILES IDX 35 46 67 47 47 48 66 49 48 50 51 51 65 52 84 53 49 54 50 55
REMARK SMILES IDX 64 57 85 58 52 59 36 60 37 61 45 62 38 63 39 64 43 65 46 66
REMARK SMILES IDX 40 67 41 68 44 69 42 70 68 71 69 72 77 73 70 74 71 75 75 76
REMARK SMILES IDX 78 77 72 78 73 79 76 80 74 81 53 82 54 83 62 84 55 85 56 86
REMARK SMILES IDX 60 87 63 88 57 89 58 90 61 91 59 92
REMARK H PARENT 7 10 83 45 51 56
REMARK Flexibility Score: inf
ROOT
ATOM      1  O   UNL A   1      42.861  21.265  25.949  1.00  0.00    -0.460 OA
ENDROOT
BRANCH   1   2
ATOM      2  C   UNL A   1      41.955  20.362  26.386  1.00  0.00     0.332 C 
ATOM      3  O   UNL A   1      42.054  19.185  26.042  1.00  0.00    -0.250 OA
BRANCH   2   4
ATOM      4  C   UNL A   1      40.830  20.808  27.328  1.00  0.00     0.282 C 
BRANCH   4   5
ATOM      5  O   UNL A   1      39.912  21.774  26.845  1.00  0.00    -0.368 OA
BRANCH   5   6
ATOM      6  C   UNL A   1      38.916  21.293  25.935  1.00  0.00     0.182 C 
BRANCH   6   7
ATOM      7  C   UNL A   1      37.728  22.248  25.746  1.00  0.00     0.144 C 
BRANCH   7   8
ATOM      8  N   UNL A   1      37.517  22.666  24.363  1.00  0.00    -0.350 N 
ATOM      9  C   UNL A   1      36.370  22.764  23.619  1.00  0.00     0.251 C 
ATOM     10  H   UNL A   1      38.338  22.920  23.884  1.00  0.00     0.163 HD
ATOM     11  O   UNL A   1      36.425  23.015  22.419  1.00  0.00    -0.269 OA
BRANCH   9  12
ATOM     12  C   UNL A   1      35.056  22.582  24.256  1.00  0.00     0.045 A 
ATOM     13  C   UNL A   1      34.495  21.309  24.368  1.00  0.00     0.038 A 
ATOM     14  C   UNL A   1      34.403  23.698  24.782  1.00  0.00     0.064 A 
ATOM     15  C   UNL A   1      33.226  21.165  24.925  1.00  0.00     0.087 A 
ATOM     16  C   UNL A   1      33.137  23.546  25.344  1.00  0.00     0.163 A 
ATOM     17  Cl  UNL A   1      32.539  19.581  24.975  1.00  0.00    -0.080 Cl
ATOM     18  C   UNL A   1      32.538  22.280  25.416  1.00  0.00     0.179 A 
ATOM     19  O   UNL A   1      32.537  24.692  25.801  1.00  0.00    -0.486 OA
ATOM     20  O   UNL A   1      31.281  22.092  25.937  1.00  0.00    -0.485 OA
ATOM     21  C   UNL A   1      31.130  24.513  25.986  1.00  0.00     0.271 C 
ATOM     22  C   UNL A   1      30.845  23.210  26.713  1.00  0.00     0.271 C 
ENDBRANCH   9  12
ENDBRANCH   7   8
ENDBRANCH   6   7
ENDBRANCH   5   6
ENDBRANCH   4   5
ENDBRANCH   2   4
ENDBRANCH   1   2
BRANCH   1  23
ATOM     23  C   UNL A   1      44.104  20.952  25.289  1.00  0.00     0.274 C 
BRANCH  23  24
ATOM     24  C   UNL A   1      44.586  22.127  24.440  1.00  0.00     0.275 C 
BRANCH  24  25
ATOM     25  O   UNL A   1      43.804  23.306  24.717  1.00  0.00    -0.458 OA
BRANCH  25  26
ATOM     26  C   UNL A   1      44.517  24.428  25.005  1.00  0.00     0.338 C 
ATOM     27  O   UNL A   1      45.560  24.783  24.501  1.00  0.00    -0.246 OA
BRANCH  26  28
ATOM     28  C   UNL A   1      43.742  25.257  25.954  1.00  0.00     0.060 A 
ATOM     29  C   UNL A   1      44.001  26.630  25.990  1.00  0.00     0.016 A 
ATOM     30  C   UNL A   1      42.786  24.699  26.809  1.00  0.00     0.016 A 
ATOM     31  C   UNL A   1      43.310  27.447  26.889  1.00  0.00     0.010 A 
ATOM     32  C   UNL A   1      42.115  25.516  27.727  1.00  0.00     0.010 A 
ATOM     33  C   UNL A   1      42.386  26.892  27.785  1.00  0.00    -0.014 A 
BRANCH  33  34
ATOM     34  C   UNL A   1      41.855  27.720  28.896  1.00  0.00     0.031 A 
ATOM     35  C   UNL A   1      42.599  27.725  30.203  1.00  0.00     0.074 A 
ATOM     36  C   UNL A   1      40.745  28.467  28.757  1.00  0.00     0.049 A 
ATOM     37  N   UNL A   1      42.341  28.383  31.305  1.00  0.00    -0.248 NA
ATOM     38  C   UNL A   1      43.804  26.882  30.272  1.00  0.00     0.031 C 
ATOM     39  C   UNL A   1      39.956  28.598  27.535  1.00  0.00     0.029 A 
ATOM     40  N   UNL A   1      40.091  29.263  29.668  1.00  0.00    -0.354 N 
ATOM     41  C   UNL A   1      43.375  28.072  32.176  1.00  0.00     0.074 A 
ATOM     42  C   UNL A   1      44.242  27.135  31.496  1.00  0.00     0.031 C 
ATOM     43  C   UNL A   1      38.916  29.419  27.775  1.00  0.00     0.029 A 
ATOM     44  C   UNL A   1      38.956  29.855  29.172  1.00  0.00     0.049 A 
ATOM     45  H   UNL A   1      40.408  29.396  30.591  1.00  0.00     0.167 HD
ATOM     46  C   UNL A   1      43.592  28.531  33.430  1.00  0.00     0.037 A 
ATOM     47  C   UNL A   1      38.050  30.645  29.782  1.00  0.00     0.037 A 
ATOM     48  C   UNL A   1      42.705  29.406  34.145  1.00  0.00     0.049 A 
ATOM     49  C   UNL A   1      38.228  31.007  31.236  1.00  0.00     0.074 A 
ATOM     50  C   UNL A   1      42.828  29.891  35.434  1.00  0.00     0.029 A 
ATOM     51  N   UNL A   1      41.518  29.906  33.637  1.00  0.00    -0.354 N 
ATOM     52  N   UNL A   1      39.222  30.732  32.044  1.00  0.00    -0.248 NA
ATOM     53  C   UNL A   1      37.149  31.787  31.864  1.00  0.00     0.031 C 
ATOM     54  C   UNL A   1      41.687  30.646  35.726  1.00  0.00     0.029 A 
ATOM     55  C   UNL A   1      40.877  30.666  34.602  1.00  0.00     0.049 A 
ATOM     56  H   UNL A   1      41.179  29.746  32.727  1.00  0.00     0.167 HD
ATOM     57  C   UNL A   1      38.902  31.322  33.261  1.00  0.00     0.074 A 
ATOM     58  C   UNL A   1      37.625  31.979  33.087  1.00  0.00     0.031 C 
ATOM     59  C   UNL A   1      39.606  31.317  34.420  1.00  0.00     0.037 A 
BRANCH  46  60
ATOM     60  C   UNL A   1      44.836  28.066  34.118  1.00  0.00     0.064 A 
ATOM     61  C   UNL A   1      44.854  26.869  34.849  1.00  0.00     0.173 A 
ATOM     62  C   UNL A   1      46.023  28.805  34.027  1.00  0.00     0.173 A 
ATOM     63  F   UNL A   1      43.736  26.139  34.977  1.00  0.00    -0.203 F 
ATOM     64  C   UNL A   1      46.018  26.436  35.478  1.00  0.00     0.198 A 
ATOM     65  C   UNL A   1      47.189  28.358  34.639  1.00  0.00     0.198 A 
ATOM     66  F   UNL A   1      46.051  29.958  33.340  1.00  0.00    -0.203 F 
ATOM     67  F   UNL A   1      46.009  25.305  36.198  1.00  0.00    -0.200 F 
ATOM     68  C   UNL A   1      47.185  27.177  35.367  1.00  0.00     0.200 A 
ATOM     69  F   UNL A   1      48.319  29.072  34.529  1.00  0.00    -0.200 F 
ATOM     70  F   UNL A   1      48.307  26.756  35.967  1.00  0.00    -0.200 F 
ENDBRANCH  46  60
BRANCH  47  71
ATOM     71  C   UNL A   1      36.868  31.146  29.032  1.00  0.00     0.064 A 
ATOM     72  C   UNL A   1      36.765  32.495  28.668  1.00  0.00     0.173 A 
ATOM     73  C   UNL A   1      35.800  30.298  28.707  1.00  0.00     0.173 A 
ATOM     74  F   UNL A   1      37.747  33.350  28.987  1.00  0.00    -0.203 F 
ATOM     75  C   UNL A   1      35.631  32.982  28.020  1.00  0.00     0.198 A 
ATOM     76  C   UNL A   1      34.675  30.781  28.040  1.00  0.00     0.198 A 
ATOM     77  F   UNL A   1      35.843  29.001  29.045  1.00  0.00    -0.203 F 
ATOM     78  F   UNL A   1      35.538  34.285  27.725  1.00  0.00    -0.200 F 
ATOM     79  C   UNL A   1      34.589  32.123  27.703  1.00  0.00     0.200 A 
ATOM     80  F   UNL A   1      33.672  29.948  27.733  1.00  0.00    -0.200 F 
ATOM     81  F   UNL A   1      33.497  32.592  27.085  1.00  0.00    -0.200 F 
ENDBRANCH  47  71
BRANCH  59  82
ATOM     82  C   UNL A   1      39.030  32.050  35.596  1.00  0.00     0.064 A 
ATOM     83  C   UNL A   1      38.256  31.389  36.561  1.00  0.00     0.173 A 
ATOM     84  C   UNL A   1      39.326  33.405  35.806  1.00  0.00     0.173 A 
ATOM     85  F   UNL A   1      37.935  30.097  36.398  1.00  0.00    -0.203 F 
ATOM     86  C   UNL A   1      37.793  32.060  37.689  1.00  0.00     0.198 A 
ATOM     87  C   UNL A   1      38.884  34.067  36.948  1.00  0.00     0.198 A 
ATOM     88  F   UNL A   1      40.069  34.081  34.917  1.00  0.00    -0.203 F 
ATOM     89  F   UNL A   1      37.033  31.416  38.585  1.00  0.00    -0.200 F 
ATOM     90  C   UNL A   1      38.116  33.395  37.888  1.00  0.00     0.200 A 
ATOM     91  F   UNL A   1      39.209  35.352  37.146  1.00  0.00    -0.200 F 
ATOM     92  F   UNL A   1      37.686  34.034  38.984  1.00  0.00    -0.200 F 
ENDBRANCH  59  82
ENDBRANCH  33  34
ENDBRANCH  26  28
ENDBRANCH  25  26
ENDBRANCH  24  25
ENDBRANCH  23  24
ENDBRANCH   1  23
TORSDOF 16
ENDMDL
MODEL 3
REMARK VINA RESULT:     -11.4      3.043      8.754
REMARK SMILES O=C(COCCNC(=O)c1cc(Cl)c2c(c1)OCCO2)OCCOC(=O)c1ccc(-c2c3nc(c(-c4c(F)c(F)c(F)c(F)c4F)c4ccc([nH]4)c(-c4c(F)c(F)c(F)c(F)c4F)c4nc(c(-c5c(F)c(F)c(F)c(F)c5F)c5ccc2[nH]5)C=C4)C=C3)cc1
REMARK SMILES IDX 21 1 2 2 1 3 3 4 4 5 5 6 6 7 7 8 8 9 9 11 10 12 11 13 16 14
REMARK SMILES IDX 12 15 15 16 13 17 14 18 17 19 20 20 18 21 19 22 22 23 23 24
REMARK SMILES IDX 24 25 25 26 26 27 27 28 28 29 89 30 29 31 88 32 30 33 31 34
REMARK SMILES IDX 32 35 82 36 33 37 87 38 81 39 83 40 34 41 86 42 80 43 79 44
REMARK SMILES IDX 35 46 67 47 47 48 66 49 48 50 51 51 65 52 84 53 49 54 50 55
REMARK SMILES IDX 64 57 85 58 52 59 36 60 37 61 45 62 38 63 39 64 43 65 46 66
REMARK SMILES IDX 40 67 41 68 44 69 42 70 68 71 69 72 77 73 70 74 71 75 75 76
REMARK SMILES IDX 78 77 72 78 73 79 76 80 74 81 53 82 54 83 62 84 55 85 56 86
REMARK SMILES IDX 60 87 63 88 57 89 58 90 61 91 59 92
REMARK H PARENT 7 10 83 45 51 56
REMARK Flexibility Score: inf
ROOT
ATOM      1  O   UNL A   1      32.014  30.631  26.741  1.00  0.00    -0.460 OA
ENDROOT
BRANCH   1   2
ATOM      2  C   UNL A   1      32.443  29.766  25.794  1.00  0.00     0.332 C 
ATOM      3  O   UNL A   1      33.617  29.396  25.796  1.00  0.00    -0.250 OA
BRANCH   2   4
ATOM      4  C   UNL A   1      31.458  29.236  24.746  1.00  0.00     0.282 C 
BRANCH   4   5
ATOM      5  O   UNL A   1      31.437  27.838  24.511  1.00  0.00    -0.368 OA
BRANCH   5   6
ATOM      6  C   UNL A   1      30.996  27.025  25.604  1.00  0.00     0.182 C 
BRANCH   6   7
ATOM      7  C   UNL A   1      30.419  25.666  25.180  1.00  0.00     0.144 C 
BRANCH   7   8
ATOM      8  N   UNL A   1      29.976  24.835  26.297  1.00  0.00    -0.350 N 
ATOM      9  C   UNL A   1      30.412  23.613  26.736  1.00  0.00     0.251 C 
ATOM     10  H   UNL A   1      29.238  25.219  26.823  1.00  0.00     0.163 HD
ATOM     11  O   UNL A   1      29.811  23.019  27.626  1.00  0.00    -0.269 OA
BRANCH   9  12
ATOM     12  C   UNL A   1      31.618  23.004  26.152  1.00  0.00     0.045 A 
ATOM     13  C   UNL A   1      31.520  21.849  25.374  1.00  0.00     0.038 A 
ATOM     14  C   UNL A   1      32.851  23.623  26.357  1.00  0.00     0.064 A 
ATOM     15  C   UNL A   1      32.679  21.257  24.876  1.00  0.00     0.087 A 
ATOM     16  C   UNL A   1      34.006  23.030  25.851  1.00  0.00     0.163 A 
ATOM     17  Cl  UNL A   1      32.519  19.789  23.982  1.00  0.00    -0.080 Cl
ATOM     18  C   UNL A   1      33.929  21.841  25.111  1.00  0.00     0.179 A 
ATOM     19  O   UNL A   1      35.186  23.672  26.127  1.00  0.00    -0.486 OA
ATOM     20  O   UNL A   1      35.045  21.210  24.618  1.00  0.00    -0.485 OA
ATOM     21  C   UNL A   1      36.313  22.814  25.924  1.00  0.00     0.271 C 
ATOM     22  C   UNL A   1      36.189  22.067  24.608  1.00  0.00     0.271 C 
ENDBRANCH   9  12
ENDBRANCH   7   8
ENDBRANCH   6   7
ENDBRANCH   5   6
ENDBRANCH   4   5
ENDBRANCH   2   4
ENDBRANCH   1   2
BRANCH   1  23
ATOM     23  C   UNL A   1      31.159  31.769  26.509  1.00  0.00     0.274 C 
BRANCH  23  24
ATOM     24  C   UNL A   1      31.894  33.077  26.802  1.00  0.00     0.275 C 
BRANCH  24  25
ATOM     25  O   UNL A   1      32.756  32.927  27.948  1.00  0.00    -0.458 OA
BRANCH  25  26
ATOM     26  C   UNL A   1      33.827  33.764  27.988  1.00  0.00     0.338 C 
ATOM     27  O   UNL A   1      33.825  34.966  27.832  1.00  0.00    -0.246 OA
BRANCH  26  28
ATOM     28  C   UNL A   1      35.021  32.994  28.404  1.00  0.00     0.060 A 
ATOM     29  C   UNL A   1      34.836  31.680  28.843  1.00  0.00     0.016 A 
ATOM     30  C   UNL A   1      36.302  33.555  28.382  1.00  0.00     0.016 A 
ATOM     31  C   UNL A   1      35.933  30.927  29.269  1.00  0.00     0.010 A 
ATOM     32  C   UNL A   1      37.395  32.807  28.836  1.00  0.00     0.010 A 
ATOM     33  C   UNL A   1      37.214  31.494  29.299  1.00  0.00    -0.014 A 
BRANCH  33  34
ATOM     34  C   UNL A   1      38.317  30.778  29.988  1.00  0.00     0.031 A 
ATOM     35  C   UNL A   1      38.621  31.140  31.416  1.00  0.00     0.074 A 
ATOM     36  C   UNL A   1      39.030  29.816  29.377  1.00  0.00     0.049 A 
ATOM     37  N   UNL A   1      39.518  30.640  32.228  1.00  0.00    -0.248 NA
ATOM     38  C   UNL A   1      37.793  32.201  32.012  1.00  0.00     0.031 C 
ATOM     39  C   UNL A   1      38.810  29.328  28.018  1.00  0.00     0.029 A 
ATOM     40  N   UNL A   1      40.094  29.073  29.833  1.00  0.00    -0.354 N 
ATOM     41  C   UNL A   1      39.329  31.290  33.439  1.00  0.00     0.074 A 
ATOM     42  C   UNL A   1      38.263  32.250  33.249  1.00  0.00     0.031 C 
ATOM     43  C   UNL A   1      39.719  28.373  27.747  1.00  0.00     0.029 A 
ATOM     44  C   UNL A   1      40.596  28.196  28.905  1.00  0.00     0.049 A 
ATOM     45  H   UNL A   1      40.460  29.163  30.744  1.00  0.00     0.167 HD
ATOM     46  C   UNL A   1      39.978  31.101  34.611  1.00  0.00     0.037 A 
ATOM     47  C   UNL A   1      41.650  27.358  28.981  1.00  0.00     0.037 A 
ATOM     48  C   UNL A   1      41.083  30.203  34.798  1.00  0.00     0.049 A 
ATOM     49  C   UNL A   1      42.463  27.289  30.251  1.00  0.00     0.074 A 
ATOM     50  C   UNL A   1      41.824  29.976  35.943  1.00  0.00     0.029 A 
ATOM     51  N   UNL A   1      41.621  29.402  33.804  1.00  0.00    -0.354 N 
ATOM     52  N   UNL A   1      42.260  27.886  31.399  1.00  0.00    -0.248 NA
ATOM     53  C   UNL A   1      43.659  26.431  30.228  1.00  0.00     0.031 C 
ATOM     54  C   UNL A   1      42.846  29.074  35.629  1.00  0.00     0.029 A 
ATOM     55  C   UNL A   1      42.711  28.706  34.300  1.00  0.00     0.049 A 
ATOM     56  H   UNL A   1      41.279  29.337  32.883  1.00  0.00     0.167 HD
ATOM     57  C   UNL A   1      43.283  27.460  32.239  1.00  0.00     0.074 A 
ATOM     58  C   UNL A   1      44.102  26.545  31.473  1.00  0.00     0.031 C 
ATOM     59  C   UNL A   1      43.520  27.797  33.530  1.00  0.00     0.037 A 
BRANCH  46  60
ATOM     60  C   UNL A   1      39.516  31.910  35.781  1.00  0.00     0.064 A 
ATOM     61  C   UNL A   1      40.083  33.161  36.066  1.00  0.00     0.173 A 
ATOM     62  C   UNL A   1      38.484  31.446  36.609  1.00  0.00     0.173 A 
ATOM     63  F   UNL A   1      41.084  33.636  35.310  1.00  0.00    -0.203 F 
ATOM     64  C   UNL A   1      39.641  33.914  37.149  1.00  0.00     0.198 A 
ATOM     65  C   UNL A   1      38.031  32.211  37.679  1.00  0.00     0.198 A 
ATOM     66  F   UNL A   1      37.914  30.254  36.376  1.00  0.00    -0.203 F 
ATOM     67  F   UNL A   1      40.216  35.093  37.424  1.00  0.00    -0.200 F 
ATOM     68  C   UNL A   1      38.612  33.442  37.951  1.00  0.00     0.200 A 
ATOM     69  F   UNL A   1      37.033  31.757  38.451  1.00  0.00    -0.200 F 
ATOM     70  F   UNL A   1      38.182  34.170  38.990  1.00  0.00    -0.200 F 
ENDBRANCH  46  60
BRANCH  47  71
ATOM     71  C   UNL A   1      42.023  26.517  27.815  1.00  0.00     0.064 A 
ATOM     72  C   UNL A   1      41.419  25.270  27.604  1.00  0.00     0.173 A 
ATOM     73  C   UNL A   1      43.022  26.919  26.917  1.00  0.00     0.173 A 
ATOM     74  F   UNL A   1      40.482  24.828  28.455  1.00  0.00    -0.203 F 
ATOM     75  C   UNL A   1      41.809  24.450  26.546  1.00  0.00     0.198 A 
ATOM     76  C   UNL A   1      43.397  26.109  25.847  1.00  0.00     0.198 A 
ATOM     77  F   UNL A   1      43.641  28.098  27.083  1.00  0.00    -0.203 F 
ATOM     78  F   UNL A   1      41.249  23.243  26.394  1.00  0.00    -0.200 F 
ATOM     79  C   UNL A   1      42.796  24.872  25.667  1.00  0.00     0.200 A 
ATOM     80  F   UNL A   1      44.348  26.520  24.998  1.00  0.00    -0.200 F 
ATOM     81  F   UNL A   1      43.175  24.082  24.653  1.00  0.00    -0.200 F 
ENDBRANCH  47  71
BRANCH  59  82
ATOM     82  C   UNL A   1      44.702  27.176  34.215  1.00  0.00     0.064 A 
ATOM     83  C   UNL A   1      45.967  27.782  34.182  1.00  0.00     0.173 A 
ATOM     84  C   UNL A   1      44.551  26.010  34.981  1.00  0.00     0.173 A 
ATOM     85  F   UNL A   1      46.166  28.889  33.453  1.00  0.00    -0.203 F 
ATOM     86  C   UNL A   1      47.038  27.239  34.887  1.00  0.00     0.198 A 
ATOM     87  C   UNL A   1      45.617  25.485  35.706  1.00  0.00     0.198 A 
ATOM     88  F   UNL A   1      43.360  25.397  35.052  1.00  0.00    -0.203 F 
ATOM     89  F   UNL A   1      48.244  27.819  34.820  1.00  0.00    -0.200 F 
ATOM     90  C   UNL A   1      46.860  26.098  35.656  1.00  0.00     0.200 A 
ATOM     91  F   UNL A   1      45.440  24.392  36.460  1.00  0.00    -0.200 F 
ATOM     92  F   UNL A   1      47.888  25.588  36.348  1.00  0.00    -0.200 F 
ENDBRANCH  59  82
ENDBRANCH  33  34
ENDBRANCH  26  28
ENDBRANCH  25  26
ENDBRANCH  24  25
ENDBRANCH  23  24
ENDBRANCH   1  23
TORSDOF 16
ENDMDL
