MODEL 1
REMARK VINA RESULT:     -14.0      0.000      0.000
REMARK SMILES O=C(OCCOC(=O)[C@@H]1CCCC[C@H]1C(=O)Nc1sc2c(c1C(=O)NC1CCCC1)CCC2)c1ccc(-c2c3nc(c(-c4c(F)c(F)c(F)c(F)c4F)c4ccc([nH]4)c(-c4c(F)c(F)c(F)c(F)c4F)c4nc(c(-c5c(F)c(F)c(F)c(F)c5F)c5ccc2[nH]5)C=C4)C=C3)cc1
REMARK SMILES IDX 5 1 4 2 3 3 2 4 1 5 34 6 35 7 96 8 36 9 95 10 37 11 38 12
REMARK SMILES IDX 39 13 89 14 40 15 94 16 88 17 90 18 41 19 93 20 87 21 86 22
REMARK SMILES IDX 42 24 74 25 54 26 73 27 55 28 58 29 72 30 91 31 56 32 57 33
REMARK SMILES IDX 71 35 92 36 59 37 43 38 44 39 52 40 45 41 46 42 50 43 53 44
REMARK SMILES IDX 47 45 48 46 51 47 49 48 75 49 76 50 84 51 77 52 78 53 82 54
REMARK SMILES IDX 85 55 79 56 80 57 83 58 81 59 60 60 61 61 69 62 62 63 63 64
REMARK SMILES IDX 67 65 70 66 64 67 65 68 68 69 66 70 6 71 7 72 8 73 9 74
REMARK SMILES IDX 10 75 14 76 11 77 13 78 12 79 15 80 16 81 17 82 18 84 19 85
REMARK SMILES IDX 22 86 20 87 21 88 33 89 31 90 32 91 23 92 24 93 25 94 26 96
REMARK SMILES IDX 27 97 30 98 28 99 29 100
REMARK H PARENT 90 23 58 34 17 83 25 95
REMARK Flexibility Score: inf
ROOT
ATOM      1  C   UNL A   1      36.757  21.546  24.603  1.00  0.00     0.274 C 
ENDROOT
BRANCH   1   2
ATOM      2  C   UNL A   1      37.990  21.301  25.470  1.00  0.00     0.275 C 
BRANCH   2   3
ATOM      3  O   UNL A   1      38.846  22.419  25.789  1.00  0.00    -0.458 OA
BRANCH   3   4
ATOM      4  C   UNL A   1      39.653  22.402  26.873  1.00  0.00     0.338 C 
ATOM      5  O   UNL A   1      40.197  21.399  27.284  1.00  0.00    -0.246 OA
BRANCH   4   6
ATOM      6  C   UNL A   1      40.046  23.755  27.360  1.00  0.00     0.060 A 
ATOM      7  C   UNL A   1      41.229  24.015  28.064  1.00  0.00     0.016 A 
ATOM      8  C   UNL A   1      39.148  24.803  27.099  1.00  0.00     0.016 A 
ATOM      9  C   UNL A   1      41.488  25.291  28.551  1.00  0.00     0.010 A 
ATOM     10  C   UNL A   1      39.399  26.074  27.591  1.00  0.00     0.010 A 
ATOM     11  C   UNL A   1      40.547  26.303  28.352  1.00  0.00    -0.014 A 
BRANCH  11  12
ATOM     12  C   UNL A   1      40.771  27.609  28.954  1.00  0.00     0.031 A 
ATOM     13  C   UNL A   1      41.869  28.432  28.379  1.00  0.00     0.074 A 
ATOM     14  C   UNL A   1      39.888  28.128  29.829  1.00  0.00     0.049 A 
ATOM     15  N   UNL A   1      43.017  28.741  28.892  1.00  0.00    -0.248 NA
ATOM     16  C   UNL A   1      41.705  28.888  26.995  1.00  0.00     0.031 C 
ATOM     17  C   UNL A   1      38.585  27.598  30.233  1.00  0.00     0.029 A 
ATOM     18  N   UNL A   1      39.943  29.324  30.473  1.00  0.00    -0.354 N 
ATOM     19  C   UNL A   1      43.641  29.580  27.963  1.00  0.00     0.074 A 
ATOM     20  C   UNL A   1      42.891  29.440  26.745  1.00  0.00     0.031 C 
ATOM     21  C   UNL A   1      37.886  28.565  30.869  1.00  0.00     0.029 A 
ATOM     22  C   UNL A   1      38.743  29.724  31.042  1.00  0.00     0.049 A 
ATOM     23  H   UNL A   1      40.766  29.860  30.531  1.00  0.00     0.167 HD
ATOM     24  C   UNL A   1      44.562  30.518  28.334  1.00  0.00     0.037 A 
ATOM     25  C   UNL A   1      38.481  30.952  31.551  1.00  0.00     0.037 A 
ATOM     26  C   UNL A   1      45.005  30.290  29.686  1.00  0.00     0.049 A 
ATOM     27  C   UNL A   1      39.788  31.614  31.812  1.00  0.00     0.074 A 
ATOM     28  C   UNL A   1      45.626  29.250  30.351  1.00  0.00     0.029 A 
ATOM     29  N   UNL A   1      44.482  31.091  30.673  1.00  0.00    -0.354 N 
ATOM     30  N   UNL A   1      40.631  31.209  32.722  1.00  0.00    -0.248 NA
ATOM     31  C   UNL A   1      40.366  32.410  30.737  1.00  0.00     0.031 C 
ATOM     32  C   UNL A   1      44.984  29.202  31.626  1.00  0.00     0.029 A 
ATOM     33  C   UNL A   1      44.078  30.261  31.684  1.00  0.00     0.049 A 
ATOM     34  H   UNL A   1      44.412  32.073  30.656  1.00  0.00     0.167 HD
ATOM     35  C   UNL A   1      41.880  31.328  32.131  1.00  0.00     0.074 A 
ATOM     36  C   UNL A   1      41.660  32.138  30.933  1.00  0.00     0.031 C 
ATOM     37  C   UNL A   1      42.916  30.517  32.499  1.00  0.00     0.037 A 
BRANCH  24  38
ATOM     38  C   UNL A   1      44.790  31.860  27.654  1.00  0.00     0.064 A 
ATOM     39  C   UNL A   1      45.972  32.045  26.901  1.00  0.00     0.173 A 
ATOM     40  C   UNL A   1      44.082  33.044  27.946  1.00  0.00     0.173 A 
ATOM     41  F   UNL A   1      46.728  30.996  26.542  1.00  0.00    -0.203 F 
ATOM     42  C   UNL A   1      46.464  33.315  26.584  1.00  0.00     0.198 A 
ATOM     43  C   UNL A   1      44.546  34.308  27.579  1.00  0.00     0.198 A 
ATOM     44  F   UNL A   1      42.971  33.057  28.688  1.00  0.00    -0.203 F 
ATOM     45  F   UNL A   1      47.663  33.437  26.000  1.00  0.00    -0.200 F 
ATOM     46  C   UNL A   1      45.756  34.447  26.936  1.00  0.00     0.200 A 
ATOM     47  F   UNL A   1      43.844  35.394  27.933  1.00  0.00    -0.200 F 
ATOM     48  F   UNL A   1      46.256  35.667  26.700  1.00  0.00    -0.200 F 
ENDBRANCH  24  38
BRANCH  25  49
ATOM     49  C   UNL A   1      37.201  31.697  31.495  1.00  0.00     0.064 A 
ATOM     50  C   UNL A   1      36.471  31.982  32.659  1.00  0.00     0.173 A 
ATOM     51  C   UNL A   1      36.803  32.374  30.325  1.00  0.00     0.173 A 
ATOM     52  F   UNL A   1      36.817  31.420  33.826  1.00  0.00    -0.203 F 
ATOM     53  C   UNL A   1      35.414  32.901  32.655  1.00  0.00     0.198 A 
ATOM     54  C   UNL A   1      35.747  33.286  30.320  1.00  0.00     0.198 A 
ATOM     55  F   UNL A   1      37.494  32.236  29.184  1.00  0.00    -0.203 F 
ATOM     56  F   UNL A   1      34.776  33.192  33.797  1.00  0.00    -0.200 F 
ATOM     57  C   UNL A   1      35.060  33.558  31.488  1.00  0.00     0.200 A 
ATOM     58  F   UNL A   1      35.442  33.943  29.192  1.00  0.00    -0.200 F 
ATOM     59  F   UNL A   1      34.089  34.482  31.495  1.00  0.00    -0.200 F 
ENDBRANCH  25  49
BRANCH  37  60
ATOM     60  C   UNL A   1      42.738  29.645  33.707  1.00  0.00     0.064 A 
ATOM     61  C   UNL A   1      42.165  28.362  33.669  1.00  0.00     0.173 A 
ATOM     62  C   UNL A   1      43.323  30.052  34.913  1.00  0.00     0.173 A 
ATOM     63  F   UNL A   1      41.686  27.856  32.528  1.00  0.00    -0.203 F 
ATOM     64  C   UNL A   1      42.140  27.545  34.797  1.00  0.00     0.198 A 
ATOM     65  C   UNL A   1      43.331  29.220  36.028  1.00  0.00     0.198 A 
ATOM     66  F   UNL A   1      43.942  31.240  34.990  1.00  0.00    -0.203 F 
ATOM     67  F   UNL A   1      41.584  26.326  34.733  1.00  0.00    -0.200 F 
ATOM     68  C   UNL A   1      42.731  27.972  35.973  1.00  0.00     0.200 A 
ATOM     69  F   UNL A   1      43.953  29.615  37.147  1.00  0.00    -0.200 F 
ATOM     70  F   UNL A   1      42.751  27.169  37.047  1.00  0.00    -0.200 F 
ENDBRANCH  37  60
ENDBRANCH  11  12
ENDBRANCH   4   6
ENDBRANCH   3   4
ENDBRANCH   2   3
ENDBRANCH   1   2
BRANCH   1  71
ATOM     71  O   UNL A   1      35.686  22.138  25.362  1.00  0.00    -0.462 OA
BRANCH  71  72
ATOM     72  C   UNL A   1      34.445  21.655  25.068  1.00  0.00     0.309 C 
ATOM     73  O   UNL A   1      34.241  20.569  24.549  1.00  0.00    -0.252 OA
BRANCH  72  74
ATOM     74  C   UNL A   1      33.346  22.669  25.352  1.00  0.00     0.111 C 
ATOM     75  C   UNL A   1      32.476  22.426  26.577  1.00  0.00     0.016 C 
ATOM     76  C   UNL A   1      32.584  23.046  24.079  1.00  0.00     0.093 C 
ATOM     77  C   UNL A   1      31.484  23.570  26.749  1.00  0.00     0.001 C 
ATOM     78  C   UNL A   1      31.359  23.951  24.284  1.00  0.00     0.014 C 
ATOM     79  C   UNL A   1      30.568  23.639  25.544  1.00  0.00     0.001 C 
BRANCH  76  80
ATOM     80  C   UNL A   1      33.495  23.668  23.006  1.00  0.00     0.228 C 
ATOM     81  O   UNL A   1      33.641  23.063  21.935  1.00  0.00    -0.274 OA
ATOM     82  N   UNL A   1      34.086  24.906  23.107  1.00  0.00    -0.317 N 
ATOM     83  H   UNL A   1      34.924  25.038  22.607  1.00  0.00     0.170 HD
BRANCH  82  84
ATOM     84  C   UNL A   1      33.619  25.984  23.839  1.00  0.00     0.108 A 
ATOM     85  S   UNL A   1      34.147  25.883  25.470  1.00  0.00    -0.122 S 
ATOM     86  C   UNL A   1      32.724  27.053  23.597  1.00  0.00     0.078 A 
ATOM     87  C   UNL A   1      33.612  27.434  25.718  1.00  0.00     0.011 A 
ATOM     88  C   UNL A   1      32.937  27.989  24.657  1.00  0.00    -0.019 A 
ATOM     89  C   UNL A   1      33.740  28.304  26.908  1.00  0.00     0.047 C 
ATOM     90  C   UNL A   1      32.567  29.378  25.020  1.00  0.00     0.038 C 
ATOM     91  C   UNL A   1      33.455  29.679  26.264  1.00  0.00     0.010 C 
BRANCH  86  92
ATOM     92  C   UNL A   1      31.824  27.016  22.425  1.00  0.00     0.254 C 
ATOM     93  O   UNL A   1      32.060  26.217  21.510  1.00  0.00    -0.269 OA
ATOM     94  N   UNL A   1      30.782  27.852  22.109  1.00  0.00    -0.349 N 
ATOM     95  H   UNL A   1      30.662  27.856  21.132  1.00  0.00     0.164 HD
BRANCH  94  96
ATOM     96  C   UNL A   1      29.791  28.735  22.708  1.00  0.00     0.082 C 
ATOM     97  C   UNL A   1      29.568  30.018  21.938  1.00  0.00     0.025 C 
ATOM     98  C   UNL A   1      28.440  28.175  23.111  1.00  0.00     0.025 C 
ATOM     99  C   UNL A   1      28.152  30.467  22.262  1.00  0.00     0.002 C 
ATOM    100  C   UNL A   1      27.436  29.313  22.958  1.00  0.00     0.002 C 
ENDBRANCH  94  96
ENDBRANCH  86  92
ENDBRANCH  82  84
ENDBRANCH  76  80
ENDBRANCH  72  74
ENDBRANCH  71  72
ENDBRANCH   1  71
TORSDOF 15
ENDMDL
MODEL 2
REMARK VINA RESULT:     -14.0      3.218      8.733
REMARK SMILES O=C(OCCOC(=O)[C@@H]1CCCC[C@H]1C(=O)Nc1sc2c(c1C(=O)NC1CCCC1)CCC2)c1ccc(-c2c3nc(c(-c4c(F)c(F)c(F)c(F)c4F)c4ccc([nH]4)c(-c4c(F)c(F)c(F)c(F)c4F)c4nc(c(-c5c(F)c(F)c(F)c(F)c5F)c5ccc2[nH]5)C=C4)C=C3)cc1
REMARK SMILES IDX 5 1 4 2 3 3 2 4 1 5 34 6 35 7 96 8 36 9 95 10 37 11 38 12
REMARK SMILES IDX 39 13 89 14 40 15 94 16 88 17 90 18 41 19 93 20 87 21 86 22
REMARK SMILES IDX 42 24 74 25 54 26 73 27 55 28 58 29 72 30 91 31 56 32 57 33
REMARK SMILES IDX 71 35 92 36 59 37 43 38 44 39 52 40 45 41 46 42 50 43 53 44
REMARK SMILES IDX 47 45 48 46 51 47 49 48 75 49 76 50 84 51 77 52 78 53 82 54
REMARK SMILES IDX 85 55 79 56 80 57 83 58 81 59 60 60 61 61 69 62 62 63 63 64
REMARK SMILES IDX 67 65 70 66 64 67 65 68 68 69 66 70 6 71 7 72 8 73 9 74
REMARK SMILES IDX 10 75 14 76 11 77 13 78 12 79 15 80 16 81 17 82 18 84 19 85
REMARK SMILES IDX 22 86 20 87 21 88 33 89 31 90 32 91 23 92 24 93 25 94 26 96
REMARK SMILES IDX 27 97 30 98 28 99 29 100
REMARK H PARENT 90 23 58 34 17 83 25 95
REMARK Flexibility Score: inf
ROOT
ATOM      1  C   UNL A   1      33.313  29.641  25.868  1.00  0.00     0.274 C 
ENDROOT
BRANCH   1   2
ATOM      2  C   UNL A   1      32.924  30.706  26.889  1.00  0.00     0.275 C 
BRANCH   2   3
ATOM      3  O   UNL A   1      33.808  30.954  28.003  1.00  0.00    -0.458 OA
BRANCH   3   4
ATOM      4  C   UNL A   1      34.899  31.741  27.876  1.00  0.00     0.338 C 
ATOM      5  O   UNL A   1      34.840  32.927  27.626  1.00  0.00    -0.246 OA
BRANCH   4   6
ATOM      6  C   UNL A   1      36.165  31.106  28.340  1.00  0.00     0.060 A 
ATOM      7  C   UNL A   1      37.281  31.829  28.784  1.00  0.00     0.016 A 
ATOM      8  C   UNL A   1      36.218  29.703  28.297  1.00  0.00     0.016 A 
ATOM      9  C   UNL A   1      38.453  31.165  29.128  1.00  0.00     0.010 A 
ATOM     10  C   UNL A   1      37.387  29.040  28.632  1.00  0.00     0.010 A 
ATOM     11  C   UNL A   1      38.514  29.776  29.004  1.00  0.00    -0.014 A 
BRANCH  11  12
ATOM     12  C   UNL A   1      39.774  29.094  29.263  1.00  0.00     0.031 A 
ATOM     13  C   UNL A   1      40.146  28.892  30.690  1.00  0.00     0.074 A 
ATOM     14  C   UNL A   1      40.448  28.484  28.269  1.00  0.00     0.049 A 
ATOM     15  N   UNL A   1      41.080  29.461  31.382  1.00  0.00    -0.248 NA
ATOM     16  C   UNL A   1      39.286  28.008  31.482  1.00  0.00     0.031 C 
ATOM     17  C   UNL A   1      40.043  28.293  26.876  1.00  0.00     0.029 A 
ATOM     18  N   UNL A   1      41.624  27.808  28.340  1.00  0.00    -0.354 N 
ATOM     19  C   UNL A   1      41.036  28.869  32.648  1.00  0.00     0.074 A 
ATOM     20  C   UNL A   1      39.784  28.168  32.708  1.00  0.00     0.031 C 
ATOM     21  C   UNL A   1      40.842  27.367  26.300  1.00  0.00     0.029 A 
ATOM     22  C   UNL A   1      41.896  27.015  27.234  1.00  0.00     0.049 A 
ATOM     23  H   UNL A   1      42.232  27.875  29.110  1.00  0.00     0.167 HD
ATOM     24  C   UNL A   1      42.139  28.784  33.450  1.00  0.00     0.037 A 
ATOM     25  C   UNL A   1      42.884  26.091  27.148  1.00  0.00     0.037 A 
ATOM     26  C   UNL A   1      43.191  29.640  32.961  1.00  0.00     0.049 A 
ATOM     27  C   UNL A   1      43.874  26.398  28.217  1.00  0.00     0.074 A 
ATOM     28  C   UNL A   1      43.322  30.996  32.729  1.00  0.00     0.029 A 
ATOM     29  N   UNL A   1      44.224  29.052  32.271  1.00  0.00    -0.354 N 
ATOM     30  N   UNL A   1      44.617  27.471  28.223  1.00  0.00    -0.248 NA
ATOM     31  C   UNL A   1      43.680  25.766  29.516  1.00  0.00     0.031 C 
ATOM     32  C   UNL A   1      44.065  31.084  31.512  1.00  0.00     0.029 A 
ATOM     33  C   UNL A   1      44.406  29.786  31.130  1.00  0.00     0.049 A 
ATOM     34  H   UNL A   1      44.734  28.256  32.545  1.00  0.00     0.167 HD
ATOM     35  C   UNL A   1      44.634  27.886  29.546  1.00  0.00     0.074 A 
ATOM     36  C   UNL A   1      44.096  26.760  30.307  1.00  0.00     0.031 C 
ATOM     37  C   UNL A   1      44.798  29.203  29.870  1.00  0.00     0.037 A 
BRANCH  24  38
ATOM     38  C   UNL A   1      42.438  27.667  34.437  1.00  0.00     0.064 A 
ATOM     39  C   UNL A   1      43.038  26.481  33.954  1.00  0.00     0.173 A 
ATOM     40  C   UNL A   1      41.903  27.573  35.739  1.00  0.00     0.173 A 
ATOM     41  F   UNL A   1      43.600  26.442  32.736  1.00  0.00    -0.203 F 
ATOM     42  C   UNL A   1      42.988  25.277  34.665  1.00  0.00     0.198 A 
ATOM     43  C   UNL A   1      41.905  26.384  36.469  1.00  0.00     0.198 A 
ATOM     44  F   UNL A   1      41.260  28.583  36.329  1.00  0.00    -0.203 F 
ATOM     45  F   UNL A   1      43.440  24.151  34.097  1.00  0.00    -0.200 F 
ATOM     46  C   UNL A   1      42.409  25.227  35.917  1.00  0.00     0.200 A 
ATOM     47  F   UNL A   1      41.336  26.357  37.682  1.00  0.00    -0.200 F 
ATOM     48  F   UNL A   1      42.294  24.064  36.571  1.00  0.00    -0.200 F 
ENDBRANCH  24  38
BRANCH  25  49
ATOM     49  C   UNL A   1      42.843  24.789  26.441  1.00  0.00     0.064 A 
ATOM     50  C   UNL A   1      43.714  24.508  25.378  1.00  0.00     0.173 A 
ATOM     51  C   UNL A   1      42.127  23.697  26.971  1.00  0.00     0.173 A 
ATOM     52  F   UNL A   1      44.471  25.481  24.852  1.00  0.00    -0.203 F 
ATOM     53  C   UNL A   1      43.869  23.207  24.882  1.00  0.00     0.198 A 
ATOM     54  C   UNL A   1      42.279  22.401  26.473  1.00  0.00     0.198 A 
ATOM     55  F   UNL A   1      41.339  23.847  28.045  1.00  0.00    -0.203 F 
ATOM     56  F   UNL A   1      44.753  22.966  23.903  1.00  0.00    -0.200 F 
ATOM     57  C   UNL A   1      43.159  22.155  25.436  1.00  0.00     0.200 A 
ATOM     58  F   UNL A   1      41.615  21.388  27.045  1.00  0.00    -0.200 F 
ATOM     59  F   UNL A   1      43.351  20.902  25.002  1.00  0.00    -0.200 F 
ENDBRANCH  25  49
BRANCH  37  60
ATOM     60  C   UNL A   1      45.181  30.159  28.779  1.00  0.00     0.064 A 
ATOM     61  C   UNL A   1      44.252  30.822  27.958  1.00  0.00     0.173 A 
ATOM     62  C   UNL A   1      46.522  30.546  28.674  1.00  0.00     0.173 A 
ATOM     63  F   UNL A   1      42.941  30.592  28.076  1.00  0.00    -0.203 F 
ATOM     64  C   UNL A   1      44.656  31.795  27.046  1.00  0.00     0.198 A 
ATOM     65  C   UNL A   1      46.919  31.544  27.789  1.00  0.00     0.198 A 
ATOM     66  F   UNL A   1      47.444  29.993  29.478  1.00  0.00    -0.203 F 
ATOM     67  F   UNL A   1      43.748  32.411  26.273  1.00  0.00    -0.200 F 
ATOM     68  C   UNL A   1      45.988  32.161  26.968  1.00  0.00     0.200 A 
ATOM     69  F   UNL A   1      48.201  31.933  27.758  1.00  0.00    -0.200 F 
ATOM     70  F   UNL A   1      46.373  33.130  26.126  1.00  0.00    -0.200 F 
ENDBRANCH  37  60
ENDBRANCH  11  12
ENDBRANCH   4   6
ENDBRANCH   3   4
ENDBRANCH   2   3
ENDBRANCH   1   2
BRANCH   1  71
ATOM     71  O   UNL A   1      32.404  28.524  25.896  1.00  0.00    -0.462 OA
BRANCH  71  72
ATOM     72  C   UNL A   1      31.724  28.312  24.733  1.00  0.00     0.309 C 
ATOM     73  O   UNL A   1      30.766  28.977  24.372  1.00  0.00    -0.252 OA
BRANCH  72  74
ATOM     74  C   UNL A   1      32.218  27.081  23.988  1.00  0.00     0.111 C 
ATOM     75  C   UNL A   1      32.785  27.293  22.591  1.00  0.00     0.016 C 
ATOM     76  C   UNL A   1      31.241  25.911  24.121  1.00  0.00     0.093 C 
ATOM     77  C   UNL A   1      33.297  25.973  22.028  1.00  0.00     0.001 C 
ATOM     78  C   UNL A   1      31.577  24.667  23.283  1.00  0.00     0.014 C 
ATOM     79  C   UNL A   1      32.152  24.987  21.912  1.00  0.00     0.001 C 
BRANCH  76  80
ATOM     80  C   UNL A   1      31.021  25.487  25.584  1.00  0.00     0.228 C 
ATOM     81  O   UNL A   1      29.878  25.570  26.055  1.00  0.00    -0.274 OA
ATOM     82  N   UNL A   1      31.985  24.921  26.385  1.00  0.00    -0.317 N 
ATOM     83  H   UNL A   1      31.890  25.059  27.356  1.00  0.00     0.170 HD
BRANCH  82  84
ATOM     84  C   UNL A   1      33.073  24.178  25.964  1.00  0.00     0.108 A 
ATOM     85  S   UNL A   1      34.402  25.202  25.597  1.00  0.00    -0.122 S 
ATOM     86  C   UNL A   1      33.302  22.817  25.648  1.00  0.00     0.078 A 
ATOM     87  C   UNL A   1      35.377  23.865  25.487  1.00  0.00     0.011 A 
ATOM     88  C   UNL A   1      34.722  22.661  25.593  1.00  0.00    -0.019 A 
ATOM     89  C   UNL A   1      36.840  23.770  25.280  1.00  0.00     0.047 C 
ATOM     90  C   UNL A   1      35.732  21.577  25.519  1.00  0.00     0.038 C 
ATOM     91  C   UNL A   1      37.081  22.319  25.751  1.00  0.00     0.010 C 
BRANCH  86  92
ATOM     92  C   UNL A   1      32.159  21.901  25.449  1.00  0.00     0.254 C 
ATOM     93  O   UNL A   1      31.045  22.227  25.874  1.00  0.00    -0.269 OA
ATOM     94  N   UNL A   1      32.155  20.621  24.952  1.00  0.00    -0.349 N 
ATOM     95  H   UNL A   1      31.381  20.138  25.321  1.00  0.00     0.164 HD
BRANCH  94  96
ATOM     96  C   UNL A   1      32.891  19.725  24.069  1.00  0.00     0.082 C 
ATOM     97  C   UNL A   1      33.761  18.726  24.799  1.00  0.00     0.025 C 
ATOM     98  C   UNL A   1      32.153  19.001  22.958  1.00  0.00     0.025 C 
ATOM     99  C   UNL A   1      33.903  17.530  23.870  1.00  0.00     0.002 C 
ATOM    100  C   UNL A   1      32.882  17.679  22.746  1.00  0.00     0.002 C 
ENDBRANCH  94  96
ENDBRANCH  86  92
ENDBRANCH  82  84
ENDBRANCH  76  80
ENDBRANCH  72  74
ENDBRANCH  71  72
ENDBRANCH   1  71
TORSDOF 15
ENDMDL
MODEL 3
REMARK VINA RESULT:     -13.5      5.376     11.418
REMARK SMILES O=C(OCCOC(=O)[C@@H]1CCCC[C@H]1C(=O)Nc1sc2c(c1C(=O)NC1CCCC1)CCC2)c1ccc(-c2c3nc(c(-c4c(F)c(F)c(F)c(F)c4F)c4ccc([nH]4)c(-c4c(F)c(F)c(F)c(F)c4F)c4nc(c(-c5c(F)c(F)c(F)c(F)c5F)c5ccc2[nH]5)C=C4)C=C3)cc1
REMARK SMILES IDX 5 1 4 2 3 3 2 4 1 5 34 6 35 7 96 8 36 9 95 10 37 11 38 12
REMARK SMILES IDX 39 13 89 14 40 15 94 16 88 17 90 18 41 19 93 20 87 21 86 22
REMARK SMILES IDX 42 24 74 25 54 26 73 27 55 28 58 29 72 30 91 31 56 32 57 33
REMARK SMILES IDX 71 35 92 36 59 37 43 38 44 39 52 40 45 41 46 42 50 43 53 44
REMARK SMILES IDX 47 45 48 46 51 47 49 48 75 49 76 50 84 51 77 52 78 53 82 54
REMARK SMILES IDX 85 55 79 56 80 57 83 58 81 59 60 60 61 61 69 62 62 63 63 64
REMARK SMILES IDX 67 65 70 66 64 67 65 68 68 69 66 70 6 71 7 72 8 73 9 74
REMARK SMILES IDX 10 75 14 76 11 77 13 78 12 79 15 80 16 81 17 82 18 84 19 85
REMARK SMILES IDX 22 86 20 87 21 88 33 89 31 90 32 91 23 92 24 93 25 94 26 96
REMARK SMILES IDX 27 97 30 98 28 99 29 100
REMARK H PARENT 90 23 58 34 17 83 25 95
REMARK Flexibility Score: inf
ROOT
ATOM      1  C   UNL A   1      33.972  34.146  29.907  1.00  0.00     0.274 C 
ENDROOT
BRANCH   1   2
ATOM      2  C   UNL A   1      34.068  33.849  28.412  1.00  0.00     0.275 C 
BRANCH   2   3
ATOM      3  O   UNL A   1      35.105  32.960  27.948  1.00  0.00    -0.458 OA
BRANCH   3   4
ATOM      4  C   UNL A   1      35.020  31.623  28.126  1.00  0.00     0.338 C 
ATOM      5  O   UNL A   1      33.989  30.997  27.994  1.00  0.00    -0.246 OA
BRANCH   4   6
ATOM      6  C   UNL A   1      36.339  30.936  28.223  1.00  0.00     0.060 A 
ATOM      7  C   UNL A   1      36.540  29.587  27.901  1.00  0.00     0.016 A 
ATOM      8  C   UNL A   1      37.418  31.708  28.685  1.00  0.00     0.016 A 
ATOM      9  C   UNL A   1      37.785  29.000  28.091  1.00  0.00     0.010 A 
ATOM     10  C   UNL A   1      38.658  31.123  28.883  1.00  0.00     0.010 A 
ATOM     11  C   UNL A   1      38.826  29.762  28.627  1.00  0.00    -0.014 A 
BRANCH  11  12
ATOM     12  C   UNL A   1      40.097  29.117  28.924  1.00  0.00     0.031 A 
ATOM     13  C   UNL A   1      40.349  28.755  30.346  1.00  0.00     0.074 A 
ATOM     14  C   UNL A   1      40.897  28.674  27.935  1.00  0.00     0.049 A 
ATOM     15  N   UNL A   1      41.178  29.278  31.191  1.00  0.00    -0.248 NA
ATOM     16  C   UNL A   1      39.477  27.735  30.936  1.00  0.00     0.031 C 
ATOM     17  C   UNL A   1      40.634  28.642  26.495  1.00  0.00     0.029 A 
ATOM     18  N   UNL A   1      42.102  28.055  28.038  1.00  0.00    -0.354 N 
ATOM     19  C   UNL A   1      41.056  28.528  32.365  1.00  0.00     0.074 A 
ATOM     20  C   UNL A   1      39.850  27.762  32.215  1.00  0.00     0.031 C 
ATOM     21  C   UNL A   1      41.539  27.838  25.893  1.00  0.00     0.029 A 
ATOM     22  C   UNL A   1      42.523  27.424  26.877  1.00  0.00     0.049 A 
ATOM     23  H   UNL A   1      42.631  28.055  28.868  1.00  0.00     0.167 HD
ATOM     24  C   UNL A   1      42.083  28.399  33.255  1.00  0.00     0.037 A 
ATOM     25  C   UNL A   1      43.571  26.570  26.777  1.00  0.00     0.037 A 
ATOM     26  C   UNL A   1      43.120  29.362  32.981  1.00  0.00     0.049 A 
ATOM     27  C   UNL A   1      44.437  26.789  27.968  1.00  0.00     0.074 A 
ATOM     28  C   UNL A   1      43.186  30.742  32.929  1.00  0.00     0.029 A 
ATOM     29  N   UNL A   1      44.247  28.920  32.330  1.00  0.00    -0.354 N 
ATOM     30  N   UNL A   1      45.108  27.888  28.178  1.00  0.00    -0.248 NA
ATOM     31  C   UNL A   1      44.165  25.988  29.155  1.00  0.00     0.031 C 
ATOM     32  C   UNL A   1      44.030  31.021  31.812  1.00  0.00     0.029 A 
ATOM     33  C   UNL A   1      44.486  29.802  31.310  1.00  0.00     0.049 A 
ATOM     34  H   UNL A   1      44.779  28.123  32.554  1.00  0.00     0.167 HD
ATOM     35  C   UNL A   1      44.977  28.133  29.537  1.00  0.00     0.074 A 
ATOM     36  C   UNL A   1      44.444  26.892  30.099  1.00  0.00     0.031 C 
ATOM     37  C   UNL A   1      45.028  29.404  30.034  1.00  0.00     0.037 A 
BRANCH  24  38
ATOM     38  C   UNL A   1      42.360  27.181  34.124  1.00  0.00     0.064 A 
ATOM     39  C   UNL A   1      42.009  27.233  35.493  1.00  0.00     0.173 A 
ATOM     40  C   UNL A   1      43.209  26.112  33.769  1.00  0.00     0.173 A 
ATOM     41  F   UNL A   1      41.193  28.191  35.957  1.00  0.00    -0.203 F 
ATOM     42  C   UNL A   1      42.565  26.365  36.438  1.00  0.00     0.198 A 
ATOM     43  C   UNL A   1      43.718  25.213  34.707  1.00  0.00     0.198 A 
ATOM     44  F   UNL A   1      43.676  25.941  32.530  1.00  0.00    -0.203 F 
ATOM     45  F   UNL A   1      42.314  26.552  37.741  1.00  0.00    -0.200 F 
ATOM     46  C   UNL A   1      43.430  25.363  36.046  1.00  0.00     0.200 A 
ATOM     47  F   UNL A   1      44.558  24.249  34.305  1.00  0.00    -0.200 F 
ATOM     48  F   UNL A   1      44.021  24.576  36.954  1.00  0.00    -0.200 F 
ENDBRANCH  24  38
BRANCH  25  49
ATOM     49  C   UNL A   1      43.677  25.369  25.917  1.00  0.00     0.064 A 
ATOM     50  C   UNL A   1      44.854  25.077  25.212  1.00  0.00     0.173 A 
ATOM     51  C   UNL A   1      42.714  24.341  25.980  1.00  0.00     0.173 A 
ATOM     52  F   UNL A   1      45.842  25.981  25.148  1.00  0.00    -0.203 F 
ATOM     53  C   UNL A   1      45.061  23.826  24.617  1.00  0.00     0.198 A 
ATOM     54  C   UNL A   1      42.919  23.097  25.383  1.00  0.00     0.198 A 
ATOM     55  F   UNL A   1      41.596  24.491  26.706  1.00  0.00    -0.203 F 
ATOM     56  F   UNL A   1      46.222  23.564  24.000  1.00  0.00    -0.200 F 
ATOM     57  C   UNL A   1      44.098  22.835  24.711  1.00  0.00     0.200 A 
ATOM     58  F   UNL A   1      41.995  22.135  25.517  1.00  0.00    -0.200 F 
ATOM     59  F   UNL A   1      44.320  21.619  24.194  1.00  0.00    -0.200 F 
ENDBRANCH  25  49
BRANCH  37  60
ATOM     60  C   UNL A   1      45.448  30.510  29.110  1.00  0.00     0.064 A 
ATOM     61  C   UNL A   1      44.550  31.276  28.348  1.00  0.00     0.173 A 
ATOM     62  C   UNL A   1      46.787  30.918  29.128  1.00  0.00     0.173 A 
ATOM     63  F   UNL A   1      43.238  31.021  28.366  1.00  0.00    -0.203 F 
ATOM     64  C   UNL A   1      44.983  32.373  27.605  1.00  0.00     0.198 A 
ATOM     65  C   UNL A   1      47.211  32.036  28.415  1.00  0.00     0.198 A 
ATOM     66  F   UNL A   1      47.678  30.263  29.890  1.00  0.00    -0.203 F 
ATOM     67  F   UNL A   1      44.104  33.086  26.883  1.00  0.00    -0.200 F 
ATOM     68  C   UNL A   1      46.312  32.756  27.646  1.00  0.00     0.200 A 
ATOM     69  F   UNL A   1      48.487  32.435  28.503  1.00  0.00    -0.200 F 
ATOM     70  F   UNL A   1      46.722  33.839  26.971  1.00  0.00    -0.200 F 
ENDBRANCH  37  60
ENDBRANCH  11  12
ENDBRANCH   4   6
ENDBRANCH   3   4
ENDBRANCH   2   3
ENDBRANCH   1   2
BRANCH   1  71
ATOM     71  O   UNL A   1      35.154  33.717  30.608  1.00  0.00    -0.462 OA
BRANCH  71  72
ATOM     72  C   UNL A   1      34.921  32.894  31.670  1.00  0.00     0.309 C 
ATOM     73  O   UNL A   1      33.822  32.727  32.174  1.00  0.00    -0.252 OA
BRANCH  72  74
ATOM     74  C   UNL A   1      36.201  32.294  32.232  1.00  0.00     0.111 C 
ATOM     75  C   UNL A   1      36.478  30.830  31.919  1.00  0.00     0.016 C 
ATOM     76  C   UNL A   1      36.421  32.700  33.691  1.00  0.00     0.093 C 
ATOM     77  C   UNL A   1      37.829  30.420  32.493  1.00  0.00     0.001 C 
ATOM     78  C   UNL A   1      37.610  32.025  34.394  1.00  0.00     0.014 C 
ATOM     79  C   UNL A   1      37.812  30.570  34.001  1.00  0.00     0.001 C 
BRANCH  76  80
ATOM     80  C   UNL A   1      36.529  34.224  33.871  1.00  0.00     0.228 C 
ATOM     81  O   UNL A   1      35.778  34.774  34.689  1.00  0.00    -0.274 OA
ATOM     82  N   UNL A   1      37.474  35.017  33.262  1.00  0.00    -0.317 N 
ATOM     83  H   UNL A   1      37.229  35.959  33.110  1.00  0.00     0.170 HD
BRANCH  82  84
ATOM     84  C   UNL A   1      38.732  34.623  32.844  1.00  0.00     0.108 A 
ATOM     85  S   UNL A   1      38.697  34.130  31.199  1.00  0.00    -0.122 S 
ATOM     86  C   UNL A   1      39.982  34.413  33.473  1.00  0.00     0.078 A 
ATOM     87  C   UNL A   1      40.356  34.100  31.193  1.00  0.00     0.011 A 
ATOM     88  C   UNL A   1      40.943  34.326  32.416  1.00  0.00    -0.019 A 
ATOM     89  C   UNL A   1      41.298  33.855  30.079  1.00  0.00     0.047 C 
ATOM     90  C   UNL A   1      42.414  34.308  32.233  1.00  0.00     0.038 C 
ATOM     91  C   UNL A   1      42.592  34.435  30.691  1.00  0.00     0.010 C 
BRANCH  86  92
ATOM     92  C   UNL A   1      40.066  34.326  34.946  1.00  0.00     0.254 C 
ATOM     93  O   UNL A   1      39.298  35.010  35.633  1.00  0.00    -0.269 OA
ATOM     94  N   UNL A   1      40.990  33.670  35.722  1.00  0.00    -0.349 N 
ATOM     95  H   UNL A   1      41.049  34.120  36.595  1.00  0.00     0.164 HD
BRANCH  94  96
ATOM     96  C   UNL A   1      41.912  32.543  35.709  1.00  0.00     0.082 C 
ATOM     97  C   UNL A   1      43.367  32.942  35.814  1.00  0.00     0.025 C 
ATOM     98  C   UNL A   1      41.667  31.369  36.638  1.00  0.00     0.025 C 
ATOM     99  C   UNL A   1      44.089  31.756  36.434  1.00  0.00     0.002 C 
ATOM    100  C   UNL A   1      43.038  30.794  36.980  1.00  0.00     0.002 C 
ENDBRANCH  94  96
ENDBRANCH  86  92
ENDBRANCH  82  84
ENDBRANCH  76  80
ENDBRANCH  72  74
ENDBRANCH  71  72
ENDBRANCH   1  71
TORSDOF 15
ENDMDL
