MODEL 1
REMARK VINA RESULT:     -12.1      0.000      0.000
REMARK SMILES O=C(OCCOC(=O)[C@H]1CC[C@@H](CNc2ccccc2C(F)(F)F)O1)c1ccc(-c2c3nc(c(-c4c(F)c(F)c(F)c(F)c4F)c4ccc([nH]4)c(-c4c(F)c(F)c(F)c(F)c4F)c4nc(c(-c5c(F)c(F)c(F)c(F)c5F)c5ccc2[nH]5)C=C4)C=C3)cc1
REMARK SMILES IDX 5 1 4 2 3 3 2 4 1 5 26 6 27 7 88 8 28 9 87 10 29 11 30 12
REMARK SMILES IDX 31 13 81 14 32 15 86 16 80 17 82 18 33 19 85 20 79 21 78 22
REMARK SMILES IDX 34 24 66 25 46 26 65 27 47 28 50 29 64 30 83 31 48 32 49 33
REMARK SMILES IDX 63 35 84 36 51 37 35 38 36 39 44 40 37 41 38 42 42 43 45 44
REMARK SMILES IDX 39 45 40 46 43 47 41 48 67 49 68 50 76 51 69 52 70 53 74 54
REMARK SMILES IDX 77 55 71 56 72 57 75 58 73 59 52 60 53 61 61 62 54 63 55 64
REMARK SMILES IDX 59 65 62 66 56 67 57 68 60 69 58 70 6 71 7 72 8 73 9 74
REMARK SMILES IDX 10 75 25 76 11 77 12 78 13 79 14 80 15 82 16 83 20 84 17 85
REMARK SMILES IDX 19 86 18 87 21 88 22 89 23 90 24 91
REMARK H PARENT 82 23 50 34 14 81
REMARK Flexibility Score: inf
ROOT
ATOM      1  C   UNL A   1      31.999  28.368  25.071  1.00  0.00     0.274 C 
ENDROOT
BRANCH   1   2
ATOM      2  C   UNL A   1      31.568  29.790  25.422  1.00  0.00     0.275 C 
BRANCH   2   3
ATOM      3  O   UNL A   1      32.008  30.203  26.732  1.00  0.00    -0.458 OA
BRANCH   3   4
ATOM      4  C   UNL A   1      32.823  31.178  27.190  1.00  0.00     0.338 C 
ATOM      5  O   UNL A   1      32.367  32.322  27.214  1.00  0.00    -0.246 OA
BRANCH   4   6
ATOM      6  C   UNL A   1      34.282  31.036  27.543  1.00  0.00     0.060 A 
ATOM      7  C   UNL A   1      35.228  32.046  27.715  1.00  0.00     0.016 A 
ATOM      8  C   UNL A   1      34.726  29.713  27.786  1.00  0.00     0.016 A 
ATOM      9  C   UNL A   1      36.502  31.745  28.271  1.00  0.00     0.010 A 
ATOM     10  C   UNL A   1      35.985  29.417  28.351  1.00  0.00     0.010 A 
ATOM     11  C   UNL A   1      36.868  30.443  28.688  1.00  0.00    -0.014 A 
BRANCH  11  12
ATOM     12  C   UNL A   1      38.250  30.155  29.222  1.00  0.00     0.031 A 
ATOM     13  C   UNL A   1      38.431  30.588  30.647  1.00  0.00     0.074 A 
ATOM     14  C   UNL A   1      39.291  29.560  28.571  1.00  0.00     0.049 A 
ATOM     15  N   UNL A   1      39.393  30.337  31.490  1.00  0.00    -0.248 NA
ATOM     16  C   UNL A   1      37.383  31.485  31.170  1.00  0.00     0.031 C 
ATOM     17  C   UNL A   1      39.360  29.177  27.164  1.00  0.00     0.029 A 
ATOM     18  N   UNL A   1      40.498  29.054  29.054  1.00  0.00    -0.354 N 
ATOM     19  C   UNL A   1      39.072  31.061  32.629  1.00  0.00     0.074 A 
ATOM     20  C   UNL A   1      37.854  31.786  32.363  1.00  0.00     0.031 C 
ATOM     21  C   UNL A   1      40.346  28.286  26.963  1.00  0.00     0.029 A 
ATOM     22  C   UNL A   1      41.085  28.119  28.199  1.00  0.00     0.049 A 
ATOM     23  H   UNL A   1      40.896  29.329  29.911  1.00  0.00     0.167 HD
ATOM     24  C   UNL A   1      39.737  31.120  33.802  1.00  0.00     0.037 A 
ATOM     25  C   UNL A   1      42.019  27.162  28.435  1.00  0.00     0.037 A 
ATOM     26  C   UNL A   1      40.948  30.401  34.056  1.00  0.00     0.049 A 
ATOM     27  C   UNL A   1      42.701  27.163  29.783  1.00  0.00     0.074 A 
ATOM     28  C   UNL A   1      41.721  30.384  35.198  1.00  0.00     0.029 A 
ATOM     29  N   UNL A   1      41.560  29.565  33.133  1.00  0.00    -0.354 N 
ATOM     30  N   UNL A   1      42.452  27.911  30.830  1.00  0.00    -0.248 NA
ATOM     31  C   UNL A   1      43.785  26.189  29.986  1.00  0.00     0.031 C 
ATOM     32  C   UNL A   1      42.817  29.549  34.959  1.00  0.00     0.029 A 
ATOM     33  C   UNL A   1      42.684  28.989  33.696  1.00  0.00     0.049 A 
ATOM     34  H   UNL A   1      41.242  29.404  32.216  1.00  0.00     0.167 HD
ATOM     35  C   UNL A   1      43.332  27.494  31.816  1.00  0.00     0.074 A 
ATOM     36  C   UNL A   1      44.097  26.399  31.257  1.00  0.00     0.031 C 
ATOM     37  C   UNL A   1      43.489  27.968  33.077  1.00  0.00     0.037 A 
BRANCH  24  38
ATOM     38  C   UNL A   1      39.166  32.043  34.833  1.00  0.00     0.064 A 
ATOM     39  C   UNL A   1      39.471  33.414  34.843  1.00  0.00     0.173 A 
ATOM     40  C   UNL A   1      38.419  31.524  35.899  1.00  0.00     0.173 A 
ATOM     41  F   UNL A   1      40.224  33.945  33.868  1.00  0.00    -0.203 F 
ATOM     42  C   UNL A   1      39.100  34.219  35.916  1.00  0.00     0.198 A 
ATOM     43  C   UNL A   1      38.021  32.341  36.954  1.00  0.00     0.198 A 
ATOM     44  F   UNL A   1      38.119  30.219  35.943  1.00  0.00    -0.203 F 
ATOM     45  F   UNL A   1      39.493  35.499  35.957  1.00  0.00    -0.200 F 
ATOM     46  C   UNL A   1      38.376  33.681  36.969  1.00  0.00     0.200 A 
ATOM     47  F   UNL A   1      37.324  31.820  37.973  1.00  0.00    -0.200 F 
ATOM     48  F   UNL A   1      38.046  34.450  38.017  1.00  0.00    -0.200 F 
ENDBRANCH  24  38
BRANCH  25  49
ATOM     49  C   UNL A   1      42.211  25.986  27.510  1.00  0.00     0.064 A 
ATOM     50  C   UNL A   1      43.249  26.014  26.551  1.00  0.00     0.173 A 
ATOM     51  C   UNL A   1      41.406  24.840  27.518  1.00  0.00     0.173 A 
ATOM     52  F   UNL A   1      44.059  27.080  26.476  1.00  0.00    -0.203 F 
ATOM     53  C   UNL A   1      43.443  24.979  25.633  1.00  0.00     0.198 A 
ATOM     54  C   UNL A   1      41.627  23.783  26.624  1.00  0.00     0.198 A 
ATOM     55  F   UNL A   1      40.399  24.734  28.396  1.00  0.00    -0.203 F 
ATOM     56  F   UNL A   1      44.399  25.082  24.698  1.00  0.00    -0.200 F 
ATOM     57  C   UNL A   1      42.634  23.859  25.675  1.00  0.00     0.200 A 
ATOM     58  F   UNL A   1      40.855  22.688  26.682  1.00  0.00    -0.200 F 
ATOM     59  F   UNL A   1      42.820  22.861  24.800  1.00  0.00    -0.200 F 
ENDBRANCH  25  49
BRANCH  37  60
ATOM     60  C   UNL A   1      44.576  27.355  33.905  1.00  0.00     0.064 A 
ATOM     61  C   UNL A   1      45.863  27.911  33.947  1.00  0.00     0.173 A 
ATOM     62  C   UNL A   1      44.307  26.247  34.722  1.00  0.00     0.173 A 
ATOM     63  F   UNL A   1      46.171  28.962  33.172  1.00  0.00    -0.203 F 
ATOM     64  C   UNL A   1      46.846  27.370  34.768  1.00  0.00     0.198 A 
ATOM     65  C   UNL A   1      45.281  25.732  35.568  1.00  0.00     0.198 A 
ATOM     66  F   UNL A   1      43.090  25.682  34.715  1.00  0.00    -0.203 F 
ATOM     67  F   UNL A   1      48.081  27.891  34.763  1.00  0.00    -0.200 F 
ATOM     68  C   UNL A   1      46.551  26.291  35.588  1.00  0.00     0.200 A 
ATOM     69  F   UNL A   1      44.990  24.700  36.372  1.00  0.00    -0.200 F 
ATOM     70  F   UNL A   1      47.494  25.785  36.394  1.00  0.00    -0.200 F 
ENDBRANCH  37  60
ENDBRANCH  11  12
ENDBRANCH   4   6
ENDBRANCH   3   4
ENDBRANCH   2   3
ENDBRANCH   1   2
BRANCH   1  71
ATOM     71  O   UNL A   1      30.934  27.568  24.548  1.00  0.00    -0.460 OA
BRANCH  71  72
ATOM     72  C   UNL A   1      31.069  27.167  23.246  1.00  0.00     0.335 C 
ATOM     73  O   UNL A   1      31.187  27.912  22.290  1.00  0.00    -0.249 OA
BRANCH  72  74
ATOM     74  C   UNL A   1      31.122  25.628  23.139  1.00  0.00     0.228 C 
ATOM     75  C   UNL A   1      32.327  25.244  22.317  1.00  0.00     0.047 C 
ATOM     76  O   UNL A   1      31.250  24.943  24.413  1.00  0.00    -0.361 OA
ATOM     77  C   UNL A   1      33.324  25.140  23.429  1.00  0.00     0.037 C 
ATOM     78  C   UNL A   1      32.610  24.439  24.566  1.00  0.00     0.138 C 
BRANCH  78  79
ATOM     79  C   UNL A   1      33.153  24.702  26.032  1.00  0.00     0.145 C 
BRANCH  79  80
ATOM     80  N   UNL A   1      34.140  23.717  26.526  1.00  0.00    -0.382 N 
ATOM     81  H   UNL A   1      33.974  23.442  27.456  1.00  0.00     0.160 HD
BRANCH  80  82
ATOM     82  C   UNL A   1      35.252  23.094  25.967  1.00  0.00     0.046 A 
ATOM     83  C   UNL A   1      36.447  23.847  25.988  1.00  0.00     0.026 A 
ATOM     84  C   UNL A   1      35.413  21.813  25.430  1.00  0.00     0.079 A 
ATOM     85  C   UNL A   1      37.733  23.345  25.739  1.00  0.00     0.002 A 
ATOM     86  C   UNL A   1      36.731  21.282  25.204  1.00  0.00     0.015 A 
ATOM     87  C   UNL A   1      37.885  22.025  25.398  1.00  0.00     0.001 A 
BRANCH  84  88
ATOM     88  C   UNL A   1      34.316  20.916  24.935  1.00  0.00     0.418 C 
ATOM     89  F   UNL A   1      34.806  19.698  24.548  1.00  0.00    -0.166 F 
ATOM     90  F   UNL A   1      33.400  20.641  25.908  1.00  0.00    -0.166 F 
ATOM     91  F   UNL A   1      33.602  21.356  23.869  1.00  0.00    -0.166 F 
ENDBRANCH  84  88
ENDBRANCH  80  82
ENDBRANCH  79  80
ENDBRANCH  78  79
ENDBRANCH  72  74
ENDBRANCH  71  72
ENDBRANCH   1  71
TORSDOF 15
ENDMDL
MODEL 2
REMARK VINA RESULT:     -12.0      0.115      1.139
REMARK SMILES O=C(OCCOC(=O)[C@H]1CC[C@@H](CNc2ccccc2C(F)(F)F)O1)c1ccc(-c2c3nc(c(-c4c(F)c(F)c(F)c(F)c4F)c4ccc([nH]4)c(-c4c(F)c(F)c(F)c(F)c4F)c4nc(c(-c5c(F)c(F)c(F)c(F)c5F)c5ccc2[nH]5)C=C4)C=C3)cc1
REMARK SMILES IDX 5 1 4 2 3 3 2 4 1 5 26 6 27 7 88 8 28 9 87 10 29 11 30 12
REMARK SMILES IDX 31 13 81 14 32 15 86 16 80 17 82 18 33 19 85 20 79 21 78 22
REMARK SMILES IDX 34 24 66 25 46 26 65 27 47 28 50 29 64 30 83 31 48 32 49 33
REMARK SMILES IDX 63 35 84 36 51 37 35 38 36 39 44 40 37 41 38 42 42 43 45 44
REMARK SMILES IDX 39 45 40 46 43 47 41 48 67 49 68 50 76 51 69 52 70 53 74 54
REMARK SMILES IDX 77 55 71 56 72 57 75 58 73 59 52 60 53 61 61 62 54 63 55 64
REMARK SMILES IDX 59 65 62 66 56 67 57 68 60 69 58 70 6 71 7 72 8 73 9 74
REMARK SMILES IDX 10 75 25 76 11 77 12 78 13 79 14 80 15 82 16 83 20 84 17 85
REMARK SMILES IDX 19 86 18 87 21 88 22 89 23 90 24 91
REMARK H PARENT 82 23 50 34 14 81
REMARK Flexibility Score: inf
ROOT
ATOM      1  C   UNL A   1      31.938  28.333  25.103  1.00  0.00     0.274 C 
ENDROOT
BRANCH   1   2
ATOM      2  C   UNL A   1      31.469  29.722  25.529  1.00  0.00     0.275 C 
BRANCH   2   3
ATOM      3  O   UNL A   1      32.039  30.148  26.784  1.00  0.00    -0.458 OA
BRANCH   3   4
ATOM      4  C   UNL A   1      32.865  31.151  27.153  1.00  0.00     0.338 C 
ATOM      5  O   UNL A   1      32.424  32.298  27.068  1.00  0.00    -0.246 OA
BRANCH   4   6
ATOM      6  C   UNL A   1      34.320  31.025  27.526  1.00  0.00     0.060 A 
ATOM      7  C   UNL A   1      35.230  32.045  27.799  1.00  0.00     0.016 A 
ATOM      8  C   UNL A   1      34.801  29.700  27.672  1.00  0.00     0.016 A 
ATOM      9  C   UNL A   1      36.503  31.738  28.357  1.00  0.00     0.010 A 
ATOM     10  C   UNL A   1      36.057  29.398  28.238  1.00  0.00     0.010 A 
ATOM     11  C   UNL A   1      36.901  30.419  28.676  1.00  0.00    -0.014 A 
BRANCH  11  12
ATOM     12  C   UNL A   1      38.280  30.129  29.216  1.00  0.00     0.031 A 
ATOM     13  C   UNL A   1      38.455  30.557  30.643  1.00  0.00     0.074 A 
ATOM     14  C   UNL A   1      39.325  29.537  28.568  1.00  0.00     0.049 A 
ATOM     15  N   UNL A   1      39.413  30.304  31.490  1.00  0.00    -0.248 NA
ATOM     16  C   UNL A   1      37.403  31.452  31.164  1.00  0.00     0.031 C 
ATOM     17  C   UNL A   1      39.401  29.159  27.160  1.00  0.00     0.029 A 
ATOM     18  N   UNL A   1      40.530  29.030  29.054  1.00  0.00    -0.354 N 
ATOM     19  C   UNL A   1      39.086  31.024  32.629  1.00  0.00     0.074 A 
ATOM     20  C   UNL A   1      37.869  31.749  32.360  1.00  0.00     0.031 C 
ATOM     21  C   UNL A   1      40.388  28.270  26.959  1.00  0.00     0.029 A 
ATOM     22  C   UNL A   1      41.122  28.099  28.199  1.00  0.00     0.049 A 
ATOM     23  H   UNL A   1      40.923  29.303  29.914  1.00  0.00     0.167 HD
ATOM     24  C   UNL A   1      39.745  31.079  33.806  1.00  0.00     0.037 A 
ATOM     25  C   UNL A   1      42.055  27.142  28.435  1.00  0.00     0.037 A 
ATOM     26  C   UNL A   1      40.955  30.360  34.063  1.00  0.00     0.049 A 
ATOM     27  C   UNL A   1      42.731  27.139  29.786  1.00  0.00     0.074 A 
ATOM     28  C   UNL A   1      41.723  30.339  35.208  1.00  0.00     0.029 A 
ATOM     29  N   UNL A   1      41.572  29.527  33.140  1.00  0.00    -0.354 N 
ATOM     30  N   UNL A   1      42.477  27.882  30.836  1.00  0.00    -0.248 NA
ATOM     31  C   UNL A   1      43.815  26.164  29.991  1.00  0.00     0.031 C 
ATOM     32  C   UNL A   1      42.821  29.506  34.971  1.00  0.00     0.029 A 
ATOM     33  C   UNL A   1      42.694  28.950  33.706  1.00  0.00     0.049 A 
ATOM     34  H   UNL A   1      41.258  29.370  32.221  1.00  0.00     0.167 HD
ATOM     35  C   UNL A   1      43.352  27.462  31.824  1.00  0.00     0.074 A 
ATOM     36  C   UNL A   1      44.120  26.369  31.265  1.00  0.00     0.031 C 
ATOM     37  C   UNL A   1      43.503  27.931  33.087  1.00  0.00     0.037 A 
BRANCH  24  38
ATOM     38  C   UNL A   1      39.169  31.998  34.837  1.00  0.00     0.064 A 
ATOM     39  C   UNL A   1      39.471  33.369  34.853  1.00  0.00     0.173 A 
ATOM     40  C   UNL A   1      38.419  31.474  35.899  1.00  0.00     0.173 A 
ATOM     41  F   UNL A   1      40.228  33.904  33.882  1.00  0.00    -0.203 F 
ATOM     42  C   UNL A   1      39.095  34.170  35.927  1.00  0.00     0.198 A 
ATOM     43  C   UNL A   1      38.015  32.287  36.954  1.00  0.00     0.198 A 
ATOM     44  F   UNL A   1      38.120  30.169  35.938  1.00  0.00    -0.203 F 
ATOM     45  F   UNL A   1      39.487  35.451  35.973  1.00  0.00    -0.200 F 
ATOM     46  C   UNL A   1      38.368  33.628  36.976  1.00  0.00     0.200 A 
ATOM     47  F   UNL A   1      37.315  31.763  37.970  1.00  0.00    -0.200 F 
ATOM     48  F   UNL A   1      38.033  34.394  38.024  1.00  0.00    -0.200 F 
ENDBRANCH  24  38
BRANCH  25  49
ATOM     49  C   UNL A   1      42.252  25.969  27.507  1.00  0.00     0.064 A 
ATOM     50  C   UNL A   1      43.293  26.002  26.552  1.00  0.00     0.173 A 
ATOM     51  C   UNL A   1      41.449  24.822  27.509  1.00  0.00     0.173 A 
ATOM     52  F   UNL A   1      44.102  27.070  26.482  1.00  0.00    -0.203 F 
ATOM     53  C   UNL A   1      43.492  24.971  25.631  1.00  0.00     0.198 A 
ATOM     54  C   UNL A   1      41.675  23.768  26.612  1.00  0.00     0.198 A 
ATOM     55  F   UNL A   1      40.439  24.711  28.383  1.00  0.00    -0.203 F 
ATOM     56  F   UNL A   1      44.451  25.079  24.700  1.00  0.00    -0.200 F 
ATOM     57  C   UNL A   1      42.685  23.849  25.666  1.00  0.00     0.200 A 
ATOM     58  F   UNL A   1      40.905  22.671  26.664  1.00  0.00    -0.200 F 
ATOM     59  F   UNL A   1      42.876  22.854  24.788  1.00  0.00    -0.200 F 
ENDBRANCH  25  49
BRANCH  37  60
ATOM     60  C   UNL A   1      44.586  27.317  33.918  1.00  0.00     0.064 A 
ATOM     61  C   UNL A   1      44.347  26.179  34.703  1.00  0.00     0.173 A 
ATOM     62  C   UNL A   1      45.892  27.826  33.872  1.00  0.00     0.173 A 
ATOM     63  F   UNL A   1      43.110  25.666  34.790  1.00  0.00    -0.203 F 
ATOM     64  C   UNL A   1      45.375  25.580  35.422  1.00  0.00     0.198 A 
ATOM     65  C   UNL A   1      46.924  27.203  34.564  1.00  0.00     0.198 A 
ATOM     66  F   UNL A   1      46.168  28.913  33.136  1.00  0.00    -0.203 F 
ATOM     67  F   UNL A   1      45.117  24.519  36.198  1.00  0.00    -0.200 F 
ATOM     68  C   UNL A   1      46.664  26.084  35.342  1.00  0.00     0.200 A 
ATOM     69  F   UNL A   1      48.173  27.681  34.471  1.00  0.00    -0.200 F 
ATOM     70  F   UNL A   1      47.658  25.493  36.018  1.00  0.00    -0.200 F 
ENDBRANCH  37  60
ENDBRANCH  11  12
ENDBRANCH   4   6
ENDBRANCH   3   4
ENDBRANCH   2   3
ENDBRANCH   1   2
BRANCH   1  71
ATOM     71  O   UNL A   1      30.889  27.525  24.561  1.00  0.00    -0.460 OA
BRANCH  71  72
ATOM     72  C   UNL A   1      31.050  27.129  23.259  1.00  0.00     0.335 C 
ATOM     73  O   UNL A   1      31.186  27.878  22.309  1.00  0.00    -0.249 OA
BRANCH  72  74
ATOM     74  C   UNL A   1      31.105  25.590  23.148  1.00  0.00     0.228 C 
ATOM     75  C   UNL A   1      32.307  25.211  22.321  1.00  0.00     0.047 C 
ATOM     76  O   UNL A   1      31.239  24.902  24.420  1.00  0.00    -0.361 OA
ATOM     77  C   UNL A   1      33.309  25.105  23.429  1.00  0.00     0.037 C 
ATOM     78  C   UNL A   1      32.600  24.400  24.566  1.00  0.00     0.138 C 
BRANCH  78  79
ATOM     79  C   UNL A   1      33.148  24.660  26.031  1.00  0.00     0.145 C 
BRANCH  79  80
ATOM     80  N   UNL A   1      34.135  23.672  26.521  1.00  0.00    -0.382 N 
ATOM     81  H   UNL A   1      33.993  23.424  27.463  1.00  0.00     0.160 HD
BRANCH  80  82
ATOM     82  C   UNL A   1      35.219  23.017  25.945  1.00  0.00     0.046 A 
ATOM     83  C   UNL A   1      36.434  23.739  25.939  1.00  0.00     0.026 A 
ATOM     84  C   UNL A   1      35.337  21.730  25.412  1.00  0.00     0.079 A 
ATOM     85  C   UNL A   1      37.701  23.202  25.669  1.00  0.00     0.002 A 
ATOM     86  C   UNL A   1      36.635  21.163  25.165  1.00  0.00     0.015 A 
ATOM     87  C   UNL A   1      37.812  21.877  25.333  1.00  0.00     0.001 A 
BRANCH  84  88
ATOM     88  C   UNL A   1      34.208  20.859  24.943  1.00  0.00     0.418 C 
ATOM     89  F   UNL A   1      34.657  19.623  24.563  1.00  0.00    -0.166 F 
ATOM     90  F   UNL A   1      33.298  20.621  25.933  1.00  0.00    -0.166 F 
ATOM     91  F   UNL A   1      33.491  21.308  23.883  1.00  0.00    -0.166 F 
ENDBRANCH  84  88
ENDBRANCH  80  82
ENDBRANCH  79  80
ENDBRANCH  78  79
ENDBRANCH  72  74
ENDBRANCH  71  72
ENDBRANCH   1  71
TORSDOF 15
ENDMDL
MODEL 3
REMARK VINA RESULT:     -11.7      1.060      2.021
REMARK SMILES O=C(OCCOC(=O)[C@H]1CC[C@@H](CNc2ccccc2C(F)(F)F)O1)c1ccc(-c2c3nc(c(-c4c(F)c(F)c(F)c(F)c4F)c4ccc([nH]4)c(-c4c(F)c(F)c(F)c(F)c4F)c4nc(c(-c5c(F)c(F)c(F)c(F)c5F)c5ccc2[nH]5)C=C4)C=C3)cc1
REMARK SMILES IDX 5 1 4 2 3 3 2 4 1 5 26 6 27 7 88 8 28 9 87 10 29 11 30 12
REMARK SMILES IDX 31 13 81 14 32 15 86 16 80 17 82 18 33 19 85 20 79 21 78 22
REMARK SMILES IDX 34 24 66 25 46 26 65 27 47 28 50 29 64 30 83 31 48 32 49 33
REMARK SMILES IDX 63 35 84 36 51 37 35 38 36 39 44 40 37 41 38 42 42 43 45 44
REMARK SMILES IDX 39 45 40 46 43 47 41 48 67 49 68 50 76 51 69 52 70 53 74 54
REMARK SMILES IDX 77 55 71 56 72 57 75 58 73 59 52 60 53 61 61 62 54 63 55 64
REMARK SMILES IDX 59 65 62 66 56 67 57 68 60 69 58 70 6 71 7 72 8 73 9 74
REMARK SMILES IDX 10 75 25 76 11 77 12 78 13 79 14 80 15 82 16 83 20 84 17 85
REMARK SMILES IDX 19 86 18 87 21 88 22 89 23 90 24 91
REMARK H PARENT 82 23 50 34 14 81
REMARK Flexibility Score: inf
ROOT
ATOM      1  C   UNL A   1      31.802  29.023  25.506  1.00  0.00     0.274 C 
ENDROOT
BRANCH   1   2
ATOM      2  C   UNL A   1      31.783  30.493  25.918  1.00  0.00     0.275 C 
BRANCH   2   3
ATOM      3  O   UNL A   1      32.463  30.735  27.166  1.00  0.00    -0.458 OA
BRANCH   3   4
ATOM      4  C   UNL A   1      33.383  31.633  27.581  1.00  0.00     0.338 C 
ATOM      5  O   UNL A   1      33.042  32.816  27.598  1.00  0.00    -0.246 OA
BRANCH   4   6
ATOM      6  C   UNL A   1      34.832  31.354  27.891  1.00  0.00     0.060 A 
ATOM      7  C   UNL A   1      35.870  32.272  28.052  1.00  0.00     0.016 A 
ATOM      8  C   UNL A   1      35.162  29.993  28.103  1.00  0.00     0.016 A 
ATOM      9  C   UNL A   1      37.126  31.849  28.568  1.00  0.00     0.010 A 
ATOM     10  C   UNL A   1      36.403  29.576  28.628  1.00  0.00     0.010 A 
ATOM     11  C   UNL A   1      37.384  30.513  28.955  1.00  0.00    -0.014 A 
BRANCH  11  12
ATOM     12  C   UNL A   1      38.747  30.092  29.447  1.00  0.00     0.031 A 
ATOM     13  C   UNL A   1      38.996  30.463  30.879  1.00  0.00     0.074 A 
ATOM     14  C   UNL A   1      39.720  29.433  28.754  1.00  0.00     0.049 A 
ATOM     15  N   UNL A   1      39.952  30.106  31.691  1.00  0.00    -0.248 NA
ATOM     16  C   UNL A   1      38.039  31.428  31.453  1.00  0.00     0.031 C 
ATOM     17  C   UNL A   1      39.726  29.090  27.335  1.00  0.00     0.029 A 
ATOM     18  N   UNL A   1      40.890  28.812  29.191  1.00  0.00    -0.354 N 
ATOM     19  C   UNL A   1      39.718  30.818  32.858  1.00  0.00     0.074 A 
ATOM     20  C   UNL A   1      38.561  31.651  32.643  1.00  0.00     0.031 C 
ATOM     21  C   UNL A   1      40.628  28.126  27.082  1.00  0.00     0.029 A 
ATOM     22  C   UNL A   1      41.377  27.859  28.295  1.00  0.00     0.049 A 
ATOM     23  H   UNL A   1      41.328  29.026  30.046  1.00  0.00     0.167 HD
ATOM     24  C   UNL A   1      40.411  30.784  34.015  1.00  0.00     0.037 A 
ATOM     25  C   UNL A   1      42.231  26.820  28.479  1.00  0.00     0.037 A 
ATOM     26  C   UNL A   1      41.562  29.958  34.218  1.00  0.00     0.049 A 
ATOM     27  C   UNL A   1      42.940  26.721  29.810  1.00  0.00     0.074 A 
ATOM     28  C   UNL A   1      42.355  29.840  35.340  1.00  0.00     0.029 A 
ATOM     29  N   UNL A   1      42.080  29.103  33.256  1.00  0.00    -0.354 N 
ATOM     30  N   UNL A   1      42.779  27.453  30.885  1.00  0.00    -0.248 NA
ATOM     31  C   UNL A   1      43.942  25.653  29.957  1.00  0.00     0.031 C 
ATOM     32  C   UNL A   1      43.372  28.924  35.050  1.00  0.00     0.029 A 
ATOM     33  C   UNL A   1      43.163  28.417  33.775  1.00  0.00     0.049 A 
ATOM     34  H   UNL A   1      41.730  28.999  32.343  1.00  0.00     0.167 HD
ATOM     35  C   UNL A   1      43.641  26.933  31.836  1.00  0.00     0.074 A 
ATOM     36  C   UNL A   1      44.298  25.795  31.226  1.00  0.00     0.031 C 
ATOM     37  C   UNL A   1      43.866  27.352  33.106  1.00  0.00     0.037 A 
BRANCH  24  38
ATOM     38  C   UNL A   1      39.943  31.719  35.087  1.00  0.00     0.064 A 
ATOM     39  C   UNL A   1      38.968  31.337  36.023  1.00  0.00     0.173 A 
ATOM     40  C   UNL A   1      40.374  33.052  35.088  1.00  0.00     0.173 A 
ATOM     41  F   UNL A   1      38.491  30.083  36.027  1.00  0.00    -0.203 F 
ATOM     42  C   UNL A   1      38.398  32.273  36.882  1.00  0.00     0.198 A 
ATOM     43  C   UNL A   1      39.826  33.977  35.973  1.00  0.00     0.198 A 
ATOM     44  F   UNL A   1      41.289  33.468  34.202  1.00  0.00    -0.203 F 
ATOM     45  F   UNL A   1      37.395  31.910  37.692  1.00  0.00    -0.200 F 
ATOM     46  C   UNL A   1      38.828  33.591  36.855  1.00  0.00     0.200 A 
ATOM     47  F   UNL A   1      40.238  35.251  35.944  1.00  0.00    -0.200 F 
ATOM     48  F   UNL A   1      38.257  34.497  37.661  1.00  0.00    -0.200 F 
ENDBRANCH  24  38
BRANCH  25  49
ATOM     49  C   UNL A   1      42.303  25.661  27.516  1.00  0.00     0.064 A 
ATOM     50  C   UNL A   1      41.393  24.588  27.646  1.00  0.00     0.173 A 
ATOM     51  C   UNL A   1      43.241  25.556  26.481  1.00  0.00     0.173 A 
ATOM     52  F   UNL A   1      40.468  24.611  28.617  1.00  0.00    -0.203 F 
ATOM     53  C   UNL A   1      41.444  23.463  26.819  1.00  0.00     0.198 A 
ATOM     54  C   UNL A   1      43.265  24.447  25.624  1.00  0.00     0.198 A 
ATOM     55  F   UNL A   1      44.140  26.531  26.289  1.00  0.00    -0.203 F 
ATOM     56  F   UNL A   1      40.602  22.440  27.024  1.00  0.00    -0.200 F 
ATOM     57  C   UNL A   1      42.378  23.397  25.802  1.00  0.00     0.200 A 
ATOM     58  F   UNL A   1      44.158  24.395  24.625  1.00  0.00    -0.200 F 
ATOM     59  F   UNL A   1      42.428  22.322  25.001  1.00  0.00    -0.200 F 
ENDBRANCH  25  49
BRANCH  37  60
ATOM     60  C   UNL A   1      44.914  26.624  33.889  1.00  0.00     0.064 A 
ATOM     61  C   UNL A   1      46.244  27.069  33.917  1.00  0.00     0.173 A 
ATOM     62  C   UNL A   1      44.570  25.517  34.678  1.00  0.00     0.173 A 
ATOM     63  F   UNL A   1      46.622  28.115  33.167  1.00  0.00    -0.203 F 
ATOM     64  C   UNL A   1      47.195  26.422  34.698  1.00  0.00     0.198 A 
ATOM     65  C   UNL A   1      45.516  24.895  35.484  1.00  0.00     0.198 A 
ATOM     66  F   UNL A   1      43.310  25.055  34.682  1.00  0.00    -0.203 F 
ATOM     67  F   UNL A   1      48.469  26.837  34.679  1.00  0.00    -0.200 F 
ATOM     68  C   UNL A   1      46.828  25.345  35.490  1.00  0.00     0.200 A 
ATOM     69  F   UNL A   1      45.155  23.865  36.262  1.00  0.00    -0.200 F 
ATOM     70  F   UNL A   1      47.742  24.736  36.258  1.00  0.00    -0.200 F 
ENDBRANCH  37  60
ENDBRANCH  11  12
ENDBRANCH   4   6
ENDBRANCH   3   4
ENDBRANCH   2   3
ENDBRANCH   1   2
BRANCH   1  71
ATOM     71  O   UNL A   1      31.429  28.814  24.140  1.00  0.00    -0.460 OA
BRANCH  71  72
ATOM     72  C   UNL A   1      31.122  27.525  23.793  1.00  0.00     0.335 C 
ATOM     73  O   UNL A   1      30.479  26.748  24.475  1.00  0.00    -0.249 OA
BRANCH  72  74
ATOM     74  C   UNL A   1      31.641  27.190  22.378  1.00  0.00     0.228 C 
ATOM     75  C   UNL A   1      33.111  27.521  22.316  1.00  0.00     0.047 C 
ATOM     76  O   UNL A   1      31.511  25.792  22.008  1.00  0.00    -0.361 OA
ATOM     77  C   UNL A   1      33.651  26.197  22.761  1.00  0.00     0.037 C 
ATOM     78  C   UNL A   1      32.819  25.148  22.053  1.00  0.00     0.138 C 
BRANCH  78  79
ATOM     79  C   UNL A   1      32.725  23.719  22.733  1.00  0.00     0.145 C 
BRANCH  79  80
ATOM     80  N   UNL A   1      33.731  23.454  23.786  1.00  0.00    -0.382 N 
ATOM     81  H   UNL A   1      33.801  24.185  24.441  1.00  0.00     0.160 HD
BRANCH  80  82
ATOM     82  C   UNL A   1      34.599  22.401  24.054  1.00  0.00     0.046 A 
ATOM     83  C   UNL A   1      35.975  22.697  23.927  1.00  0.00     0.026 A 
ATOM     84  C   UNL A   1      34.352  21.095  24.488  1.00  0.00     0.079 A 
ATOM     85  C   UNL A   1      37.029  21.900  24.397  1.00  0.00     0.002 A 
ATOM     86  C   UNL A   1      35.425  20.285  25.002  1.00  0.00     0.015 A 
ATOM     87  C   UNL A   1      36.748  20.700  24.997  1.00  0.00     0.001 A 
BRANCH  84  88
ATOM     88  C   UNL A   1      33.049  20.357  24.379  1.00  0.00     0.418 C 
ATOM     89  F   UNL A   1      32.104  20.891  25.213  1.00  0.00    -0.166 F 
ATOM     90  F   UNL A   1      32.513  20.444  23.127  1.00  0.00    -0.166 F 
ATOM     91  F   UNL A   1      33.071  19.035  24.682  1.00  0.00    -0.166 F 
ENDBRANCH  84  88
ENDBRANCH  80  82
ENDBRANCH  79  80
ENDBRANCH  78  79
ENDBRANCH  72  74
ENDBRANCH  71  72
ENDBRANCH   1  71
TORSDOF 15
ENDMDL
