MODEL 1
REMARK VINA RESULT:     -12.8      0.000      0.000
REMARK SMILES COc1ccc(Cl)c2c1N[C@@H](c1ccc(C(=O)OCCOC(=O)c3ccc(-c4c5nc(c(-c6c(F)c(F)c(F)c(F)c6F)c6ccc([nH]6)c(-c6c(F)c(F)c(F)c(F)c6F)c6nc(c(-c7c(F)c(F)c(F)c(F)c7F)c7ccc4[nH]7)C=C6)C=C5)cc3)cc1)[C@@H]1CC=C[C@H]21
REMARK SMILES IDX 19 1 18 2 16 3 17 4 15 5 12 6 13 7 88 8 14 9 87 10 11 11
REMARK SMILES IDX 3 12 4 13 9 14 5 15 8 16 10 17 6 18 93 19 7 21 89 22 92 23
REMARK SMILES IDX 90 24 91 25 2 26 1 27 20 28 21 29 22 30 23 31 24 32 25 33
REMARK SMILES IDX 86 34 26 35 85 36 27 37 28 38 29 39 79 40 30 41 84 42 78 43
REMARK SMILES IDX 80 44 31 45 83 46 77 47 76 48 32 50 64 51 44 52 63 53 45 54
REMARK SMILES IDX 48 55 62 56 81 57 46 58 47 59 61 61 82 62 49 63 33 64 34 65
REMARK SMILES IDX 42 66 35 67 36 68 40 69 43 70 37 71 38 72 41 73 39 74 65 75
REMARK SMILES IDX 66 76 74 77 67 78 68 79 72 80 75 81 69 82 70 83 73 84 71 85
REMARK SMILES IDX 50 86 51 87 59 88 52 89 53 90 57 91 60 92 54 93 55 94 58 95
REMARK SMILES IDX 56 96
REMARK H PARENT 10 20 80 49 48 60
REMARK Flexibility Score: inf
ROOT
ATOM      1  C   UNL A   1      31.269  30.098  24.812  1.00  0.00     0.275 C 
ENDROOT
BRANCH   1   2
ATOM      2  O   UNL A   1      31.345  28.717  24.410  1.00  0.00    -0.458 OA
BRANCH   2   3
ATOM      3  C   UNL A   1      32.328  28.419  23.524  1.00  0.00     0.338 C 
ATOM      4  O   UNL A   1      32.656  29.085  22.560  1.00  0.00    -0.246 OA
BRANCH   3   5
ATOM      5  C   UNL A   1      33.061  27.193  23.937  1.00  0.00     0.060 A 
ATOM      6  C   UNL A   1      34.427  24.909  24.858  1.00  0.00    -0.025 A 
ATOM      7  C   UNL A   1      33.971  25.882  25.761  1.00  0.00     0.007 A 
ATOM      8  C   UNL A   1      34.169  25.088  23.488  1.00  0.00     0.007 A 
ATOM      9  C   UNL A   1      33.307  27.016  25.305  1.00  0.00     0.016 A 
ATOM     10  C   UNL A   1      33.492  26.223  23.028  1.00  0.00     0.016 A 
BRANCH   6  11
ATOM     11  C   UNL A   1      35.257  23.728  25.347  1.00  0.00     0.114 C 
ATOM     12  C   UNL A   1      38.804  23.747  26.550  1.00  0.00     0.142 A 
ATOM     13  C   UNL A   1      39.900  22.902  26.714  1.00  0.00     0.050 A 
ATOM     14  C   UNL A   1      37.627  23.312  25.906  1.00  0.00     0.083 A 
ATOM     15  C   UNL A   1      39.826  21.591  26.261  1.00  0.00     0.025 A 
ATOM     16  C   UNL A   1      37.555  21.986  25.436  1.00  0.00     0.005 A 
ATOM     17  N   UNL A   1      36.583  24.199  25.694  1.00  0.00    -0.375 N 
ATOM     18  C   UNL A   1      38.666  21.135  25.626  1.00  0.00     0.047 A 
ATOM     19  C   UNL A   1      36.344  21.530  24.657  1.00  0.00     0.051 C 
ATOM     20  H   UNL A   1      36.745  25.166  25.782  1.00  0.00     0.161 HD
ATOM     21  Cl  UNL A   1      38.690  19.505  25.040  1.00  0.00    -0.084 Cl
ATOM     22  C   UNL A   1      35.354  22.644  24.253  1.00  0.00     0.031 C 
ATOM     23  C   UNL A   1      35.432  20.565  25.368  1.00  0.00    -0.023 C 
ATOM     24  C   UNL A   1      34.022  21.895  24.060  1.00  0.00     0.034 C 
ATOM     25  C   UNL A   1      34.154  20.755  25.018  1.00  0.00    -0.030 C 
BRANCH  12  26
ATOM     26  O   UNL A   1      38.955  25.050  26.959  1.00  0.00    -0.495 OA
ATOM     27  C   UNL A   1      38.971  25.151  28.384  1.00  0.00     0.278 C 
ENDBRANCH  12  26
ENDBRANCH   6  11
ENDBRANCH   3   5
ENDBRANCH   2   3
ENDBRANCH   1   2
BRANCH   1  28
ATOM     28  C   UNL A   1      31.662  30.236  26.282  1.00  0.00     0.275 C 
BRANCH  28  29
ATOM     29  O   UNL A   1      33.090  30.394  26.396  1.00  0.00    -0.458 OA
BRANCH  29  30
ATOM     30  C   UNL A   1      33.509  31.428  27.155  1.00  0.00     0.338 C 
ATOM     31  O   UNL A   1      32.930  32.480  27.380  1.00  0.00    -0.246 OA
BRANCH  30  32
ATOM     32  C   UNL A   1      34.829  31.115  27.720  1.00  0.00     0.060 A 
ATOM     33  C   UNL A   1      35.120  29.803  28.093  1.00  0.00     0.016 A 
ATOM     34  C   UNL A   1      35.729  32.143  27.999  1.00  0.00     0.016 A 
ATOM     35  C   UNL A   1      36.280  29.521  28.811  1.00  0.00     0.010 A 
ATOM     36  C   UNL A   1      36.927  31.849  28.658  1.00  0.00     0.010 A 
ATOM     37  C   UNL A   1      37.195  30.541  29.104  1.00  0.00    -0.014 A 
BRANCH  37  38
ATOM     38  C   UNL A   1      38.400  30.253  29.928  1.00  0.00     0.031 A 
ATOM     39  C   UNL A   1      39.523  29.432  29.356  1.00  0.00     0.074 A 
ATOM     40  C   UNL A   1      38.505  30.750  31.174  1.00  0.00     0.049 A 
ATOM     41  N   UNL A   1      40.607  28.986  29.940  1.00  0.00    -0.248 NA
ATOM     42  C   UNL A   1      39.410  29.058  27.937  1.00  0.00     0.031 C 
ATOM     43  C   UNL A   1      37.515  31.606  31.828  1.00  0.00     0.029 A 
ATOM     44  N   UNL A   1      39.498  30.611  32.113  1.00  0.00    -0.354 N 
ATOM     45  C   UNL A   1      41.289  28.262  28.972  1.00  0.00     0.074 A 
ATOM     46  C   UNL A   1      40.489  28.306  27.768  1.00  0.00     0.031 C 
ATOM     47  C   UNL A   1      37.961  31.937  33.049  1.00  0.00     0.029 A 
ATOM     48  C   UNL A   1      39.236  31.266  33.291  1.00  0.00     0.049 A 
ATOM     49  H   UNL A   1      40.320  30.092  31.956  1.00  0.00     0.167 HD
ATOM     50  C   UNL A   1      42.482  27.628  29.076  1.00  0.00     0.037 A 
ATOM     51  C   UNL A   1      39.927  31.298  34.447  1.00  0.00     0.037 A 
ATOM     52  C   UNL A   1      43.293  27.612  30.264  1.00  0.00     0.049 A 
ATOM     53  C   UNL A   1      41.210  30.522  34.563  1.00  0.00     0.074 A 
ATOM     54  C   UNL A   1      44.524  27.008  30.460  1.00  0.00     0.029 A 
ATOM     55  N   UNL A   1      42.959  28.234  31.458  1.00  0.00    -0.354 N 
ATOM     56  N   UNL A   1      41.832  29.815  33.652  1.00  0.00    -0.248 NA
ATOM     57  C   UNL A   1      41.877  30.534  35.873  1.00  0.00     0.031 C 
ATOM     58  C   UNL A   1      44.913  27.228  31.784  1.00  0.00     0.029 A 
ATOM     59  C   UNL A   1      43.948  28.006  32.402  1.00  0.00     0.049 A 
ATOM     60  H   UNL A   1      42.141  28.759  31.612  1.00  0.00     0.167 HD
ATOM     61  C   UNL A   1      42.965  29.305  34.272  1.00  0.00     0.074 A 
ATOM     62  C   UNL A   1      42.956  29.799  35.633  1.00  0.00     0.031 C 
ATOM     63  C   UNL A   1      43.923  28.497  33.756  1.00  0.00     0.037 A 
BRANCH  50  64
ATOM     64  C   UNL A   1      42.977  26.876  27.876  1.00  0.00     0.064 A 
ATOM     65  C   UNL A   1      43.660  27.518  26.833  1.00  0.00     0.173 A 
ATOM     66  C   UNL A   1      42.809  25.485  27.794  1.00  0.00     0.173 A 
ATOM     67  F   UNL A   1      43.834  28.848  26.857  1.00  0.00    -0.203 F 
ATOM     68  C   UNL A   1      44.140  26.798  25.741  1.00  0.00     0.198 A 
ATOM     69  C   UNL A   1      43.312  24.764  26.714  1.00  0.00     0.198 A 
ATOM     70  F   UNL A   1      42.166  24.823  28.767  1.00  0.00    -0.203 F 
ATOM     71  F   UNL A   1      44.755  27.437  24.737  1.00  0.00    -0.200 F 
ATOM     72  C   UNL A   1      43.972  25.422  25.687  1.00  0.00     0.200 A 
ATOM     73  F   UNL A   1      43.160  23.434  26.668  1.00  0.00    -0.200 F 
ATOM     74  F   UNL A   1      44.443  24.729  24.641  1.00  0.00    -0.200 F 
ENDBRANCH  50  64
BRANCH  51  75
ATOM     75  C   UNL A   1      39.402  32.085  35.592  1.00  0.00     0.064 A 
ATOM     76  C   UNL A   1      38.517  31.511  36.514  1.00  0.00     0.173 A 
ATOM     77  C   UNL A   1      39.797  33.414  35.805  1.00  0.00     0.173 A 
ATOM     78  F   UNL A   1      38.089  30.252  36.337  1.00  0.00    -0.203 F 
ATOM     79  C   UNL A   1      38.050  32.235  37.609  1.00  0.00     0.198 A 
ATOM     80  C   UNL A   1      39.351  34.129  36.913  1.00  0.00     0.198 A 
ATOM     81  F   UNL A   1      40.640  34.010  34.948  1.00  0.00    -0.203 F 
ATOM     82  F   UNL A   1      37.185  31.673  38.463  1.00  0.00    -0.200 F 
ATOM     83  C   UNL A   1      38.476  33.540  37.814  1.00  0.00     0.200 A 
ATOM     84  F   UNL A   1      39.775  35.384  37.114  1.00  0.00    -0.200 F 
ATOM     85  F   UNL A   1      38.040  34.231  38.875  1.00  0.00    -0.200 F 
ENDBRANCH  51  75
BRANCH  63  86
ATOM     86  C   UNL A   1      45.050  28.092  34.659  1.00  0.00     0.064 A 
ATOM     87  C   UNL A   1      44.998  26.901  35.398  1.00  0.00     0.173 A 
ATOM     88  C   UNL A   1      46.222  28.860  34.727  1.00  0.00     0.173 A 
ATOM     89  F   UNL A   1      43.894  26.141  35.376  1.00  0.00    -0.203 F 
ATOM     90  C   UNL A   1      46.079  26.497  36.178  1.00  0.00     0.198 A 
ATOM     91  C   UNL A   1      47.309  28.441  35.488  1.00  0.00     0.198 A 
ATOM     92  F   UNL A   1      46.323  30.004  34.034  1.00  0.00    -0.203 F 
ATOM     93  F   UNL A   1      46.000  25.369  36.897  1.00  0.00    -0.200 F 
ATOM     94  C   UNL A   1      47.236  27.261  36.214  1.00  0.00     0.200 A 
ATOM     95  F   UNL A   1      48.432  29.173  35.512  1.00  0.00    -0.200 F 
ATOM     96  F   UNL A   1      48.281  26.861  36.952  1.00  0.00    -0.200 F 
ENDBRANCH  63  86
ENDBRANCH  37  38
ENDBRANCH  30  32
ENDBRANCH  29  30
ENDBRANCH  28  29
ENDBRANCH   1  28
TORSDOF 13
ENDMDL
MODEL 2
REMARK VINA RESULT:     -12.8      4.191      9.826
REMARK SMILES COc1ccc(Cl)c2c1N[C@@H](c1ccc(C(=O)OCCOC(=O)c3ccc(-c4c5nc(c(-c6c(F)c(F)c(F)c(F)c6F)c6ccc([nH]6)c(-c6c(F)c(F)c(F)c(F)c6F)c6nc(c(-c7c(F)c(F)c(F)c(F)c7F)c7ccc4[nH]7)C=C6)C=C5)cc3)cc1)[C@@H]1CC=C[C@H]21
REMARK SMILES IDX 19 1 18 2 16 3 17 4 15 5 12 6 13 7 88 8 14 9 87 10 11 11
REMARK SMILES IDX 3 12 4 13 9 14 5 15 8 16 10 17 6 18 93 19 7 21 89 22 92 23
REMARK SMILES IDX 90 24 91 25 2 26 1 27 20 28 21 29 22 30 23 31 24 32 25 33
REMARK SMILES IDX 86 34 26 35 85 36 27 37 28 38 29 39 79 40 30 41 84 42 78 43
REMARK SMILES IDX 80 44 31 45 83 46 77 47 76 48 32 50 64 51 44 52 63 53 45 54
REMARK SMILES IDX 48 55 62 56 81 57 46 58 47 59 61 61 82 62 49 63 33 64 34 65
REMARK SMILES IDX 42 66 35 67 36 68 40 69 43 70 37 71 38 72 41 73 39 74 65 75
REMARK SMILES IDX 66 76 74 77 67 78 68 79 72 80 75 81 69 82 70 83 73 84 71 85
REMARK SMILES IDX 50 86 51 87 59 88 52 89 53 90 57 91 60 92 54 93 55 94 58 95
REMARK SMILES IDX 56 96
REMARK H PARENT 10 20 80 49 48 60
REMARK Flexibility Score: inf
ROOT
ATOM      1  C   UNL A   1      35.897  20.196  24.992  1.00  0.00     0.275 C 
ENDROOT
BRANCH   1   2
ATOM      2  O   UNL A   1      34.668  20.894  24.714  1.00  0.00    -0.458 OA
BRANCH   2   3
ATOM      3  C   UNL A   1      34.026  21.402  25.795  1.00  0.00     0.338 C 
ATOM      4  O   UNL A   1      33.656  20.778  26.773  1.00  0.00    -0.246 OA
BRANCH   3   5
ATOM      5  C   UNL A   1      33.914  22.881  25.699  1.00  0.00     0.060 A 
ATOM      6  C   UNL A   1      33.609  25.680  25.630  1.00  0.00    -0.025 A 
ATOM      7  C   UNL A   1      32.849  24.900  26.515  1.00  0.00     0.007 A 
ATOM      8  C   UNL A   1      34.539  25.038  24.795  1.00  0.00     0.007 A 
ATOM      9  C   UNL A   1      32.991  23.516  26.541  1.00  0.00     0.016 A 
ATOM     10  C   UNL A   1      34.692  23.647  24.826  1.00  0.00     0.016 A 
BRANCH   6  11
ATOM     11  C   UNL A   1      33.368  27.181  25.518  1.00  0.00     0.114 C 
ATOM     12  C   UNL A   1      34.860  29.915  27.599  1.00  0.00     0.142 A 
ATOM     13  C   UNL A   1      34.627  31.231  27.992  1.00  0.00     0.050 A 
ATOM     14  C   UNL A   1      33.909  29.187  26.853  1.00  0.00     0.083 A 
ATOM     15  C   UNL A   1      33.444  31.856  27.618  1.00  0.00     0.025 A 
ATOM     16  C   UNL A   1      32.704  29.817  26.484  1.00  0.00     0.005 A 
ATOM     17  N   UNL A   1      34.141  27.857  26.541  1.00  0.00    -0.375 N 
ATOM     18  C   UNL A   1      32.489  31.157  26.874  1.00  0.00     0.047 A 
ATOM     19  C   UNL A   1      31.632  29.027  25.772  1.00  0.00     0.051 C 
ATOM     20  H   UNL A   1      34.844  27.364  27.022  1.00  0.00     0.161 HD
ATOM     21  Cl  UNL A   1      31.020  31.999  26.508  1.00  0.00    -0.084 Cl
ATOM     22  C   UNL A   1      31.869  27.503  25.693  1.00  0.00     0.031 C 
ATOM     23  C   UNL A   1      31.417  29.371  24.322  1.00  0.00    -0.023 C 
ATOM     24  C   UNL A   1      31.037  27.069  24.471  1.00  0.00     0.034 C 
ATOM     25  C   UNL A   1      31.067  28.291  23.612  1.00  0.00    -0.030 C 
BRANCH  12  26
ATOM     26  O   UNL A   1      36.017  29.326  28.048  1.00  0.00    -0.495 OA
ATOM     27  C   UNL A   1      37.159  29.806  27.336  1.00  0.00     0.278 C 
ENDBRANCH  12  26
ENDBRANCH   6  11
ENDBRANCH   3   5
ENDBRANCH   2   3
ENDBRANCH   1   2
BRANCH   1  28
ATOM     28  C   UNL A   1      37.091  21.076  24.627  1.00  0.00     0.275 C 
BRANCH  28  29
ATOM     29  O   UNL A   1      37.568  21.765  25.800  1.00  0.00    -0.458 OA
BRANCH  29  30
ATOM     30  C   UNL A   1      38.866  21.564  26.113  1.00  0.00     0.338 C 
ATOM     31  O   UNL A   1      39.521  20.540  25.987  1.00  0.00    -0.246 OA
BRANCH  30  32
ATOM     32  C   UNL A   1      39.436  22.807  26.653  1.00  0.00     0.060 A 
ATOM     33  C   UNL A   1      38.995  24.033  26.158  1.00  0.00     0.016 A 
ATOM     34  C   UNL A   1      40.497  22.751  27.556  1.00  0.00     0.016 A 
ATOM     35  C   UNL A   1      39.657  25.208  26.507  1.00  0.00     0.010 A 
ATOM     36  C   UNL A   1      41.118  23.937  27.960  1.00  0.00     0.010 A 
ATOM     37  C   UNL A   1      40.729  25.172  27.410  1.00  0.00    -0.014 A 
BRANCH  37  38
ATOM     38  C   UNL A   1      41.480  26.416  27.731  1.00  0.00     0.031 A 
ATOM     39  C   UNL A   1      40.838  27.487  28.570  1.00  0.00     0.074 A 
ATOM     40  C   UNL A   1      42.744  26.576  27.300  1.00  0.00     0.049 A 
ATOM     41  N   UNL A   1      41.281  28.680  28.876  1.00  0.00    -0.248 NA
ATOM     42  C   UNL A   1      39.516  27.175  29.138  1.00  0.00     0.031 C 
ATOM     43  C   UNL A   1      43.504  25.593  26.526  1.00  0.00     0.029 A 
ATOM     44  N   UNL A   1      43.618  27.624  27.456  1.00  0.00    -0.354 N 
ATOM     45  C   UNL A   1      40.288  29.268  29.647  1.00  0.00     0.074 A 
ATOM     46  C   UNL A   1      39.206  28.312  29.745  1.00  0.00     0.031 C 
ATOM     47  C   UNL A   1      44.736  26.073  26.299  1.00  0.00     0.029 A 
ATOM     48  C   UNL A   1      44.834  27.421  26.852  1.00  0.00     0.049 A 
ATOM     49  H   UNL A   1      43.394  28.443  27.955  1.00  0.00     0.167 HD
ATOM     50  C   UNL A   1      40.284  30.491  30.230  1.00  0.00     0.037 A 
ATOM     51  C   UNL A   1      45.898  28.239  26.728  1.00  0.00     0.037 A 
ATOM     52  C   UNL A   1      41.374  31.428  30.160  1.00  0.00     0.049 A 
ATOM     53  C   UNL A   1      45.840  29.621  27.318  1.00  0.00     0.074 A 
ATOM     54  C   UNL A   1      41.467  32.686  30.732  1.00  0.00     0.029 A 
ATOM     55  N   UNL A   1      42.563  31.209  29.481  1.00  0.00    -0.354 N 
ATOM     56  N   UNL A   1      44.884  30.180  28.019  1.00  0.00    -0.248 NA
ATOM     57  C   UNL A   1      47.001  30.492  27.084  1.00  0.00     0.031 C 
ATOM     58  C   UNL A   1      42.695  33.244  30.362  1.00  0.00     0.029 A 
ATOM     59  C   UNL A   1      43.385  32.318  29.598  1.00  0.00     0.049 A 
ATOM     60  H   UNL A   1      42.790  30.387  28.989  1.00  0.00     0.167 HD
ATOM     61  C   UNL A   1      45.329  31.461  28.318  1.00  0.00     0.074 A 
ATOM     62  C   UNL A   1      46.648  31.592  27.737  1.00  0.00     0.031 C 
ATOM     63  C   UNL A   1      44.695  32.440  29.009  1.00  0.00     0.037 A 
BRANCH  50  64
ATOM     64  C   UNL A   1      39.053  30.899  30.983  1.00  0.00     0.064 A 
ATOM     65  C   UNL A   1      38.841  30.518  32.316  1.00  0.00     0.173 A 
ATOM     66  C   UNL A   1      38.095  31.726  30.376  1.00  0.00     0.173 A 
ATOM     67  F   UNL A   1      39.720  29.717  32.937  1.00  0.00    -0.203 F 
ATOM     68  C   UNL A   1      37.705  30.933  33.008  1.00  0.00     0.198 A 
ATOM     69  C   UNL A   1      36.974  32.161  31.078  1.00  0.00     0.198 A 
ATOM     70  F   UNL A   1      38.251  32.122  29.104  1.00  0.00    -0.203 F 
ATOM     71  F   UNL A   1      37.504  30.524  34.268  1.00  0.00    -0.200 F 
ATOM     72  C   UNL A   1      36.778  31.759  32.391  1.00  0.00     0.200 A 
ATOM     73  F   UNL A   1      36.084  32.968  30.485  1.00  0.00    -0.200 F 
ATOM     74  F   UNL A   1      35.691  32.166  33.062  1.00  0.00    -0.200 F 
ENDBRANCH  50  64
BRANCH  51  75
ATOM     75  C   UNL A   1      47.102  27.768  25.998  1.00  0.00     0.064 A 
ATOM     76  C   UNL A   1      48.209  27.260  26.688  1.00  0.00     0.173 A 
ATOM     77  C   UNL A   1      47.157  27.785  24.596  1.00  0.00     0.173 A 
ATOM     78  F   UNL A   1      48.215  27.247  28.029  1.00  0.00    -0.203 F 
ATOM     79  C   UNL A   1      49.327  26.784  26.004  1.00  0.00     0.198 A 
ATOM     80  C   UNL A   1      48.262  27.287  23.912  1.00  0.00     0.198 A 
ATOM     81  F   UNL A   1      46.122  28.266  23.889  1.00  0.00    -0.203 F 
ATOM     82  F   UNL A   1      50.384  26.327  26.687  1.00  0.00    -0.200 F 
ATOM     83  C   UNL A   1      49.347  26.788  24.617  1.00  0.00     0.200 A 
ATOM     84  F   UNL A   1      48.272  27.280  22.573  1.00  0.00    -0.200 F 
ATOM     85  F   UNL A   1      50.414  26.315  23.958  1.00  0.00    -0.200 F 
ENDBRANCH  51  75
BRANCH  63  86
ATOM     86  C   UNL A   1      45.414  33.744  29.183  1.00  0.00     0.064 A 
ATOM     87  C   UNL A   1      45.233  34.801  28.280  1.00  0.00     0.173 A 
ATOM     88  C   UNL A   1      46.227  33.966  30.304  1.00  0.00     0.173 A 
ATOM     89  F   UNL A   1      44.476  34.632  27.185  1.00  0.00    -0.203 F 
ATOM     90  C   UNL A   1      45.849  36.033  28.489  1.00  0.00     0.198 A 
ATOM     91  C   UNL A   1      46.820  35.206  30.523  1.00  0.00     0.198 A 
ATOM     92  F   UNL A   1      46.425  32.988  31.201  1.00  0.00    -0.203 F 
ATOM     93  F   UNL A   1      45.684  37.022  27.600  1.00  0.00    -0.200 F 
ATOM     94  C   UNL A   1      46.632  36.237  29.615  1.00  0.00     0.200 A 
ATOM     95  F   UNL A   1      47.567  35.406  31.618  1.00  0.00    -0.200 F 
ATOM     96  F   UNL A   1      47.209  37.428  29.823  1.00  0.00    -0.200 F 
ENDBRANCH  63  86
ENDBRANCH  37  38
ENDBRANCH  30  32
ENDBRANCH  29  30
ENDBRANCH  28  29
ENDBRANCH   1  28
TORSDOF 13
ENDMDL
MODEL 3
REMARK VINA RESULT:     -12.7      3.750      8.401
REMARK SMILES COc1ccc(Cl)c2c1N[C@@H](c1ccc(C(=O)OCCOC(=O)c3ccc(-c4c5nc(c(-c6c(F)c(F)c(F)c(F)c6F)c6ccc([nH]6)c(-c6c(F)c(F)c(F)c(F)c6F)c6nc(c(-c7c(F)c(F)c(F)c(F)c7F)c7ccc4[nH]7)C=C6)C=C5)cc3)cc1)[C@@H]1CC=C[C@H]21
REMARK SMILES IDX 19 1 18 2 16 3 17 4 15 5 12 6 13 7 88 8 14 9 87 10 11 11
REMARK SMILES IDX 3 12 4 13 9 14 5 15 8 16 10 17 6 18 93 19 7 21 89 22 92 23
REMARK SMILES IDX 90 24 91 25 2 26 1 27 20 28 21 29 22 30 23 31 24 32 25 33
REMARK SMILES IDX 86 34 26 35 85 36 27 37 28 38 29 39 79 40 30 41 84 42 78 43
REMARK SMILES IDX 80 44 31 45 83 46 77 47 76 48 32 50 64 51 44 52 63 53 45 54
REMARK SMILES IDX 48 55 62 56 81 57 46 58 47 59 61 61 82 62 49 63 33 64 34 65
REMARK SMILES IDX 42 66 35 67 36 68 40 69 43 70 37 71 38 72 41 73 39 74 65 75
REMARK SMILES IDX 66 76 74 77 67 78 68 79 72 80 75 81 69 82 70 83 73 84 71 85
REMARK SMILES IDX 50 86 51 87 59 88 52 89 53 90 57 91 60 92 54 93 55 94 58 95
REMARK SMILES IDX 56 96
REMARK H PARENT 10 20 80 49 48 60
REMARK Flexibility Score: inf
ROOT
ATOM      1  C   UNL A   1      43.857  21.363  25.773  1.00  0.00     0.275 C 
ENDROOT
BRANCH   1   2
ATOM      2  O   UNL A   1      42.974  20.271  25.455  1.00  0.00    -0.458 OA
BRANCH   2   3
ATOM      3  C   UNL A   1      42.171  19.854  26.465  1.00  0.00     0.338 C 
ATOM      4  O   UNL A   1      42.533  19.370  27.522  1.00  0.00    -0.246 OA
BRANCH   3   5
ATOM      5  C   UNL A   1      40.746  20.163  26.173  1.00  0.00     0.060 A 
ATOM      6  C   UNL A   1      38.074  20.886  25.654  1.00  0.00    -0.025 A 
ATOM      7  C   UNL A   1      38.977  21.820  26.183  1.00  0.00     0.007 A 
ATOM      8  C   UNL A   1      38.536  19.590  25.369  1.00  0.00     0.007 A 
ATOM      9  C   UNL A   1      40.295  21.459  26.451  1.00  0.00     0.016 A 
ATOM     10  C   UNL A   1      39.862  19.227  25.627  1.00  0.00     0.016 A 
BRANCH   6  11
ATOM     11  C   UNL A   1      36.605  21.247  25.473  1.00  0.00     0.114 C 
ATOM     12  C   UNL A   1      33.767  18.974  24.574  1.00  0.00     0.142 A 
ATOM     13  C   UNL A   1      32.489  18.999  24.020  1.00  0.00     0.050 A 
ATOM     14  C   UNL A   1      34.576  20.129  24.616  1.00  0.00     0.083 A 
ATOM     15  C   UNL A   1      31.982  20.194  23.523  1.00  0.00     0.025 A 
ATOM     16  C   UNL A   1      34.067  21.338  24.102  1.00  0.00     0.005 A 
ATOM     17  N   UNL A   1      35.869  20.053  25.107  1.00  0.00    -0.375 N 
ATOM     18  C   UNL A   1      32.763  21.353  23.561  1.00  0.00     0.047 A 
ATOM     19  C   UNL A   1      34.952  22.561  24.048  1.00  0.00     0.051 C 
ATOM     20  H   UNL A   1      36.296  19.172  25.211  1.00  0.00     0.161 HD
ATOM     21  Cl  UNL A   1      32.072  22.779  22.863  1.00  0.00    -0.084 Cl
ATOM     22  C   UNL A   1      36.441  22.321  24.377  1.00  0.00     0.031 C 
ATOM     23  C   UNL A   1      34.607  23.664  25.015  1.00  0.00    -0.023 C 
ATOM     24  C   UNL A   1      36.939  23.703  24.841  1.00  0.00     0.034 C 
ATOM     25  C   UNL A   1      35.705  24.305  25.432  1.00  0.00    -0.030 C 
BRANCH  12  26
ATOM     26  O   UNL A   1      34.241  17.754  24.992  1.00  0.00    -0.495 OA
ATOM     27  C   UNL A   1      33.817  16.703  24.124  1.00  0.00     0.278 C 
ENDBRANCH  12  26
ENDBRANCH   6  11
ENDBRANCH   3   5
ENDBRANCH   2   3
ENDBRANCH   1   2
BRANCH   1  28
ATOM     28  C   UNL A   1      43.794  22.423  24.675  1.00  0.00     0.275 C 
BRANCH  28  29
ATOM     29  O   UNL A   1      43.006  23.544  25.120  1.00  0.00    -0.458 OA
BRANCH  29  30
ATOM     30  C   UNL A   1      43.662  24.719  25.228  1.00  0.00     0.338 C 
ATOM     31  O   UNL A   1      44.661  25.081  24.625  1.00  0.00    -0.246 OA
BRANCH  30  32
ATOM     32  C   UNL A   1      42.982  25.568  26.216  1.00  0.00     0.060 A 
ATOM     33  C   UNL A   1      43.324  26.916  26.311  1.00  0.00     0.016 A 
ATOM     34  C   UNL A   1      42.098  24.998  27.132  1.00  0.00     0.016 A 
ATOM     35  C   UNL A   1      42.842  27.687  27.366  1.00  0.00     0.010 A 
ATOM     36  C   UNL A   1      41.559  25.790  28.151  1.00  0.00     0.010 A 
ATOM     37  C   UNL A   1      41.956  27.132  28.300  1.00  0.00    -0.014 A 
BRANCH  37  38
ATOM     38  C   UNL A   1      41.494  27.935  29.464  1.00  0.00     0.031 A 
ATOM     39  C   UNL A   1      42.233  27.856  30.772  1.00  0.00     0.074 A 
ATOM     40  C   UNL A   1      40.435  28.756  29.346  1.00  0.00     0.049 A 
ATOM     41  N   UNL A   1      41.935  28.393  31.928  1.00  0.00    -0.248 NA
ATOM     42  C   UNL A   1      43.473  27.062  30.782  1.00  0.00     0.031 C 
ATOM     43  C   UNL A   1      39.664  28.969  28.121  1.00  0.00     0.029 A 
ATOM     44  N   UNL A   1      39.827  29.571  30.269  1.00  0.00    -0.354 N 
ATOM     45  C   UNL A   1      42.932  27.984  32.805  1.00  0.00     0.074 A 
ATOM     46  C   UNL A   1      43.832  27.134  32.056  1.00  0.00     0.031 C 
ATOM     47  C   UNL A   1      38.703  29.874  28.360  1.00  0.00     0.029 A 
ATOM     48  C   UNL A   1      38.747  30.257  29.769  1.00  0.00     0.049 A 
ATOM     49  H   UNL A   1      40.135  29.656  31.200  1.00  0.00     0.167 HD
ATOM     50  C   UNL A   1      43.087  28.299  34.113  1.00  0.00     0.037 A 
ATOM     51  C   UNL A   1      37.872  31.079  30.381  1.00  0.00     0.037 A 
ATOM     52  C   UNL A   1      42.210  29.171  34.849  1.00  0.00     0.049 A 
ATOM     53  C   UNL A   1      38.020  31.352  31.852  1.00  0.00     0.074 A 
ATOM     54  C   UNL A   1      42.295  29.561  36.175  1.00  0.00     0.029 A 
ATOM     55  N   UNL A   1      41.088  29.794  34.321  1.00  0.00    -0.354 N 
ATOM     56  N   UNL A   1      38.947  30.936  32.680  1.00  0.00    -0.248 NA
ATOM     57  C   UNL A   1      36.990  32.193  32.479  1.00  0.00     0.031 C 
ATOM     58  C   UNL A   1      41.202  30.385  36.460  1.00  0.00     0.029 A 
ATOM     59  C   UNL A   1      40.460  30.545  35.301  1.00  0.00     0.049 A 
ATOM     60  H   UNL A   1      40.785  29.715  33.388  1.00  0.00     0.167 HD
ATOM     61  C   UNL A   1      38.620  31.470  33.919  1.00  0.00     0.074 A 
ATOM     62  C   UNL A   1      37.418  32.255  33.733  1.00  0.00     0.031 C 
ATOM     63  C   UNL A   1      39.259  31.317  35.105  1.00  0.00     0.037 A 
BRANCH  50  64
ATOM     64  C   UNL A   1      44.241  27.681  34.845  1.00  0.00     0.064 A 
ATOM     65  C   UNL A   1      45.461  28.353  35.004  1.00  0.00     0.173 A 
ATOM     66  C   UNL A   1      44.104  26.417  35.440  1.00  0.00     0.173 A 
ATOM     67  F   UNL A   1      45.647  29.558  34.442  1.00  0.00    -0.203 F 
ATOM     68  C   UNL A   1      46.510  27.775  35.714  1.00  0.00     0.198 A 
ATOM     69  C   UNL A   1      45.146  25.853  36.172  1.00  0.00     0.198 A 
ATOM     70  F   UNL A   1      42.957  25.733  35.323  1.00  0.00    -0.203 F 
ATOM     71  F   UNL A   1      47.681  28.419  35.819  1.00  0.00    -0.200 F 
ATOM     72  C   UNL A   1      46.349  26.530  36.304  1.00  0.00     0.200 A 
ATOM     73  F   UNL A   1      44.985  24.655  36.751  1.00  0.00    -0.200 F 
ATOM     74  F   UNL A   1      47.356  25.979  36.995  1.00  0.00    -0.200 F 
ENDBRANCH  50  64
BRANCH  51  75
ATOM     75  C   UNL A   1      36.767  31.686  29.597  1.00  0.00     0.064 A 
ATOM     76  C   UNL A   1      35.686  30.912  29.158  1.00  0.00     0.173 A 
ATOM     77  C   UNL A   1      36.753  33.057  29.298  1.00  0.00     0.173 A 
ATOM     78  F   UNL A   1      35.667  29.592  29.396  1.00  0.00    -0.203 F 
ATOM     79  C   UNL A   1      34.630  31.486  28.452  1.00  0.00     0.198 A 
ATOM     80  C   UNL A   1      35.686  33.635  28.615  1.00  0.00     0.198 A 
ATOM     81  F   UNL A   1      37.769  33.840  29.693  1.00  0.00    -0.203 F 
ATOM     82  F   UNL A   1      33.620  30.720  28.020  1.00  0.00    -0.200 F 
ATOM     83  C   UNL A   1      34.626  32.848  28.191  1.00  0.00     0.200 A 
ATOM     84  F   UNL A   1      35.681  34.953  28.377  1.00  0.00    -0.200 F 
ATOM     85  F   UNL A   1      33.603  33.403  27.527  1.00  0.00    -0.200 F 
ENDBRANCH  51  75
BRANCH  63  86
ATOM     86  C   UNL A   1      38.681  32.013  36.300  1.00  0.00     0.064 A 
ATOM     87  C   UNL A   1      37.866  31.330  37.216  1.00  0.00     0.173 A 
ATOM     88  C   UNL A   1      39.007  33.349  36.577  1.00  0.00     0.173 A 
ATOM     89  F   UNL A   1      37.515  30.056  36.988  1.00  0.00    -0.203 F 
ATOM     90  C   UNL A   1      37.392  31.965  38.361  1.00  0.00     0.198 A 
ATOM     91  C   UNL A   1      38.552  33.972  37.735  1.00  0.00     0.198 A 
ATOM     92  F   UNL A   1      39.789  34.042  35.735  1.00  0.00    -0.203 F 
ATOM     93  F   UNL A   1      36.593  31.303  39.210  1.00  0.00    -0.200 F 
ATOM     94  C   UNL A   1      37.744  33.280  38.625  1.00  0.00     0.200 A 
ATOM     95  F   UNL A   1      38.903  35.239  37.995  1.00  0.00    -0.200 F 
ATOM     96  F   UNL A   1      37.301  33.883  39.737  1.00  0.00    -0.200 F 
ENDBRANCH  63  86
ENDBRANCH  37  38
ENDBRANCH  30  32
ENDBRANCH  29  30
ENDBRANCH  28  29
ENDBRANCH   1  28
TORSDOF 13
ENDMDL
