MODEL 1
REMARK VINA RESULT:     -13.2      0.000      0.000
REMARK SMILES O=C(OCCOC(=O)[C@H]1C=C[C@H](NS(=O)(=O)c2ccc(F)c(F)c2F)C1)c1ccc(-c2c3nc(c(-c4c(F)c(F)c(F)c(F)c4F)c4ccc([nH]4)c(-c4c(F)c(F)c(F)c(F)c4F)c4nc(c(-c5c(F)c(F)c(F)c(F)c5F)c5ccc2[nH]5)C=C4)C=C3)cc1
REMARK SMILES IDX 5 1 4 2 3 3 2 4 1 5 27 6 28 7 89 8 29 9 88 10 30 11 31 12
REMARK SMILES IDX 32 13 82 14 33 15 87 16 81 17 83 18 34 19 86 20 80 21 79 22
REMARK SMILES IDX 35 24 67 25 47 26 66 27 48 28 51 29 65 30 84 31 49 32 50 33
REMARK SMILES IDX 64 35 85 36 52 37 36 38 37 39 45 40 38 41 39 42 43 43 46 44
REMARK SMILES IDX 40 45 41 46 44 47 42 48 68 49 69 50 77 51 70 52 71 53 75 54
REMARK SMILES IDX 78 55 72 56 73 57 76 58 74 59 53 60 54 61 62 62 55 63 56 64
REMARK SMILES IDX 60 65 63 66 57 67 58 68 61 69 59 70 6 71 7 72 8 73 9 74
REMARK SMILES IDX 10 75 26 76 11 77 12 78 13 79 14 81 15 82 16 83 17 84 18 85
REMARK SMILES IDX 24 86 19 87 22 88 25 89 20 90 23 91 21 92
REMARK H PARENT 83 23 51 34 13 80
REMARK Flexibility Score: inf
ROOT
ATOM      1  C   UNL A   1      34.026  35.013  31.487  1.00  0.00     0.274 C 
ENDROOT
BRANCH   1   2
ATOM      2  C   UNL A   1      34.074  34.438  32.915  1.00  0.00     0.275 C 
BRANCH   2   3
ATOM      3  O   UNL A   1      34.477  33.067  32.958  1.00  0.00    -0.458 OA
BRANCH   3   4
ATOM      4  C   UNL A   1      35.694  32.568  33.269  1.00  0.00     0.338 C 
ATOM      5  O   UNL A   1      36.159  32.851  34.373  1.00  0.00    -0.246 OA
BRANCH   4   6
ATOM      6  C   UNL A   1      36.548  31.724  32.351  1.00  0.00     0.060 A 
ATOM      7  C   UNL A   1      36.620  31.777  30.956  1.00  0.00     0.016 A 
ATOM      8  C   UNL A   1      37.469  30.878  32.990  1.00  0.00     0.016 A 
ATOM      9  C   UNL A   1      37.598  31.075  30.234  1.00  0.00     0.010 A 
ATOM     10  C   UNL A   1      38.527  30.285  32.285  1.00  0.00     0.010 A 
ATOM     11  C   UNL A   1      38.635  30.407  30.891  1.00  0.00    -0.014 A 
BRANCH  11  12
ATOM     12  C   UNL A   1      39.861  29.890  30.148  1.00  0.00     0.031 A 
ATOM     13  C   UNL A   1      40.988  30.800  30.005  1.00  0.00     0.074 A 
ATOM     14  C   UNL A   1      39.937  28.644  29.607  1.00  0.00     0.049 A 
ATOM     15  N   UNL A   1      42.097  30.559  29.383  1.00  0.00    -0.248 NA
ATOM     16  C   UNL A   1      40.890  32.109  30.668  1.00  0.00     0.031 C 
ATOM     17  C   UNL A   1      38.825  27.840  29.914  1.00  0.00     0.029 A 
ATOM     18  N   UNL A   1      40.737  27.798  28.778  1.00  0.00    -0.354 N 
ATOM     19  C   UNL A   1      42.874  31.642  29.682  1.00  0.00     0.074 A 
ATOM     20  C   UNL A   1      42.057  32.632  30.343  1.00  0.00     0.031 C 
ATOM     21  C   UNL A   1      38.926  26.719  29.246  1.00  0.00     0.029 A 
ATOM     22  C   UNL A   1      40.113  26.566  28.366  1.00  0.00     0.049 A 
ATOM     23  H   UNL A   1      41.652  28.041  28.506  1.00  0.00     0.167 HD
ATOM     24  C   UNL A   1      44.205  31.704  29.558  1.00  0.00     0.037 A 
ATOM     25  C   UNL A   1      40.376  25.435  27.369  1.00  0.00     0.037 A 
ATOM     26  C   UNL A   1      44.991  30.713  28.913  1.00  0.00     0.049 A 
ATOM     27  C   UNL A   1      42.172  25.918  27.044  1.00  0.00     0.074 A 
ATOM     28  C   UNL A   1      46.353  30.713  28.715  1.00  0.00     0.029 A 
ATOM     29  N   UNL A   1      44.472  29.569  28.332  1.00  0.00    -0.354 N 
ATOM     30  N   UNL A   1      42.838  27.053  27.335  1.00  0.00    -0.248 NA
ATOM     31  C   UNL A   1      43.199  24.990  26.395  1.00  0.00     0.031 C 
ATOM     32  C   UNL A   1      46.652  29.622  27.905  1.00  0.00     0.029 A 
ATOM     33  C   UNL A   1      45.487  28.897  27.697  1.00  0.00     0.049 A 
ATOM     34  H   UNL A   1      43.530  29.285  28.368  1.00  0.00     0.167 HD
ATOM     35  C   UNL A   1      44.193  26.924  26.896  1.00  0.00     0.074 A 
ATOM     36  C   UNL A   1      44.321  25.648  26.289  1.00  0.00     0.031 C 
ATOM     37  C   UNL A   1      45.332  27.670  26.989  1.00  0.00     0.037 A 
BRANCH  24  38
ATOM     38  C   UNL A   1      44.840  32.885  30.158  1.00  0.00     0.064 A 
ATOM     39  C   UNL A   1      44.971  34.046  29.398  1.00  0.00     0.173 A 
ATOM     40  C   UNL A   1      45.245  32.881  31.500  1.00  0.00     0.173 A 
ATOM     41  F   UNL A   1      44.547  34.072  28.125  1.00  0.00    -0.203 F 
ATOM     42  C   UNL A   1      45.509  35.185  29.967  1.00  0.00     0.198 A 
ATOM     43  C   UNL A   1      45.751  34.033  32.072  1.00  0.00     0.198 A 
ATOM     44  F   UNL A   1      45.071  31.788  32.261  1.00  0.00    -0.203 F 
ATOM     45  F   UNL A   1      45.637  36.294  29.228  1.00  0.00    -0.200 F 
ATOM     46  C   UNL A   1      45.893  35.179  31.302  1.00  0.00     0.200 A 
ATOM     47  F   UNL A   1      46.068  34.047  33.374  1.00  0.00    -0.200 F 
ATOM     48  F   UNL A   1      46.382  36.295  31.855  1.00  0.00    -0.200 F 
ENDBRANCH  24  38
BRANCH  25  49
ATOM     49  C   UNL A   1      39.334  23.697  26.633  1.00  0.00     0.064 A 
ATOM     50  C   UNL A   1      37.880  23.451  26.081  1.00  0.00     0.173 A 
ATOM     51  C   UNL A   1      39.824  22.147  26.482  1.00  0.00     0.173 A 
ATOM     52  F   UNL A   1      36.916  24.392  26.072  1.00  0.00    -0.203 F 
ATOM     53  C   UNL A   1      37.287  22.269  25.529  1.00  0.00     0.198 A 
ATOM     54  C   UNL A   1      39.217  21.023  25.873  1.00  0.00     0.198 A 
ATOM     55  F   UNL A   1      40.984  21.692  27.021  1.00  0.00    -0.203 F 
ATOM     56  F   UNL A   1      36.000  22.321  25.148  1.00  0.00    -0.200 F 
ATOM     57  C   UNL A   1      37.958  21.092  25.378  1.00  0.00     0.200 A 
ATOM     58  F   UNL A   1      39.897  19.869  25.811  1.00  0.00    -0.200 F 
ATOM     59  F   UNL A   1      37.383  20.026  24.811  1.00  0.00    -0.200 F 
ENDBRANCH  25  49
BRANCH  37  60
ATOM     60  C   UNL A   1      46.607  27.121  26.344  1.00  0.00     0.064 A 
ATOM     61  C   UNL A   1      47.471  26.272  27.061  1.00  0.00     0.173 A 
ATOM     62  C   UNL A   1      46.970  27.444  25.025  1.00  0.00     0.173 A 
ATOM     63  F   UNL A   1      47.177  25.914  28.319  1.00  0.00    -0.203 F 
ATOM     64  C   UNL A   1      48.651  25.791  26.493  1.00  0.00     0.198 A 
ATOM     65  C   UNL A   1      48.128  26.923  24.446  1.00  0.00     0.198 A 
ATOM     66  F   UNL A   1      46.165  28.211  24.274  1.00  0.00    -0.203 F 
ATOM     67  F   UNL A   1      49.472  25.013  27.213  1.00  0.00    -0.200 F 
ATOM     68  C   UNL A   1      48.973  26.110  25.183  1.00  0.00     0.200 A 
ATOM     69  F   UNL A   1      48.411  27.188  23.162  1.00  0.00    -0.200 F 
ATOM     70  F   UNL A   1      50.092  25.620  24.628  1.00  0.00    -0.200 F 
ENDBRANCH  37  60
ENDBRANCH  11  12
ENDBRANCH   4   6
ENDBRANCH   3   4
ENDBRANCH   2   3
ENDBRANCH   1   2
BRANCH   1  71
ATOM     71  O   UNL A   1      34.004  34.011  30.433  1.00  0.00    -0.462 OA
BRANCH  71  72
ATOM     72  C   UNL A   1      33.401  34.400  29.269  1.00  0.00     0.312 C 
ATOM     73  O   UNL A   1      32.544  35.278  29.217  1.00  0.00    -0.252 OA
BRANCH  72  74
ATOM     74  C   UNL A   1      33.838  33.632  28.009  1.00  0.00     0.123 C 
ATOM     75  C   UNL A   1      35.171  32.962  27.995  1.00  0.00    -0.015 C 
ATOM     76  C   UNL A   1      32.878  32.515  27.572  1.00  0.00     0.043 C 
ATOM     77  C   UNL A   1      35.089  31.664  27.682  1.00  0.00    -0.011 C 
ATOM     78  C   UNL A   1      33.680  31.201  27.550  1.00  0.00     0.093 C 
BRANCH  78  79
ATOM     79  N   UNL A   1      33.415  30.434  26.331  1.00  0.00    -0.204 NA
ATOM     80  H   UNL A   1      34.154  29.735  26.268  1.00  0.00     0.142 HD
BRANCH  79  81
ATOM     81  S   UNL A   1      31.970  29.611  26.087  1.00  0.00     0.244 S 
ATOM     82  O   UNL A   1      31.571  29.234  27.429  1.00  0.00    -0.207 OA
ATOM     83  O   UNL A   1      31.079  30.444  25.314  1.00  0.00    -0.207 OA
BRANCH  81  84
ATOM     84  C   UNL A   1      32.157  28.047  25.203  1.00  0.00     0.121 A 
ATOM     85  C   UNL A   1      33.674  27.192  25.724  1.00  0.00     0.028 A 
ATOM     86  C   UNL A   1      30.928  27.153  24.201  1.00  0.00     0.181 A 
ATOM     87  C   UNL A   1      33.926  25.469  25.290  1.00  0.00     0.044 A 
ATOM     88  C   UNL A   1      30.980  25.338  24.085  1.00  0.00     0.195 A 
ATOM     89  F   UNL A   1      30.044  27.816  23.430  1.00  0.00    -0.202 F 
ATOM     90  C   UNL A   1      32.510  24.476  24.613  1.00  0.00     0.161 A 
ATOM     91  F   UNL A   1      29.979  24.659  23.509  1.00  0.00    -0.200 F 
ATOM     92  F   UNL A   1      32.664  23.164  24.356  1.00  0.00    -0.204 F 
ENDBRANCH  81  84
ENDBRANCH  79  81
ENDBRANCH  78  79
ENDBRANCH  72  74
ENDBRANCH  71  72
ENDBRANCH   1  71
TORSDOF 14
ENDMDL
MODEL 2
REMARK VINA RESULT:     -13.1      5.520     11.413
REMARK SMILES O=C(OCCOC(=O)[C@H]1C=C[C@H](NS(=O)(=O)c2ccc(F)c(F)c2F)C1)c1ccc(-c2c3nc(c(-c4c(F)c(F)c(F)c(F)c4F)c4ccc([nH]4)c(-c4c(F)c(F)c(F)c(F)c4F)c4nc(c(-c5c(F)c(F)c(F)c(F)c5F)c5ccc2[nH]5)C=C4)C=C3)cc1
REMARK SMILES IDX 5 1 4 2 3 3 2 4 1 5 27 6 28 7 89 8 29 9 88 10 30 11 31 12
REMARK SMILES IDX 32 13 82 14 33 15 87 16 81 17 83 18 34 19 86 20 80 21 79 22
REMARK SMILES IDX 35 24 67 25 47 26 66 27 48 28 51 29 65 30 84 31 49 32 50 33
REMARK SMILES IDX 64 35 85 36 52 37 36 38 37 39 45 40 38 41 39 42 43 43 46 44
REMARK SMILES IDX 40 45 41 46 44 47 42 48 68 49 69 50 77 51 70 52 71 53 75 54
REMARK SMILES IDX 78 55 72 56 73 57 76 58 74 59 53 60 54 61 62 62 55 63 56 64
REMARK SMILES IDX 60 65 63 66 57 67 58 68 61 69 59 70 6 71 7 72 8 73 9 74
REMARK SMILES IDX 10 75 26 76 11 77 12 78 13 79 14 81 15 82 16 83 17 84 18 85
REMARK SMILES IDX 24 86 19 87 22 88 25 89 20 90 23 91 21 92
REMARK H PARENT 83 23 51 34 13 80
REMARK Flexibility Score: inf
ROOT
ATOM      1  C   UNL A   1      44.787  18.479  25.063  1.00  0.00     0.274 C 
ENDROOT
BRANCH   1   2
ATOM      2  C   UNL A   1      43.461  18.581  25.839  1.00  0.00     0.275 C 
BRANCH   2   3
ATOM      3  O   UNL A   1      42.644  19.676  25.419  1.00  0.00    -0.458 OA
BRANCH   3   4
ATOM      4  C   UNL A   1      41.511  20.135  25.994  1.00  0.00     0.338 C 
ATOM      5  O   UNL A   1      40.528  19.394  25.985  1.00  0.00    -0.246 OA
BRANCH   4   6
ATOM      6  C   UNL A   1      41.342  21.505  26.610  1.00  0.00     0.060 A 
ATOM      7  C   UNL A   1      40.769  21.826  27.845  1.00  0.00     0.016 A 
ATOM      8  C   UNL A   1      41.951  22.562  25.913  1.00  0.00     0.016 A 
ATOM      9  C   UNL A   1      40.850  23.117  28.389  1.00  0.00     0.010 A 
ATOM     10  C   UNL A   1      42.150  23.814  26.513  1.00  0.00     0.010 A 
ATOM     11  C   UNL A   1      41.636  24.103  27.786  1.00  0.00    -0.014 A 
BRANCH  11  12
ATOM     12  C   UNL A   1      41.979  25.408  28.496  1.00  0.00     0.031 A 
ATOM     13  C   UNL A   1      43.203  25.437  29.284  1.00  0.00     0.074 A 
ATOM     14  C   UNL A   1      41.195  26.518  28.441  1.00  0.00     0.049 A 
ATOM     15  N   UNL A   1      43.645  26.433  29.981  1.00  0.00    -0.248 NA
ATOM     16  C   UNL A   1      44.056  24.239  29.256  1.00  0.00     0.031 C 
ATOM     17  C   UNL A   1      40.107  26.382  27.561  1.00  0.00     0.029 A 
ATOM     18  N   UNL A   1      41.020  27.830  28.981  1.00  0.00    -0.354 N 
ATOM     19  C   UNL A   1      44.886  26.022  30.377  1.00  0.00     0.074 A 
ATOM     20  C   UNL A   1      45.042  24.626  30.043  1.00  0.00     0.031 C 
ATOM     21  C   UNL A   1      39.345  27.439  27.676  1.00  0.00     0.029 A 
ATOM     22  C   UNL A   1      39.773  28.473  28.654  1.00  0.00     0.049 A 
ATOM     23  H   UNL A   1      41.706  28.264  29.540  1.00  0.00     0.167 HD
ATOM     24  C   UNL A   1      45.864  26.817  30.827  1.00  0.00     0.037 A 
ATOM     25  C   UNL A   1      38.982  29.708  29.090  1.00  0.00     0.037 A 
ATOM     26  C   UNL A   1      45.692  28.190  31.141  1.00  0.00     0.049 A 
ATOM     27  C   UNL A   1      40.423  30.512  30.007  1.00  0.00     0.074 A 
ATOM     28  C   UNL A   1      46.630  29.068  31.635  1.00  0.00     0.029 A 
ATOM     29  N   UNL A   1      44.490  28.867  31.024  1.00  0.00    -0.354 N 
ATOM     30  N   UNL A   1      41.602  29.994  30.406  1.00  0.00    -0.248 NA
ATOM     31  C   UNL A   1      40.461  31.986  30.408  1.00  0.00     0.031 C 
ATOM     32  C   UNL A   1      45.968  30.254  31.933  1.00  0.00     0.029 A 
ATOM     33  C   UNL A   1      44.649  30.137  31.522  1.00  0.00     0.049 A 
ATOM     34  H   UNL A   1      43.659  28.499  30.646  1.00  0.00     0.167 HD
ATOM     35  C   UNL A   1      42.365  31.017  31.051  1.00  0.00     0.074 A 
ATOM     36  C   UNL A   1      41.576  32.195  31.053  1.00  0.00     0.031 C 
ATOM     37  C   UNL A   1      43.624  31.127  31.566  1.00  0.00     0.037 A 
BRANCH  24  38
ATOM     38  C   UNL A   1      47.179  26.179  30.971  1.00  0.00     0.064 A 
ATOM     39  C   UNL A   1      48.028  26.115  29.868  1.00  0.00     0.173 A 
ATOM     40  C   UNL A   1      47.616  25.703  32.215  1.00  0.00     0.173 A 
ATOM     41  F   UNL A   1      47.635  26.605  28.682  1.00  0.00    -0.203 F 
ATOM     42  C   UNL A   1      49.292  25.572  30.001  1.00  0.00     0.198 A 
ATOM     43  C   UNL A   1      48.894  25.193  32.350  1.00  0.00     0.198 A 
ATOM     44  F   UNL A   1      46.832  25.811  33.300  1.00  0.00    -0.203 F 
ATOM     45  F   UNL A   1      50.099  25.508  28.935  1.00  0.00    -0.200 F 
ATOM     46  C   UNL A   1      49.726  25.118  31.241  1.00  0.00     0.200 A 
ATOM     47  F   UNL A   1      49.335  24.808  33.555  1.00  0.00    -0.200 F 
ATOM     48  F   UNL A   1      50.963  24.625  31.370  1.00  0.00    -0.200 F 
ENDBRANCH  24  38
BRANCH  25  49
ATOM     49  C   UNL A   1      37.030  30.550  28.724  1.00  0.00     0.064 A 
ATOM     50  C   UNL A   1      36.288  31.841  29.236  1.00  0.00     0.173 A 
ATOM     51  C   UNL A   1      35.796  30.014  27.800  1.00  0.00     0.173 A 
ATOM     52  F   UNL A   1      36.791  32.670  30.171  1.00  0.00    -0.203 F 
ATOM     53  C   UNL A   1      35.008  32.376  28.877  1.00  0.00     0.198 A 
ATOM     54  C   UNL A   1      34.568  30.613  27.430  1.00  0.00     0.198 A 
ATOM     55  F   UNL A   1      35.781  28.772  27.250  1.00  0.00    -0.203 F 
ATOM     56  F   UNL A   1      34.593  33.497  29.489  1.00  0.00    -0.200 F 
ATOM     57  C   UNL A   1      34.186  31.802  27.952  1.00  0.00     0.200 A 
ATOM     58  F   UNL A   1      33.765  29.973  26.567  1.00  0.00    -0.200 F 
ATOM     59  F   UNL A   1      33.021  32.362  27.607  1.00  0.00    -0.200 F 
ENDBRANCH  25  49
BRANCH  37  60
ATOM     60  C   UNL A   1      44.033  32.465  32.188  1.00  0.00     0.064 A 
ATOM     61  C   UNL A   1      44.712  33.437  31.429  1.00  0.00     0.173 A 
ATOM     62  C   UNL A   1      43.758  32.773  33.531  1.00  0.00     0.173 A 
ATOM     63  F   UNL A   1      44.994  33.211  30.137  1.00  0.00    -0.203 F 
ATOM     64  C   UNL A   1      45.117  34.646  31.995  1.00  0.00     0.198 A 
ATOM     65  C   UNL A   1      44.123  34.003  34.080  1.00  0.00     0.198 A 
ATOM     66  F   UNL A   1      43.073  31.908  34.293  1.00  0.00    -0.203 F 
ATOM     67  F   UNL A   1      45.794  35.538  31.257  1.00  0.00    -0.200 F 
ATOM     68  C   UNL A   1      44.814  34.932  33.317  1.00  0.00     0.200 A 
ATOM     69  F   UNL A   1      43.783  34.301  35.342  1.00  0.00    -0.200 F 
ATOM     70  F   UNL A   1      45.175  36.108  33.850  1.00  0.00    -0.200 F 
ENDBRANCH  37  60
ENDBRANCH  11  12
ENDBRANCH   4   6
ENDBRANCH   3   4
ENDBRANCH   2   3
ENDBRANCH   1   2
BRANCH   1  71
ATOM     71  O   UNL A   1      45.060  19.605  24.183  1.00  0.00    -0.462 OA
BRANCH  71  72
ATOM     72  C   UNL A   1      45.956  20.518  24.663  1.00  0.00     0.312 C 
ATOM     73  O   UNL A   1      47.136  20.255  24.878  1.00  0.00    -0.252 OA
BRANCH  72  74
ATOM     74  C   UNL A   1      45.380  21.914  24.964  1.00  0.00     0.123 C 
ATOM     75  C   UNL A   1      45.590  22.508  26.316  1.00  0.00    -0.015 C 
ATOM     76  C   UNL A   1      45.855  23.024  24.014  1.00  0.00     0.043 C 
ATOM     77  C   UNL A   1      46.148  23.722  26.261  1.00  0.00    -0.011 C 
ATOM     78  C   UNL A   1      46.526  24.110  24.875  1.00  0.00     0.093 C 
BRANCH  78  79
ATOM     79  N   UNL A   1      46.080  25.450  24.486  1.00  0.00    -0.204 NA
ATOM     80  H   UNL A   1      45.097  25.511  24.750  1.00  0.00     0.142 HD
BRANCH  79  81
ATOM     81  S   UNL A   1      46.810  26.844  25.077  1.00  0.00     0.244 S 
ATOM     82  O   UNL A   1      47.846  26.332  25.952  1.00  0.00    -0.207 OA
ATOM     83  O   UNL A   1      47.201  27.678  23.965  1.00  0.00    -0.207 OA
BRANCH  81  84
ATOM     84  C   UNL A   1      45.744  27.831  26.150  1.00  0.00     0.121 A 
ATOM     85  C   UNL A   1      46.719  29.055  27.073  1.00  0.00     0.028 A 
ATOM     86  C   UNL A   1      43.928  27.958  26.145  1.00  0.00     0.181 A 
ATOM     87  C   UNL A   1      45.893  30.400  27.928  1.00  0.00     0.044 A 
ATOM     88  C   UNL A   1      43.111  29.497  26.666  1.00  0.00     0.195 A 
ATOM     89  F   UNL A   1      43.156  26.884  25.880  1.00  0.00    -0.202 F 
ATOM     90  C   UNL A   1      44.096  30.733  27.596  1.00  0.00     0.161 A 
ATOM     91  F   UNL A   1      41.793  29.668  26.491  1.00  0.00    -0.200 F 
ATOM     92  F   UNL A   1      43.485  31.785  28.172  1.00  0.00    -0.204 F 
ENDBRANCH  81  84
ENDBRANCH  79  81
ENDBRANCH  78  79
ENDBRANCH  72  74
ENDBRANCH  71  72
ENDBRANCH   1  71
TORSDOF 14
ENDMDL
MODEL 3
REMARK VINA RESULT:     -13.1      5.783     11.299
REMARK SMILES O=C(OCCOC(=O)[C@H]1C=C[C@H](NS(=O)(=O)c2ccc(F)c(F)c2F)C1)c1ccc(-c2c3nc(c(-c4c(F)c(F)c(F)c(F)c4F)c4ccc([nH]4)c(-c4c(F)c(F)c(F)c(F)c4F)c4nc(c(-c5c(F)c(F)c(F)c(F)c5F)c5ccc2[nH]5)C=C4)C=C3)cc1
REMARK SMILES IDX 5 1 4 2 3 3 2 4 1 5 27 6 28 7 89 8 29 9 88 10 30 11 31 12
REMARK SMILES IDX 32 13 82 14 33 15 87 16 81 17 83 18 34 19 86 20 80 21 79 22
REMARK SMILES IDX 35 24 67 25 47 26 66 27 48 28 51 29 65 30 84 31 49 32 50 33
REMARK SMILES IDX 64 35 85 36 52 37 36 38 37 39 45 40 38 41 39 42 43 43 46 44
REMARK SMILES IDX 40 45 41 46 44 47 42 48 68 49 69 50 77 51 70 52 71 53 75 54
REMARK SMILES IDX 78 55 72 56 73 57 76 58 74 59 53 60 54 61 62 62 55 63 56 64
REMARK SMILES IDX 60 65 63 66 57 67 58 68 61 69 59 70 6 71 7 72 8 73 9 74
REMARK SMILES IDX 10 75 26 76 11 77 12 78 13 79 14 81 15 82 16 83 17 84 18 85
REMARK SMILES IDX 24 86 19 87 22 88 25 89 20 90 23 91 21 92
REMARK H PARENT 83 23 51 34 13 80
REMARK Flexibility Score: inf
ROOT
ATOM      1  C   UNL A   1      47.383  25.230  26.420  1.00  0.00     0.274 C 
ENDROOT
BRANCH   1   2
ATOM      2  C   UNL A   1      46.898  24.938  24.987  1.00  0.00     0.275 C 
BRANCH   2   3
ATOM      3  O   UNL A   1      45.649  25.561  24.677  1.00  0.00    -0.458 OA
BRANCH   3   4
ATOM      4  C   UNL A   1      44.409  25.156  25.028  1.00  0.00     0.338 C 
ATOM      5  O   UNL A   1      44.001  24.097  24.552  1.00  0.00    -0.246 OA
BRANCH   4   6
ATOM      6  C   UNL A   1      43.466  25.922  25.927  1.00  0.00     0.060 A 
ATOM      7  C   UNL A   1      42.321  25.447  26.574  1.00  0.00     0.016 A 
ATOM      8  C   UNL A   1      43.864  27.230  26.248  1.00  0.00     0.016 A 
ATOM      9  C   UNL A   1      41.641  26.208  27.539  1.00  0.00     0.010 A 
ATOM     10  C   UNL A   1      43.269  27.937  27.304  1.00  0.00     0.010 A 
ATOM     11  C   UNL A   1      42.167  27.418  28.000  1.00  0.00    -0.014 A 
BRANCH  11  12
ATOM     12  C   UNL A   1      41.617  28.116  29.238  1.00  0.00     0.031 A 
ATOM     13  C   UNL A   1      42.280  27.846  30.506  1.00  0.00     0.074 A 
ATOM     14  C   UNL A   1      40.544  28.951  29.212  1.00  0.00     0.049 A 
ATOM     15  N   UNL A   1      41.944  28.314  31.664  1.00  0.00    -0.248 NA
ATOM     16  C   UNL A   1      43.480  26.996  30.476  1.00  0.00     0.031 C 
ATOM     17  C   UNL A   1      40.074  29.204  27.911  1.00  0.00     0.029 A 
ATOM     18  N   UNL A   1      39.639  29.686  30.039  1.00  0.00    -0.354 N 
ATOM     19  C   UNL A   1      42.962  27.911  32.481  1.00  0.00     0.074 A 
ATOM     20  C   UNL A   1      43.802  26.987  31.756  1.00  0.00     0.031 C 
ATOM     21  C   UNL A   1      38.969  29.901  27.997  1.00  0.00     0.029 A 
ATOM     22  C   UNL A   1      38.491  30.237  29.363  1.00  0.00     0.049 A 
ATOM     23  H   UNL A   1      39.789  29.807  31.005  1.00  0.00     0.167 HD
ATOM     24  C   UNL A   1      43.246  28.424  33.684  1.00  0.00     0.037 A 
ATOM     25  C   UNL A   1      37.159  30.893  29.735  1.00  0.00     0.037 A 
ATOM     26  C   UNL A   1      42.410  29.338  34.376  1.00  0.00     0.049 A 
ATOM     27  C   UNL A   1      37.626  31.205  31.537  1.00  0.00     0.074 A 
ATOM     28  C   UNL A   1      42.610  29.888  35.622  1.00  0.00     0.029 A 
ATOM     29  N   UNL A   1      41.200  29.803  33.890  1.00  0.00    -0.354 N 
ATOM     30  N   UNL A   1      38.636  30.705  32.277  1.00  0.00    -0.248 NA
ATOM     31  C   UNL A   1      36.885  32.178  32.453  1.00  0.00     0.031 C 
ATOM     32  C   UNL A   1      41.460  30.598  35.949  1.00  0.00     0.029 A 
ATOM     33  C   UNL A   1      40.602  30.570  34.859  1.00  0.00     0.049 A 
ATOM     34  H   UNL A   1      40.831  29.614  32.998  1.00  0.00     0.167 HD
ATOM     35  C   UNL A   1      38.572  31.265  33.591  1.00  0.00     0.074 A 
ATOM     36  C   UNL A   1      37.442  32.122  33.631  1.00  0.00     0.031 C 
ATOM     37  C   UNL A   1      39.341  31.221  34.718  1.00  0.00     0.037 A 
BRANCH  24  38
ATOM     38  C   UNL A   1      44.522  27.989  34.269  1.00  0.00     0.064 A 
ATOM     39  C   UNL A   1      44.551  26.840  35.057  1.00  0.00     0.173 A 
ATOM     40  C   UNL A   1      45.713  28.671  33.986  1.00  0.00     0.173 A 
ATOM     41  F   UNL A   1      43.422  26.157  35.300  1.00  0.00    -0.203 F 
ATOM     42  C   UNL A   1      45.753  26.383  35.564  1.00  0.00     0.198 A 
ATOM     43  C   UNL A   1      46.916  28.189  34.468  1.00  0.00     0.198 A 
ATOM     44  F   UNL A   1      45.708  29.746  33.180  1.00  0.00    -0.203 F 
ATOM     45  F   UNL A   1      45.773  25.281  36.325  1.00  0.00    -0.200 F 
ATOM     46  C   UNL A   1      46.933  27.053  35.265  1.00  0.00     0.200 A 
ATOM     47  F   UNL A   1      48.061  28.800  34.133  1.00  0.00    -0.200 F 
ATOM     48  F   UNL A   1      48.097  26.586  35.732  1.00  0.00    -0.200 F 
ENDBRANCH  24  38
BRANCH  25  49
ATOM     49  C   UNL A   1      35.372  31.538  28.715  1.00  0.00     0.064 A 
ATOM     50  C   UNL A   1      34.304  30.806  27.820  1.00  0.00     0.173 A 
ATOM     51  C   UNL A   1      34.680  33.013  28.611  1.00  0.00     0.173 A 
ATOM     52  F   UNL A   1      34.412  29.520  27.431  1.00  0.00    -0.203 F 
ATOM     53  C   UNL A   1      33.088  31.295  27.242  1.00  0.00     0.198 A 
ATOM     54  C   UNL A   1      33.441  33.435  28.074  1.00  0.00     0.198 A 
ATOM     55  F   UNL A   1      35.301  34.143  29.037  1.00  0.00    -0.203 F 
ATOM     56  F   UNL A   1      32.358  30.456  26.489  1.00  0.00    -0.200 F 
ATOM     57  C   UNL A   1      32.637  32.572  27.410  1.00  0.00     0.200 A 
ATOM     58  F   UNL A   1      33.075  34.719  28.209  1.00  0.00    -0.200 F 
ATOM     59  F   UNL A   1      31.470  32.975  26.895  1.00  0.00    -0.200 F 
ENDBRANCH  25  49
BRANCH  37  60
ATOM     60  C   UNL A   1      38.868  32.005  35.945  1.00  0.00     0.064 A 
ATOM     61  C   UNL A   1      38.074  31.392  36.932  1.00  0.00     0.173 A 
ATOM     62  C   UNL A   1      39.197  33.358  36.132  1.00  0.00     0.173 A 
ATOM     63  F   UNL A   1      37.735  30.099  36.820  1.00  0.00    -0.203 F 
ATOM     64  C   UNL A   1      37.612  32.105  38.038  1.00  0.00     0.198 A 
ATOM     65  C   UNL A   1      38.772  34.056  37.263  1.00  0.00     0.198 A 
ATOM     66  F   UNL A   1      39.990  33.986  35.250  1.00  0.00    -0.203 F 
ATOM     67  F   UNL A   1      36.827  31.504  38.943  1.00  0.00    -0.200 F 
ATOM     68  C   UNL A   1      37.969  33.434  38.207  1.00  0.00     0.200 A 
ATOM     69  F   UNL A   1      39.162  35.324  37.454  1.00  0.00    -0.200 F 
ATOM     70  F   UNL A   1      37.552  34.110  39.287  1.00  0.00    -0.200 F 
ENDBRANCH  37  60
ENDBRANCH  11  12
ENDBRANCH   4   6
ENDBRANCH   3   4
ENDBRANCH   2   3
ENDBRANCH   1   2
BRANCH   1  71
ATOM     71  O   UNL A   1      47.056  24.198  27.391  1.00  0.00    -0.462 OA
BRANCH  71  72
ATOM     72  C   UNL A   1      46.047  24.510  28.259  1.00  0.00     0.312 C 
ATOM     73  O   UNL A   1      45.827  25.652  28.652  1.00  0.00    -0.252 OA
BRANCH  72  74
ATOM     74  C   UNL A   1      45.211  23.317  28.756  1.00  0.00     0.123 C 
ATOM     75  C   UNL A   1      44.157  23.550  29.786  1.00  0.00    -0.015 C 
ATOM     76  C   UNL A   1      44.464  22.552  27.653  1.00  0.00     0.043 C 
ATOM     77  C   UNL A   1      42.958  23.095  29.404  1.00  0.00    -0.011 C 
ATOM     78  C   UNL A   1      42.965  22.585  28.006  1.00  0.00     0.093 C 
BRANCH  78  79
ATOM     79  N   UNL A   1      42.350  21.265  27.847  1.00  0.00    -0.204 NA
ATOM     80  H   UNL A   1      41.677  21.171  28.608  1.00  0.00     0.142 HD
BRANCH  79  81
ATOM     81  S   UNL A   1      41.536  20.819  26.446  1.00  0.00     0.244 S 
ATOM     82  O   UNL A   1      42.271  21.504  25.401  1.00  0.00    -0.207 OA
ATOM     83  O   UNL A   1      41.449  19.378  26.392  1.00  0.00    -0.207 OA
BRANCH  81  84
ATOM     84  C   UNL A   1      39.856  21.471  26.334  1.00  0.00     0.121 A 
ATOM     85  C   UNL A   1      39.752  23.116  27.100  1.00  0.00     0.028 A 
ATOM     86  C   UNL A   1      38.467  20.869  25.321  1.00  0.00     0.181 A 
ATOM     87  C   UNL A   1      38.312  24.148  26.816  1.00  0.00     0.044 A 
ATOM     88  C   UNL A   1      37.202  22.027  24.715  1.00  0.00     0.195 A 
ATOM     89  F   UNL A   1      38.281  19.552  25.110  1.00  0.00    -0.202 F 
ATOM     90  C   UNL A   1      37.099  23.687  25.487  1.00  0.00     0.161 A 
ATOM     91  F   UNL A   1      36.285  21.634  23.820  1.00  0.00    -0.200 F 
ATOM     92  F   UNL A   1      36.057  24.493  25.212  1.00  0.00    -0.204 F 
ENDBRANCH  81  84
ENDBRANCH  79  81
ENDBRANCH  78  79
ENDBRANCH  72  74
ENDBRANCH  71  72
ENDBRANCH   1  71
TORSDOF 14
ENDMDL
