MODEL 1
REMARK VINA RESULT:     -12.9      0.000      0.000
REMARK SMILES CC(=O)Oc1ccc([C@H]2Nc3c(C(=O)OCCOC(=O)c4ccc(-c5c6nc(c(-c7c(F)c(F)c(F)c(F)c7F)c7ccc([nH]7)c(-c7c(F)c(F)c(F)c(F)c7F)c7nc(c(-c8c(F)c(F)c(F)c(F)c8F)c8ccc5[nH]8)C=C7)C=C6)cc4)ccc([N+](=O)[O-])c3[C@H]3C=CC[C@@H]32)cc1
REMARK SMILES IDX 16 1 15 2 13 3 14 4 12 5 9 6 10 7 95 8 11 9 91 11 94 12
REMARK SMILES IDX 90 13 92 14 93 15 84 16 86 17 85 18 8 19 5 20 6 21 97 22
REMARK SMILES IDX 7 23 96 24 4 25 2 26 1 27 3 28 87 29 88 30 89 31 17 32 18 33
REMARK SMILES IDX 19 34 20 35 21 36 22 37 83 38 23 39 82 40 24 41 25 42 26 43
REMARK SMILES IDX 76 44 27 45 81 46 75 47 77 48 28 49 80 50 74 51 73 52 29 54
REMARK SMILES IDX 61 55 41 56 60 57 42 58 45 59 59 60 78 61 43 62 44 63 58 65
REMARK SMILES IDX 79 66 46 67 30 68 31 69 39 70 32 71 33 72 37 73 40 74 34 75
REMARK SMILES IDX 35 76 38 77 36 78 62 79 63 80 71 81 64 82 65 83 69 84 72 85
REMARK SMILES IDX 66 86 67 87 70 88 68 89 47 90 48 91 56 92 49 93 50 94 54 95
REMARK SMILES IDX 57 96 51 97 52 98 55 99 53 100
REMARK H PARENT 10 10 77 53 45 64
REMARK Flexibility Score: inf
ROOT
ATOM      1  C   UNL A   1      39.204  21.581  25.960  1.00  0.00     0.275 C 
ENDROOT
BRANCH   1   2
ATOM      2  O   UNL A   1      38.264  22.101  24.998  1.00  0.00    -0.458 OA
BRANCH   2   3
ATOM      3  C   UNL A   1      37.252  22.813  25.551  1.00  0.00     0.340 C 
ATOM      4  O   UNL A   1      37.356  23.623  26.456  1.00  0.00    -0.246 OA
BRANCH   3   5
ATOM      5  C   UNL A   1      35.947  22.249  25.170  1.00  0.00     0.084 A 
ATOM      6  C   UNL A   1      33.051  24.867  25.476  1.00  0.00     0.114 C 
ATOM      7  N   UNL A   1      34.454  24.293  25.349  1.00  0.00    -0.377 N 
ATOM      8  C   UNL A   1      32.264  23.723  26.180  1.00  0.00     0.031 C 
ATOM      9  C   UNL A   1      34.673  22.897  25.120  1.00  0.00     0.060 A 
ATOM     10  H   UNL A   1      35.229  24.896  25.426  1.00  0.00     0.161 HD
ATOM     11  C   UNL A   1      32.173  22.677  25.034  1.00  0.00     0.056 C 
ATOM     12  C   UNL A   1      30.898  23.705  26.877  1.00  0.00     0.034 C 
ATOM     13  C   UNL A   1      33.534  22.023  24.979  1.00  0.00     0.061 A 
ATOM     14  C   UNL A   1      30.915  21.942  25.332  1.00  0.00    -0.022 C 
ATOM     15  C   UNL A   1      30.222  22.498  26.324  1.00  0.00    -0.030 C 
ATOM     16  C   UNL A   1      36.084  20.847  25.042  1.00  0.00     0.025 A 
ATOM     17  C   UNL A   1      33.730  20.632  24.810  1.00  0.00     0.275 A 
ATOM     18  C   UNL A   1      34.985  20.038  24.849  1.00  0.00     0.087 A 
BRANCH   6  19
ATOM     19  C   UNL A   1      32.892  26.359  25.862  1.00  0.00    -0.025 A 
ATOM     20  C   UNL A   1      32.876  29.002  27.035  1.00  0.00     0.130 A 
ATOM     21  C   UNL A   1      31.810  28.137  27.230  1.00  0.00     0.047 A 
ATOM     22  C   UNL A   1      33.983  28.538  26.336  1.00  0.00     0.047 A 
ATOM     23  C   UNL A   1      31.836  26.829  26.672  1.00  0.00     0.010 A 
ATOM     24  C   UNL A   1      33.958  27.270  25.725  1.00  0.00     0.010 A 
BRANCH  20  25
ATOM     25  O   UNL A   1      32.884  30.376  27.398  1.00  0.00    -0.427 OA
BRANCH  25  26
ATOM     26  C   UNL A   1      32.013  31.277  26.756  1.00  0.00     0.308 C 
ATOM     27  C   UNL A   1      32.178  32.674  27.315  1.00  0.00     0.139 C 
ATOM     28  O   UNL A   1      31.323  31.033  25.775  1.00  0.00    -0.252 OA
ENDBRANCH  25  26
ENDBRANCH  20  25
ENDBRANCH   6  19
BRANCH  17  29
ATOM     29  N   UNL A   1      32.635  19.721  24.566  1.00  0.00     0.063 N 
ATOM     30  O   UNL A   1      32.249  19.034  25.520  1.00  0.00    -0.258 OA
ATOM     31  O   UNL A   1      32.209  19.664  23.404  1.00  0.00    -0.258 OA
ENDBRANCH  17  29
ENDBRANCH   3   5
ENDBRANCH   2   3
ENDBRANCH   1   2
BRANCH   1  32
ATOM     32  C   UNL A   1      39.534  20.116  25.670  1.00  0.00     0.275 C 
BRANCH  32  33
ATOM     33  O   UNL A   1      40.432  19.563  26.658  1.00  0.00    -0.458 OA
BRANCH  33  34
ATOM     34  C   UNL A   1      41.730  19.520  26.285  1.00  0.00     0.338 C 
ATOM     35  O   UNL A   1      42.291  18.627  25.655  1.00  0.00    -0.246 OA
BRANCH  34  36
ATOM     36  C   UNL A   1      42.446  20.756  26.630  1.00  0.00     0.060 A 
ATOM     37  C   UNL A   1      42.397  21.231  27.941  1.00  0.00     0.016 A 
ATOM     38  C   UNL A   1      42.939  21.576  25.622  1.00  0.00     0.016 A 
ATOM     39  C   UNL A   1      42.757  22.537  28.244  1.00  0.00     0.010 A 
ATOM     40  C   UNL A   1      43.402  22.859  25.948  1.00  0.00     0.010 A 
ATOM     41  C   UNL A   1      43.282  23.370  27.255  1.00  0.00    -0.014 A 
BRANCH  41  42
ATOM     42  C   UNL A   1      43.753  24.729  27.636  1.00  0.00     0.031 A 
ATOM     43  C   UNL A   1      42.828  25.871  27.941  1.00  0.00     0.074 A 
ATOM     44  C   UNL A   1      45.069  24.970  27.695  1.00  0.00     0.049 A 
ATOM     45  N   UNL A   1      43.050  27.046  28.491  1.00  0.00    -0.248 NA
ATOM     46  C   UNL A   1      41.438  25.644  27.594  1.00  0.00     0.031 C 
ATOM     47  C   UNL A   1      46.136  24.004  27.451  1.00  0.00     0.029 A 
ATOM     48  N   UNL A   1      45.716  26.149  27.935  1.00  0.00    -0.354 N 
ATOM     49  C   UNL A   1      41.796  27.629  28.648  1.00  0.00     0.074 A 
ATOM     50  C   UNL A   1      40.856  26.717  28.094  1.00  0.00     0.031 C 
ATOM     51  C   UNL A   1      47.312  24.642  27.512  1.00  0.00     0.029 A 
ATOM     52  C   UNL A   1      47.061  26.065  27.729  1.00  0.00     0.049 A 
ATOM     53  H   UNL A   1      45.259  26.971  28.224  1.00  0.00     0.167 HD
ATOM     54  C   UNL A   1      41.406  28.846  29.098  1.00  0.00     0.037 A 
ATOM     55  C   UNL A   1      47.971  27.048  27.652  1.00  0.00     0.037 A 
ATOM     56  C   UNL A   1      42.320  29.933  29.203  1.00  0.00     0.049 A 
ATOM     57  C   UNL A   1      47.541  28.475  27.846  1.00  0.00     0.074 A 
ATOM     58  C   UNL A   1      42.055  31.272  29.407  1.00  0.00     0.029 A 
ATOM     59  N   UNL A   1      43.664  29.810  28.914  1.00  0.00    -0.354 N 
ATOM     60  N   UNL A   1      46.356  28.962  28.127  1.00  0.00    -0.248 NA
ATOM     61  C   UNL A   1      48.588  29.493  27.703  1.00  0.00     0.031 C 
ATOM     62  C   UNL A   1      43.202  31.975  29.029  1.00  0.00     0.029 A 
ATOM     63  C   UNL A   1      44.218  31.061  28.788  1.00  0.00     0.049 A 
ATOM     64  H   UNL A   1      44.150  28.959  28.815  1.00  0.00     0.167 HD
ATOM     65  C   UNL A   1      46.520  30.341  28.211  1.00  0.00     0.074 A 
ATOM     66  C   UNL A   1      47.918  30.608  27.957  1.00  0.00     0.031 C 
ATOM     67  C   UNL A   1      45.602  31.299  28.491  1.00  0.00     0.037 A 
BRANCH  54  68
ATOM     68  C   UNL A   1      39.925  29.119  29.224  1.00  0.00     0.064 A 
ATOM     69  C   UNL A   1      39.238  28.942  30.436  1.00  0.00     0.173 A 
ATOM     70  C   UNL A   1      39.171  29.494  28.101  1.00  0.00     0.173 A 
ATOM     71  F   UNL A   1      39.898  28.551  31.536  1.00  0.00    -0.203 F 
ATOM     72  C   UNL A   1      37.853  29.099  30.507  1.00  0.00     0.198 A 
ATOM     73  C   UNL A   1      37.791  29.672  28.181  1.00  0.00     0.198 A 
ATOM     74  F   UNL A   1      39.764  29.637  26.906  1.00  0.00    -0.203 F 
ATOM     75  F   UNL A   1      37.209  28.854  31.657  1.00  0.00    -0.200 F 
ATOM     76  C   UNL A   1      37.131  29.462  29.380  1.00  0.00     0.200 A 
ATOM     77  F   UNL A   1      37.097  29.999  27.081  1.00  0.00    -0.200 F 
ATOM     78  F   UNL A   1      35.797  29.574  29.438  1.00  0.00    -0.200 F 
ENDBRANCH  54  68
BRANCH  55  79
ATOM     79  C   UNL A   1      49.367  26.679  27.337  1.00  0.00     0.064 A 
ATOM     80  C   UNL A   1      49.814  26.672  26.013  1.00  0.00     0.173 A 
ATOM     81  C   UNL A   1      50.296  26.405  28.354  1.00  0.00     0.173 A 
ATOM     82  F   UNL A   1      48.954  26.923  25.016  1.00  0.00    -0.203 F 
ATOM     83  C   UNL A   1      51.143  26.397  25.712  1.00  0.00     0.198 A 
ATOM     84  C   UNL A   1      51.633  26.163  28.053  1.00  0.00     0.198 A 
ATOM     85  F   UNL A   1      49.914  26.420  29.640  1.00  0.00    -0.203 F 
ATOM     86  F   UNL A   1      51.545  26.371  24.435  1.00  0.00    -0.200 F 
ATOM     87  C   UNL A   1      52.053  26.153  26.732  1.00  0.00     0.200 A 
ATOM     88  F   UNL A   1      52.512  25.955  29.042  1.00  0.00    -0.200 F 
ATOM     89  F   UNL A   1      53.338  25.910  26.441  1.00  0.00    -0.200 F 
ENDBRANCH  55  79
BRANCH  67  90
ATOM     90  C   UNL A   1      46.052  32.724  28.557  1.00  0.00     0.064 A 
ATOM     91  C   UNL A   1      45.995  33.573  27.446  1.00  0.00     0.173 A 
ATOM     92  C   UNL A   1      46.410  33.276  29.798  1.00  0.00     0.173 A 
ATOM     93  F   UNL A   1      45.646  33.092  26.243  1.00  0.00    -0.203 F 
ATOM     94  C   UNL A   1      46.302  34.923  27.570  1.00  0.00     0.198 A 
ATOM     95  C   UNL A   1      46.674  34.632  29.926  1.00  0.00     0.198 A 
ATOM     96  F   UNL A   1      46.452  32.504  30.896  1.00  0.00    -0.203 F 
ATOM     97  F   UNL A   1      46.274  35.716  26.490  1.00  0.00    -0.200 F 
ATOM     98  C   UNL A   1      46.628  35.453  28.811  1.00  0.00     0.200 A 
ATOM     99  F   UNL A   1      46.952  35.146  31.132  1.00  0.00    -0.200 F 
ATOM    100  F   UNL A   1      46.891  36.761  28.934  1.00  0.00    -0.200 F 
ENDBRANCH  67  90
ENDBRANCH  41  42
ENDBRANCH  34  36
ENDBRANCH  33  34
ENDBRANCH  32  33
ENDBRANCH   1  32
TORSDOF 15
ENDMDL
MODEL 2
REMARK VINA RESULT:     -12.6      0.968      7.004
REMARK SMILES CC(=O)Oc1ccc([C@H]2Nc3c(C(=O)OCCOC(=O)c4ccc(-c5c6nc(c(-c7c(F)c(F)c(F)c(F)c7F)c7ccc([nH]7)c(-c7c(F)c(F)c(F)c(F)c7F)c7nc(c(-c8c(F)c(F)c(F)c(F)c8F)c8ccc5[nH]8)C=C7)C=C6)cc4)ccc([N+](=O)[O-])c3[C@H]3C=CC[C@@H]32)cc1
REMARK SMILES IDX 16 1 15 2 13 3 14 4 12 5 9 6 10 7 95 8 11 9 91 11 94 12
REMARK SMILES IDX 90 13 92 14 93 15 84 16 86 17 85 18 8 19 5 20 6 21 97 22
REMARK SMILES IDX 7 23 96 24 4 25 2 26 1 27 3 28 87 29 88 30 89 31 17 32 18 33
REMARK SMILES IDX 19 34 20 35 21 36 22 37 83 38 23 39 82 40 24 41 25 42 26 43
REMARK SMILES IDX 76 44 27 45 81 46 75 47 77 48 28 49 80 50 74 51 73 52 29 54
REMARK SMILES IDX 61 55 41 56 60 57 42 58 45 59 59 60 78 61 43 62 44 63 58 65
REMARK SMILES IDX 79 66 46 67 30 68 31 69 39 70 32 71 33 72 37 73 40 74 34 75
REMARK SMILES IDX 35 76 38 77 36 78 62 79 63 80 71 81 64 82 65 83 69 84 72 85
REMARK SMILES IDX 66 86 67 87 70 88 68 89 47 90 48 91 56 92 49 93 50 94 54 95
REMARK SMILES IDX 57 96 51 97 52 98 55 99 53 100
REMARK H PARENT 10 10 77 53 45 64
REMARK Flexibility Score: inf
ROOT
ATOM      1  C   UNL A   1      39.233  21.136  26.112  1.00  0.00     0.275 C 
ENDROOT
BRANCH   1   2
ATOM      2  O   UNL A   1      38.349  21.654  25.097  1.00  0.00    -0.458 OA
BRANCH   2   3
ATOM      3  C   UNL A   1      37.389  22.482  25.579  1.00  0.00     0.340 C 
ATOM      4  O   UNL A   1      37.536  23.318  26.455  1.00  0.00    -0.246 OA
BRANCH   3   5
ATOM      5  C   UNL A   1      36.051  22.028  25.167  1.00  0.00     0.084 A 
ATOM      6  C   UNL A   1      33.329  24.804  25.636  1.00  0.00     0.114 C 
ATOM      7  N   UNL A   1      34.693  24.149  25.472  1.00  0.00    -0.377 N 
ATOM      8  C   UNL A   1      32.469  23.672  26.270  1.00  0.00     0.031 C 
ATOM      9  C   UNL A   1      34.822  22.759  25.158  1.00  0.00     0.060 A 
ATOM     10  H   UNL A   1      35.505  24.695  25.585  1.00  0.00     0.161 HD
ATOM     11  C   UNL A   1      32.313  22.706  25.062  1.00  0.00     0.056 C 
ATOM     12  C   UNL A   1      31.102  23.700  26.966  1.00  0.00     0.034 C 
ATOM     13  C   UNL A   1      33.629  21.970  24.966  1.00  0.00     0.061 A 
ATOM     14  C   UNL A   1      31.010  22.037  25.317  1.00  0.00    -0.022 C 
ATOM     15  C   UNL A   1      30.351  22.575  26.342  1.00  0.00    -0.030 C 
ATOM     16  C   UNL A   1      36.098  20.630  24.953  1.00  0.00     0.025 A 
ATOM     17  C   UNL A   1      33.736  20.583  24.712  1.00  0.00     0.275 A 
ATOM     18  C   UNL A   1      34.949  19.907  24.712  1.00  0.00     0.087 A 
BRANCH   6  19
ATOM     19  C   UNL A   1      33.266  26.277  26.113  1.00  0.00    -0.025 A 
ATOM     20  C   UNL A   1      32.787  29.088  26.592  1.00  0.00     0.130 A 
ATOM     21  C   UNL A   1      33.854  28.677  25.805  1.00  0.00     0.047 A 
ATOM     22  C   UNL A   1      31.911  28.123  27.071  1.00  0.00     0.047 A 
ATOM     23  C   UNL A   1      34.069  27.294  25.553  1.00  0.00     0.010 A 
ATOM     24  C   UNL A   1      32.184  26.755  26.876  1.00  0.00     0.010 A 
BRANCH  20  25
ATOM     25  O   UNL A   1      32.578  30.418  27.046  1.00  0.00    -0.427 OA
BRANCH  25  26
ATOM     26  C   UNL A   1      31.679  31.260  26.362  1.00  0.00     0.308 C 
ATOM     27  C   UNL A   1      31.777  32.680  26.876  1.00  0.00     0.139 C 
ATOM     28  O   UNL A   1      31.014  30.955  25.380  1.00  0.00    -0.252 OA
ENDBRANCH  25  26
ENDBRANCH  20  25
ENDBRANCH   6  19
BRANCH  17  29
ATOM     29  N   UNL A   1      32.585  19.761  24.414  1.00  0.00     0.063 N 
ATOM     30  O   UNL A   1      32.153  19.043  25.325  1.00  0.00    -0.258 OA
ATOM     31  O   UNL A   1      32.159  19.802  23.252  1.00  0.00    -0.258 OA
ENDBRANCH  17  29
ENDBRANCH   3   5
ENDBRANCH   2   3
ENDBRANCH   1   2
BRANCH   1  32
ATOM     32  C   UNL A   1      39.721  19.733  25.751  1.00  0.00     0.275 C 
BRANCH  32  33
ATOM     33  O   UNL A   1      40.715  19.254  26.683  1.00  0.00    -0.458 OA
BRANCH  33  34
ATOM     34  C   UNL A   1      41.992  19.356  26.255  1.00  0.00     0.338 C 
ATOM     35  O   UNL A   1      42.662  18.484  25.709  1.00  0.00    -0.246 OA
BRANCH  34  36
ATOM     36  C   UNL A   1      42.522  20.717  26.415  1.00  0.00     0.060 A 
ATOM     37  C   UNL A   1      42.454  21.335  27.665  1.00  0.00     0.016 A 
ATOM     38  C   UNL A   1      42.840  21.474  25.294  1.00  0.00     0.016 A 
ATOM     39  C   UNL A   1      42.620  22.706  27.796  1.00  0.00     0.010 A 
ATOM     40  C   UNL A   1      43.111  22.841  25.444  1.00  0.00     0.010 A 
ATOM     41  C   UNL A   1      42.968  23.483  26.690  1.00  0.00    -0.014 A 
BRANCH  41  42
ATOM     42  C   UNL A   1      43.238  24.933  26.887  1.00  0.00     0.031 A 
ATOM     43  C   UNL A   1      44.596  25.552  26.728  1.00  0.00     0.074 A 
ATOM     44  C   UNL A   1      42.232  25.740  27.246  1.00  0.00     0.049 A 
ATOM     45  N   UNL A   1      44.975  26.810  26.648  1.00  0.00    -0.248 NA
ATOM     46  C   UNL A   1      45.691  24.606  26.618  1.00  0.00     0.031 C 
ATOM     47  C   UNL A   1      40.838  25.351  27.442  1.00  0.00     0.029 A 
ATOM     48  N   UNL A   1      42.269  27.069  27.560  1.00  0.00    -0.354 N 
ATOM     49  C   UNL A   1      46.336  26.775  26.365  1.00  0.00     0.074 A 
ATOM     50  C   UNL A   1      46.708  25.403  26.346  1.00  0.00     0.031 C 
ATOM     51  C   UNL A   1      40.156  26.413  27.887  1.00  0.00     0.029 A 
ATOM     52  C   UNL A   1      41.088  27.524  28.068  1.00  0.00     0.049 A 
ATOM     53  H   UNL A   1      43.063  27.637  27.435  1.00  0.00     0.167 HD
ATOM     54  C   UNL A   1      47.266  27.751  26.233  1.00  0.00     0.037 A 
ATOM     55  C   UNL A   1      40.819  28.689  28.679  1.00  0.00     0.037 A 
ATOM     56  C   UNL A   1      47.035  29.073  26.711  1.00  0.00     0.049 A 
ATOM     57  C   UNL A   1      41.907  29.713  28.837  1.00  0.00     0.074 A 
ATOM     58  C   UNL A   1      47.936  30.105  26.875  1.00  0.00     0.029 A 
ATOM     59  N   UNL A   1      45.841  29.463  27.281  1.00  0.00    -0.354 N 
ATOM     60  N   UNL A   1      43.153  29.683  28.428  1.00  0.00    -0.248 NA
ATOM     61  C   UNL A   1      41.543  30.940  29.554  1.00  0.00     0.031 C 
ATOM     62  C   UNL A   1      47.341  31.032  27.734  1.00  0.00     0.029 A 
ATOM     63  C   UNL A   1      46.017  30.662  27.930  1.00  0.00     0.049 A 
ATOM     64  H   UNL A   1      44.994  28.962  27.232  1.00  0.00     0.167 HD
ATOM     65  C   UNL A   1      43.715  30.891  28.823  1.00  0.00     0.074 A 
ATOM     66  C   UNL A   1      42.672  31.631  29.498  1.00  0.00     0.031 C 
ATOM     67  C   UNL A   1      44.974  31.357  28.631  1.00  0.00     0.037 A 
BRANCH  54  68
ATOM     68  C   UNL A   1      48.665  27.355  25.823  1.00  0.00     0.064 A 
ATOM     69  C   UNL A   1      49.654  27.039  26.768  1.00  0.00     0.173 A 
ATOM     70  C   UNL A   1      49.041  27.361  24.470  1.00  0.00     0.173 A 
ATOM     71  F   UNL A   1      49.365  27.049  28.078  1.00  0.00    -0.203 F 
ATOM     72  C   UNL A   1      50.968  26.776  26.375  1.00  0.00     0.198 A 
ATOM     73  C   UNL A   1      50.347  27.077  24.079  1.00  0.00     0.198 A 
ATOM     74  F   UNL A   1      48.151  27.697  23.524  1.00  0.00    -0.203 F 
ATOM     75  F   UNL A   1      51.911  26.548  27.300  1.00  0.00    -0.200 F 
ATOM     76  C   UNL A   1      51.313  26.798  25.032  1.00  0.00     0.200 A 
ATOM     77  F   UNL A   1      50.679  27.123  22.781  1.00  0.00    -0.200 F 
ATOM     78  F   UNL A   1      52.582  26.585  24.657  1.00  0.00    -0.200 F 
ENDBRANCH  54  68
BRANCH  55  79
ATOM     79  C   UNL A   1      39.455  28.895  29.210  1.00  0.00     0.064 A 
ATOM     80  C   UNL A   1      39.174  28.640  30.555  1.00  0.00     0.173 A 
ATOM     81  C   UNL A   1      38.432  29.425  28.406  1.00  0.00     0.173 A 
ATOM     82  F   UNL A   1      40.125  28.129  31.350  1.00  0.00    -0.203 F 
ATOM     83  C   UNL A   1      37.915  28.901  31.081  1.00  0.00     0.198 A 
ATOM     84  C   UNL A   1      37.182  29.716  28.942  1.00  0.00     0.198 A 
ATOM     85  F   UNL A   1      38.664  29.703  27.114  1.00  0.00    -0.203 F 
ATOM     86  F   UNL A   1      37.660  28.625  32.366  1.00  0.00    -0.200 F 
ATOM     87  C   UNL A   1      36.923  29.447  30.277  1.00  0.00     0.200 A 
ATOM     88  F   UNL A   1      36.237  30.269  28.170  1.00  0.00    -0.200 F 
ATOM     89  F   UNL A   1      35.716  29.718  30.793  1.00  0.00    -0.200 F 
ENDBRANCH  55  79
BRANCH  67  90
ATOM     90  C   UNL A   1      45.318  32.724  29.131  1.00  0.00     0.064 A 
ATOM     91  C   UNL A   1      45.039  33.877  28.388  1.00  0.00     0.173 A 
ATOM     92  C   UNL A   1      45.805  32.876  30.439  1.00  0.00     0.173 A 
ATOM     93  F   UNL A   1      44.562  33.780  27.138  1.00  0.00    -0.203 F 
ATOM     94  C   UNL A   1      45.256  35.138  28.933  1.00  0.00     0.198 A 
ATOM     95  C   UNL A   1      45.979  34.136  30.993  1.00  0.00     0.198 A 
ATOM     96  F   UNL A   1      46.060  31.797  31.197  1.00  0.00    -0.203 F 
ATOM     97  F   UNL A   1      45.015  36.232  28.198  1.00  0.00    -0.200 F 
ATOM     98  C   UNL A   1      45.712  35.266  30.238  1.00  0.00     0.200 A 
ATOM     99  F   UNL A   1      46.384  34.255  32.265  1.00  0.00    -0.200 F 
ATOM    100  F   UNL A   1      45.890  36.483  30.770  1.00  0.00    -0.200 F 
ENDBRANCH  67  90
ENDBRANCH  41  42
ENDBRANCH  34  36
ENDBRANCH  33  34
ENDBRANCH  32  33
ENDBRANCH   1  32
TORSDOF 15
ENDMDL
MODEL 3
REMARK VINA RESULT:     -12.5      2.452      3.825
REMARK SMILES CC(=O)Oc1ccc([C@H]2Nc3c(C(=O)OCCOC(=O)c4ccc(-c5c6nc(c(-c7c(F)c(F)c(F)c(F)c7F)c7ccc([nH]7)c(-c7c(F)c(F)c(F)c(F)c7F)c7nc(c(-c8c(F)c(F)c(F)c(F)c8F)c8ccc5[nH]8)C=C7)C=C6)cc4)ccc([N+](=O)[O-])c3[C@H]3C=CC[C@@H]32)cc1
REMARK SMILES IDX 16 1 15 2 13 3 14 4 12 5 9 6 10 7 95 8 11 9 91 11 94 12
REMARK SMILES IDX 90 13 92 14 93 15 84 16 86 17 85 18 8 19 5 20 6 21 97 22
REMARK SMILES IDX 7 23 96 24 4 25 2 26 1 27 3 28 87 29 88 30 89 31 17 32 18 33
REMARK SMILES IDX 19 34 20 35 21 36 22 37 83 38 23 39 82 40 24 41 25 42 26 43
REMARK SMILES IDX 76 44 27 45 81 46 75 47 77 48 28 49 80 50 74 51 73 52 29 54
REMARK SMILES IDX 61 55 41 56 60 57 42 58 45 59 59 60 78 61 43 62 44 63 58 65
REMARK SMILES IDX 79 66 46 67 30 68 31 69 39 70 32 71 33 72 37 73 40 74 34 75
REMARK SMILES IDX 35 76 38 77 36 78 62 79 63 80 71 81 64 82 65 83 69 84 72 85
REMARK SMILES IDX 66 86 67 87 70 88 68 89 47 90 48 91 56 92 49 93 50 94 54 95
REMARK SMILES IDX 57 96 51 97 52 98 55 99 53 100
REMARK H PARENT 10 10 77 53 45 64
REMARK Flexibility Score: inf
ROOT
ATOM      1  C   UNL A   1      35.410  21.468  26.100  1.00  0.00     0.275 C 
ENDROOT
BRANCH   1   2
ATOM      2  O   UNL A   1      34.425  22.220  25.362  1.00  0.00    -0.458 OA
BRANCH   2   3
ATOM      3  C   UNL A   1      34.439  23.549  25.629  1.00  0.00     0.340 C 
ATOM      4  O   UNL A   1      34.453  24.059  26.737  1.00  0.00    -0.246 OA
BRANCH   3   5
ATOM      5  C   UNL A   1      34.087  24.327  24.430  1.00  0.00     0.084 A 
ATOM      6  C   UNL A   1      33.735  28.152  25.192  1.00  0.00     0.114 C 
ATOM      7  N   UNL A   1      34.141  26.694  25.344  1.00  0.00    -0.377 N 
ATOM      8  C   UNL A   1      32.429  28.069  24.350  1.00  0.00     0.031 C 
ATOM      9  C   UNL A   1      33.907  25.741  24.302  1.00  0.00     0.060 A 
ATOM     10  H   UNL A   1      34.576  26.400  26.177  1.00  0.00     0.161 HD
ATOM     11  C   UNL A   1      32.996  27.659  22.963  1.00  0.00     0.056 C 
ATOM     12  C   UNL A   1      31.330  29.102  24.068  1.00  0.00     0.034 C 
ATOM     13  C   UNL A   1      33.296  26.182  23.072  1.00  0.00     0.061 A 
ATOM     14  C   UNL A   1      32.018  28.233  22.002  1.00  0.00    -0.022 C 
ATOM     15  C   UNL A   1      31.118  29.017  22.595  1.00  0.00    -0.030 C 
ATOM     16  C   UNL A   1      33.734  23.427  23.398  1.00  0.00     0.025 A 
ATOM     17  C   UNL A   1      33.004  25.244  22.055  1.00  0.00     0.275 A 
ATOM     18  C   UNL A   1      33.207  23.879  22.207  1.00  0.00     0.087 A 
BRANCH   6  19
ATOM     19  C   UNL A   1      33.892  29.097  26.411  1.00  0.00    -0.025 A 
ATOM     20  C   UNL A   1      34.373  31.219  28.315  1.00  0.00     0.130 A 
ATOM     21  C   UNL A   1      35.332  30.243  28.088  1.00  0.00     0.047 A 
ATOM     22  C   UNL A   1      33.216  31.199  27.546  1.00  0.00     0.047 A 
ATOM     23  C   UNL A   1      35.099  29.216  27.132  1.00  0.00     0.010 A 
ATOM     24  C   UNL A   1      32.970  30.132  26.661  1.00  0.00     0.010 A 
BRANCH  20  25
ATOM     25  O   UNL A   1      34.426  32.184  29.357  1.00  0.00    -0.427 OA
BRANCH  25  26
ATOM     26  C   UNL A   1      34.178  33.540  29.071  1.00  0.00     0.308 C 
ATOM     27  C   UNL A   1      35.215  34.086  28.113  1.00  0.00     0.139 C 
ATOM     28  O   UNL A   1      33.185  34.175  29.405  1.00  0.00    -0.252 OA
ENDBRANCH  25  26
ENDBRANCH  20  25
ENDBRANCH   6  19
BRANCH  17  29
ATOM     29  N   UNL A   1      32.485  25.639  20.765  1.00  0.00     0.063 N 
ATOM     30  O   UNL A   1      31.289  25.953  20.710  1.00  0.00    -0.258 OA
ATOM     31  O   UNL A   1      33.269  25.577  19.808  1.00  0.00    -0.258 OA
ENDBRANCH  17  29
ENDBRANCH   3   5
ENDBRANCH   2   3
ENDBRANCH   1   2
BRANCH   1  32
ATOM     32  C   UNL A   1      36.624  21.149  25.227  1.00  0.00     0.275 C 
BRANCH  32  33
ATOM     33  O   UNL A   1      37.643  22.168  25.333  1.00  0.00    -0.458 OA
BRANCH  33  34
ATOM     34  C   UNL A   1      38.735  21.808  26.043  1.00  0.00     0.338 C 
ATOM     35  O   UNL A   1      39.228  20.687  26.127  1.00  0.00    -0.246 OA
BRANCH  34  36
ATOM     36  C   UNL A   1      39.391  22.963  26.672  1.00  0.00     0.060 A 
ATOM     37  C   UNL A   1      39.160  24.241  26.160  1.00  0.00     0.016 A 
ATOM     38  C   UNL A   1      40.422  22.765  27.581  1.00  0.00     0.016 A 
ATOM     39  C   UNL A   1      39.994  25.303  26.483  1.00  0.00     0.010 A 
ATOM     40  C   UNL A   1      41.197  23.861  27.987  1.00  0.00     0.010 A 
ATOM     41  C   UNL A   1      41.018  25.136  27.416  1.00  0.00    -0.014 A 
BRANCH  41  42
ATOM     42  C   UNL A   1      41.827  26.320  27.815  1.00  0.00     0.031 A 
ATOM     43  C   UNL A   1      41.283  27.461  28.624  1.00  0.00     0.074 A 
ATOM     44  C   UNL A   1      43.105  26.398  27.422  1.00  0.00     0.049 A 
ATOM     45  N   UNL A   1      41.885  28.456  29.239  1.00  0.00    -0.248 NA
ATOM     46  C   UNL A   1      39.841  27.466  28.782  1.00  0.00     0.031 C 
ATOM     47  C   UNL A   1      43.833  25.399  26.645  1.00  0.00     0.029 A 
ATOM     48  N   UNL A   1      43.995  27.419  27.598  1.00  0.00    -0.354 N 
ATOM     49  C   UNL A   1      40.887  29.122  29.942  1.00  0.00     0.074 A 
ATOM     50  C   UNL A   1      39.667  28.461  29.632  1.00  0.00     0.031 C 
ATOM     51  C   UNL A   1      45.054  25.877  26.372  1.00  0.00     0.029 A 
ATOM     52  C   UNL A   1      45.152  27.237  26.898  1.00  0.00     0.049 A 
ATOM     53  H   UNL A   1      43.820  28.202  28.167  1.00  0.00     0.167 HD
ATOM     54  C   UNL A   1      40.898  30.246  30.699  1.00  0.00     0.037 A 
ATOM     55  C   UNL A   1      46.142  28.109  26.654  1.00  0.00     0.037 A 
ATOM     56  C   UNL A   1      41.973  31.178  30.636  1.00  0.00     0.049 A 
ATOM     57  C   UNL A   1      46.068  29.496  27.226  1.00  0.00     0.074 A 
ATOM     58  C   UNL A   1      42.039  32.461  31.142  1.00  0.00     0.029 A 
ATOM     59  N   UNL A   1      43.093  30.976  29.856  1.00  0.00    -0.354 N 
ATOM     60  N   UNL A   1      45.158  30.036  28.001  1.00  0.00    -0.248 NA
ATOM     61  C   UNL A   1      47.169  30.401  26.876  1.00  0.00     0.031 C 
ATOM     62  C   UNL A   1      43.095  33.101  30.489  1.00  0.00     0.029 A 
ATOM     63  C   UNL A   1      43.786  32.157  29.742  1.00  0.00     0.049 A 
ATOM     64  H   UNL A   1      43.354  30.120  29.444  1.00  0.00     0.167 HD
ATOM     65  C   UNL A   1      45.585  31.336  28.246  1.00  0.00     0.074 A 
ATOM     66  C   UNL A   1      46.837  31.500  27.540  1.00  0.00     0.031 C 
ATOM     67  C   UNL A   1      45.006  32.304  28.998  1.00  0.00     0.037 A 
BRANCH  54  68
ATOM     68  C   UNL A   1      39.624  30.643  31.406  1.00  0.00     0.064 A 
ATOM     69  C   UNL A   1      38.690  31.514  30.821  1.00  0.00     0.173 A 
ATOM     70  C   UNL A   1      39.368  30.205  32.715  1.00  0.00     0.173 A 
ATOM     71  F   UNL A   1      38.896  31.995  29.586  1.00  0.00    -0.203 F 
ATOM     72  C   UNL A   1      37.571  31.951  31.532  1.00  0.00     0.198 A 
ATOM     73  C   UNL A   1      38.239  30.626  33.413  1.00  0.00     0.198 A 
ATOM     74  F   UNL A   1      40.245  29.407  33.343  1.00  0.00    -0.203 F 
ATOM     75  F   UNL A   1      36.732  32.839  30.979  1.00  0.00    -0.200 F 
ATOM     76  C   UNL A   1      37.348  31.509  32.826  1.00  0.00     0.200 A 
ATOM     77  F   UNL A   1      38.041  30.213  34.673  1.00  0.00    -0.200 F 
ATOM     78  F   UNL A   1      36.295  31.959  33.523  1.00  0.00    -0.200 F 
ENDBRANCH  54  68
BRANCH  55  79
ATOM     79  C   UNL A   1      47.257  27.668  25.789  1.00  0.00     0.064 A 
ATOM     80  C   UNL A   1      47.163  27.787  24.400  1.00  0.00     0.173 A 
ATOM     81  C   UNL A   1      48.462  27.198  26.336  1.00  0.00     0.173 A 
ATOM     82  F   UNL A   1      46.026  28.227  23.843  1.00  0.00    -0.203 F 
ATOM     83  C   UNL A   1      48.233  27.445  23.582  1.00  0.00     0.198 A 
ATOM     84  C   UNL A   1      49.544  26.887  25.518  1.00  0.00     0.198 A 
ATOM     85  F   UNL A   1      48.603  27.087  27.666  1.00  0.00    -0.203 F 
ATOM     86  F   UNL A   1      48.113  27.542  22.252  1.00  0.00    -0.200 F 
ATOM     87  C   UNL A   1      49.425  27.005  24.142  1.00  0.00     0.200 A 
ATOM     88  F   UNL A   1      50.701  26.489  26.063  1.00  0.00    -0.200 F 
ATOM     89  F   UNL A   1      50.463  26.696  23.352  1.00  0.00    -0.200 F 
ENDBRANCH  55  79
BRANCH  67  90
ATOM     90  C   UNL A   1      45.699  33.623  29.128  1.00  0.00     0.064 A 
ATOM     91  C   UNL A   1      46.688  33.850  30.092  1.00  0.00     0.173 A 
ATOM     92  C   UNL A   1      45.459  34.623  28.172  1.00  0.00     0.173 A 
ATOM     93  F   UNL A   1      46.958  32.918  31.019  1.00  0.00    -0.203 F 
ATOM     94  C   UNL A   1      47.400  35.044  30.107  1.00  0.00     0.198 A 
ATOM     95  C   UNL A   1      46.202  35.795  28.164  1.00  0.00     0.198 A 
ATOM     96  F   UNL A   1      44.539  34.437  27.213  1.00  0.00    -0.203 F 
ATOM     97  F   UNL A   1      48.321  35.260  31.056  1.00  0.00    -0.200 F 
ATOM     98  C   UNL A   1      47.166  36.009  29.136  1.00  0.00     0.200 A 
ATOM     99  F   UNL A   1      45.999  36.707  27.204  1.00  0.00    -0.200 F 
ATOM    100  F   UNL A   1      47.877  37.144  29.134  1.00  0.00    -0.200 F 
ENDBRANCH  67  90
ENDBRANCH  41  42
ENDBRANCH  34  36
ENDBRANCH  33  34
ENDBRANCH  32  33
ENDBRANCH   1  32
TORSDOF 15
ENDMDL
