MODEL 1
REMARK VINA RESULT:     -11.1      0.000      0.000
REMARK SMILES O=C(OCCOC(=O)c1ccn(Cc2c(Cl)cccc2Cl)c1)c1ccc(-c2c3nc(c(-c4c(F)c(F)c(F)c(F)c4F)c4ccc([nH]4)c(-c4c(F)c(F)c(F)c(F)c4F)c4nc(c(-c5c(F)c(F)c(F)c(F)c5F)c5ccc2[nH]5)C=C4)C=C3)cc1
REMARK SMILES IDX 4 1 3 2 2 3 1 4 23 5 24 6 85 7 25 8 84 9 26 10 27 11 28 12
REMARK SMILES IDX 78 13 29 14 83 15 77 16 79 17 30 18 82 19 76 20 75 21 31 23
REMARK SMILES IDX 63 24 43 25 62 26 44 27 47 28 61 29 80 30 45 31 46 32 60 34
REMARK SMILES IDX 81 35 48 36 32 37 33 38 41 39 34 40 35 41 39 42 42 43 36 44
REMARK SMILES IDX 37 45 40 46 38 47 64 48 65 49 73 50 66 51 67 52 71 53 74 54
REMARK SMILES IDX 68 55 69 56 72 57 70 58 49 59 50 60 58 61 51 62 52 63 56 64
REMARK SMILES IDX 59 65 53 66 54 67 57 68 55 69 5 70 6 71 7 72 8 73 9 74 10 75
REMARK SMILES IDX 22 76 11 77 12 78 13 79 14 80 15 81 20 82 16 83 17 84 19 85
REMARK SMILES IDX 21 86 18 87
REMARK H PARENT 79 22 47 33
REMARK Flexibility Score: inf
ROOT
ATOM      1  C   UNL A   1      33.843  33.087  28.159  1.00  0.00     0.275 C 
ENDROOT
BRANCH   1   2
ATOM      2  O   UNL A   1      34.589  32.013  28.772  1.00  0.00    -0.458 OA
BRANCH   2   3
ATOM      3  C   UNL A   1      34.863  30.842  28.149  1.00  0.00     0.338 C 
ATOM      4  O   UNL A   1      34.245  30.473  27.158  1.00  0.00    -0.246 OA
BRANCH   3   5
ATOM      5  C   UNL A   1      36.162  30.203  28.483  1.00  0.00     0.060 A 
ATOM      6  C   UNL A   1      36.411  29.520  29.674  1.00  0.00     0.016 A 
ATOM      7  C   UNL A   1      37.179  30.282  27.515  1.00  0.00     0.016 A 
ATOM      8  C   UNL A   1      37.680  29.020  29.945  1.00  0.00     0.010 A 
ATOM      9  C   UNL A   1      38.442  29.743  27.761  1.00  0.00     0.010 A 
ATOM     10  C   UNL A   1      38.697  29.133  28.993  1.00  0.00    -0.014 A 
BRANCH  10  11
ATOM     11  C   UNL A   1      40.018  28.552  29.321  1.00  0.00     0.031 A 
ATOM     12  C   UNL A   1      40.236  27.119  28.811  1.00  0.00     0.074 A 
ATOM     13  C   UNL A   1      40.816  29.327  30.105  1.00  0.00     0.049 A 
ATOM     14  N   UNL A   1      41.138  26.231  29.125  1.00  0.00    -0.248 NA
ATOM     15  C   UNL A   1      39.269  26.585  27.816  1.00  0.00     0.031 C 
ATOM     16  C   UNL A   1      40.487  30.688  30.569  1.00  0.00     0.029 A 
ATOM     17  N   UNL A   1      42.036  29.114  30.701  1.00  0.00    -0.354 N 
ATOM     18  C   UNL A   1      40.940  25.123  28.281  1.00  0.00     0.074 A 
ATOM     19  C   UNL A   1      39.739  25.368  27.543  1.00  0.00     0.031 C 
ATOM     20  C   UNL A   1      41.417  31.133  31.438  1.00  0.00     0.029 A 
ATOM     21  C   UNL A   1      42.440  30.121  31.608  1.00  0.00     0.049 A 
ATOM     22  H   UNL A   1      42.586  28.321  30.512  1.00  0.00     0.167 HD
ATOM     23  C   UNL A   1      41.800  24.079  28.146  1.00  0.00     0.037 A 
ATOM     24  C   UNL A   1      43.488  30.104  32.487  1.00  0.00     0.037 A 
ATOM     25  C   UNL A   1      42.913  24.108  29.024  1.00  0.00     0.049 A 
ATOM     26  C   UNL A   1      44.165  28.820  32.241  1.00  0.00     0.074 A 
ATOM     27  C   UNL A   1      43.309  23.437  30.154  1.00  0.00     0.029 A 
ATOM     28  N   UNL A   1      43.891  25.003  28.705  1.00  0.00    -0.354 N 
ATOM     29  N   UNL A   1      44.959  28.579  31.244  1.00  0.00    -0.248 NA
ATOM     30  C   UNL A   1      43.768  27.671  33.055  1.00  0.00     0.031 C 
ATOM     31  C   UNL A   1      44.459  24.121  30.632  1.00  0.00     0.029 A 
ATOM     32  C   UNL A   1      44.622  25.249  29.836  1.00  0.00     0.049 A 
ATOM     33  H   UNL A   1      44.045  25.402  27.819  1.00  0.00     0.167 HD
ATOM     34  C   UNL A   1      44.960  27.203  31.154  1.00  0.00     0.074 A 
ATOM     35  C   UNL A   1      44.339  26.692  32.362  1.00  0.00     0.031 C 
ATOM     36  C   UNL A   1      45.148  26.572  29.971  1.00  0.00     0.037 A 
BRANCH  23  37
ATOM     37  C   UNL A   1      41.908  23.071  27.041  1.00  0.00     0.064 A 
ATOM     38  C   UNL A   1      41.647  21.719  27.320  1.00  0.00     0.173 A 
ATOM     39  C   UNL A   1      42.750  23.347  25.950  1.00  0.00     0.173 A 
ATOM     40  F   UNL A   1      40.881  21.386  28.370  1.00  0.00    -0.203 F 
ATOM     41  C   UNL A   1      42.263  20.694  26.598  1.00  0.00     0.198 A 
ATOM     42  C   UNL A   1      43.337  22.319  25.206  1.00  0.00     0.198 A 
ATOM     43  F   UNL A   1      43.109  24.610  25.678  1.00  0.00    -0.203 F 
ATOM     44  F   UNL A   1      42.086  19.418  26.966  1.00  0.00    -0.200 F 
ATOM     45  C   UNL A   1      43.119  20.996  25.551  1.00  0.00     0.200 A 
ATOM     46  F   UNL A   1      44.176  22.617  24.203  1.00  0.00    -0.200 F 
ATOM     47  F   UNL A   1      43.764  20.015  24.903  1.00  0.00    -0.200 F 
ENDBRANCH  23  37
BRANCH  24  48
ATOM     48  C   UNL A   1      43.971  30.948  33.637  1.00  0.00     0.064 A 
ATOM     49  C   UNL A   1      45.208  31.603  33.714  1.00  0.00     0.173 A 
ATOM     50  C   UNL A   1      43.124  31.167  34.758  1.00  0.00     0.173 A 
ATOM     51  F   UNL A   1      46.167  31.380  32.810  1.00  0.00    -0.203 F 
ATOM     52  C   UNL A   1      45.518  32.496  34.754  1.00  0.00     0.198 A 
ATOM     53  C   UNL A   1      43.427  32.060  35.787  1.00  0.00     0.198 A 
ATOM     54  F   UNL A   1      41.955  30.524  34.890  1.00  0.00    -0.203 F 
ATOM     55  F   UNL A   1      46.702  33.126  34.756  1.00  0.00    -0.200 F 
ATOM     56  C   UNL A   1      44.618  32.746  35.773  1.00  0.00     0.200 A 
ATOM     57  F   UNL A   1      42.542  32.260  36.776  1.00  0.00    -0.200 F 
ATOM     58  F   UNL A   1      44.900  33.629  36.740  1.00  0.00    -0.200 F 
ENDBRANCH  24  48
BRANCH  36  59
ATOM     59  C   UNL A   1      45.434  27.494  28.819  1.00  0.00     0.064 A 
ATOM     60  C   UNL A   1      46.744  27.790  28.444  1.00  0.00     0.173 A 
ATOM     61  C   UNL A   1      44.403  28.162  28.129  1.00  0.00     0.173 A 
ATOM     62  F   UNL A   1      47.771  27.196  29.068  1.00  0.00    -0.203 F 
ATOM     63  C   UNL A   1      47.005  28.694  27.412  1.00  0.00     0.198 A 
ATOM     64  C   UNL A   1      44.660  29.052  27.093  1.00  0.00     0.198 A 
ATOM     65  F   UNL A   1      43.123  27.924  28.433  1.00  0.00    -0.203 F 
ATOM     66  F   UNL A   1      48.272  28.955  27.062  1.00  0.00    -0.200 F 
ATOM     67  C   UNL A   1      45.966  29.320  26.735  1.00  0.00     0.200 A 
ATOM     68  F   UNL A   1      43.642  29.627  26.434  1.00  0.00    -0.200 F 
ATOM     69  F   UNL A   1      46.223  30.167  25.729  1.00  0.00    -0.200 F 
ENDBRANCH  36  59
ENDBRANCH  10  11
ENDBRANCH   3   5
ENDBRANCH   2   3
ENDBRANCH   1   2
BRANCH   1  70
ATOM     70  C   UNL A   1      33.906  34.434  28.880  1.00  0.00     0.275 C 
BRANCH  70  71
ATOM     71  O   UNL A   1      32.819  34.596  29.803  1.00  0.00    -0.458 OA
BRANCH  71  72
ATOM     72  C   UNL A   1      33.008  35.511  30.794  1.00  0.00     0.339 C 
ATOM     73  O   UNL A   1      32.546  36.659  30.793  1.00  0.00    -0.246 OA
BRANCH  72  74
ATOM     74  C   UNL A   1      33.802  34.979  31.878  1.00  0.00     0.077 A 
ATOM     75  C   UNL A   1      33.407  34.019  32.847  1.00  0.00     0.035 A 
ATOM     76  C   UNL A   1      35.124  35.292  32.151  1.00  0.00     0.101 A 
ATOM     77  C   UNL A   1      34.499  33.759  33.644  1.00  0.00     0.087 A 
ATOM     78  N   UNL A   1      35.548  34.534  33.216  1.00  0.00    -0.349 N 
BRANCH  78  79
ATOM     79  C   UNL A   1      36.941  34.455  33.667  1.00  0.00     0.160 C 
BRANCH  79  80
ATOM     80  C   UNL A   1      37.425  33.048  33.933  1.00  0.00     0.009 A 
ATOM     81  C   UNL A   1      37.641  32.579  35.246  1.00  0.00     0.047 A 
ATOM     82  C   UNL A   1      37.670  32.147  32.881  1.00  0.00     0.047 A 
ATOM     83  Cl  UNL A   1      37.238  33.515  36.646  1.00  0.00    -0.084 Cl
ATOM     84  C   UNL A   1      38.151  31.300  35.490  1.00  0.00     0.021 A 
ATOM     85  C   UNL A   1      38.117  30.844  33.134  1.00  0.00     0.021 A 
ATOM     86  Cl  UNL A   1      37.411  32.567  31.222  1.00  0.00    -0.084 Cl
ATOM     87  C   UNL A   1      38.383  30.428  34.435  1.00  0.00     0.003 A 
ENDBRANCH  79  80
ENDBRANCH  78  79
ENDBRANCH  72  74
ENDBRANCH  71  72
ENDBRANCH  70  71
ENDBRANCH   1  70
TORSDOF 13
ENDMDL
MODEL 2
REMARK VINA RESULT:     -10.8      5.194     10.729
REMARK SMILES O=C(OCCOC(=O)c1ccn(Cc2c(Cl)cccc2Cl)c1)c1ccc(-c2c3nc(c(-c4c(F)c(F)c(F)c(F)c4F)c4ccc([nH]4)c(-c4c(F)c(F)c(F)c(F)c4F)c4nc(c(-c5c(F)c(F)c(F)c(F)c5F)c5ccc2[nH]5)C=C4)C=C3)cc1
REMARK SMILES IDX 4 1 3 2 2 3 1 4 23 5 24 6 85 7 25 8 84 9 26 10 27 11 28 12
REMARK SMILES IDX 78 13 29 14 83 15 77 16 79 17 30 18 82 19 76 20 75 21 31 23
REMARK SMILES IDX 63 24 43 25 62 26 44 27 47 28 61 29 80 30 45 31 46 32 60 34
REMARK SMILES IDX 81 35 48 36 32 37 33 38 41 39 34 40 35 41 39 42 42 43 36 44
REMARK SMILES IDX 37 45 40 46 38 47 64 48 65 49 73 50 66 51 67 52 71 53 74 54
REMARK SMILES IDX 68 55 69 56 72 57 70 58 49 59 50 60 58 61 51 62 52 63 56 64
REMARK SMILES IDX 59 65 53 66 54 67 57 68 55 69 5 70 6 71 7 72 8 73 9 74 10 75
REMARK SMILES IDX 22 76 11 77 12 78 13 79 14 80 15 81 20 82 16 83 17 84 19 85
REMARK SMILES IDX 21 86 18 87
REMARK H PARENT 79 22 47 33
REMARK Flexibility Score: inf
ROOT
ATOM      1  C   UNL A   1      43.419  21.387  25.567  1.00  0.00     0.275 C 
ENDROOT
BRANCH   1   2
ATOM      2  O   UNL A   1      42.984  22.654  25.028  1.00  0.00    -0.458 OA
BRANCH   2   3
ATOM      3  C   UNL A   1      43.715  23.792  25.110  1.00  0.00     0.338 C 
ATOM      4  O   UNL A   1      44.531  24.103  24.252  1.00  0.00    -0.246 OA
BRANCH   3   5
ATOM      5  C   UNL A   1      43.236  24.817  26.074  1.00  0.00     0.060 A 
ATOM      6  C   UNL A   1      43.740  26.116  26.145  1.00  0.00     0.016 A 
ATOM      7  C   UNL A   1      42.193  24.440  26.939  1.00  0.00     0.016 A 
ATOM      8  C   UNL A   1      43.294  26.990  27.129  1.00  0.00     0.010 A 
ATOM      9  C   UNL A   1      41.709  25.327  27.900  1.00  0.00     0.010 A 
ATOM     10  C   UNL A   1      42.282  26.598  28.010  1.00  0.00    -0.014 A 
BRANCH  10  11
ATOM     11  C   UNL A   1      41.822  27.581  29.015  1.00  0.00     0.031 A 
ATOM     12  C   UNL A   1      42.489  27.454  30.393  1.00  0.00     0.074 A 
ATOM     13  C   UNL A   1      40.811  28.397  28.611  1.00  0.00     0.049 A 
ATOM     14  N   UNL A   1      42.158  27.958  31.550  1.00  0.00    -0.248 NA
ATOM     15  C   UNL A   1      43.699  26.597  30.499  1.00  0.00     0.031 C 
ATOM     16  C   UNL A   1      40.218  28.410  27.260  1.00  0.00     0.029 A 
ATOM     17  N   UNL A   1      40.054  29.344  29.258  1.00  0.00    -0.354 N 
ATOM     18  C   UNL A   1      43.173  27.610  32.460  1.00  0.00     0.074 A 
ATOM     19  C   UNL A   1      44.061  26.720  31.776  1.00  0.00     0.031 C 
ATOM     20  C   UNL A   1      39.150  29.232  27.216  1.00  0.00     0.029 A 
ATOM     21  C   UNL A   1      38.956  29.840  28.516  1.00  0.00     0.049 A 
ATOM     22  H   UNL A   1      40.259  29.653  30.169  1.00  0.00     0.167 HD
ATOM     23  C   UNL A   1      43.310  28.120  33.712  1.00  0.00     0.037 A 
ATOM     24  C   UNL A   1      37.925  30.628  28.947  1.00  0.00     0.037 A 
ATOM     25  C   UNL A   1      42.261  28.982  34.121  1.00  0.00     0.049 A 
ATOM     26  C   UNL A   1      38.234  30.917  30.357  1.00  0.00     0.074 A 
ATOM     27  C   UNL A   1      41.189  28.913  34.975  1.00  0.00     0.029 A 
ATOM     28  N   UNL A   1      42.278  30.231  33.570  1.00  0.00    -0.354 N 
ATOM     29  N   UNL A   1      39.107  31.787  30.761  1.00  0.00    -0.248 NA
ATOM     30  C   UNL A   1      37.673  30.030  31.376  1.00  0.00     0.031 C 
ATOM     31  C   UNL A   1      40.430  30.092  34.745  1.00  0.00     0.029 A 
ATOM     32  C   UNL A   1      41.016  30.751  33.671  1.00  0.00     0.049 A 
ATOM     33  H   UNL A   1      43.058  30.678  33.172  1.00  0.00     0.167 HD
ATOM     34  C   UNL A   1      39.392  31.389  32.049  1.00  0.00     0.074 A 
ATOM     35  C   UNL A   1      38.393  30.406  32.428  1.00  0.00     0.031 C 
ATOM     36  C   UNL A   1      40.605  31.616  32.608  1.00  0.00     0.037 A 
BRANCH  23  37
ATOM     37  C   UNL A   1      44.514  28.142  34.605  1.00  0.00     0.064 A 
ATOM     38  C   UNL A   1      44.446  27.515  35.862  1.00  0.00     0.173 A 
ATOM     39  C   UNL A   1      45.449  29.181  34.460  1.00  0.00     0.173 A 
ATOM     40  F   UNL A   1      43.549  26.540  36.078  1.00  0.00    -0.203 F 
ATOM     41  C   UNL A   1      45.213  27.960  36.940  1.00  0.00     0.198 A 
ATOM     42  C   UNL A   1      46.241  29.601  35.533  1.00  0.00     0.198 A 
ATOM     43  F   UNL A   1      45.510  29.878  33.316  1.00  0.00    -0.203 F 
ATOM     44  F   UNL A   1      45.037  27.420  38.153  1.00  0.00    -0.200 F 
ATOM     45  C   UNL A   1      46.100  29.013  36.778  1.00  0.00     0.200 A 
ATOM     46  F   UNL A   1      47.087  30.629  35.373  1.00  0.00    -0.200 F 
ATOM     47  F   UNL A   1      46.784  29.487  37.829  1.00  0.00    -0.200 F 
ENDBRANCH  23  37
BRANCH  24  48
ATOM     48  C   UNL A   1      36.600  31.096  28.405  1.00  0.00     0.064 A 
ATOM     49  C   UNL A   1      35.551  30.272  27.973  1.00  0.00     0.173 A 
ATOM     50  C   UNL A   1      36.316  32.487  28.337  1.00  0.00     0.173 A 
ATOM     51  F   UNL A   1      35.716  28.953  27.840  1.00  0.00    -0.203 F 
ATOM     52  C   UNL A   1      34.290  30.787  27.626  1.00  0.00     0.198 A 
ATOM     53  C   UNL A   1      35.061  33.000  28.001  1.00  0.00     0.198 A 
ATOM     54  F   UNL A   1      37.251  33.409  28.607  1.00  0.00    -0.203 F 
ATOM     55  F   UNL A   1      33.310  29.950  27.258  1.00  0.00    -0.200 F 
ATOM     56  C   UNL A   1      34.037  32.146  27.667  1.00  0.00     0.200 A 
ATOM     57  F   UNL A   1      34.856  34.325  28.025  1.00  0.00    -0.200 F 
ATOM     58  F   UNL A   1      32.822  32.630  27.376  1.00  0.00    -0.200 F 
ENDBRANCH  24  48
BRANCH  36  59
ATOM     59  C   UNL A   1      41.547  32.400  31.738  1.00  0.00     0.064 A 
ATOM     60  C   UNL A   1      41.692  33.777  31.897  1.00  0.00     0.173 A 
ATOM     61  C   UNL A   1      42.253  31.798  30.678  1.00  0.00     0.173 A 
ATOM     62  F   UNL A   1      41.039  34.412  32.880  1.00  0.00    -0.203 F 
ATOM     63  C   UNL A   1      42.523  34.511  31.047  1.00  0.00     0.198 A 
ATOM     64  C   UNL A   1      43.091  32.524  29.839  1.00  0.00     0.198 A 
ATOM     65  F   UNL A   1      42.164  30.481  30.469  1.00  0.00    -0.203 F 
ATOM     66  F   UNL A   1      42.655  35.833  31.225  1.00  0.00    -0.200 F 
ATOM     67  C   UNL A   1      43.224  33.885  30.024  1.00  0.00     0.200 A 
ATOM     68  F   UNL A   1      43.779  31.898  28.872  1.00  0.00    -0.200 F 
ATOM     69  F   UNL A   1      44.039  34.591  29.228  1.00  0.00    -0.200 F 
ENDBRANCH  36  59
ENDBRANCH  10  11
ENDBRANCH   3   5
ENDBRANCH   2   3
ENDBRANCH   1   2
BRANCH   1  70
ATOM     70  C   UNL A   1      42.325  20.524  26.197  1.00  0.00     0.275 C 
BRANCH  70  71
ATOM     71  O   UNL A   1      41.013  20.952  25.802  1.00  0.00    -0.458 OA
BRANCH  71  72
ATOM     72  C   UNL A   1      40.237  21.485  26.787  1.00  0.00     0.339 C 
ATOM     73  O   UNL A   1      40.502  21.446  27.995  1.00  0.00    -0.246 OA
BRANCH  72  74
ATOM     74  C   UNL A   1      39.061  22.135  26.256  1.00  0.00     0.077 A 
ATOM     75  C   UNL A   1      38.626  23.465  26.498  1.00  0.00     0.035 A 
ATOM     76  C   UNL A   1      38.147  21.577  25.376  1.00  0.00     0.101 A 
ATOM     77  C   UNL A   1      37.497  23.679  25.739  1.00  0.00     0.087 A 
ATOM     78  N   UNL A   1      37.208  22.526  25.052  1.00  0.00    -0.349 N 
BRANCH  78  79
ATOM     79  C   UNL A   1      36.197  22.359  24.002  1.00  0.00     0.160 C 
BRANCH  79  80
ATOM     80  C   UNL A   1      34.791  22.165  24.523  1.00  0.00     0.009 A 
ATOM     81  C   UNL A   1      33.917  23.257  24.704  1.00  0.00     0.047 A 
ATOM     82  C   UNL A   1      34.297  20.886  24.836  1.00  0.00     0.047 A 
ATOM     83  Cl  UNL A   1      34.325  24.868  24.218  1.00  0.00    -0.084 Cl
ATOM     84  C   UNL A   1      32.638  23.085  25.246  1.00  0.00     0.021 A 
ATOM     85  C   UNL A   1      32.993  20.713  25.316  1.00  0.00     0.021 A 
ATOM     86  Cl  UNL A   1      35.240  19.451  24.626  1.00  0.00    -0.084 Cl
ATOM     87  C   UNL A   1      32.172  21.813  25.547  1.00  0.00     0.003 A 
ENDBRANCH  79  80
ENDBRANCH  78  79
ENDBRANCH  72  74
ENDBRANCH  71  72
ENDBRANCH  70  71
ENDBRANCH   1  70
TORSDOF 13
ENDMDL
MODEL 3
REMARK VINA RESULT:     -10.8      4.626     10.911
REMARK SMILES O=C(OCCOC(=O)c1ccn(Cc2c(Cl)cccc2Cl)c1)c1ccc(-c2c3nc(c(-c4c(F)c(F)c(F)c(F)c4F)c4ccc([nH]4)c(-c4c(F)c(F)c(F)c(F)c4F)c4nc(c(-c5c(F)c(F)c(F)c(F)c5F)c5ccc2[nH]5)C=C4)C=C3)cc1
REMARK SMILES IDX 4 1 3 2 2 3 1 4 23 5 24 6 85 7 25 8 84 9 26 10 27 11 28 12
REMARK SMILES IDX 78 13 29 14 83 15 77 16 79 17 30 18 82 19 76 20 75 21 31 23
REMARK SMILES IDX 63 24 43 25 62 26 44 27 47 28 61 29 80 30 45 31 46 32 60 34
REMARK SMILES IDX 81 35 48 36 32 37 33 38 41 39 34 40 35 41 39 42 42 43 36 44
REMARK SMILES IDX 37 45 40 46 38 47 64 48 65 49 73 50 66 51 67 52 71 53 74 54
REMARK SMILES IDX 68 55 69 56 72 57 70 58 49 59 50 60 58 61 51 62 52 63 56 64
REMARK SMILES IDX 59 65 53 66 54 67 57 68 55 69 5 70 6 71 7 72 8 73 9 74 10 75
REMARK SMILES IDX 22 76 11 77 12 78 13 79 14 80 15 81 20 82 16 83 17 84 19 85
REMARK SMILES IDX 21 86 18 87
REMARK H PARENT 79 22 47 33
REMARK Flexibility Score: inf
ROOT
ATOM      1  C   UNL A   1      40.417  20.979  26.873  1.00  0.00     0.275 C 
ENDROOT
BRANCH   1   2
ATOM      2  O   UNL A   1      40.485  22.299  26.292  1.00  0.00    -0.458 OA
BRANCH   2   3
ATOM      3  C   UNL A   1      39.443  23.164  26.277  1.00  0.00     0.338 C 
ATOM      4  O   UNL A   1      38.291  22.790  26.093  1.00  0.00    -0.246 OA
BRANCH   3   5
ATOM      5  C   UNL A   1      39.694  24.513  26.848  1.00  0.00     0.060 A 
ATOM      6  C   UNL A   1      40.301  25.555  26.146  1.00  0.00     0.016 A 
ATOM      7  C   UNL A   1      39.262  24.738  28.167  1.00  0.00     0.016 A 
ATOM      8  C   UNL A   1      40.574  26.763  26.779  1.00  0.00     0.010 A 
ATOM      9  C   UNL A   1      39.492  25.962  28.793  1.00  0.00     0.010 A 
ATOM     10  C   UNL A   1      40.173  26.968  28.102  1.00  0.00    -0.014 A 
BRANCH  10  11
ATOM     11  C   UNL A   1      40.459  28.285  28.714  1.00  0.00     0.031 A 
ATOM     12  C   UNL A   1      39.270  29.258  28.730  1.00  0.00     0.074 A 
ATOM     13  C   UNL A   1      41.751  28.484  29.090  1.00  0.00     0.049 A 
ATOM     14  N   UNL A   1      39.225  30.545  28.942  1.00  0.00    -0.248 NA
ATOM     15  C   UNL A   1      37.922  28.709  28.427  1.00  0.00     0.031 C 
ATOM     16  C   UNL A   1      42.828  27.480  28.996  1.00  0.00     0.029 A 
ATOM     17  N   UNL A   1      42.427  29.575  29.583  1.00  0.00    -0.354 N 
ATOM     18  C   UNL A   1      37.868  30.917  28.944  1.00  0.00     0.074 A 
ATOM     19  C   UNL A   1      37.116  29.762  28.559  1.00  0.00     0.031 C 
ATOM     20  C   UNL A   1      44.018  28.026  29.318  1.00  0.00     0.029 A 
ATOM     21  C   UNL A   1      43.830  29.420  29.665  1.00  0.00     0.049 A 
ATOM     22  H   UNL A   1      41.969  30.401  29.858  1.00  0.00     0.167 HD
ATOM     23  C   UNL A   1      37.389  32.126  29.341  1.00  0.00     0.037 A 
ATOM     24  C   UNL A   1      44.777  30.371  29.925  1.00  0.00     0.037 A 
ATOM     25  C   UNL A   1      38.385  33.083  29.664  1.00  0.00     0.049 A 
ATOM     26  C   UNL A   1      44.013  31.606  30.175  1.00  0.00     0.074 A 
ATOM     27  C   UNL A   1      38.906  34.213  29.085  1.00  0.00     0.029 A 
ATOM     28  N   UNL A   1      39.013  32.898  30.861  1.00  0.00    -0.354 N 
ATOM     29  N   UNL A   1      43.390  31.882  31.278  1.00  0.00    -0.248 NA
ATOM     30  C   UNL A   1      43.766  32.497  29.041  1.00  0.00     0.031 C 
ATOM     31  C   UNL A   1      40.031  34.573  29.876  1.00  0.00     0.029 A 
ATOM     32  C   UNL A   1      40.207  33.566  30.817  1.00  0.00     0.049 A 
ATOM     33  H   UNL A   1      38.669  32.377  31.621  1.00  0.00     0.167 HD
ATOM     34  C   UNL A   1      42.473  32.840  30.904  1.00  0.00     0.074 A 
ATOM     35  C   UNL A   1      42.835  33.285  29.570  1.00  0.00     0.031 C 
ATOM     36  C   UNL A   1      41.287  32.973  31.543  1.00  0.00     0.037 A 
BRANCH  23  37
ATOM     37  C   UNL A   1      36.002  32.511  29.757  1.00  0.00     0.064 A 
ATOM     38  C   UNL A   1      35.321  33.506  29.034  1.00  0.00     0.173 A 
ATOM     39  C   UNL A   1      35.614  32.316  31.094  1.00  0.00     0.173 A 
ATOM     40  F   UNL A   1      35.667  33.769  27.764  1.00  0.00    -0.203 F 
ATOM     41  C   UNL A   1      34.362  34.320  29.641  1.00  0.00     0.198 A 
ATOM     42  C   UNL A   1      34.629  33.108  31.689  1.00  0.00     0.198 A 
ATOM     43  F   UNL A   1      36.277  31.442  31.866  1.00  0.00    -0.203 F 
ATOM     44  F   UNL A   1      33.820  35.337  28.958  1.00  0.00    -0.200 F 
ATOM     45  C   UNL A   1      34.028  34.130  30.973  1.00  0.00     0.200 A 
ATOM     46  F   UNL A   1      34.319  32.928  32.981  1.00  0.00    -0.200 F 
ATOM     47  F   UNL A   1      33.159  34.955  31.575  1.00  0.00    -0.200 F 
ENDBRANCH  23  37
BRANCH  24  48
ATOM     48  C   UNL A   1      46.279  30.470  29.872  1.00  0.00     0.064 A 
ATOM     49  C   UNL A   1      47.126  30.707  30.963  1.00  0.00     0.173 A 
ATOM     50  C   UNL A   1      46.957  30.275  28.638  1.00  0.00     0.173 A 
ATOM     51  F   UNL A   1      46.637  31.051  32.158  1.00  0.00    -0.203 F 
ATOM     52  C   UNL A   1      48.526  30.630  30.854  1.00  0.00     0.198 A 
ATOM     53  C   UNL A   1      48.346  30.190  28.529  1.00  0.00     0.198 A 
ATOM     54  F   UNL A   1      46.289  30.149  27.482  1.00  0.00    -0.203 F 
ATOM     55  F   UNL A   1      49.288  30.826  31.940  1.00  0.00    -0.200 F 
ATOM     56  C   UNL A   1      49.133  30.344  29.645  1.00  0.00     0.200 A 
ATOM     57  F   UNL A   1      48.906  29.937  27.336  1.00  0.00    -0.200 F 
ATOM     58  F   UNL A   1      50.465  30.230  29.554  1.00  0.00    -0.200 F 
ENDBRANCH  24  48
BRANCH  36  59
ATOM     59  C   UNL A   1      41.117  32.055  32.722  1.00  0.00     0.064 A 
ATOM     60  C   UNL A   1      41.458  32.469  34.008  1.00  0.00     0.173 A 
ATOM     61  C   UNL A   1      40.690  30.721  32.568  1.00  0.00     0.173 A 
ATOM     62  F   UNL A   1      41.881  33.723  34.220  1.00  0.00    -0.203 F 
ATOM     63  C   UNL A   1      41.355  31.592  35.091  1.00  0.00     0.198 A 
ATOM     64  C   UNL A   1      40.574  29.852  33.646  1.00  0.00     0.198 A 
ATOM     65  F   UNL A   1      40.343  30.258  31.363  1.00  0.00    -0.203 F 
ATOM     66  F   UNL A   1      41.678  32.015  36.321  1.00  0.00    -0.200 F 
ATOM     67  C   UNL A   1      40.909  30.289  34.911  1.00  0.00     0.200 A 
ATOM     68  F   UNL A   1      40.117  28.604  33.456  1.00  0.00    -0.200 F 
ATOM     69  F   UNL A   1      40.788  29.462  35.958  1.00  0.00    -0.200 F 
ENDBRANCH  36  59
ENDBRANCH  10  11
ENDBRANCH   3   5
ENDBRANCH   2   3
ENDBRANCH   1   2
BRANCH   1  70
ATOM     70  C   UNL A   1      41.231  19.898  26.160  1.00  0.00     0.275 C 
BRANCH  70  71
ATOM     71  O   UNL A   1      42.627  19.984  26.479  1.00  0.00    -0.458 OA
BRANCH  71  72
ATOM     72  C   UNL A   1      43.471  20.165  25.426  1.00  0.00     0.339 C 
ATOM     73  O   UNL A   1      43.778  19.288  24.607  1.00  0.00    -0.246 OA
BRANCH  72  74
ATOM     74  C   UNL A   1      43.962  21.522  25.351  1.00  0.00     0.077 A 
ATOM     75  C   UNL A   1      44.685  22.121  24.286  1.00  0.00     0.035 A 
ATOM     76  C   UNL A   1      43.784  22.507  26.308  1.00  0.00     0.101 A 
ATOM     77  C   UNL A   1      44.889  23.443  24.613  1.00  0.00     0.087 A 
ATOM     78  N   UNL A   1      44.335  23.679  25.846  1.00  0.00    -0.349 N 
BRANCH  78  79
ATOM     79  C   UNL A   1      44.171  24.980  26.502  1.00  0.00     0.160 C 
BRANCH  79  80
ATOM     80  C   UNL A   1      45.431  25.510  27.148  1.00  0.00     0.009 A 
ATOM     81  C   UNL A   1      46.244  26.464  26.501  1.00  0.00     0.047 A 
ATOM     82  C   UNL A   1      45.835  25.081  28.425  1.00  0.00     0.047 A 
ATOM     83  Cl  UNL A   1      45.800  27.202  24.999  1.00  0.00    -0.084 Cl
ATOM     84  C   UNL A   1      47.444  26.906  27.070  1.00  0.00     0.021 A 
ATOM     85  C   UNL A   1      47.003  25.577  29.019  1.00  0.00     0.021 A 
ATOM     86  Cl  UNL A   1      44.917  23.946  29.355  1.00  0.00    -0.084 Cl
ATOM     87  C   UNL A   1      47.821  26.469  28.332  1.00  0.00     0.003 A 
ENDBRANCH  79  80
ENDBRANCH  78  79
ENDBRANCH  72  74
ENDBRANCH  71  72
ENDBRANCH  70  71
ENDBRANCH   1  70
TORSDOF 13
ENDMDL
