MODEL 1
REMARK VINA RESULT:     -10.5      0.000      0.000
REMARK SMILES [NH3+]CCOCC(=O)N[C@H](C(=O)OCCOC(=O)c1ccc(-c2c3nc(c(-c4c(F)c(F)c(F)c(F)c4F)c4ccc([nH]4)c(-c4c(F)c(F)c(F)c(F)c4F)c4nc(c(-c5c(F)c(F)c(F)c(F)c5F)c5ccc2[nH]5)C=C4)C=C3)cc1)C1CCCCC1
REMARK SMILES IDX 10 1 11 2 9 3 8 4 6 5 7 6 5 8 4 9 3 10 2 11 1 12 81 16 82 17
REMARK SMILES IDX 86 18 83 19 85 20 84 21 12 22 13 23 14 24 15 25 16 26 17 27
REMARK SMILES IDX 18 28 19 29 80 30 20 31 79 32 21 33 22 34 23 35 73 36 24 37
REMARK SMILES IDX 78 38 72 39 74 40 25 41 77 42 71 43 70 44 26 46 58 47 38 48
REMARK SMILES IDX 57 49 39 50 42 51 56 52 75 53 40 54 41 55 55 57 76 58 43 59
REMARK SMILES IDX 27 60 28 61 36 62 29 63 30 64 34 65 37 66 31 67 32 68 35 69
REMARK SMILES IDX 33 70 59 71 60 72 68 73 61 74 62 75 66 76 69 77 63 78 64 79
REMARK SMILES IDX 67 80 65 81 44 82 45 83 53 84 46 85 47 86 51 87 54 88 48 89
REMARK SMILES IDX 49 90 52 91 50 92
REMARK H PARENT 8 7 1 13 1 14 1 15 74 45 42 56
REMARK Flexibility Score: inf
ROOT
ATOM      1  C   UNL A   1      32.184  26.026  26.094  1.00  0.00     0.329 C 
ATOM      2  O   UNL A   1      31.400  25.489  26.876  1.00  0.00    -0.250 OA
ENDROOT
BRANCH   1   3
ATOM      3  C   UNL A   1      32.581  25.379  24.745  1.00  0.00     0.195 C 
BRANCH   3   4
ATOM      4  N   UNL A   1      33.098  26.138  23.583  1.00  0.00    -0.340 N 
ATOM      5  C   UNL A   1      32.707  26.178  22.282  1.00  0.00     0.246 C 
ATOM      6  O   UNL A   1      33.608  26.140  21.435  1.00  0.00    -0.272 OA
ATOM      7  H   UNL A   1      33.864  26.719  23.792  1.00  0.00     0.164 HD
BRANCH   5   8
ATOM      8  C   UNL A   1      31.260  26.435  21.846  1.00  0.00     0.260 C 
BRANCH   8   9
ATOM      9  O   UNL A   1      30.654  27.690  22.046  1.00  0.00    -0.366 OA
BRANCH   9  10
ATOM     10  C   UNL A   1      29.801  27.769  23.189  1.00  0.00     0.222 C 
BRANCH  10  11
ATOM     11  C   UNL A   1      29.283  26.379  23.589  1.00  0.00     0.287 C 
BRANCH  11  12
ATOM     12  N   UNL A   1      27.871  26.370  23.984  1.00  0.00    -0.356 N 
ATOM     13  H   UNL A   1      27.675  27.184  24.565  1.00  0.00     0.344 HD
ATOM     14  H   UNL A   1      27.671  25.520  24.511  1.00  0.00     0.344 HD
ATOM     15  H   UNL A   1      27.285  26.397  23.150  1.00  0.00     0.344 HD
ENDBRANCH  11  12
ENDBRANCH  10  11
ENDBRANCH   9  10
ENDBRANCH   8   9
ENDBRANCH   5   8
ENDBRANCH   3   4
BRANCH   3  16
ATOM     16  C   UNL A   1      33.606  24.248  25.118  1.00  0.00     0.023 C 
ATOM     17  C   UNL A   1      33.549  23.038  24.168  1.00  0.00     0.006 C 
ATOM     18  C   UNL A   1      35.044  24.796  25.228  1.00  0.00     0.006 C 
ATOM     19  C   UNL A   1      34.549  21.959  24.590  1.00  0.00     0.000 C 
ATOM     20  C   UNL A   1      36.033  23.710  25.638  1.00  0.00     0.000 C 
ATOM     21  C   UNL A   1      35.967  22.511  24.698  1.00  0.00     0.000 C 
ENDBRANCH   3  16
ENDBRANCH   1   3
BRANCH   1  22
ATOM     22  O   UNL A   1      32.712  27.253  26.293  1.00  0.00    -0.461 OA
BRANCH  22  23
ATOM     23  C   UNL A   1      31.763  28.299  26.585  1.00  0.00     0.274 C 
BRANCH  23  24
ATOM     24  C   UNL A   1      31.977  29.531  25.693  1.00  0.00     0.275 C 
BRANCH  24  25
ATOM     25  O   UNL A   1      33.276  30.130  25.872  1.00  0.00    -0.458 OA
BRANCH  25  26
ATOM     26  C   UNL A   1      33.378  31.045  26.860  1.00  0.00     0.338 C 
ATOM     27  O   UNL A   1      32.580  31.922  27.155  1.00  0.00    -0.246 OA
BRANCH  26  28
ATOM     28  C   UNL A   1      34.560  30.798  27.690  1.00  0.00     0.060 A 
ATOM     29  C   UNL A   1      35.495  31.835  27.808  1.00  0.00     0.016 A 
ATOM     30  C   UNL A   1      34.785  29.555  28.278  1.00  0.00     0.016 A 
ATOM     31  C   UNL A   1      36.669  31.632  28.520  1.00  0.00     0.010 A 
ATOM     32  C   UNL A   1      35.963  29.351  28.993  1.00  0.00     0.010 A 
ATOM     33  C   UNL A   1      36.906  30.386  29.111  1.00  0.00    -0.014 A 
BRANCH  33  34
ATOM     34  C   UNL A   1      38.159  30.146  29.851  1.00  0.00     0.031 A 
ATOM     35  C   UNL A   1      39.190  29.228  29.275  1.00  0.00     0.074 A 
ATOM     36  C   UNL A   1      38.332  30.734  31.046  1.00  0.00     0.049 A 
ATOM     37  N   UNL A   1      40.281  28.763  29.825  1.00  0.00    -0.248 NA
ATOM     38  C   UNL A   1      38.960  28.766  27.898  1.00  0.00     0.031 C 
ATOM     39  C   UNL A   1      37.398  31.676  31.663  1.00  0.00     0.029 A 
ATOM     40  N   UNL A   1      39.340  30.607  31.964  1.00  0.00    -0.354 N 
ATOM     41  C   UNL A   1      40.861  27.942  28.868  1.00  0.00     0.074 A 
ATOM     42  C   UNL A   1      39.995  27.959  27.708  1.00  0.00     0.031 C 
ATOM     43  C   UNL A   1      37.870  32.031  32.869  1.00  0.00     0.029 A 
ATOM     44  C   UNL A   1      39.109  31.304  33.124  1.00  0.00     0.049 A 
ATOM     45  H   UNL A   1      40.151  30.071  31.807  1.00  0.00     0.167 HD
ATOM     46  C   UNL A   1      42.013  27.238  28.962  1.00  0.00     0.037 A 
ATOM     47  C   UNL A   1      39.807  31.318  34.273  1.00  0.00     0.037 A 
ATOM     48  C   UNL A   1      42.853  27.231  30.130  1.00  0.00     0.049 A 
ATOM     49  C   UNL A   1      41.051  30.480  34.371  1.00  0.00     0.074 A 
ATOM     50  C   UNL A   1      44.035  26.544  30.344  1.00  0.00     0.029 A 
ATOM     51  N   UNL A   1      42.593  27.952  31.288  1.00  0.00    -0.354 N 
ATOM     52  N   UNL A   1      41.592  29.695  33.471  1.00  0.00    -0.248 NA
ATOM     53  C   UNL A   1      41.782  30.526  35.645  1.00  0.00     0.031 C 
ATOM     54  C   UNL A   1      44.472  26.823  31.644  1.00  0.00     0.029 A 
ATOM     55  C   UNL A   1      43.587  27.719  32.224  1.00  0.00     0.049 A 
ATOM     56  H   UNL A   1      41.817  28.542  31.424  1.00  0.00     0.167 HD
ATOM     57  C   UNL A   1      42.739  29.177  34.053  1.00  0.00     0.074 A 
ATOM     58  C   UNL A   1      42.820  29.743  35.385  1.00  0.00     0.031 C 
ATOM     59  C   UNL A   1      43.647  28.314  33.535  1.00  0.00     0.037 A 
BRANCH  46  60
ATOM     60  C   UNL A   1      42.409  26.397  27.784  1.00  0.00     0.064 A 
ATOM     61  C   UNL A   1      41.852  25.129  27.565  1.00  0.00     0.173 A 
ATOM     62  C   UNL A   1      43.340  26.876  26.851  1.00  0.00     0.173 A 
ATOM     63  F   UNL A   1      40.970  24.619  28.437  1.00  0.00    -0.203 F 
ATOM     64  C   UNL A   1      42.228  24.363  26.464  1.00  0.00     0.198 A 
ATOM     65  C   UNL A   1      43.696  26.117  25.739  1.00  0.00     0.198 A 
ATOM     66  F   UNL A   1      43.903  28.083  27.015  1.00  0.00    -0.203 F 
ATOM     67  F   UNL A   1      41.714  23.136  26.296  1.00  0.00    -0.200 F 
ATOM     68  C   UNL A   1      43.144  24.860  25.549  1.00  0.00     0.200 A 
ATOM     69  F   UNL A   1      44.576  26.603  24.852  1.00  0.00    -0.200 F 
ATOM     70  F   UNL A   1      43.502  24.123  24.489  1.00  0.00    -0.200 F 
ENDBRANCH  46  60
BRANCH  47  71
ATOM     71  C   UNL A   1      39.335  32.139  35.416  1.00  0.00     0.064 A 
ATOM     72  C   UNL A   1      38.514  31.585  36.409  1.00  0.00     0.173 A 
ATOM     73  C   UNL A   1      39.699  33.487  35.546  1.00  0.00     0.173 A 
ATOM     74  F   UNL A   1      38.124  30.306  36.317  1.00  0.00    -0.203 F 
ATOM     75  C   UNL A   1      38.063  32.355  37.479  1.00  0.00     0.198 A 
ATOM     76  C   UNL A   1      39.269  34.248  36.631  1.00  0.00     0.198 A 
ATOM     77  F   UNL A   1      40.484  34.063  34.624  1.00  0.00    -0.203 F 
ATOM     78  F   UNL A   1      37.248  31.812  38.395  1.00  0.00    -0.200 F 
ATOM     79  C   UNL A   1      38.446  33.683  37.594  1.00  0.00     0.200 A 
ATOM     80  F   UNL A   1      39.652  35.527  36.744  1.00  0.00    -0.200 F 
ATOM     81  F   UNL A   1      38.016  34.420  38.627  1.00  0.00    -0.200 F 
ENDBRANCH  47  71
BRANCH  59  82
ATOM     82  C   UNL A   1      44.828  27.973  34.391  1.00  0.00     0.064 A 
ATOM     83  C   UNL A   1      45.991  28.754  34.384  1.00  0.00     0.173 A 
ATOM     84  C   UNL A   1      44.773  26.875  35.263  1.00  0.00     0.173 A 
ATOM     85  F   UNL A   1      46.095  29.803  33.554  1.00  0.00    -0.203 F 
ATOM     86  C   UNL A   1      47.068  28.436  35.207  1.00  0.00     0.198 A 
ATOM     87  C   UNL A   1      45.841  26.576  36.103  1.00  0.00     0.198 A 
ATOM     88  F   UNL A   1      43.677  26.102  35.308  1.00  0.00    -0.203 F 
ATOM     89  F   UNL A   1      48.187  29.172  35.158  1.00  0.00    -0.200 F 
ATOM     90  C   UNL A   1      46.989  27.353  36.070  1.00  0.00     0.200 A 
ATOM     91  F   UNL A   1      45.759  25.536  36.944  1.00  0.00    -0.200 F 
ATOM     92  F   UNL A   1      48.023  27.055  36.868  1.00  0.00    -0.200 F 
ENDBRANCH  59  82
ENDBRANCH  33  34
ENDBRANCH  26  28
ENDBRANCH  25  26
ENDBRANCH  24  25
ENDBRANCH  23  24
ENDBRANCH  22  23
ENDBRANCH   1  22
TORSDOF 18
ENDMDL
MODEL 2
REMARK VINA RESULT:     -10.2      1.058      2.824
REMARK SMILES [NH3+]CCOCC(=O)N[C@H](C(=O)OCCOC(=O)c1ccc(-c2c3nc(c(-c4c(F)c(F)c(F)c(F)c4F)c4ccc([nH]4)c(-c4c(F)c(F)c(F)c(F)c4F)c4nc(c(-c5c(F)c(F)c(F)c(F)c5F)c5ccc2[nH]5)C=C4)C=C3)cc1)C1CCCCC1
REMARK SMILES IDX 10 1 11 2 9 3 8 4 6 5 7 6 5 8 4 9 3 10 2 11 1 12 81 16 82 17
REMARK SMILES IDX 86 18 83 19 85 20 84 21 12 22 13 23 14 24 15 25 16 26 17 27
REMARK SMILES IDX 18 28 19 29 80 30 20 31 79 32 21 33 22 34 23 35 73 36 24 37
REMARK SMILES IDX 78 38 72 39 74 40 25 41 77 42 71 43 70 44 26 46 58 47 38 48
REMARK SMILES IDX 57 49 39 50 42 51 56 52 75 53 40 54 41 55 55 57 76 58 43 59
REMARK SMILES IDX 27 60 28 61 36 62 29 63 30 64 34 65 37 66 31 67 32 68 35 69
REMARK SMILES IDX 33 70 59 71 60 72 68 73 61 74 62 75 66 76 69 77 63 78 64 79
REMARK SMILES IDX 67 80 65 81 44 82 45 83 53 84 46 85 47 86 51 87 54 88 48 89
REMARK SMILES IDX 49 90 52 91 50 92
REMARK H PARENT 8 7 1 13 1 14 1 15 74 45 42 56
REMARK Flexibility Score: inf
ROOT
ATOM      1  C   UNL A   1      31.892  27.079  25.761  1.00  0.00     0.329 C 
ATOM      2  O   UNL A   1      31.282  26.090  26.166  1.00  0.00    -0.250 OA
ENDROOT
BRANCH   1   3
ATOM      3  C   UNL A   1      31.848  27.528  24.281  1.00  0.00     0.195 C 
BRANCH   3   4
ATOM      4  N   UNL A   1      32.109  26.627  23.134  1.00  0.00    -0.340 N 
ATOM      5  C   UNL A   1      33.235  25.991  22.721  1.00  0.00     0.246 C 
ATOM      6  O   UNL A   1      33.475  26.027  21.507  1.00  0.00    -0.272 OA
ATOM      7  H   UNL A   1      31.321  26.460  22.568  1.00  0.00     0.164 HD
BRANCH   5   8
ATOM      8  C   UNL A   1      34.094  25.116  23.642  1.00  0.00     0.260 C 
BRANCH   8   9
ATOM      9  O   UNL A   1      33.874  23.729  23.736  1.00  0.00    -0.366 OA
BRANCH   9  10
ATOM     10  C   UNL A   1      32.578  23.298  23.316  1.00  0.00     0.222 C 
BRANCH  10  11
ATOM     11  C   UNL A   1      31.743  22.811  24.511  1.00  0.00     0.287 C 
BRANCH  11  12
ATOM     12  N   UNL A   1      30.573  23.649  24.790  1.00  0.00    -0.356 N 
ATOM     13  H   UNL A   1      30.182  23.397  25.697  1.00  0.00     0.344 HD
ATOM     14  H   UNL A   1      29.871  23.503  24.064  1.00  0.00     0.344 HD
ATOM     15  H   UNL A   1      30.852  24.630  24.799  1.00  0.00     0.344 HD
ENDBRANCH  11  12
ENDBRANCH  10  11
ENDBRANCH   9  10
ENDBRANCH   8   9
ENDBRANCH   5   8
ENDBRANCH   3   4
BRANCH   3  16
ATOM     16  C   UNL A   1      30.441  28.202  24.096  1.00  0.00     0.023 C 
ATOM     17  C   UNL A   1      30.502  29.543  23.344  1.00  0.00     0.006 C 
ATOM     18  C   UNL A   1      29.433  27.242  23.431  1.00  0.00     0.006 C 
ATOM     19  C   UNL A   1      29.110  30.166  23.214  1.00  0.00     0.000 C 
ATOM     20  C   UNL A   1      28.052  27.876  23.296  1.00  0.00     0.000 C 
ATOM     21  C   UNL A   1      28.120  29.209  22.557  1.00  0.00     0.000 C 
ENDBRANCH   3  16
ENDBRANCH   1   3
BRANCH   1  22
ATOM     22  O   UNL A   1      32.590  27.907  26.568  1.00  0.00    -0.461 OA
BRANCH  22  23
ATOM     23  C   UNL A   1      31.803  28.846  27.328  1.00  0.00     0.274 C 
BRANCH  23  24
ATOM     24  C   UNL A   1      31.834  30.251  26.710  1.00  0.00     0.275 C 
BRANCH  24  25
ATOM     25  O   UNL A   1      33.174  30.721  26.461  1.00  0.00    -0.458 OA
BRANCH  25  26
ATOM     26  C   UNL A   1      33.608  31.727  27.250  1.00  0.00     0.338 C 
ATOM     27  O   UNL A   1      33.031  32.770  27.519  1.00  0.00    -0.246 OA
BRANCH  26  28
ATOM     28  C   UNL A   1      34.871  31.380  27.905  1.00  0.00     0.060 A 
ATOM     29  C   UNL A   1      34.980  30.098  28.462  1.00  0.00     0.016 A 
ATOM     30  C   UNL A   1      35.898  32.313  28.040  1.00  0.00     0.016 A 
ATOM     31  C   UNL A   1      36.125  29.741  29.160  1.00  0.00     0.010 A 
ATOM     32  C   UNL A   1      37.047  31.953  28.740  1.00  0.00     0.010 A 
ATOM     33  C   UNL A   1      37.160  30.671  29.304  1.00  0.00    -0.014 A 
BRANCH  33  34
ATOM     34  C   UNL A   1      38.374  30.315  30.062  1.00  0.00     0.031 A 
ATOM     35  C   UNL A   1      39.357  29.356  29.470  1.00  0.00     0.074 A 
ATOM     36  C   UNL A   1      38.553  30.837  31.286  1.00  0.00     0.049 A 
ATOM     37  N   UNL A   1      40.401  28.797  30.023  1.00  0.00    -0.248 NA
ATOM     38  C   UNL A   1      39.135  28.972  28.067  1.00  0.00     0.031 C 
ATOM     39  C   UNL A   1      37.667  31.812  31.923  1.00  0.00     0.029 A 
ATOM     40  N   UNL A   1      39.526  30.604  32.221  1.00  0.00    -0.354 N 
ATOM     41  C   UNL A   1      40.951  27.980  29.044  1.00  0.00     0.074 A 
ATOM     42  C   UNL A   1      40.119  28.106  27.866  1.00  0.00     0.031 C 
ATOM     43  C   UNL A   1      38.128  32.082  33.155  1.00  0.00     0.029 A 
ATOM     44  C   UNL A   1      39.310  31.263  33.405  1.00  0.00     0.049 A 
ATOM     45  H   UNL A   1      40.304  30.022  32.059  1.00  0.00     0.167 HD
ATOM     46  C   UNL A   1      42.051  27.198  29.133  1.00  0.00     0.037 A 
ATOM     47  C   UNL A   1      39.977  31.180  34.570  1.00  0.00     0.037 A 
ATOM     48  C   UNL A   1      42.858  27.083  30.319  1.00  0.00     0.049 A 
ATOM     49  C   UNL A   1      41.160  30.257  34.660  1.00  0.00     0.074 A 
ATOM     50  C   UNL A   1      43.986  26.310  30.530  1.00  0.00     0.029 A 
ATOM     51  N   UNL A   1      42.614  27.769  31.503  1.00  0.00    -0.354 N 
ATOM     52  N   UNL A   1      41.672  29.478  33.738  1.00  0.00    -0.248 NA
ATOM     53  C   UNL A   1      41.859  30.199  35.951  1.00  0.00     0.031 C 
ATOM     54  C   UNL A   1      44.405  26.503  31.851  1.00  0.00     0.029 A 
ATOM     55  C   UNL A   1      43.566  27.430  32.450  1.00  0.00     0.049 A 
ATOM     56  H   UNL A   1      41.876  28.403  31.646  1.00  0.00     0.167 HD
ATOM     57  C   UNL A   1      42.767  28.860  34.323  1.00  0.00     0.074 A 
ATOM     58  C   UNL A   1      42.849  29.360  35.680  1.00  0.00     0.031 C 
ATOM     59  C   UNL A   1      43.629  27.961  33.788  1.00  0.00     0.037 A 
BRANCH  46  60
ATOM     60  C   UNL A   1      42.422  26.385  27.928  1.00  0.00     0.064 A 
ATOM     61  C   UNL A   1      43.378  26.834  27.005  1.00  0.00     0.173 A 
ATOM     62  C   UNL A   1      41.834  25.132  27.707  1.00  0.00     0.173 A 
ATOM     63  F   UNL A   1      43.958  28.034  27.162  1.00  0.00    -0.203 F 
ATOM     64  C   UNL A   1      43.715  26.066  25.893  1.00  0.00     0.198 A 
ATOM     65  C   UNL A   1      42.191  24.355  26.607  1.00  0.00     0.198 A 
ATOM     66  F   UNL A   1      40.913  24.656  28.560  1.00  0.00    -0.203 F 
ATOM     67  F   UNL A   1      44.601  26.532  25.002  1.00  0.00    -0.200 F 
ATOM     68  C   UNL A   1      43.127  24.825  25.699  1.00  0.00     0.200 A 
ATOM     69  F   UNL A   1      41.626  23.154  26.426  1.00  0.00    -0.200 F 
ATOM     70  F   UNL A   1      43.456  24.085  24.631  1.00  0.00    -0.200 F 
ENDBRANCH  46  60
BRANCH  47  71
ATOM     71  C   UNL A   1      39.529  31.980  35.738  1.00  0.00     0.064 A 
ATOM     72  C   UNL A   1      38.524  31.506  36.592  1.00  0.00     0.173 A 
ATOM     73  C   UNL A   1      40.100  33.228  36.030  1.00  0.00     0.173 A 
ATOM     74  F   UNL A   1      37.934  30.328  36.342  1.00  0.00    -0.203 F 
ATOM     75  C   UNL A   1      38.096  32.257  37.685  1.00  0.00     0.198 A 
ATOM     76  C   UNL A   1      39.690  33.965  37.138  1.00  0.00     0.198 A 
ATOM     77  F   UNL A   1      41.067  33.725  35.245  1.00  0.00    -0.203 F 
ATOM     78  F   UNL A   1      37.106  31.799  38.463  1.00  0.00    -0.200 F 
ATOM     79  C   UNL A   1      38.683  33.482  37.961  1.00  0.00     0.200 A 
ATOM     80  F   UNL A   1      40.270  35.142  37.410  1.00  0.00    -0.200 F 
ATOM     81  F   UNL A   1      38.276  34.201  39.016  1.00  0.00    -0.200 F 
ENDBRANCH  47  71
BRANCH  59  82
ATOM     82  C   UNL A   1      44.763  27.505  34.656  1.00  0.00     0.064 A 
ATOM     83  C   UNL A   1      45.981  28.196  34.697  1.00  0.00     0.173 A 
ATOM     84  C   UNL A   1      44.605  26.388  35.490  1.00  0.00     0.173 A 
ATOM     85  F   UNL A   1      46.181  29.259  33.903  1.00  0.00    -0.203 F 
ATOM     86  C   UNL A   1      47.012  27.772  35.530  1.00  0.00     0.198 A 
ATOM     87  C   UNL A   1      45.629  25.983  36.340  1.00  0.00     0.198 A 
ATOM     88  F   UNL A   1      43.454  25.700  35.488  1.00  0.00    -0.203 F 
ATOM     89  F   UNL A   1      48.184  28.422  35.526  1.00  0.00    -0.200 F 
ATOM     90  C   UNL A   1      46.833  26.672  36.355  1.00  0.00     0.200 A 
ATOM     91  F   UNL A   1      45.450  24.927  37.145  1.00  0.00    -0.200 F 
ATOM     92  F   UNL A   1      47.824  26.270  37.163  1.00  0.00    -0.200 F 
ENDBRANCH  59  82
ENDBRANCH  33  34
ENDBRANCH  26  28
ENDBRANCH  25  26
ENDBRANCH  24  25
ENDBRANCH  23  24
ENDBRANCH  22  23
ENDBRANCH   1  22
TORSDOF 18
ENDMDL
MODEL 3
REMARK VINA RESULT:     -10.2      5.321      9.661
REMARK SMILES [NH3+]CCOCC(=O)N[C@H](C(=O)OCCOC(=O)c1ccc(-c2c3nc(c(-c4c(F)c(F)c(F)c(F)c4F)c4ccc([nH]4)c(-c4c(F)c(F)c(F)c(F)c4F)c4nc(c(-c5c(F)c(F)c(F)c(F)c5F)c5ccc2[nH]5)C=C4)C=C3)cc1)C1CCCCC1
REMARK SMILES IDX 10 1 11 2 9 3 8 4 6 5 7 6 5 8 4 9 3 10 2 11 1 12 81 16 82 17
REMARK SMILES IDX 86 18 83 19 85 20 84 21 12 22 13 23 14 24 15 25 16 26 17 27
REMARK SMILES IDX 18 28 19 29 80 30 20 31 79 32 21 33 22 34 23 35 73 36 24 37
REMARK SMILES IDX 78 38 72 39 74 40 25 41 77 42 71 43 70 44 26 46 58 47 38 48
REMARK SMILES IDX 57 49 39 50 42 51 56 52 75 53 40 54 41 55 55 57 76 58 43 59
REMARK SMILES IDX 27 60 28 61 36 62 29 63 30 64 34 65 37 66 31 67 32 68 35 69
REMARK SMILES IDX 33 70 59 71 60 72 68 73 61 74 62 75 66 76 69 77 63 78 64 79
REMARK SMILES IDX 67 80 65 81 44 82 45 83 53 84 46 85 47 86 51 87 54 88 48 89
REMARK SMILES IDX 49 90 52 91 50 92
REMARK H PARENT 8 7 1 13 1 14 1 15 74 45 42 56
REMARK Flexibility Score: inf
ROOT
ATOM      1  C   UNL A   1      43.835  23.085  24.919  1.00  0.00     0.329 C 
ATOM      2  O   UNL A   1      44.046  22.607  23.806  1.00  0.00    -0.250 OA
ENDROOT
BRANCH   1   3
ATOM      3  C   UNL A   1      42.571  22.739  25.743  1.00  0.00     0.195 C 
BRANCH   3   4
ATOM      4  N   UNL A   1      42.511  21.655  26.750  1.00  0.00    -0.340 N 
ATOM      5  C   UNL A   1      42.132  20.354  26.659  1.00  0.00     0.246 C 
ATOM      6  O   UNL A   1      41.407  19.926  27.566  1.00  0.00    -0.272 OA
ATOM      7  H   UNL A   1      42.799  21.928  27.651  1.00  0.00     0.164 HD
BRANCH   5   8
ATOM      8  C   UNL A   1      42.689  19.387  25.607  1.00  0.00     0.260 C 
BRANCH   8   9
ATOM      9  O   UNL A   1      44.013  18.916  25.684  1.00  0.00    -0.366 OA
BRANCH   9  10
ATOM     10  C   UNL A   1      44.877  19.386  24.648  1.00  0.00     0.222 C 
BRANCH  10  11
ATOM     11  C   UNL A   1      46.325  19.510  25.149  1.00  0.00     0.287 C 
BRANCH  11  12
ATOM     12  N   UNL A   1      46.699  18.483  26.126  1.00  0.00    -0.356 N 
ATOM     13  H   UNL A   1      46.993  17.639  25.635  1.00  0.00     0.344 HD
ATOM     14  H   UNL A   1      45.897  18.270  26.719  1.00  0.00     0.344 HD
ATOM     15  H   UNL A   1      47.467  18.827  26.702  1.00  0.00     0.344 HD
ENDBRANCH  11  12
ENDBRANCH  10  11
ENDBRANCH   9  10
ENDBRANCH   8   9
ENDBRANCH   5   8
ENDBRANCH   3   4
BRANCH   3  16
ATOM     16  C   UNL A   1      42.134  24.090  26.414  1.00  0.00     0.023 C 
ATOM     17  C   UNL A   1      41.458  25.065  25.433  1.00  0.00     0.006 C 
ATOM     18  C   UNL A   1      41.246  23.850  27.652  1.00  0.00     0.006 C 
ATOM     19  C   UNL A   1      41.075  26.372  26.133  1.00  0.00     0.000 C 
ATOM     20  C   UNL A   1      40.861  25.158  28.335  1.00  0.00     0.000 C 
ATOM     21  C   UNL A   1      40.199  26.124  27.357  1.00  0.00     0.000 C 
ENDBRANCH   3  16
ENDBRANCH   1   3
BRANCH   1  22
ATOM     22  O   UNL A   1      44.707  23.891  25.562  1.00  0.00    -0.461 OA
BRANCH  22  23
ATOM     23  C   UNL A   1      46.075  23.814  25.111  1.00  0.00     0.274 C 
BRANCH  23  24
ATOM     24  C   UNL A   1      46.718  25.204  24.993  1.00  0.00     0.275 C 
BRANCH  24  25
ATOM     25  O   UNL A   1      45.755  26.243  24.729  1.00  0.00    -0.458 OA
BRANCH  25  26
ATOM     26  C   UNL A   1      46.068  27.475  25.185  1.00  0.00     0.338 C 
ATOM     27  O   UNL A   1      46.851  28.277  24.699  1.00  0.00    -0.246 OA
BRANCH  26  28
ATOM     28  C   UNL A   1      45.233  27.844  26.330  1.00  0.00     0.060 A 
ATOM     29  C   UNL A   1      45.153  29.203  26.662  1.00  0.00     0.016 A 
ATOM     30  C   UNL A   1      44.603  26.875  27.110  1.00  0.00     0.016 A 
ATOM     31  C   UNL A   1      44.438  29.603  27.781  1.00  0.00     0.010 A 
ATOM     32  C   UNL A   1      43.884  27.277  28.233  1.00  0.00     0.010 A 
ATOM     33  C   UNL A   1      43.805  28.639  28.572  1.00  0.00    -0.014 A 
BRANCH  33  34
ATOM     34  C   UNL A   1      43.060  29.044  29.778  1.00  0.00     0.031 A 
ATOM     35  C   UNL A   1      41.637  29.488  29.650  1.00  0.00     0.074 A 
ATOM     36  C   UNL A   1      43.688  29.038  30.965  1.00  0.00     0.049 A 
ATOM     37  N   UNL A   1      40.854  30.024  30.549  1.00  0.00    -0.248 NA
ATOM     38  C   UNL A   1      41.010  29.307  28.331  1.00  0.00     0.031 C 
ATOM     39  C   UNL A   1      45.060  28.580  31.188  1.00  0.00     0.029 A 
ATOM     40  N   UNL A   1      43.264  29.448  32.201  1.00  0.00    -0.354 N 
ATOM     41  C   UNL A   1      39.649  30.262  29.903  1.00  0.00     0.074 A 
ATOM     42  C   UNL A   1      39.806  29.824  28.532  1.00  0.00     0.031 C 
ATOM     43  C   UNL A   1      45.372  28.752  32.483  1.00  0.00     0.029 A 
ATOM     44  C   UNL A   1      44.240  29.374  33.162  1.00  0.00     0.049 A 
ATOM     45  H   UNL A   1      42.349  29.764  32.381  1.00  0.00     0.167 HD
ATOM     46  C   UNL A   1      38.520  30.802  30.417  1.00  0.00     0.037 A 
ATOM     47  C   UNL A   1      44.225  29.798  34.438  1.00  0.00     0.037 A 
ATOM     48  C   UNL A   1      38.392  31.237  31.783  1.00  0.00     0.049 A 
ATOM     49  C   UNL A   1      42.977  30.448  34.968  1.00  0.00     0.074 A 
ATOM     50  C   UNL A   1      37.301  31.811  32.412  1.00  0.00     0.029 A 
ATOM     51  N   UNL A   1      39.399  31.143  32.735  1.00  0.00    -0.354 N 
ATOM     52  N   UNL A   1      41.843  30.682  34.353  1.00  0.00    -0.248 NA
ATOM     53  C   UNL A   1      43.006  30.895  36.367  1.00  0.00     0.031 C 
ATOM     54  C   UNL A   1      37.661  32.096  33.734  1.00  0.00     0.029 A 
ATOM     55  C   UNL A   1      38.959  31.658  33.942  1.00  0.00     0.049 A 
ATOM     56  H   UNL A   1      40.294  30.766  32.574  1.00  0.00     0.167 HD
ATOM     57  C   UNL A   1      41.013  31.275  35.293  1.00  0.00     0.074 A 
ATOM     58  C   UNL A   1      41.774  31.359  36.523  1.00  0.00     0.031 C 
ATOM     59  C   UNL A   1      39.737  31.709  35.154  1.00  0.00     0.037 A 
BRANCH  46  60
ATOM     60  C   UNL A   1      37.352  30.977  29.493  1.00  0.00     0.064 A 
ATOM     61  C   UNL A   1      36.480  29.918  29.201  1.00  0.00     0.173 A 
ATOM     62  C   UNL A   1      37.088  32.225  28.911  1.00  0.00     0.173 A 
ATOM     63  F   UNL A   1      36.700  28.700  29.718  1.00  0.00    -0.203 F 
ATOM     64  C   UNL A   1      35.398  30.098  28.343  1.00  0.00     0.198 A 
ATOM     65  C   UNL A   1      35.990  32.408  28.073  1.00  0.00     0.198 A 
ATOM     66  F   UNL A   1      37.891  33.271  29.158  1.00  0.00    -0.203 F 
ATOM     67  F   UNL A   1      34.601  29.062  28.045  1.00  0.00    -0.200 F 
ATOM     68  C   UNL A   1      35.150  31.344  27.786  1.00  0.00     0.200 A 
ATOM     69  F   UNL A   1      35.749  33.614  27.542  1.00  0.00    -0.200 F 
ATOM     70  F   UNL A   1      34.105  31.517  26.964  1.00  0.00    -0.200 F 
ENDBRANCH  46  60
BRANCH  47  71
ATOM     71  C   UNL A   1      45.432  29.633  35.287  1.00  0.00     0.064 A 
ATOM     72  C   UNL A   1      46.424  30.622  35.327  1.00  0.00     0.173 A 
ATOM     73  C   UNL A   1      45.615  28.491  36.081  1.00  0.00     0.173 A 
ATOM     74  F   UNL A   1      46.303  31.722  34.571  1.00  0.00    -0.203 F 
ATOM     75  C   UNL A   1      47.561  30.466  36.118  1.00  0.00     0.198 A 
ATOM     76  C   UNL A   1      46.739  28.349  36.891  1.00  0.00     0.198 A 
ATOM     77  F   UNL A   1      44.693  27.517  36.080  1.00  0.00    -0.203 F 
ATOM     78  F   UNL A   1      48.514  31.409  36.109  1.00  0.00    -0.200 F 
ATOM     79  C   UNL A   1      47.715  29.335  36.904  1.00  0.00     0.200 A 
ATOM     80  F   UNL A   1      46.877  27.260  37.659  1.00  0.00    -0.200 F 
ATOM     81  F   UNL A   1      48.806  29.189  37.668  1.00  0.00    -0.200 F 
ENDBRANCH  47  71
BRANCH  59  82
ATOM     82  C   UNL A   1      39.070  32.264  36.376  1.00  0.00     0.064 A 
ATOM     83  C   UNL A   1      39.256  33.594  36.776  1.00  0.00     0.173 A 
ATOM     84  C   UNL A   1      38.199  31.461  37.128  1.00  0.00     0.173 A 
ATOM     85  F   UNL A   1      40.093  34.392  36.096  1.00  0.00    -0.203 F 
ATOM     86  C   UNL A   1      38.606  34.097  37.899  1.00  0.00     0.198 A 
ATOM     87  C   UNL A   1      37.532  31.976  38.235  1.00  0.00     0.198 A 
ATOM     88  F   UNL A   1      37.986  30.184  36.780  1.00  0.00    -0.203 F 
ATOM     89  F   UNL A   1      38.827  35.361  38.287  1.00  0.00    -0.200 F 
ATOM     90  C   UNL A   1      37.740  33.292  38.622  1.00  0.00     0.200 A 
ATOM     91  F   UNL A   1      36.686  31.200  38.927  1.00  0.00    -0.200 F 
ATOM     92  F   UNL A   1      37.109  33.782  39.698  1.00  0.00    -0.200 F 
ENDBRANCH  59  82
ENDBRANCH  33  34
ENDBRANCH  26  28
ENDBRANCH  25  26
ENDBRANCH  24  25
ENDBRANCH  23  24
ENDBRANCH  22  23
ENDBRANCH   1  22
TORSDOF 18
ENDMDL
