MODEL 1
REMARK VINA RESULT:     -11.9      0.000      0.000
REMARK SMILES CC(C)[NH2+][C@@]1(C(=O)OCCOC(=O)c2ccc(-c3c4nc(c(-c5c(F)c(F)c(F)c(F)c5F)c5ccc([nH]5)c(-c5c(F)c(F)c(F)c(F)c5F)c5nc(c(-c6c(F)c(F)c(F)c(F)c6F)c6ccc3[nH]6)C=C5)C=C4)cc2)CCC[C@H](Sc2ccncn2)C1
REMARK SMILES IDX 9 1 8 2 6 3 7 4 5 5 77 6 88 7 78 8 80 9 79 10 4 11 2 14 1 15
REMARK SMILES IDX 3 16 81 17 82 18 83 19 87 20 84 21 86 22 85 23 10 24 11 25
REMARK SMILES IDX 12 26 13 27 14 28 15 29 76 30 16 31 75 32 17 33 18 34 19 35
REMARK SMILES IDX 69 36 20 37 74 38 68 39 70 40 21 41 73 42 67 43 66 44 22 46
REMARK SMILES IDX 54 47 34 48 53 49 35 50 38 51 52 52 71 53 36 54 37 55 51 57
REMARK SMILES IDX 72 58 39 59 23 60 24 61 32 62 25 63 26 64 30 65 33 66 27 67
REMARK SMILES IDX 28 68 31 69 29 70 55 71 56 72 64 73 57 74 58 75 62 76 65 77
REMARK SMILES IDX 59 78 60 79 63 80 61 81 40 82 41 83 49 84 42 85 43 86 47 87
REMARK SMILES IDX 50 88 44 89 45 90 48 91 46 92
REMARK H PARENT 4 12 4 13 70 45 38 56
REMARK Flexibility Score: inf
ROOT
ATOM      1  C   UNL A   1      31.965  28.145  27.319  1.00  0.00     0.274 C 
ENDROOT
BRANCH   1   2
ATOM      2  O   UNL A   1      31.816  27.031  26.395  1.00  0.00    -0.457 OA
BRANCH   2   3
ATOM      3  C   UNL A   1      32.819  26.600  25.589  1.00  0.00     0.368 C 
ATOM      4  O   UNL A   1      33.885  27.184  25.432  1.00  0.00    -0.245 OA
BRANCH   3   5
ATOM      5  C   UNL A   1      32.460  25.271  24.838  1.00  0.00     0.195 C 
ATOM      6  C   UNL A   1      33.514  24.796  23.810  1.00  0.00     0.081 C 
ATOM      7  C   UNL A   1      31.091  25.479  24.122  1.00  0.00     0.096 C 
ATOM      8  C   UNL A   1      33.580  25.645  22.544  1.00  0.00     0.008 C 
ATOM      9  C   UNL A   1      31.141  26.361  22.852  1.00  0.00     0.060 C 
ATOM     10  C   UNL A   1      32.207  25.804  21.905  1.00  0.00     0.015 C 
BRANCH   5  11
ATOM     11  N   UNL A   1      32.222  24.125  25.776  1.00  0.00    -0.330 N 
ATOM     12  H   UNL A   1      33.059  23.544  25.753  1.00  0.00     0.347 HD
ATOM     13  H   UNL A   1      32.003  24.580  26.662  1.00  0.00     0.347 HD
BRANCH  11  14
ATOM     14  C   UNL A   1      31.084  23.244  25.547  1.00  0.00     0.176 C 
ATOM     15  C   UNL A   1      31.629  21.873  25.132  1.00  0.00     0.075 C 
ATOM     16  C   UNL A   1      30.201  23.150  26.797  1.00  0.00     0.075 C 
ENDBRANCH  11  14
ENDBRANCH   5  11
BRANCH   9  17
ATOM     17  S   UNL A   1      31.227  28.135  23.358  1.00  0.00    -0.103 SA
BRANCH  17  18
ATOM     18  C   UNL A   1      29.596  28.799  23.215  1.00  0.00     0.100 A 
ATOM     19  C   UNL A   1      28.467  28.013  23.208  1.00  0.00     0.055 A 
ATOM     20  N   UNL A   1      29.545  30.146  23.214  1.00  0.00    -0.230 NA
ATOM     21  C   UNL A   1      27.268  28.687  23.163  1.00  0.00     0.115 A 
ATOM     22  C   UNL A   1      28.326  30.695  23.210  1.00  0.00     0.222 A 
ATOM     23  N   UNL A   1      27.166  30.027  23.166  1.00  0.00    -0.245 NA
ENDBRANCH  17  18
ENDBRANCH   9  17
ENDBRANCH   3   5
ENDBRANCH   2   3
ENDBRANCH   1   2
BRANCH   1  24
ATOM     24  C   UNL A   1      31.675  29.586  26.865  1.00  0.00     0.275 C 
BRANCH  24  25
ATOM     25  O   UNL A   1      32.884  30.200  26.390  1.00  0.00    -0.458 OA
BRANCH  25  26
ATOM     26  C   UNL A   1      33.306  31.297  27.072  1.00  0.00     0.338 C 
ATOM     27  O   UNL A   1      32.669  32.330  27.252  1.00  0.00    -0.246 OA
BRANCH  26  28
ATOM     28  C   UNL A   1      34.668  31.058  27.629  1.00  0.00     0.060 A 
ATOM     29  C   UNL A   1      35.071  29.766  27.934  1.00  0.00     0.016 A 
ATOM     30  C   UNL A   1      35.531  32.107  27.954  1.00  0.00     0.016 A 
ATOM     31  C   UNL A   1      36.227  29.535  28.677  1.00  0.00     0.010 A 
ATOM     32  C   UNL A   1      36.772  31.849  28.582  1.00  0.00     0.010 A 
ATOM     33  C   UNL A   1      37.128  30.554  29.002  1.00  0.00    -0.014 A 
BRANCH  33  34
ATOM     34  C   UNL A   1      38.365  30.254  29.819  1.00  0.00     0.031 A 
ATOM     35  C   UNL A   1      39.497  29.440  29.226  1.00  0.00     0.074 A 
ATOM     36  C   UNL A   1      38.552  30.748  31.067  1.00  0.00     0.049 A 
ATOM     37  N   UNL A   1      40.474  28.805  29.829  1.00  0.00    -0.248 NA
ATOM     38  C   UNL A   1      39.525  29.309  27.761  1.00  0.00     0.031 C 
ATOM     39  C   UNL A   1      37.636  31.634  31.786  1.00  0.00     0.029 A 
ATOM     40  N   UNL A   1      39.601  30.601  31.951  1.00  0.00    -0.354 N 
ATOM     41  C   UNL A   1      41.152  28.105  28.833  1.00  0.00     0.074 A 
ATOM     42  C   UNL A   1      40.499  28.426  27.582  1.00  0.00     0.031 C 
ATOM     43  C   UNL A   1      38.206  32.047  32.925  1.00  0.00     0.029 A 
ATOM     44  C   UNL A   1      39.432  31.292  33.132  1.00  0.00     0.049 A 
ATOM     45  H   UNL A   1      40.397  30.055  31.757  1.00  0.00     0.167 HD
ATOM     46  C   UNL A   1      42.204  27.259  28.963  1.00  0.00     0.037 A 
ATOM     47  C   UNL A   1      40.112  31.259  34.296  1.00  0.00     0.037 A 
ATOM     48  C   UNL A   1      42.913  27.036  30.200  1.00  0.00     0.049 A 
ATOM     49  C   UNL A   1      41.249  30.289  34.439  1.00  0.00     0.074 A 
ATOM     50  C   UNL A   1      43.973  26.181  30.453  1.00  0.00     0.029 A 
ATOM     51  N   UNL A   1      42.656  27.707  31.387  1.00  0.00    -0.354 N 
ATOM     52  N   UNL A   1      41.766  29.483  33.544  1.00  0.00    -0.248 NA
ATOM     53  C   UNL A   1      41.864  30.183  35.769  1.00  0.00     0.031 C 
ATOM     54  C   UNL A   1      44.328  26.306  31.801  1.00  0.00     0.029 A 
ATOM     55  C   UNL A   1      43.530  27.281  32.375  1.00  0.00     0.049 A 
ATOM     56  H   UNL A   1      41.954  28.387  31.509  1.00  0.00     0.167 HD
ATOM     57  C   UNL A   1      42.763  28.776  34.199  1.00  0.00     0.074 A 
ATOM     58  C   UNL A   1      42.803  29.273  35.560  1.00  0.00     0.031 C 
ATOM     59  C   UNL A   1      43.563  27.792  33.722  1.00  0.00     0.037 A 
BRANCH  46  60
ATOM     60  C   UNL A   1      42.603  26.445  27.761  1.00  0.00     0.064 A 
ATOM     61  C   UNL A   1      43.608  26.843  26.868  1.00  0.00     0.173 A 
ATOM     62  C   UNL A   1      41.963  25.218  27.511  1.00  0.00     0.173 A 
ATOM     63  F   UNL A   1      44.251  28.007  27.050  1.00  0.00    -0.203 F 
ATOM     64  C   UNL A   1      43.930  26.066  25.754  1.00  0.00     0.198 A 
ATOM     65  C   UNL A   1      42.311  24.427  26.418  1.00  0.00     0.198 A 
ATOM     66  F   UNL A   1      41.002  24.776  28.337  1.00  0.00    -0.203 F 
ATOM     67  F   UNL A   1      44.852  26.497  24.883  1.00  0.00    -0.200 F 
ATOM     68  C   UNL A   1      43.285  24.859  25.532  1.00  0.00     0.200 A 
ATOM     69  F   UNL A   1      41.698  23.252  26.220  1.00  0.00    -0.200 F 
ATOM     70  F   UNL A   1      43.597  24.114  24.463  1.00  0.00    -0.200 F 
ENDBRANCH  46  60
BRANCH  47  71
ATOM     71  C   UNL A   1      39.657  32.081  35.459  1.00  0.00     0.064 A 
ATOM     72  C   UNL A   1      40.151  33.375  35.676  1.00  0.00     0.173 A 
ATOM     73  C   UNL A   1      38.717  31.588  36.380  1.00  0.00     0.173 A 
ATOM     74  F   UNL A   1      41.081  33.883  34.856  1.00  0.00    -0.203 F 
ATOM     75  C   UNL A   1      39.723  34.139  36.762  1.00  0.00     0.198 A 
ATOM     76  C   UNL A   1      38.254  32.369  37.435  1.00  0.00     0.198 A 
ATOM     77  F   UNL A   1      38.220  30.350  36.237  1.00  0.00    -0.203 F 
ATOM     78  F   UNL A   1      40.249  35.354  36.974  1.00  0.00    -0.200 F 
ATOM     79  C   UNL A   1      38.763  33.643  37.630  1.00  0.00     0.200 A 
ATOM     80  F   UNL A   1      37.308  31.891  38.254  1.00  0.00    -0.200 F 
ATOM     81  F   UNL A   1      38.334  34.386  38.659  1.00  0.00    -0.200 F 
ENDBRANCH  47  71
BRANCH  59  82
ATOM     82  C   UNL A   1      44.581  27.225  34.668  1.00  0.00     0.064 A 
ATOM     83  C   UNL A   1      44.311  26.095  35.455  1.00  0.00     0.173 A 
ATOM     84  C   UNL A   1      45.844  27.822  34.787  1.00  0.00     0.173 A 
ATOM     85  F   UNL A   1      43.109  25.501  35.394  1.00  0.00    -0.203 F 
ATOM     86  C   UNL A   1      45.257  25.605  36.351  1.00  0.00     0.198 A 
ATOM     87  C   UNL A   1      46.799  27.310  35.660  1.00  0.00     0.198 A 
ATOM     88  F   UNL A   1      46.153  28.903  34.056  1.00  0.00    -0.203 F 
ATOM     89  F   UNL A   1      44.955  24.562  37.138  1.00  0.00    -0.200 F 
ATOM     90  C   UNL A   1      46.502  26.209  36.448  1.00  0.00     0.200 A 
ATOM     91  F   UNL A   1      48.006  27.888  35.745  1.00  0.00    -0.200 F 
ATOM     92  F   UNL A   1      47.411  25.737  37.313  1.00  0.00    -0.200 F 
ENDBRANCH  59  82
ENDBRANCH  33  34
ENDBRANCH  26  28
ENDBRANCH  25  26
ENDBRANCH  24  25
ENDBRANCH   1  24
TORSDOF 15
ENDMDL
MODEL 2
REMARK VINA RESULT:     -11.8      0.407      2.022
REMARK SMILES CC(C)[NH2+][C@@]1(C(=O)OCCOC(=O)c2ccc(-c3c4nc(c(-c5c(F)c(F)c(F)c(F)c5F)c5ccc([nH]5)c(-c5c(F)c(F)c(F)c(F)c5F)c5nc(c(-c6c(F)c(F)c(F)c(F)c6F)c6ccc3[nH]6)C=C5)C=C4)cc2)CCC[C@H](Sc2ccncn2)C1
REMARK SMILES IDX 9 1 8 2 6 3 7 4 5 5 77 6 88 7 78 8 80 9 79 10 4 11 2 14 1 15
REMARK SMILES IDX 3 16 81 17 82 18 83 19 87 20 84 21 86 22 85 23 10 24 11 25
REMARK SMILES IDX 12 26 13 27 14 28 15 29 76 30 16 31 75 32 17 33 18 34 19 35
REMARK SMILES IDX 69 36 20 37 74 38 68 39 70 40 21 41 73 42 67 43 66 44 22 46
REMARK SMILES IDX 54 47 34 48 53 49 35 50 38 51 52 52 71 53 36 54 37 55 51 57
REMARK SMILES IDX 72 58 39 59 23 60 24 61 32 62 25 63 26 64 30 65 33 66 27 67
REMARK SMILES IDX 28 68 31 69 29 70 55 71 56 72 64 73 57 74 58 75 62 76 65 77
REMARK SMILES IDX 59 78 60 79 63 80 61 81 40 82 41 83 49 84 42 85 43 86 47 87
REMARK SMILES IDX 50 88 44 89 45 90 48 91 46 92
REMARK H PARENT 4 12 4 13 70 45 38 56
REMARK Flexibility Score: inf
ROOT
ATOM      1  C   UNL A   1      31.797  28.367  26.998  1.00  0.00     0.274 C 
ENDROOT
BRANCH   1   2
ATOM      2  O   UNL A   1      31.611  27.268  26.063  1.00  0.00    -0.457 OA
BRANCH   2   3
ATOM      3  C   UNL A   1      32.627  26.733  25.340  1.00  0.00     0.368 C 
ATOM      4  O   UNL A   1      33.749  27.219  25.251  1.00  0.00    -0.245 OA
BRANCH   3   5
ATOM      5  C   UNL A   1      32.207  25.423  24.586  1.00  0.00     0.195 C 
ATOM      6  C   UNL A   1      33.256  24.879  23.588  1.00  0.00     0.081 C 
ATOM      7  C   UNL A   1      30.872  25.709  23.834  1.00  0.00     0.096 C 
ATOM      8  C   UNL A   1      33.406  25.714  22.319  1.00  0.00     0.008 C 
ATOM      9  C   UNL A   1      31.008  26.578  22.562  1.00  0.00     0.060 C 
ATOM     10  C   UNL A   1      32.061  25.951  21.645  1.00  0.00     0.015 C 
BRANCH   5  11
ATOM     11  N   UNL A   1      31.876  24.301  25.523  1.00  0.00    -0.330 N 
ATOM     12  H   UNL A   1      31.876  24.691  26.466  1.00  0.00     0.347 HD
ATOM     13  H   UNL A   1      30.987  23.946  25.172  1.00  0.00     0.347 HD
BRANCH  11  14
ATOM     14  C   UNL A   1      32.733  23.122  25.551  1.00  0.00     0.176 C 
ATOM     15  C   UNL A   1      33.487  23.122  26.886  1.00  0.00     0.075 C 
ATOM     16  C   UNL A   1      31.912  21.841  25.361  1.00  0.00     0.075 C 
ENDBRANCH  11  14
ENDBRANCH   5  11
BRANCH   9  17
ATOM     17  S   UNL A   1      31.189  28.346  23.060  1.00  0.00    -0.103 SA
BRANCH  17  18
ATOM     18  C   UNL A   1      29.568  29.048  23.094  1.00  0.00     0.100 A 
ATOM     19  C   UNL A   1      28.424  28.294  22.977  1.00  0.00     0.055 A 
ATOM     20  N   UNL A   1      29.543  30.373  23.345  1.00  0.00    -0.230 NA
ATOM     21  C   UNL A   1      27.238  28.981  23.095  1.00  0.00     0.115 A 
ATOM     22  C   UNL A   1      28.335  30.930  23.481  1.00  0.00     0.222 A 
ATOM     23  N   UNL A   1      27.162  30.298  23.350  1.00  0.00    -0.245 NA
ENDBRANCH  17  18
ENDBRANCH   9  17
ENDBRANCH   3   5
ENDBRANCH   2   3
ENDBRANCH   1   2
BRANCH   1  24
ATOM     24  C   UNL A   1      31.635  29.826  26.536  1.00  0.00     0.275 C 
BRANCH  24  25
ATOM     25  O   UNL A   1      32.926  30.397  26.265  1.00  0.00    -0.458 OA
BRANCH  25  26
ATOM     26  C   UNL A   1      33.303  31.430  27.063  1.00  0.00     0.338 C 
ATOM     27  O   UNL A   1      32.635  32.425  27.326  1.00  0.00    -0.246 OA
BRANCH  26  28
ATOM     28  C   UNL A   1      34.656  31.169  27.630  1.00  0.00     0.060 A 
ATOM     29  C   UNL A   1      35.035  29.871  27.941  1.00  0.00     0.016 A 
ATOM     30  C   UNL A   1      35.535  32.204  27.958  1.00  0.00     0.016 A 
ATOM     31  C   UNL A   1      36.181  29.621  28.694  1.00  0.00     0.010 A 
ATOM     32  C   UNL A   1      36.766  31.925  28.597  1.00  0.00     0.010 A 
ATOM     33  C   UNL A   1      37.097  30.625  29.023  1.00  0.00    -0.014 A 
BRANCH  33  34
ATOM     34  C   UNL A   1      38.323  30.305  29.849  1.00  0.00     0.031 A 
ATOM     35  C   UNL A   1      39.454  29.490  29.258  1.00  0.00     0.074 A 
ATOM     36  C   UNL A   1      38.499  30.783  31.105  1.00  0.00     0.049 A 
ATOM     37  N   UNL A   1      40.419  28.839  29.864  1.00  0.00    -0.248 NA
ATOM     38  C   UNL A   1      39.498  29.376  27.792  1.00  0.00     0.031 C 
ATOM     39  C   UNL A   1      37.583  31.668  31.825  1.00  0.00     0.029 A 
ATOM     40  N   UNL A   1      39.538  30.617  31.999  1.00  0.00    -0.354 N 
ATOM     41  C   UNL A   1      41.103  28.147  28.868  1.00  0.00     0.074 A 
ATOM     42  C   UNL A   1      40.466  28.488  27.614  1.00  0.00     0.031 C 
ATOM     43  C   UNL A   1      38.143  32.062  32.975  1.00  0.00     0.029 A 
ATOM     44  C   UNL A   1      39.361  31.295  33.186  1.00  0.00     0.049 A 
ATOM     45  H   UNL A   1      40.331  30.068  31.807  1.00  0.00     0.167 HD
ATOM     46  C   UNL A   1      42.147  27.291  28.999  1.00  0.00     0.037 A 
ATOM     47  C   UNL A   1      40.027  31.243  34.357  1.00  0.00     0.037 A 
ATOM     48  C   UNL A   1      42.841  27.047  30.240  1.00  0.00     0.049 A 
ATOM     49  C   UNL A   1      41.156  30.262  34.501  1.00  0.00     0.074 A 
ATOM     50  C   UNL A   1      43.892  26.181  30.494  1.00  0.00     0.029 A 
ATOM     51  N   UNL A   1      42.576  27.707  31.433  1.00  0.00    -0.354 N 
ATOM     52  N   UNL A   1      41.676  29.463  33.601  1.00  0.00    -0.248 NA
ATOM     53  C   UNL A   1      41.755  30.136  35.836  1.00  0.00     0.031 C 
ATOM     54  C   UNL A   1      44.233  26.287  31.848  1.00  0.00     0.029 A 
ATOM     55  C   UNL A   1      43.436  27.262  32.425  1.00  0.00     0.049 A 
ATOM     56  H   UNL A   1      41.879  28.390  31.556  1.00  0.00     0.167 HD
ATOM     57  C   UNL A   1      42.661  28.741  34.259  1.00  0.00     0.074 A 
ATOM     58  C   UNL A   1      42.690  29.221  35.626  1.00  0.00     0.031 C 
ATOM     59  C   UNL A   1      43.458  27.755  33.779  1.00  0.00     0.037 A 
BRANCH  46  60
ATOM     60  C   UNL A   1      42.553  26.488  27.791  1.00  0.00     0.064 A 
ATOM     61  C   UNL A   1      41.989  25.244  27.476  1.00  0.00     0.173 A 
ATOM     62  C   UNL A   1      43.531  26.998  26.917  1.00  0.00     0.173 A 
ATOM     63  F   UNL A   1      41.057  24.703  28.275  1.00  0.00    -0.203 F 
ATOM     64  C   UNL A   1      42.414  24.524  26.358  1.00  0.00     0.198 A 
ATOM     65  C   UNL A   1      43.926  26.294  25.782  1.00  0.00     0.198 A 
ATOM     66  F   UNL A   1      44.098  28.190  27.158  1.00  0.00    -0.203 F 
ATOM     67  F   UNL A   1      41.902  23.311  26.110  1.00  0.00    -0.200 F 
ATOM     68  C   UNL A   1      43.377  25.051  25.510  1.00  0.00     0.200 A 
ATOM     69  F   UNL A   1      44.843  26.817  24.956  1.00  0.00    -0.200 F 
ATOM     70  F   UNL A   1      43.781  24.360  24.436  1.00  0.00    -0.200 F 
ENDBRANCH  46  60
BRANCH  47  71
ATOM     71  C   UNL A   1      39.567  32.054  35.524  1.00  0.00     0.064 A 
ATOM     72  C   UNL A   1      38.615  31.560  36.427  1.00  0.00     0.173 A 
ATOM     73  C   UNL A   1      40.069  33.346  35.762  1.00  0.00     0.173 A 
ATOM     74  F   UNL A   1      38.068  30.352  36.229  1.00  0.00    -0.203 F 
ATOM     75  C   UNL A   1      38.189  32.320  37.517  1.00  0.00     0.198 A 
ATOM     76  C   UNL A   1      39.680  34.084  36.876  1.00  0.00     0.198 A 
ATOM     77  F   UNL A   1      40.969  33.883  34.923  1.00  0.00    -0.203 F 
ATOM     78  F   UNL A   1      37.241  31.843  38.335  1.00  0.00    -0.200 F 
ATOM     79  C   UNL A   1      38.733  33.574  37.749  1.00  0.00     0.200 A 
ATOM     80  F   UNL A   1      40.230  35.284  37.106  1.00  0.00    -0.200 F 
ATOM     81  F   UNL A   1      38.342  34.294  38.809  1.00  0.00    -0.200 F 
ENDBRANCH  47  71
BRANCH  59  82
ATOM     82  C   UNL A   1      44.461  27.170  34.729  1.00  0.00     0.064 A 
ATOM     83  C   UNL A   1      45.734  27.734  34.901  1.00  0.00     0.173 A 
ATOM     84  C   UNL A   1      44.141  26.028  35.479  1.00  0.00     0.173 A 
ATOM     85  F   UNL A   1      46.096  28.813  34.191  1.00  0.00    -0.203 F 
ATOM     86  C   UNL A   1      46.661  27.155  35.764  1.00  0.00     0.198 A 
ATOM     87  C   UNL A   1      45.058  25.472  36.364  1.00  0.00     0.198 A 
ATOM     88  F   UNL A   1      42.936  25.452  35.352  1.00  0.00    -0.203 F 
ATOM     89  F   UNL A   1      47.893  27.674  35.866  1.00  0.00    -0.200 F 
ATOM     90  C   UNL A   1      46.321  26.029  36.498  1.00  0.00     0.200 A 
ATOM     91  F   UNL A   1      44.724  24.390  37.081  1.00  0.00    -0.200 F 
ATOM     92  F   UNL A   1      47.216  25.472  37.327  1.00  0.00    -0.200 F 
ENDBRANCH  59  82
ENDBRANCH  33  34
ENDBRANCH  26  28
ENDBRANCH  25  26
ENDBRANCH  24  25
ENDBRANCH   1  24
TORSDOF 15
ENDMDL
MODEL 3
REMARK VINA RESULT:     -11.8      1.287      3.852
REMARK SMILES CC(C)[NH2+][C@@]1(C(=O)OCCOC(=O)c2ccc(-c3c4nc(c(-c5c(F)c(F)c(F)c(F)c5F)c5ccc([nH]5)c(-c5c(F)c(F)c(F)c(F)c5F)c5nc(c(-c6c(F)c(F)c(F)c(F)c6F)c6ccc3[nH]6)C=C5)C=C4)cc2)CCC[C@H](Sc2ccncn2)C1
REMARK SMILES IDX 9 1 8 2 6 3 7 4 5 5 77 6 88 7 78 8 80 9 79 10 4 11 2 14 1 15
REMARK SMILES IDX 3 16 81 17 82 18 83 19 87 20 84 21 86 22 85 23 10 24 11 25
REMARK SMILES IDX 12 26 13 27 14 28 15 29 76 30 16 31 75 32 17 33 18 34 19 35
REMARK SMILES IDX 69 36 20 37 74 38 68 39 70 40 21 41 73 42 67 43 66 44 22 46
REMARK SMILES IDX 54 47 34 48 53 49 35 50 38 51 52 52 71 53 36 54 37 55 51 57
REMARK SMILES IDX 72 58 39 59 23 60 24 61 32 62 25 63 26 64 30 65 33 66 27 67
REMARK SMILES IDX 28 68 31 69 29 70 55 71 56 72 64 73 57 74 58 75 62 76 65 77
REMARK SMILES IDX 59 78 60 79 63 80 61 81 40 82 41 83 49 84 42 85 43 86 47 87
REMARK SMILES IDX 50 88 44 89 45 90 48 91 46 92
REMARK H PARENT 4 12 4 13 70 45 38 56
REMARK Flexibility Score: inf
ROOT
ATOM      1  C   UNL A   1      33.466  28.677  24.363  1.00  0.00     0.274 C 
ENDROOT
BRANCH   1   2
ATOM      2  O   UNL A   1      33.134  27.261  24.333  1.00  0.00    -0.457 OA
BRANCH   2   3
ATOM      3  C   UNL A   1      32.492  26.674  23.292  1.00  0.00     0.368 C 
ATOM      4  O   UNL A   1      33.022  26.373  22.229  1.00  0.00    -0.245 OA
BRANCH   3   5
ATOM      5  C   UNL A   1      30.967  26.444  23.576  1.00  0.00     0.195 C 
ATOM      6  C   UNL A   1      30.510  26.790  25.013  1.00  0.00     0.081 C 
ATOM      7  C   UNL A   1      30.642  24.950  23.272  1.00  0.00     0.096 C 
ATOM      8  C   UNL A   1      30.988  25.805  26.076  1.00  0.00     0.008 C 
ATOM      9  C   UNL A   1      31.147  23.940  24.330  1.00  0.00     0.060 C 
ATOM     10  C   UNL A   1      30.637  24.370  25.707  1.00  0.00     0.015 C 
BRANCH   5  11
ATOM     11  N   UNL A   1      30.084  27.216  22.642  1.00  0.00    -0.330 N 
ATOM     12  H   UNL A   1      30.621  27.377  21.790  1.00  0.00     0.347 HD
ATOM     13  H   UNL A   1      29.252  26.633  22.557  1.00  0.00     0.347 HD
BRANCH  11  14
ATOM     14  C   UNL A   1      29.559  28.508  23.065  1.00  0.00     0.176 C 
ATOM     15  C   UNL A   1      30.168  29.582  22.156  1.00  0.00     0.075 C 
ATOM     16  C   UNL A   1      28.027  28.522  23.016  1.00  0.00     0.075 C 
ENDBRANCH  11  14
ENDBRANCH   5  11
BRANCH   9  17
ATOM     17  S   UNL A   1      32.957  23.671  24.086  1.00  0.00    -0.103 SA
BRANCH  17  18
ATOM     18  C   UNL A   1      33.266  21.947  24.323  1.00  0.00     0.100 A 
ATOM     19  C   UNL A   1      32.374  20.969  23.949  1.00  0.00     0.055 A 
ATOM     20  N   UNL A   1      34.492  21.666  24.809  1.00  0.00    -0.230 NA
ATOM     21  C   UNL A   1      32.793  19.672  24.135  1.00  0.00     0.115 A 
ATOM     22  C   UNL A   1      34.809  20.371  24.910  1.00  0.00     0.222 A 
ATOM     23  N   UNL A   1      34.006  19.342  24.610  1.00  0.00    -0.245 NA
ENDBRANCH  17  18
ENDBRANCH   9  17
ENDBRANCH   3   5
ENDBRANCH   2   3
ENDBRANCH   1   2
BRANCH   1  24
ATOM     24  C   UNL A   1      32.484  29.702  24.956  1.00  0.00     0.275 C 
BRANCH  24  25
ATOM     25  O   UNL A   1      32.614  29.730  26.387  1.00  0.00    -0.458 OA
BRANCH  25  26
ATOM     26  C   UNL A   1      33.023  30.907  26.929  1.00  0.00     0.338 C 
ATOM     27  O   UNL A   1      32.367  31.941  26.999  1.00  0.00    -0.246 OA
BRANCH  26  28
ATOM     28  C   UNL A   1      34.398  30.760  27.485  1.00  0.00     0.060 A 
ATOM     29  C   UNL A   1      34.912  29.495  27.729  1.00  0.00     0.016 A 
ATOM     30  C   UNL A   1      35.165  31.863  27.868  1.00  0.00     0.016 A 
ATOM     31  C   UNL A   1      36.081  29.329  28.471  1.00  0.00     0.010 A 
ATOM     32  C   UNL A   1      36.420  31.684  28.494  1.00  0.00     0.010 A 
ATOM     33  C   UNL A   1      36.887  30.405  28.853  1.00  0.00    -0.014 A 
BRANCH  33  34
ATOM     34  C   UNL A   1      38.142  30.175  29.664  1.00  0.00     0.031 A 
ATOM     35  C   UNL A   1      39.297  29.386  29.083  1.00  0.00     0.074 A 
ATOM     36  C   UNL A   1      38.323  30.711  30.896  1.00  0.00     0.049 A 
ATOM     37  N   UNL A   1      40.303  28.805  29.693  1.00  0.00    -0.248 NA
ATOM     38  C   UNL A   1      39.316  29.214  27.622  1.00  0.00     0.031 C 
ATOM     39  C   UNL A   1      37.382  31.583  31.599  1.00  0.00     0.029 A 
ATOM     40  N   UNL A   1      39.385  30.628  31.773  1.00  0.00    -0.354 N 
ATOM     41  C   UNL A   1      40.997  28.103  28.711  1.00  0.00     0.074 A 
ATOM     42  C   UNL A   1      40.320  28.363  27.458  1.00  0.00     0.031 C 
ATOM     43  C   UNL A   1      37.947  32.049  32.720  1.00  0.00     0.029 A 
ATOM     44  C   UNL A   1      39.202  31.346  32.935  1.00  0.00     0.049 A 
ATOM     45  H   UNL A   1      40.198  30.107  31.586  1.00  0.00     0.167 HD
ATOM     46  C   UNL A   1      42.081  27.299  28.853  1.00  0.00     0.037 A 
ATOM     47  C   UNL A   1      39.893  31.372  34.093  1.00  0.00     0.037 A 
ATOM     48  C   UNL A   1      42.809  27.138  30.088  1.00  0.00     0.049 A 
ATOM     49  C   UNL A   1      41.068  30.449  34.251  1.00  0.00     0.074 A 
ATOM     50  C   UNL A   1      43.903  26.331  30.354  1.00  0.00     0.029 A 
ATOM     51  N   UNL A   1      42.539  27.834  31.259  1.00  0.00    -0.354 N 
ATOM     52  N   UNL A   1      41.605  29.636  33.374  1.00  0.00    -0.248 NA
ATOM     53  C   UNL A   1      41.698  30.404  35.577  1.00  0.00     0.031 C 
ATOM     54  C   UNL A   1      44.266  26.507  31.694  1.00  0.00     0.029 A 
ATOM     55  C   UNL A   1      43.438  27.469  32.249  1.00  0.00     0.049 A 
ATOM     56  H   UNL A   1      41.814  28.490  31.369  1.00  0.00     0.167 HD
ATOM     57  C   UNL A   1      42.634  28.986  34.038  1.00  0.00     0.074 A 
ATOM     58  C   UNL A   1      42.669  29.523  35.383  1.00  0.00     0.031 C 
ATOM     59  C   UNL A   1      43.465  28.018  33.581  1.00  0.00     0.037 A 
BRANCH  46  60
ATOM     60  C   UNL A   1      42.498  26.466  27.670  1.00  0.00     0.064 A 
ATOM     61  C   UNL A   1      41.925  25.223  27.371  1.00  0.00     0.173 A 
ATOM     62  C   UNL A   1      43.497  26.945  26.803  1.00  0.00     0.173 A 
ATOM     63  F   UNL A   1      40.972  24.710  28.165  1.00  0.00    -0.203 F 
ATOM     64  C   UNL A   1      42.360  24.474  26.276  1.00  0.00     0.198 A 
ATOM     65  C   UNL A   1      43.904  26.213  25.691  1.00  0.00     0.198 A 
ATOM     66  F   UNL A   1      44.074  28.135  27.029  1.00  0.00    -0.203 F 
ATOM     67  F   UNL A   1      41.838  23.262  26.045  1.00  0.00    -0.200 F 
ATOM     68  C   UNL A   1      43.344  24.971  25.435  1.00  0.00     0.200 A 
ATOM     69  F   UNL A   1      44.842  26.707  24.871  1.00  0.00    -0.200 F 
ATOM     70  F   UNL A   1      43.759  24.252  24.383  1.00  0.00    -0.200 F 
ENDBRANCH  46  60
BRANCH  47  71
ATOM     71  C   UNL A   1      39.420  32.210  35.236  1.00  0.00     0.064 A 
ATOM     72  C   UNL A   1      38.580  31.684  36.228  1.00  0.00     0.173 A 
ATOM     73  C   UNL A   1      39.798  33.558  35.361  1.00  0.00     0.173 A 
ATOM     74  F   UNL A   1      38.152  30.417  36.141  1.00  0.00    -0.203 F 
ATOM     75  C   UNL A   1      38.142  32.469  37.295  1.00  0.00     0.198 A 
ATOM     76  C   UNL A   1      39.400  34.326  36.451  1.00  0.00     0.198 A 
ATOM     77  F   UNL A   1      40.585  34.125  34.434  1.00  0.00    -0.203 F 
ATOM     78  F   UNL A   1      37.300  31.955  38.202  1.00  0.00    -0.200 F 
ATOM     79  C   UNL A   1      38.565  33.784  37.415  1.00  0.00     0.200 A 
ATOM     80  F   UNL A   1      39.834  35.588  36.571  1.00  0.00    -0.200 F 
ATOM     81  F   UNL A   1      38.164  34.531  38.452  1.00  0.00    -0.200 F 
ENDBRANCH  47  71
BRANCH  59  82
ATOM     82  C   UNL A   1      44.512  27.517  34.531  1.00  0.00     0.064 A 
ATOM     83  C   UNL A   1      45.766  28.136  34.644  1.00  0.00     0.173 A 
ATOM     84  C   UNL A   1      44.254  26.402  35.342  1.00  0.00     0.173 A 
ATOM     85  F   UNL A   1      46.070  29.193  33.875  1.00  0.00    -0.203 F 
ATOM     86  C   UNL A   1      46.736  27.635  35.509  1.00  0.00     0.198 A 
ATOM     87  C   UNL A   1      45.213  25.924  36.229  1.00  0.00     0.198 A 
ATOM     88  F   UNL A   1      43.070  25.775  35.274  1.00  0.00    -0.203 F 
ATOM     89  F   UNL A   1      47.948  28.204  35.555  1.00  0.00    -0.200 F 
ATOM     90  C   UNL A   1      46.456  26.534  36.305  1.00  0.00     0.200 A 
ATOM     91  F   UNL A   1      44.939  24.866  37.005  1.00  0.00    -0.200 F 
ATOM     92  F   UNL A   1      47.391  26.051  37.135  1.00  0.00    -0.200 F 
ENDBRANCH  59  82
ENDBRANCH  33  34
ENDBRANCH  26  28
ENDBRANCH  25  26
ENDBRANCH  24  25
ENDBRANCH   1  24
TORSDOF 15
ENDMDL
