MODEL 1
REMARK VINA RESULT:     -13.1      0.000      0.000
REMARK SMILES CC1CCN(S(=O)(=O)c2ccc3c(ccn3CC(=O)OCCOC(=O)c3ccc(-c4c5nc(c(-c6c(F)c(F)c(F)c(F)c6F)c6ccc([nH]6)c(-c6c(F)c(F)c(F)c(F)c6F)c6nc(c(-c7c(F)c(F)c(F)c(F)c7F)c7ccc4[nH]7)C=C6)C=C5)cc3)c2)CC1
REMARK SMILES IDX 21 1 20 2 18 3 19 4 17 5 16 6 9 7 10 8 89 9 11 10 13 11
REMARK SMILES IDX 12 12 14 13 15 14 6 15 7 16 8 17 5 18 1 19 2 20 3 21 91 22
REMARK SMILES IDX 4 23 90 24 22 25 23 26 24 27 25 28 26 29 27 30 88 31 28 32
REMARK SMILES IDX 87 33 29 34 30 35 31 36 81 37 32 38 86 39 80 40 82 41 33 42
REMARK SMILES IDX 85 43 79 44 78 45 34 47 66 48 46 49 65 50 47 51 50 52 64 53
REMARK SMILES IDX 83 54 48 55 49 56 63 58 84 59 51 60 35 61 36 62 44 63 37 64
REMARK SMILES IDX 38 65 42 66 45 67 39 68 40 69 43 70 41 71 67 72 68 73 76 74
REMARK SMILES IDX 69 75 70 76 74 77 77 78 71 79 72 80 75 81 73 82 52 83 53 84
REMARK SMILES IDX 61 85 54 86 55 87 59 88 62 89 56 90 57 91 60 92 58 93
REMARK H PARENT 82 46 50 57
REMARK Flexibility Score: inf
ROOT
ATOM      1  C   UNL A   1      42.676  19.335  26.280  1.00  0.00     0.274 C 
ENDROOT
BRANCH   1   2
ATOM      2  O   UNL A   1      41.791  20.379  25.823  1.00  0.00    -0.461 OA
BRANCH   2   3
ATOM      3  C   UNL A   1      40.876  20.837  26.711  1.00  0.00     0.326 C 
ATOM      4  O   UNL A   1      40.777  20.449  27.871  1.00  0.00    -0.250 OA
BRANCH   3   5
ATOM      5  C   UNL A   1      39.906  21.826  26.142  1.00  0.00     0.244 C 
BRANCH   5   6
ATOM      6  N   UNL A   1      38.607  21.352  25.681  1.00  0.00    -0.336 N 
ATOM      7  C   UNL A   1      35.104  23.383  24.959  1.00  0.00     0.083 A 
ATOM      8  C   UNL A   1      36.099  24.086  25.637  1.00  0.00     0.024 A 
ATOM      9  C   UNL A   1      35.299  22.058  24.552  1.00  0.00     0.032 A 
ATOM     10  C   UNL A   1      37.346  23.524  25.863  1.00  0.00     0.028 A 
ATOM     11  C   UNL A   1      36.529  21.444  24.855  1.00  0.00     0.001 A 
ATOM     12  C   UNL A   1      37.524  22.188  25.496  1.00  0.00     0.049 A 
ATOM     13  C   UNL A   1      37.038  20.131  24.683  1.00  0.00     0.028 A 
ATOM     14  C   UNL A   1      38.302  20.099  25.227  1.00  0.00     0.087 A 
BRANCH   7  15
ATOM     15  S   UNL A   1      33.507  24.135  24.819  1.00  0.00     0.243 S 
ATOM     16  O   UNL A   1      33.213  24.702  26.119  1.00  0.00    -0.207 OA
ATOM     17  O   UNL A   1      32.604  23.170  24.226  1.00  0.00    -0.207 OA
BRANCH  15  18
ATOM     18  N   UNL A   1      33.695  25.408  23.683  1.00  0.00    -0.198 NA
ATOM     19  C   UNL A   1      29.704  26.860  23.816  1.00  0.00     0.008 C 
ATOM     20  C   UNL A   1      31.144  26.820  23.299  1.00  0.00    -0.012 C 
ATOM     21  C   UNL A   1      31.437  25.461  22.639  1.00  0.00     0.020 C 
ATOM     22  C   UNL A   1      32.106  27.159  24.447  1.00  0.00     0.020 C 
ATOM     23  C   UNL A   1      32.927  25.195  22.423  1.00  0.00     0.103 C 
ATOM     24  C   UNL A   1      33.550  26.820  24.112  1.00  0.00     0.103 C 
ENDBRANCH  15  18
ENDBRANCH   7  15
ENDBRANCH   5   6
ENDBRANCH   3   5
ENDBRANCH   2   3
ENDBRANCH   1   2
BRANCH   1  25
ATOM     25  C   UNL A   1      43.559  18.852  25.127  1.00  0.00     0.275 C 
BRANCH  25  26
ATOM     26  O   UNL A   1      44.012  19.999  24.392  1.00  0.00    -0.458 OA
BRANCH  26  27
ATOM     27  C   UNL A   1      45.239  20.478  24.710  1.00  0.00     0.338 C 
ATOM     28  O   UNL A   1      46.320  19.993  24.423  1.00  0.00    -0.246 OA
BRANCH  27  29
ATOM     29  C   UNL A   1      45.036  21.885  25.121  1.00  0.00     0.060 A 
ATOM     30  C   UNL A   1      45.731  22.430  26.204  1.00  0.00     0.016 A 
ATOM     31  C   UNL A   1      43.936  22.554  24.574  1.00  0.00     0.016 A 
ATOM     32  C   UNL A   1      45.229  23.564  26.830  1.00  0.00     0.010 A 
ATOM     33  C   UNL A   1      43.417  23.667  25.224  1.00  0.00     0.010 A 
ATOM     34  C   UNL A   1      44.033  24.142  26.383  1.00  0.00    -0.014 A 
BRANCH  34  35
ATOM     35  C   UNL A   1      43.608  25.393  27.001  1.00  0.00     0.031 A 
ATOM     36  C   UNL A   1      44.553  26.500  26.747  1.00  0.00     0.074 A 
ATOM     37  C   UNL A   1      42.484  25.655  27.698  1.00  0.00     0.049 A 
ATOM     38  N   UNL A   1      45.382  27.015  27.591  1.00  0.00    -0.248 NA
ATOM     39  C   UNL A   1      44.662  27.026  25.380  1.00  0.00     0.031 C 
ATOM     40  C   UNL A   1      41.267  24.856  27.803  1.00  0.00     0.029 A 
ATOM     41  N   UNL A   1      42.182  26.780  28.428  1.00  0.00    -0.354 N 
ATOM     42  C   UNL A   1      46.009  28.046  26.907  1.00  0.00     0.074 A 
ATOM     43  C   UNL A   1      45.651  27.909  25.519  1.00  0.00     0.031 C 
ATOM     44  C   UNL A   1      40.290  25.602  28.375  1.00  0.00     0.029 A 
ATOM     45  C   UNL A   1      40.861  26.858  28.837  1.00  0.00     0.049 A 
ATOM     46  H   UNL A   1      42.849  27.471  28.642  1.00  0.00     0.167 HD
ATOM     47  C   UNL A   1      46.563  29.089  27.574  1.00  0.00     0.037 A 
ATOM     48  C   UNL A   1      40.274  27.877  29.510  1.00  0.00     0.037 A 
ATOM     49  C   UNL A   1      46.675  28.843  28.985  1.00  0.00     0.049 A 
ATOM     50  C   UNL A   1      41.314  28.614  30.267  1.00  0.00     0.074 A 
ATOM     51  C   UNL A   1      47.573  28.256  29.846  1.00  0.00     0.029 A 
ATOM     52  N   UNL A   1      45.507  29.005  29.672  1.00  0.00    -0.354 N 
ATOM     53  N   UNL A   1      41.957  28.123  31.289  1.00  0.00    -0.248 NA
ATOM     54  C   UNL A   1      41.819  29.889  29.763  1.00  0.00     0.031 C 
ATOM     55  C   UNL A   1      46.867  27.988  31.061  1.00  0.00     0.029 A 
ATOM     56  C   UNL A   1      45.553  28.415  30.909  1.00  0.00     0.049 A 
ATOM     57  H   UNL A   1      44.723  29.487  29.322  1.00  0.00     0.167 HD
ATOM     58  C   UNL A   1      43.160  28.791  31.280  1.00  0.00     0.074 A 
ATOM     59  C   UNL A   1      42.949  29.979  30.469  1.00  0.00     0.031 C 
ATOM     60  C   UNL A   1      44.316  28.148  31.603  1.00  0.00     0.037 A 
BRANCH  47  61
ATOM     61  C   UNL A   1      46.605  30.489  27.029  1.00  0.00     0.064 A 
ATOM     62  C   UNL A   1      47.817  31.200  27.031  1.00  0.00     0.173 A 
ATOM     63  C   UNL A   1      45.443  31.249  26.771  1.00  0.00     0.173 A 
ATOM     64  F   UNL A   1      48.971  30.579  27.321  1.00  0.00    -0.203 F 
ATOM     65  C   UNL A   1      47.859  32.577  26.805  1.00  0.00     0.198 A 
ATOM     66  C   UNL A   1      45.494  32.610  26.485  1.00  0.00     0.198 A 
ATOM     67  F   UNL A   1      44.216  30.725  26.896  1.00  0.00    -0.203 F 
ATOM     68  F   UNL A   1      49.022  33.235  26.911  1.00  0.00    -0.200 F 
ATOM     69  C   UNL A   1      46.699  33.279  26.522  1.00  0.00     0.200 A 
ATOM     70  F   UNL A   1      44.356  33.278  26.244  1.00  0.00    -0.200 F 
ATOM     71  F   UNL A   1      46.734  34.606  26.337  1.00  0.00    -0.200 F 
ENDBRANCH  47  61
BRANCH  48  72
ATOM     72  C   UNL A   1      38.882  28.377  29.459  1.00  0.00     0.064 A 
ATOM     73  C   UNL A   1      38.127  28.531  30.636  1.00  0.00     0.173 A 
ATOM     74  C   UNL A   1      38.385  29.009  28.306  1.00  0.00     0.173 A 
ATOM     75  F   UNL A   1      38.543  27.981  31.786  1.00  0.00    -0.203 F 
ATOM     76  C   UNL A   1      36.977  29.324  30.671  1.00  0.00     0.198 A 
ATOM     77  C   UNL A   1      37.230  29.792  28.340  1.00  0.00     0.198 A 
ATOM     78  F   UNL A   1      39.065  28.961  27.151  1.00  0.00    -0.203 F 
ATOM     79  F   UNL A   1      36.333  29.516  31.831  1.00  0.00    -0.200 F 
ATOM     80  C   UNL A   1      36.540  29.967  29.527  1.00  0.00     0.200 A 
ATOM     81  F   UNL A   1      36.830  30.434  27.232  1.00  0.00    -0.200 F 
ATOM     82  F   UNL A   1      35.481  30.788  29.575  1.00  0.00    -0.200 F 
ENDBRANCH  48  72
BRANCH  60  83
ATOM     83  C   UNL A   1      44.224  27.001  32.555  1.00  0.00     0.064 A 
ATOM     84  C   UNL A   1      44.133  27.134  33.949  1.00  0.00     0.173 A 
ATOM     85  C   UNL A   1      44.225  25.702  32.025  1.00  0.00     0.173 A 
ATOM     86  F   UNL A   1      44.050  28.343  34.522  1.00  0.00    -0.203 F 
ATOM     87  C   UNL A   1      44.106  26.012  34.777  1.00  0.00     0.198 A 
ATOM     88  C   UNL A   1      44.160  24.585  32.851  1.00  0.00     0.198 A 
ATOM     89  F   UNL A   1      44.279  25.517  30.696  1.00  0.00    -0.203 F 
ATOM     90  F   UNL A   1      44.059  26.160  36.109  1.00  0.00    -0.200 F 
ATOM     91  C   UNL A   1      44.116  24.740  34.227  1.00  0.00     0.200 A 
ATOM     92  F   UNL A   1      44.136  23.358  32.312  1.00  0.00    -0.200 F 
ATOM     93  F   UNL A   1      44.070  23.662  35.022  1.00  0.00    -0.200 F 
ENDBRANCH  60  83
ENDBRANCH  34  35
ENDBRANCH  27  29
ENDBRANCH  26  27
ENDBRANCH  25  26
ENDBRANCH   1  25
TORSDOF 14
ENDMDL
MODEL 2
REMARK VINA RESULT:     -12.9      0.571      1.303
REMARK SMILES CC1CCN(S(=O)(=O)c2ccc3c(ccn3CC(=O)OCCOC(=O)c3ccc(-c4c5nc(c(-c6c(F)c(F)c(F)c(F)c6F)c6ccc([nH]6)c(-c6c(F)c(F)c(F)c(F)c6F)c6nc(c(-c7c(F)c(F)c(F)c(F)c7F)c7ccc4[nH]7)C=C6)C=C5)cc3)c2)CC1
REMARK SMILES IDX 21 1 20 2 18 3 19 4 17 5 16 6 9 7 10 8 89 9 11 10 13 11
REMARK SMILES IDX 12 12 14 13 15 14 6 15 7 16 8 17 5 18 1 19 2 20 3 21 91 22
REMARK SMILES IDX 4 23 90 24 22 25 23 26 24 27 25 28 26 29 27 30 88 31 28 32
REMARK SMILES IDX 87 33 29 34 30 35 31 36 81 37 32 38 86 39 80 40 82 41 33 42
REMARK SMILES IDX 85 43 79 44 78 45 34 47 66 48 46 49 65 50 47 51 50 52 64 53
REMARK SMILES IDX 83 54 48 55 49 56 63 58 84 59 51 60 35 61 36 62 44 63 37 64
REMARK SMILES IDX 38 65 42 66 45 67 39 68 40 69 43 70 41 71 67 72 68 73 76 74
REMARK SMILES IDX 69 75 70 76 74 77 77 78 71 79 72 80 75 81 73 82 52 83 53 84
REMARK SMILES IDX 61 85 54 86 55 87 59 88 62 89 56 90 57 91 60 92 58 93
REMARK H PARENT 82 46 50 57
REMARK Flexibility Score: inf
ROOT
ATOM      1  C   UNL A   1      42.619  18.971  26.454  1.00  0.00     0.274 C 
ENDROOT
BRANCH   1   2
ATOM      2  O   UNL A   1      41.706  19.922  25.869  1.00  0.00    -0.461 OA
BRANCH   2   3
ATOM      3  C   UNL A   1      40.895  20.595  26.721  1.00  0.00     0.326 C 
ATOM      4  O   UNL A   1      40.822  20.381  27.927  1.00  0.00    -0.250 OA
BRANCH   3   5
ATOM      5  C   UNL A   1      40.001  21.598  26.058  1.00  0.00     0.244 C 
BRANCH   5   6
ATOM      6  N   UNL A   1      38.656  21.193  25.668  1.00  0.00    -0.336 N 
ATOM      7  C   UNL A   1      35.234  23.406  25.112  1.00  0.00     0.083 A 
ATOM      8  C   UNL A   1      36.300  24.058  25.732  1.00  0.00     0.024 A 
ATOM      9  C   UNL A   1      35.336  22.070  24.706  1.00  0.00     0.032 A 
ATOM     10  C   UNL A   1      37.525  23.431  25.897  1.00  0.00     0.028 A 
ATOM     11  C   UNL A   1      36.546  21.392  24.951  1.00  0.00     0.001 A 
ATOM     12  C   UNL A   1      37.611  22.085  25.533  1.00  0.00     0.049 A 
ATOM     13  C   UNL A   1      36.974  20.052  24.763  1.00  0.00     0.028 A 
ATOM     14  C   UNL A   1      38.260  19.955  25.241  1.00  0.00     0.087 A 
BRANCH   7  15
ATOM     15  S   UNL A   1      33.675  24.243  25.048  1.00  0.00     0.243 S 
ATOM     16  O   UNL A   1      33.974  25.658  25.128  1.00  0.00    -0.207 OA
ATOM     17  O   UNL A   1      32.794  23.630  26.022  1.00  0.00    -0.207 OA
BRANCH  15  18
ATOM     18  N   UNL A   1      33.028  23.895  23.498  1.00  0.00    -0.198 NA
ATOM     19  C   UNL A   1      30.249  27.105  23.326  1.00  0.00     0.008 C 
ATOM     20  C   UNL A   1      30.928  25.835  22.807  1.00  0.00    -0.012 C 
ATOM     21  C   UNL A   1      30.677  24.663  23.773  1.00  0.00     0.020 C 
ATOM     22  C   UNL A   1      32.419  26.117  22.568  1.00  0.00     0.020 C 
ATOM     23  C   UNL A   1      31.600  23.467  23.535  1.00  0.00     0.103 C 
ATOM     24  C   UNL A   1      33.226  24.842  22.375  1.00  0.00     0.103 C 
ENDBRANCH  15  18
ENDBRANCH   7  15
ENDBRANCH   5   6
ENDBRANCH   3   5
ENDBRANCH   2   3
ENDBRANCH   1   2
BRANCH   1  25
ATOM     25  C   UNL A   1      43.704  18.593  25.443  1.00  0.00     0.275 C 
BRANCH  25  26
ATOM     26  O   UNL A   1      44.738  19.586  25.493  1.00  0.00    -0.458 OA
BRANCH  26  27
ATOM     27  C   UNL A   1      44.870  20.381  24.403  1.00  0.00     0.338 C 
ATOM     28  O   UNL A   1      44.776  20.051  23.232  1.00  0.00    -0.246 OA
BRANCH  27  29
ATOM     29  C   UNL A   1      44.754  21.773  24.892  1.00  0.00     0.060 A 
ATOM     30  C   UNL A   1      45.398  22.184  26.061  1.00  0.00     0.016 A 
ATOM     31  C   UNL A   1      43.765  22.571  24.307  1.00  0.00     0.016 A 
ATOM     32  C   UNL A   1      44.943  23.318  26.723  1.00  0.00     0.010 A 
ATOM     33  C   UNL A   1      43.289  23.683  24.989  1.00  0.00     0.010 A 
ATOM     34  C   UNL A   1      43.843  24.029  26.223  1.00  0.00    -0.014 A 
BRANCH  34  35
ATOM     35  C   UNL A   1      43.475  25.273  26.890  1.00  0.00     0.031 A 
ATOM     36  C   UNL A   1      44.447  26.357  26.643  1.00  0.00     0.074 A 
ATOM     37  C   UNL A   1      42.380  25.548  27.627  1.00  0.00     0.049 A 
ATOM     38  N   UNL A   1      45.315  26.820  27.478  1.00  0.00    -0.248 NA
ATOM     39  C   UNL A   1      44.536  26.921  25.290  1.00  0.00     0.031 C 
ATOM     40  C   UNL A   1      41.141  24.784  27.742  1.00  0.00     0.029 A 
ATOM     41  N   UNL A   1      42.134  26.658  28.398  1.00  0.00    -0.354 N 
ATOM     42  C   UNL A   1      45.956  27.851  26.808  1.00  0.00     0.074 A 
ATOM     43  C   UNL A   1      45.556  27.768  25.427  1.00  0.00     0.031 C 
ATOM     44  C   UNL A   1      40.204  25.541  28.363  1.00  0.00     0.029 A 
ATOM     45  C   UNL A   1      40.828  26.764  28.847  1.00  0.00     0.049 A 
ATOM     46  H   UNL A   1      42.828  27.322  28.614  1.00  0.00     0.167 HD
ATOM     47  C   UNL A   1      46.561  28.856  27.490  1.00  0.00     0.037 A 
ATOM     48  C   UNL A   1      40.292  27.780  29.567  1.00  0.00     0.037 A 
ATOM     49  C   UNL A   1      46.704  28.562  28.889  1.00  0.00     0.049 A 
ATOM     50  C   UNL A   1      41.375  28.461  30.316  1.00  0.00     0.074 A 
ATOM     51  C   UNL A   1      47.606  27.921  29.706  1.00  0.00     0.029 A 
ATOM     52  N   UNL A   1      45.560  28.740  29.614  1.00  0.00    -0.354 N 
ATOM     53  N   UNL A   1      42.030  27.918  31.304  1.00  0.00    -0.248 NA
ATOM     54  C   UNL A   1      41.907  29.734  29.836  1.00  0.00     0.031 C 
ATOM     55  C   UNL A   1      46.925  27.638  30.932  1.00  0.00     0.029 A 
ATOM     56  C   UNL A   1      45.622  28.111  30.830  1.00  0.00     0.049 A 
ATOM     57  H   UNL A   1      44.783  29.257  29.300  1.00  0.00     0.167 HD
ATOM     58  C   UNL A   1      43.253  28.549  31.280  1.00  0.00     0.074 A 
ATOM     59  C   UNL A   1      43.057  29.767  30.512  1.00  0.00     0.031 C 
ATOM     60  C   UNL A   1      44.396  27.861  31.551  1.00  0.00     0.037 A 
BRANCH  47  61
ATOM     61  C   UNL A   1      46.632  30.270  26.986  1.00  0.00     0.064 A 
ATOM     62  C   UNL A   1      47.861  30.951  26.997  1.00  0.00     0.173 A 
ATOM     63  C   UNL A   1      45.487  31.066  26.763  1.00  0.00     0.173 A 
ATOM     64  F   UNL A   1      49.002  30.293  27.256  1.00  0.00    -0.203 F 
ATOM     65  C   UNL A   1      47.935  32.333  26.811  1.00  0.00     0.198 A 
ATOM     66  C   UNL A   1      45.570  32.433  26.517  1.00  0.00     0.198 A 
ATOM     67  F   UNL A   1      44.248  30.569  26.885  1.00  0.00    -0.203 F 
ATOM     68  F   UNL A   1      49.115  32.958  26.925  1.00  0.00    -0.200 F 
ATOM     69  C   UNL A   1      46.791  33.071  26.562  1.00  0.00     0.200 A 
ATOM     70  F   UNL A   1      44.446  33.136  26.308  1.00  0.00    -0.200 F 
ATOM     71  F   UNL A   1      46.857  34.401  26.415  1.00  0.00    -0.200 F 
ENDBRANCH  47  61
BRANCH  48  72
ATOM     72  C   UNL A   1      38.916  28.324  29.570  1.00  0.00     0.064 A 
ATOM     73  C   UNL A   1      38.205  28.483  30.774  1.00  0.00     0.173 A 
ATOM     74  C   UNL A   1      38.401  28.989  28.444  1.00  0.00     0.173 A 
ATOM     75  F   UNL A   1      38.643  27.902  31.901  1.00  0.00    -0.203 F 
ATOM     76  C   UNL A   1      37.084  29.311  30.860  1.00  0.00     0.198 A 
ATOM     77  C   UNL A   1      37.273  29.808  28.529  1.00  0.00     0.198 A 
ATOM     78  F   UNL A   1      39.040  28.939  27.266  1.00  0.00    -0.203 F 
ATOM     79  F   UNL A   1      36.486  29.505  32.044  1.00  0.00    -0.200 F 
ATOM     80  C   UNL A   1      36.629  29.986  29.741  1.00  0.00     0.200 A 
ATOM     81  F   UNL A   1      36.857  30.479  27.445  1.00  0.00    -0.200 F 
ATOM     82  F   UNL A   1      35.599  30.839  29.837  1.00  0.00    -0.200 F 
ENDBRANCH  48  72
BRANCH  60  83
ATOM     83  C   UNL A   1      44.294  26.688  32.470  1.00  0.00     0.064 A 
ATOM     84  C   UNL A   1      44.293  25.349  32.048  1.00  0.00     0.173 A 
ATOM     85  C   UNL A   1      44.196  26.935  33.847  1.00  0.00     0.173 A 
ATOM     86  F   UNL A   1      44.458  25.033  30.757  1.00  0.00    -0.203 F 
ATOM     87  C   UNL A   1      44.139  24.308  32.964  1.00  0.00     0.198 A 
ATOM     88  C   UNL A   1      44.080  25.893  34.761  1.00  0.00     0.198 A 
ATOM     89  F   UNL A   1      44.224  28.195  34.308  1.00  0.00    -0.203 F 
ATOM     90  F   UNL A   1      44.100  23.037  32.538  1.00  0.00    -0.200 F 
ATOM     91  C   UNL A   1      44.036  24.582  34.319  1.00  0.00     0.200 A 
ATOM     92  F   UNL A   1      44.016  26.162  36.074  1.00  0.00    -0.200 F 
ATOM     93  F   UNL A   1      43.907  23.580  35.201  1.00  0.00    -0.200 F 
ENDBRANCH  60  83
ENDBRANCH  34  35
ENDBRANCH  27  29
ENDBRANCH  26  27
ENDBRANCH  25  26
ENDBRANCH   1  25
TORSDOF 14
ENDMDL
MODEL 3
REMARK VINA RESULT:     -12.6      3.942      6.529
REMARK SMILES CC1CCN(S(=O)(=O)c2ccc3c(ccn3CC(=O)OCCOC(=O)c3ccc(-c4c5nc(c(-c6c(F)c(F)c(F)c(F)c6F)c6ccc([nH]6)c(-c6c(F)c(F)c(F)c(F)c6F)c6nc(c(-c7c(F)c(F)c(F)c(F)c7F)c7ccc4[nH]7)C=C6)C=C5)cc3)c2)CC1
REMARK SMILES IDX 21 1 20 2 18 3 19 4 17 5 16 6 9 7 10 8 89 9 11 10 13 11
REMARK SMILES IDX 12 12 14 13 15 14 6 15 7 16 8 17 5 18 1 19 2 20 3 21 91 22
REMARK SMILES IDX 4 23 90 24 22 25 23 26 24 27 25 28 26 29 27 30 88 31 28 32
REMARK SMILES IDX 87 33 29 34 30 35 31 36 81 37 32 38 86 39 80 40 82 41 33 42
REMARK SMILES IDX 85 43 79 44 78 45 34 47 66 48 46 49 65 50 47 51 50 52 64 53
REMARK SMILES IDX 83 54 48 55 49 56 63 58 84 59 51 60 35 61 36 62 44 63 37 64
REMARK SMILES IDX 38 65 42 66 45 67 39 68 40 69 43 70 41 71 67 72 68 73 76 74
REMARK SMILES IDX 69 75 70 76 74 77 77 78 71 79 72 80 75 81 73 82 52 83 53 84
REMARK SMILES IDX 61 85 54 86 55 87 59 88 62 89 56 90 57 91 60 92 58 93
REMARK H PARENT 82 46 50 57
REMARK Flexibility Score: inf
ROOT
ATOM      1  C   UNL A   1      41.144  19.783  26.445  1.00  0.00     0.274 C 
ENDROOT
BRANCH   1   2
ATOM      2  O   UNL A   1      42.265  19.194  27.136  1.00  0.00    -0.461 OA
BRANCH   2   3
ATOM      3  C   UNL A   1      43.111  18.438  26.395  1.00  0.00     0.326 C 
ATOM      4  O   UNL A   1      43.690  17.436  26.805  1.00  0.00    -0.250 OA
BRANCH   3   5
ATOM      5  C   UNL A   1      43.366  18.968  25.018  1.00  0.00     0.244 C 
BRANCH   5   6
ATOM      6  N   UNL A   1      44.548  19.788  24.787  1.00  0.00    -0.336 N 
ATOM      7  C   UNL A   1      45.175  23.818  25.321  1.00  0.00     0.083 A 
ATOM      8  C   UNL A   1      43.853  23.382  25.393  1.00  0.00     0.024 A 
ATOM      9  C   UNL A   1      46.224  22.922  25.079  1.00  0.00     0.032 A 
ATOM     10  C   UNL A   1      43.537  22.035  25.306  1.00  0.00     0.028 A 
ATOM     11  C   UNL A   1      45.908  21.562  24.898  1.00  0.00     0.001 A 
ATOM     12  C   UNL A   1      44.578  21.148  25.020  1.00  0.00     0.049 A 
ATOM     13  C   UNL A   1      46.671  20.415  24.560  1.00  0.00     0.028 A 
ATOM     14  C   UNL A   1      45.805  19.350  24.470  1.00  0.00     0.087 A 
BRANCH   7  15
ATOM     15  S   UNL A   1      45.474  25.563  25.326  1.00  0.00     0.243 S 
ATOM     16  O   UNL A   1      44.181  26.193  25.156  1.00  0.00    -0.207 OA
ATOM     17  O   UNL A   1      46.545  25.840  24.391  1.00  0.00    -0.207 OA
BRANCH  15  18
ATOM     18  N   UNL A   1      46.071  25.925  26.893  1.00  0.00    -0.198 NA
ATOM     19  C   UNL A   1      43.433  23.416  29.083  1.00  0.00     0.008 C 
ATOM     20  C   UNL A   1      44.545  24.457  28.933  1.00  0.00    -0.012 C 
ATOM     21  C   UNL A   1      43.999  25.727  28.257  1.00  0.00     0.020 C 
ATOM     22  C   UNL A   1      45.731  23.831  28.185  1.00  0.00     0.020 C 
ATOM     23  C   UNL A   1      45.093  26.664  27.743  1.00  0.00     0.103 C 
ATOM     24  C   UNL A   1      46.728  24.873  27.704  1.00  0.00     0.103 C 
ENDBRANCH  15  18
ENDBRANCH   7  15
ENDBRANCH   5   6
ENDBRANCH   3   5
ENDBRANCH   2   3
ENDBRANCH   1   2
BRANCH   1  25
ATOM     25  C   UNL A   1      40.410  20.758  27.370  1.00  0.00     0.275 C 
BRANCH  25  26
ATOM     26  O   UNL A   1      40.916  22.079  27.130  1.00  0.00    -0.458 OA
BRANCH  26  27
ATOM     27  C   UNL A   1      40.048  22.974  26.598  1.00  0.00     0.338 C 
ATOM     28  O   UNL A   1      38.977  22.738  26.067  1.00  0.00    -0.246 OA
BRANCH  27  29
ATOM     29  C   UNL A   1      40.446  24.298  27.128  1.00  0.00     0.060 A 
ATOM     30  C   UNL A   1      40.203  24.647  28.459  1.00  0.00     0.016 A 
ATOM     31  C   UNL A   1      40.811  25.272  26.194  1.00  0.00     0.016 A 
ATOM     32  C   UNL A   1      40.176  25.990  28.814  1.00  0.00     0.010 A 
ATOM     33  C   UNL A   1      40.749  26.615  26.543  1.00  0.00     0.010 A 
ATOM     34  C   UNL A   1      40.381  26.977  27.840  1.00  0.00    -0.014 A 
BRANCH  34  35
ATOM     35  C   UNL A   1      40.455  28.365  28.282  1.00  0.00     0.031 A 
ATOM     36  C   UNL A   1      41.666  29.053  27.790  1.00  0.00     0.074 A 
ATOM     37  C   UNL A   1      39.566  29.072  29.010  1.00  0.00     0.049 A 
ATOM     38  N   UNL A   1      42.711  29.364  28.480  1.00  0.00    -0.248 NA
ATOM     39  C   UNL A   1      41.772  29.337  26.353  1.00  0.00     0.031 C 
ATOM     40  C   UNL A   1      38.179  28.744  29.327  1.00  0.00     0.029 A 
ATOM     41  N   UNL A   1      39.728  30.314  29.573  1.00  0.00    -0.354 N 
ATOM     42  C   UNL A   1      43.547  30.032  27.599  1.00  0.00     0.074 A 
ATOM     43  C   UNL A   1      43.000  29.850  26.279  1.00  0.00     0.031 C 
ATOM     44  C   UNL A   1      37.567  29.838  29.843  1.00  0.00     0.029 A 
ATOM     45  C   UNL A   1      38.561  30.879  30.059  1.00  0.00     0.049 A 
ATOM     46  H   UNL A   1      40.602  30.765  29.627  1.00  0.00     0.167 HD
ATOM     47  C   UNL A   1      44.482  30.906  28.051  1.00  0.00     0.037 A 
ATOM     48  C   UNL A   1      38.415  32.111  30.604  1.00  0.00     0.037 A 
ATOM     49  C   UNL A   1      44.677  30.814  29.471  1.00  0.00     0.049 A 
ATOM     50  C   UNL A   1      39.718  32.548  31.158  1.00  0.00     0.074 A 
ATOM     51  C   UNL A   1      45.438  30.074  30.347  1.00  0.00     0.029 A 
ATOM     52  N   UNL A   1      43.713  31.442  30.208  1.00  0.00    -0.354 N 
ATOM     53  N   UNL A   1      40.289  32.002  32.196  1.00  0.00    -0.248 NA
ATOM     54  C   UNL A   1      40.540  33.508  30.425  1.00  0.00     0.031 C 
ATOM     55  C   UNL A   1      44.834  30.211  31.637  1.00  0.00     0.029 A 
ATOM     56  C   UNL A   1      43.717  31.029  31.515  1.00  0.00     0.049 A 
ATOM     57  H   UNL A   1      43.089  32.110  29.843  1.00  0.00     0.167 HD
ATOM     58  C   UNL A   1      41.632  32.225  31.994  1.00  0.00     0.074 A 
ATOM     59  C   UNL A   1      41.715  33.303  31.024  1.00  0.00     0.031 C 
ATOM     60  C   UNL A   1      42.552  31.279  32.330  1.00  0.00     0.037 A 
BRANCH  47  61
ATOM     61  C   UNL A   1      44.902  32.132  27.291  1.00  0.00     0.064 A 
ATOM     62  C   UNL A   1      46.200  32.209  26.758  1.00  0.00     0.173 A 
ATOM     63  C   UNL A   1      44.172  33.341  27.316  1.00  0.00     0.173 A 
ATOM     64  F   UNL A   1      46.994  31.127  26.741  1.00  0.00    -0.203 F 
ATOM     65  C   UNL A   1      46.732  33.414  26.296  1.00  0.00     0.198 A 
ATOM     66  C   UNL A   1      44.683  34.528  26.799  1.00  0.00     0.198 A 
ATOM     67  F   UNL A   1      42.989  33.438  27.940  1.00  0.00    -0.203 F 
ATOM     68  F   UNL A   1      48.007  33.465  25.885  1.00  0.00    -0.200 F 
ATOM     69  C   UNL A   1      45.970  34.570  26.308  1.00  0.00     0.200 A 
ATOM     70  F   UNL A   1      43.940  35.644  26.847  1.00  0.00    -0.200 F 
ATOM     71  F   UNL A   1      46.491  35.733  25.895  1.00  0.00    -0.200 F 
ENDBRANCH  47  61
BRANCH  48  72
ATOM     72  C   UNL A   1      37.260  33.036  30.575  1.00  0.00     0.064 A 
ATOM     73  C   UNL A   1      36.822  33.605  29.366  1.00  0.00     0.173 A 
ATOM     74  C   UNL A   1      36.378  33.123  31.667  1.00  0.00     0.173 A 
ATOM     75  F   UNL A   1      37.591  33.543  28.269  1.00  0.00    -0.203 F 
ATOM     76  C   UNL A   1      35.551  34.170  29.239  1.00  0.00     0.198 A 
ATOM     77  C   UNL A   1      35.112  33.699  31.542  1.00  0.00     0.198 A 
ATOM     78  F   UNL A   1      36.688  32.563  32.845  1.00  0.00    -0.203 F 
ATOM     79  F   UNL A   1      35.137  34.624  28.048  1.00  0.00    -0.200 F 
ATOM     80  C   UNL A   1      34.691  34.201  30.323  1.00  0.00     0.200 A 
ATOM     81  F   UNL A   1      34.277  33.699  32.591  1.00  0.00    -0.200 F 
ATOM     82  F   UNL A   1      33.445  34.675  30.184  1.00  0.00    -0.200 F 
ENDBRANCH  48  72
BRANCH  60  83
ATOM     83  C   UNL A   1      42.214  30.356  33.455  1.00  0.00     0.064 A 
ATOM     84  C   UNL A   1      42.424  30.650  34.811  1.00  0.00     0.173 A 
ATOM     85  C   UNL A   1      41.645  29.113  33.141  1.00  0.00     0.173 A 
ATOM     86  F   UNL A   1      42.894  31.846  35.192  1.00  0.00    -0.203 F 
ATOM     87  C   UNL A   1      42.133  29.714  35.802  1.00  0.00     0.198 A 
ATOM     88  C   UNL A   1      41.320  28.196  34.134  1.00  0.00     0.198 A 
ATOM     89  F   UNL A   1      41.392  28.793  31.862  1.00  0.00    -0.203 F 
ATOM     90  F   UNL A   1      42.378  29.998  37.090  1.00  0.00    -0.200 F 
ATOM     91  C   UNL A   1      41.578  28.489  35.463  1.00  0.00     0.200 A 
ATOM     92  F   UNL A   1      40.752  27.027  33.803  1.00  0.00    -0.200 F 
ATOM     93  F   UNL A   1      41.280  27.597  36.417  1.00  0.00    -0.200 F 
ENDBRANCH  60  83
ENDBRANCH  34  35
ENDBRANCH  27  29
ENDBRANCH  26  27
ENDBRANCH  25  26
ENDBRANCH   1  25
TORSDOF 14
ENDMDL
