MODEL 1
REMARK VINA RESULT:     -12.4      0.000      0.000
REMARK SMILES [H]/N=c1\ccc2c(C)c(CC(=O)OCCOC(=O)c3ccc(-c4c5nc(c(-c6c(F)c(F)c(F)c(F)c6F)c6ccc([nH]6)c(-c6c(F)c(F)c(F)c(F)c6F)c6nc(c(-c7c(F)c(F)c(F)c(F)c7F)c7ccc4[nH]7)C=C6)C=C5)cc3)c(O)oc-2c1
REMARK SMILES IDX 14 1 13 2 11 3 12 4 10 5 9 6 8 7 7 8 6 9 5 10 85 11 82 12
REMARK SMILES IDX 4 13 86 14 84 15 3 16 2 17 1 18 83 19 15 21 16 22 17 23
REMARK SMILES IDX 18 24 19 25 20 26 81 27 21 28 80 29 22 30 23 31 24 32 74 33
REMARK SMILES IDX 25 34 79 35 73 36 75 37 26 38 78 39 72 40 71 41 27 43 59 44
REMARK SMILES IDX 39 45 58 46 40 47 43 48 57 49 76 50 41 51 42 52 56 54 77 55
REMARK SMILES IDX 44 56 28 57 29 58 37 59 30 60 31 61 35 62 38 63 32 64 33 65
REMARK SMILES IDX 36 66 34 67 60 68 61 69 69 70 62 71 63 72 67 73 70 74 64 75
REMARK SMILES IDX 65 76 68 77 66 78 45 79 46 80 54 81 47 82 48 83 52 84 55 85
REMARK SMILES IDX 49 86 50 87 53 88 51 89
REMARK H PARENT 83 20 75 42 43 53
REMARK Flexibility Score: inf
ROOT
ATOM      1  C   UNL A   1      31.329  29.690  24.492  1.00  0.00     0.274 C 
ENDROOT
BRANCH   1   2
ATOM      2  O   UNL A   1      30.860  28.374  24.127  1.00  0.00    -0.462 OA
BRANCH   2   3
ATOM      3  C   UNL A   1      31.412  27.830  23.013  1.00  0.00     0.310 C 
ATOM      4  O   UNL A   1      30.779  27.477  22.021  1.00  0.00    -0.252 OA
BRANCH   3   5
ATOM      5  C   UNL A   1      32.925  27.669  23.075  1.00  0.00     0.166 C 
BRANCH   5   6
ATOM      6  C   UNL A   1      33.454  26.267  23.304  1.00  0.00     0.048 A 
ATOM      7  C   UNL A   1      33.916  26.836  25.793  1.00  0.00     0.046 C 
ATOM      8  C   UNL A   1      33.823  25.828  24.673  1.00  0.00    -0.029 A 
ATOM      9  C   UNL A   1      34.111  24.519  24.895  1.00  0.00     0.021 A 
ATOM     10  C   UNL A   1      34.290  23.973  26.242  1.00  0.00     0.014 A 
ATOM     11  C   UNL A   1      34.244  23.607  23.762  1.00  0.00     0.140 A 
ATOM     12  C   UNL A   1      33.595  25.386  22.283  1.00  0.00     0.286 A 
ATOM     13  C   UNL A   1      34.655  22.700  26.440  1.00  0.00     0.028 A 
ATOM     14  C   UNL A   1      34.630  22.336  23.933  1.00  0.00     0.075 A 
ATOM     15  O   UNL A   1      34.041  24.094  22.486  1.00  0.00    -0.425 OA
ATOM     16  C   UNL A   1      34.896  21.798  25.285  1.00  0.00     0.058 A 
ATOM     17  N   UNL A   1      35.312  20.584  25.426  1.00  0.00    -0.301 NA
ATOM     18  H   UNL A   1      35.490  20.225  26.325  1.00  0.00     0.188 HD
BRANCH  12  19
ATOM     19  O   UNL A   1      33.297  25.677  20.969  1.00  0.00    -0.480 OA
ATOM     20  H   UNL A   1      32.771  25.086  20.466  1.00  0.00     0.297 HD
ENDBRANCH  12  19
ENDBRANCH   5   6
ENDBRANCH   3   5
ENDBRANCH   2   3
ENDBRANCH   1   2
BRANCH   1  21
ATOM     21  C   UNL A   1      31.780  29.723  25.949  1.00  0.00     0.275 C 
BRANCH  21  22
ATOM     22  O   UNL A   1      33.099  30.290  26.032  1.00  0.00    -0.458 OA
BRANCH  22  23
ATOM     23  C   UNL A   1      33.262  31.255  26.964  1.00  0.00     0.338 C 
ATOM     24  O   UNL A   1      32.550  32.219  27.182  1.00  0.00    -0.246 OA
BRANCH  23  25
ATOM     25  C   UNL A   1      34.487  30.984  27.731  1.00  0.00     0.060 A 
ATOM     26  C   UNL A   1      34.765  29.673  28.115  1.00  0.00     0.016 A 
ATOM     27  C   UNL A   1      35.413  32.003  27.971  1.00  0.00     0.016 A 
ATOM     28  C   UNL A   1      35.960  29.393  28.777  1.00  0.00     0.010 A 
ATOM     29  C   UNL A   1      36.643  31.705  28.553  1.00  0.00     0.010 A 
ATOM     30  C   UNL A   1      36.915  30.404  28.992  1.00  0.00    -0.014 A 
BRANCH  30  31
ATOM     31  C   UNL A   1      38.184  30.088  29.694  1.00  0.00     0.031 A 
ATOM     32  C   UNL A   1      38.443  30.613  31.079  1.00  0.00     0.074 A 
ATOM     33  C   UNL A   1      39.106  29.317  29.087  1.00  0.00     0.049 A 
ATOM     34  N   UNL A   1      39.426  30.330  31.896  1.00  0.00    -0.248 NA
ATOM     35  C   UNL A   1      37.491  31.601  31.607  1.00  0.00     0.031 C 
ATOM     36  C   UNL A   1      39.016  28.816  27.716  1.00  0.00     0.029 A 
ATOM     37  N   UNL A   1      40.291  28.805  29.554  1.00  0.00    -0.354 N 
ATOM     38  C   UNL A   1      39.208  31.101  33.029  1.00  0.00     0.074 A 
ATOM     39  C   UNL A   1      38.041  31.915  32.771  1.00  0.00     0.031 C 
ATOM     40  C   UNL A   1      40.072  28.026  27.469  1.00  0.00     0.029 A 
ATOM     41  C   UNL A   1      40.915  27.970  28.661  1.00  0.00     0.049 A 
ATOM     42  H   UNL A   1      40.657  29.014  30.444  1.00  0.00     0.167 HD
ATOM     43  C   UNL A   1      39.895  31.105  34.195  1.00  0.00     0.037 A 
ATOM     44  C   UNL A   1      42.023  27.218  28.799  1.00  0.00     0.037 A 
ATOM     45  C   UNL A   1      41.035  30.272  34.466  1.00  0.00     0.049 A 
ATOM     46  C   UNL A   1      42.751  27.204  30.113  1.00  0.00     0.074 A 
ATOM     47  C   UNL A   1      41.741  30.131  35.647  1.00  0.00     0.029 A 
ATOM     48  N   UNL A   1      41.640  29.441  33.534  1.00  0.00    -0.354 N 
ATOM     49  N   UNL A   1      42.468  27.849  31.219  1.00  0.00    -0.248 NA
ATOM     50  C   UNL A   1      43.943  26.350  30.203  1.00  0.00     0.031 C 
ATOM     51  C   UNL A   1      42.796  29.241  35.422  1.00  0.00     0.029 A 
ATOM     52  C   UNL A   1      42.726  28.802  34.108  1.00  0.00     0.049 A 
ATOM     53  H   UNL A   1      41.341  29.323  32.604  1.00  0.00     0.167 HD
ATOM     54  C   UNL A   1      43.436  27.471  32.139  1.00  0.00     0.074 A 
ATOM     55  C   UNL A   1      44.307  26.528  31.467  1.00  0.00     0.031 C 
ATOM     56  C   UNL A   1      43.588  27.873  33.424  1.00  0.00     0.037 A 
BRANCH  43  57
ATOM     57  C   UNL A   1      39.410  32.021  35.279  1.00  0.00     0.064 A 
ATOM     58  C   UNL A   1      39.804  33.367  35.325  1.00  0.00     0.173 A 
ATOM     59  C   UNL A   1      38.528  31.559  36.265  1.00  0.00     0.173 A 
ATOM     60  F   UNL A   1      40.656  33.853  34.410  1.00  0.00    -0.203 F 
ATOM     61  C   UNL A   1      39.354  34.210  36.337  1.00  0.00     0.198 A 
ATOM     62  C   UNL A   1      38.060  32.413  37.262  1.00  0.00     0.198 A 
ATOM     63  F   UNL A   1      38.118  30.282  36.263  1.00  0.00    -0.203 F 
ATOM     64  F   UNL A   1      39.782  35.480  36.388  1.00  0.00    -0.200 F 
ATOM     65  C   UNL A   1      38.479  33.734  37.301  1.00  0.00     0.200 A 
ATOM     66  F   UNL A   1      37.207  31.954  38.188  1.00  0.00    -0.200 F 
ATOM     67  F   UNL A   1      38.047  34.547  38.274  1.00  0.00    -0.200 F 
ENDBRANCH  43  57
BRANCH  44  68
ATOM     68  C   UNL A   1      42.457  26.355  27.673  1.00  0.00     0.064 A 
ATOM     69  C   UNL A   1      41.865  25.102  27.465  1.00  0.00     0.173 A 
ATOM     70  C   UNL A   1      43.427  26.783  26.757  1.00  0.00     0.173 A 
ATOM     71  F   UNL A   1      40.942  24.646  28.325  1.00  0.00    -0.203 F 
ATOM     72  C   UNL A   1      42.230  24.306  26.382  1.00  0.00     0.198 A 
ATOM     73  C   UNL A   1      43.779  25.994  25.664  1.00  0.00     0.198 A 
ATOM     74  F   UNL A   1      44.015  27.978  26.913  1.00  0.00    -0.203 F 
ATOM     75  F   UNL A   1      41.661  23.105  26.213  1.00  0.00    -0.200 F 
ATOM     76  C   UNL A   1      43.181  24.756  25.477  1.00  0.00     0.200 A 
ATOM     77  F   UNL A   1      44.689  26.437  24.786  1.00  0.00    -0.200 F 
ATOM     78  F   UNL A   1      43.520  23.998  24.427  1.00  0.00    -0.200 F 
ENDBRANCH  44  68
BRANCH  56  79
ATOM     79  C   UNL A   1      44.740  27.304  34.196  1.00  0.00     0.064 A 
ATOM     80  C   UNL A   1      45.965  27.981  34.275  1.00  0.00     0.173 A 
ATOM     81  C   UNL A   1      44.593  26.116  34.929  1.00  0.00     0.173 A 
ATOM     82  F   UNL A   1      46.157  29.113  33.582  1.00  0.00    -0.203 F 
ATOM     83  C   UNL A   1      47.006  27.484  35.054  1.00  0.00     0.198 A 
ATOM     84  C   UNL A   1      45.628  25.635  35.724  1.00  0.00     0.198 A 
ATOM     85  F   UNL A   1      43.436  25.438  34.889  1.00  0.00    -0.203 F 
ATOM     86  F   UNL A   1      48.177  28.134  35.097  1.00  0.00    -0.200 F 
ATOM     87  C   UNL A   1      46.833  26.318  35.786  1.00  0.00     0.200 A 
ATOM     88  F   UNL A   1      45.456  24.514  36.439  1.00  0.00    -0.200 F 
ATOM     89  F   UNL A   1      47.831  25.850  36.548  1.00  0.00    -0.200 F 
ENDBRANCH  56  79
ENDBRANCH  30  31
ENDBRANCH  23  25
ENDBRANCH  22  23
ENDBRANCH  21  22
ENDBRANCH   1  21
TORSDOF 13
ENDMDL
MODEL 2
REMARK VINA RESULT:     -12.4      0.177      1.165
REMARK SMILES [H]/N=c1\ccc2c(C)c(CC(=O)OCCOC(=O)c3ccc(-c4c5nc(c(-c6c(F)c(F)c(F)c(F)c6F)c6ccc([nH]6)c(-c6c(F)c(F)c(F)c(F)c6F)c6nc(c(-c7c(F)c(F)c(F)c(F)c7F)c7ccc4[nH]7)C=C6)C=C5)cc3)c(O)oc-2c1
REMARK SMILES IDX 14 1 13 2 11 3 12 4 10 5 9 6 8 7 7 8 6 9 5 10 85 11 82 12
REMARK SMILES IDX 4 13 86 14 84 15 3 16 2 17 1 18 83 19 15 21 16 22 17 23
REMARK SMILES IDX 18 24 19 25 20 26 81 27 21 28 80 29 22 30 23 31 24 32 74 33
REMARK SMILES IDX 25 34 79 35 73 36 75 37 26 38 78 39 72 40 71 41 27 43 59 44
REMARK SMILES IDX 39 45 58 46 40 47 43 48 57 49 76 50 41 51 42 52 56 54 77 55
REMARK SMILES IDX 44 56 28 57 29 58 37 59 30 60 31 61 35 62 38 63 32 64 33 65
REMARK SMILES IDX 36 66 34 67 60 68 61 69 69 70 62 71 63 72 67 73 70 74 64 75
REMARK SMILES IDX 65 76 68 77 66 78 45 79 46 80 54 81 47 82 48 83 52 84 55 85
REMARK SMILES IDX 49 86 50 87 53 88 51 89
REMARK H PARENT 83 20 75 42 43 53
REMARK Flexibility Score: inf
ROOT
ATOM      1  C   UNL A   1      31.232  29.702  24.538  1.00  0.00     0.274 C 
ENDROOT
BRANCH   1   2
ATOM      2  O   UNL A   1      30.920  28.337  24.187  1.00  0.00    -0.462 OA
BRANCH   2   3
ATOM      3  C   UNL A   1      31.368  27.915  22.977  1.00  0.00     0.310 C 
ATOM      4  O   UNL A   1      30.649  27.685  22.008  1.00  0.00    -0.252 OA
BRANCH   3   5
ATOM      5  C   UNL A   1      32.877  27.724  22.897  1.00  0.00     0.166 C 
BRANCH   5   6
ATOM      6  C   UNL A   1      33.403  26.326  23.153  1.00  0.00     0.048 A 
ATOM      7  C   UNL A   1      33.833  26.932  25.639  1.00  0.00     0.046 C 
ATOM      8  C   UNL A   1      33.755  25.908  24.533  1.00  0.00    -0.029 A 
ATOM      9  C   UNL A   1      34.041  24.602  24.778  1.00  0.00     0.021 A 
ATOM     10  C   UNL A   1      34.202  24.076  26.135  1.00  0.00     0.014 A 
ATOM     11  C   UNL A   1      34.189  23.674  23.661  1.00  0.00     0.140 A 
ATOM     12  C   UNL A   1      33.559  25.431  22.148  1.00  0.00     0.286 A 
ATOM     13  C   UNL A   1      34.566  22.806  26.357  1.00  0.00     0.028 A 
ATOM     14  C   UNL A   1      34.574  22.405  23.855  1.00  0.00     0.075 A 
ATOM     15  O   UNL A   1      34.003  24.142  22.375  1.00  0.00    -0.425 OA
ATOM     16  C   UNL A   1      34.822  21.888  25.219  1.00  0.00     0.058 A 
ATOM     17  N   UNL A   1      35.237  20.676  25.383  1.00  0.00    -0.301 NA
ATOM     18  H   UNL A   1      35.404  20.331  26.289  1.00  0.00     0.188 HD
BRANCH  12  19
ATOM     19  O   UNL A   1      33.278  25.701  20.825  1.00  0.00    -0.480 OA
ATOM     20  H   UNL A   1      32.773  25.095  20.320  1.00  0.00     0.297 HD
ENDBRANCH  12  19
ENDBRANCH   5   6
ENDBRANCH   3   5
ENDBRANCH   2   3
ENDBRANCH   1   2
BRANCH   1  21
ATOM     21  C   UNL A   1      31.685  29.801  25.992  1.00  0.00     0.275 C 
BRANCH  21  22
ATOM     22  O   UNL A   1      33.023  30.328  26.046  1.00  0.00    -0.458 OA
BRANCH  22  23
ATOM     23  C   UNL A   1      33.230  31.303  26.957  1.00  0.00     0.338 C 
ATOM     24  O   UNL A   1      32.552  32.294  27.166  1.00  0.00    -0.246 OA
BRANCH  23  25
ATOM     25  C   UNL A   1      34.456  31.007  27.713  1.00  0.00     0.060 A 
ATOM     26  C   UNL A   1      34.744  29.682  28.035  1.00  0.00     0.016 A 
ATOM     27  C   UNL A   1      35.373  32.021  28.001  1.00  0.00     0.016 A 
ATOM     28  C   UNL A   1      35.940  29.381  28.686  1.00  0.00     0.010 A 
ATOM     29  C   UNL A   1      36.605  31.706  28.570  1.00  0.00     0.010 A 
ATOM     30  C   UNL A   1      36.887  30.388  28.949  1.00  0.00    -0.014 A 
BRANCH  30  31
ATOM     31  C   UNL A   1      38.158  30.051  29.637  1.00  0.00     0.031 A 
ATOM     32  C   UNL A   1      38.425  30.541  31.033  1.00  0.00     0.074 A 
ATOM     33  C   UNL A   1      39.073  29.290  29.008  1.00  0.00     0.049 A 
ATOM     34  N   UNL A   1      39.410  30.235  31.839  1.00  0.00    -0.248 NA
ATOM     35  C   UNL A   1      37.480  31.521  31.589  1.00  0.00     0.031 C 
ATOM     36  C   UNL A   1      38.976  28.822  27.626  1.00  0.00     0.029 A 
ATOM     37  N   UNL A   1      40.258  28.762  29.457  1.00  0.00    -0.354 N 
ATOM     38  C   UNL A   1      39.201  30.979  32.991  1.00  0.00     0.074 A 
ATOM     39  C   UNL A   1      38.036  31.804  32.758  1.00  0.00     0.031 C 
ATOM     40  C   UNL A   1      40.027  28.034  27.355  1.00  0.00     0.029 A 
ATOM     41  C   UNL A   1      40.874  27.946  28.542  1.00  0.00     0.049 A 
ATOM     42  H   UNL A   1      40.629  28.948  30.350  1.00  0.00     0.167 HD
ATOM     43  C   UNL A   1      39.893  30.952  34.154  1.00  0.00     0.037 A 
ATOM     44  C   UNL A   1      41.980  27.186  28.656  1.00  0.00     0.037 A 
ATOM     45  C   UNL A   1      41.031  30.108  34.399  1.00  0.00     0.049 A 
ATOM     46  C   UNL A   1      42.714  27.138  29.967  1.00  0.00     0.074 A 
ATOM     47  C   UNL A   1      41.741  29.937  35.574  1.00  0.00     0.029 A 
ATOM     48  N   UNL A   1      41.628  29.297  33.445  1.00  0.00    -0.354 N 
ATOM     49  N   UNL A   1      42.438  27.757  31.089  1.00  0.00    -0.248 NA
ATOM     50  C   UNL A   1      43.902  26.276  30.031  1.00  0.00     0.031 C 
ATOM     51  C   UNL A   1      42.791  29.047  35.322  1.00  0.00     0.029 A 
ATOM     52  C   UNL A   1      42.713  28.640  33.999  1.00  0.00     0.049 A 
ATOM     53  H   UNL A   1      41.325  29.203  32.514  1.00  0.00     0.167 HD
ATOM     54  C   UNL A   1      43.409  27.353  31.995  1.00  0.00     0.074 A 
ATOM     55  C   UNL A   1      44.272  26.422  31.297  1.00  0.00     0.031 C 
ATOM     56  C   UNL A   1      43.568  27.724  33.289  1.00  0.00     0.037 A 
BRANCH  43  57
ATOM     57  C   UNL A   1      39.417  31.844  35.261  1.00  0.00     0.064 A 
ATOM     58  C   UNL A   1      39.801  33.193  35.326  1.00  0.00     0.173 A 
ATOM     59  C   UNL A   1      38.553  31.357  36.251  1.00  0.00     0.173 A 
ATOM     60  F   UNL A   1      40.636  33.702  34.408  1.00  0.00    -0.203 F 
ATOM     61  C   UNL A   1      39.360  34.014  36.360  1.00  0.00     0.198 A 
ATOM     62  C   UNL A   1      38.093  32.189  37.270  1.00  0.00     0.198 A 
ATOM     63  F   UNL A   1      38.153  30.077  36.231  1.00  0.00    -0.203 F 
ATOM     64  F   UNL A   1      39.778  35.286  36.428  1.00  0.00    -0.200 F 
ATOM     65  C   UNL A   1      38.502  33.512  37.327  1.00  0.00     0.200 A 
ATOM     66  F   UNL A   1      37.258  31.707  38.201  1.00  0.00    -0.200 F 
ATOM     67  F   UNL A   1      38.078  34.304  38.322  1.00  0.00    -0.200 F 
ENDBRANCH  43  57
BRANCH  44  68
ATOM     68  C   UNL A   1      42.405  26.348  27.508  1.00  0.00     0.064 A 
ATOM     69  C   UNL A   1      43.392  26.799  26.622  1.00  0.00     0.173 A 
ATOM     70  C   UNL A   1      41.876  25.066  27.305  1.00  0.00     0.173 A 
ATOM     71  F   UNL A   1      43.916  28.025  26.771  1.00  0.00    -0.203 F 
ATOM     72  C   UNL A   1      43.834  25.999  25.571  1.00  0.00     0.198 A 
ATOM     73  C   UNL A   1      42.331  24.259  26.264  1.00  0.00     0.198 A 
ATOM     74  F   UNL A   1      40.935  24.590  28.133  1.00  0.00    -0.203 F 
ATOM     75  F   UNL A   1      44.768  26.459  24.728  1.00  0.00    -0.200 F 
ATOM     76  C   UNL A   1      43.308  24.726  25.398  1.00  0.00     0.200 A 
ATOM     77  F   UNL A   1      41.830  23.027  26.107  1.00  0.00    -0.200 F 
ATOM     78  F   UNL A   1      43.745  23.951  24.397  1.00  0.00    -0.200 F 
ENDBRANCH  44  68
BRANCH  56  79
ATOM     79  C   UNL A   1      44.721  27.132  34.042  1.00  0.00     0.064 A 
ATOM     80  C   UNL A   1      45.948  27.803  34.134  1.00  0.00     0.173 A 
ATOM     81  C   UNL A   1      44.573  25.926  34.744  1.00  0.00     0.173 A 
ATOM     82  F   UNL A   1      46.141  28.953  33.471  1.00  0.00    -0.203 F 
ATOM     83  C   UNL A   1      46.990  27.283  34.897  1.00  0.00     0.198 A 
ATOM     84  C   UNL A   1      45.609  25.421  35.523  1.00  0.00     0.198 A 
ATOM     85  F   UNL A   1      43.414  25.251  34.690  1.00  0.00    -0.203 F 
ATOM     86  F   UNL A   1      48.164  27.929  34.954  1.00  0.00    -0.200 F 
ATOM     87  C   UNL A   1      46.817  26.098  35.598  1.00  0.00     0.200 A 
ATOM     88  F   UNL A   1      45.437  24.282  36.208  1.00  0.00    -0.200 F 
ATOM     89  F   UNL A   1      47.816  25.608  36.345  1.00  0.00    -0.200 F 
ENDBRANCH  56  79
ENDBRANCH  30  31
ENDBRANCH  23  25
ENDBRANCH  22  23
ENDBRANCH  21  22
ENDBRANCH   1  21
TORSDOF 13
ENDMDL
MODEL 3
REMARK VINA RESULT:     -12.2      4.445      9.728
REMARK SMILES [H]/N=c1\ccc2c(C)c(CC(=O)OCCOC(=O)c3ccc(-c4c5nc(c(-c6c(F)c(F)c(F)c(F)c6F)c6ccc([nH]6)c(-c6c(F)c(F)c(F)c(F)c6F)c6nc(c(-c7c(F)c(F)c(F)c(F)c7F)c7ccc4[nH]7)C=C6)C=C5)cc3)c(O)oc-2c1
REMARK SMILES IDX 14 1 13 2 11 3 12 4 10 5 9 6 8 7 7 8 6 9 5 10 85 11 82 12
REMARK SMILES IDX 4 13 86 14 84 15 3 16 2 17 1 18 83 19 15 21 16 22 17 23
REMARK SMILES IDX 18 24 19 25 20 26 81 27 21 28 80 29 22 30 23 31 24 32 74 33
REMARK SMILES IDX 25 34 79 35 73 36 75 37 26 38 78 39 72 40 71 41 27 43 59 44
REMARK SMILES IDX 39 45 58 46 40 47 43 48 57 49 76 50 41 51 42 52 56 54 77 55
REMARK SMILES IDX 44 56 28 57 29 58 37 59 30 60 31 61 35 62 38 63 32 64 33 65
REMARK SMILES IDX 36 66 34 67 60 68 61 69 69 70 62 71 63 72 67 73 70 74 64 75
REMARK SMILES IDX 65 76 68 77 66 78 45 79 46 80 54 81 47 82 48 83 52 84 55 85
REMARK SMILES IDX 49 86 50 87 53 88 51 89
REMARK H PARENT 83 20 75 42 43 53
REMARK Flexibility Score: inf
ROOT
ATOM      1  C   UNL A   1      35.803  20.307  24.992  1.00  0.00     0.274 C 
ENDROOT
BRANCH   1   2
ATOM      2  O   UNL A   1      34.632  21.106  24.719  1.00  0.00    -0.462 OA
BRANCH   2   3
ATOM      3  C   UNL A   1      33.630  21.026  25.630  1.00  0.00     0.310 C 
ATOM      4  O   UNL A   1      32.674  20.258  25.552  1.00  0.00    -0.252 OA
BRANCH   3   5
ATOM      5  C   UNL A   1      33.763  21.995  26.798  1.00  0.00     0.166 C 
BRANCH   5   6
ATOM      6  C   UNL A   1      33.120  23.358  26.631  1.00  0.00     0.048 A 
ATOM      7  C   UNL A   1      35.366  24.322  25.761  1.00  0.00     0.046 C 
ATOM      8  C   UNL A   1      33.883  24.466  26.003  1.00  0.00    -0.029 A 
ATOM      9  C   UNL A   1      33.239  25.619  25.685  1.00  0.00     0.021 A 
ATOM     10  C   UNL A   1      33.868  26.675  24.891  1.00  0.00     0.014 A 
ATOM     11  C   UNL A   1      31.866  25.827  26.138  1.00  0.00     0.140 A 
ATOM     12  C   UNL A   1      31.849  23.598  27.036  1.00  0.00     0.286 A 
ATOM     13  C   UNL A   1      33.249  27.840  24.656  1.00  0.00     0.028 A 
ATOM     14  C   UNL A   1      31.234  26.991  25.935  1.00  0.00     0.075 A 
ATOM     15  O   UNL A   1      31.241  24.826  26.855  1.00  0.00    -0.425 OA
ATOM     16  C   UNL A   1      31.895  28.096  25.207  1.00  0.00     0.058 A 
ATOM     17  N   UNL A   1      31.287  29.227  25.062  1.00  0.00    -0.301 NA
ATOM     18  H   UNL A   1      31.726  29.963  24.578  1.00  0.00     0.188 HD
BRANCH  12  19
ATOM     19  O   UNL A   1      31.043  22.657  27.641  1.00  0.00    -0.480 OA
ATOM     20  H   UNL A   1      30.319  22.290  27.173  1.00  0.00     0.297 HD
ENDBRANCH  12  19
ENDBRANCH   5   6
ENDBRANCH   3   5
ENDBRANCH   2   3
ENDBRANCH   1   2
BRANCH   1  21
ATOM     21  C   UNL A   1      37.079  21.087  24.686  1.00  0.00     0.275 C 
BRANCH  21  22
ATOM     22  O   UNL A   1      37.576  21.689  25.893  1.00  0.00    -0.458 OA
BRANCH  22  23
ATOM     23  C   UNL A   1      38.884  21.474  26.158  1.00  0.00     0.338 C 
ATOM     24  O   UNL A   1      39.514  20.438  26.040  1.00  0.00    -0.246 OA
BRANCH  23  25
ATOM     25  C   UNL A   1      39.491  22.722  26.643  1.00  0.00     0.060 A 
ATOM     26  C   UNL A   1      40.586  22.649  27.502  1.00  0.00     0.016 A 
ATOM     27  C   UNL A   1      39.052  23.957  26.160  1.00  0.00     0.016 A 
ATOM     28  C   UNL A   1      41.216  23.824  27.910  1.00  0.00     0.010 A 
ATOM     29  C   UNL A   1      39.738  25.122  26.498  1.00  0.00     0.010 A 
ATOM     30  C   UNL A   1      40.806  25.071  27.402  1.00  0.00    -0.014 A 
BRANCH  30  31
ATOM     31  C   UNL A   1      41.490  26.312  27.841  1.00  0.00     0.031 A 
ATOM     32  C   UNL A   1      42.897  26.606  27.402  1.00  0.00     0.074 A 
ATOM     33  C   UNL A   1      40.839  27.186  28.631  1.00  0.00     0.049 A 
ATOM     34  N   UNL A   1      43.602  27.697  27.571  1.00  0.00    -0.248 NA
ATOM     35  C   UNL A   1      43.618  25.531  26.706  1.00  0.00     0.031 C 
ATOM     36  C   UNL A   1      39.506  26.982  29.196  1.00  0.00     0.029 A 
ATOM     37  N   UNL A   1      41.204  28.431  29.079  1.00  0.00    -0.354 N 
ATOM     38  C   UNL A   1      44.841  27.438  27.002  1.00  0.00     0.074 A 
ATOM     39  C   UNL A   1      44.819  26.067  26.544  1.00  0.00     0.031 C 
ATOM     40  C   UNL A   1      39.142  28.083  29.872  1.00  0.00     0.029 A 
ATOM     41  C   UNL A   1      40.219  29.067  29.793  1.00  0.00     0.049 A 
ATOM     42  H   UNL A   1      42.088  28.830  28.905  1.00  0.00     0.167 HD
ATOM     43  C   UNL A   1      45.890  28.277  26.841  1.00  0.00     0.037 A 
ATOM     44  C   UNL A   1      40.174  30.314  30.296  1.00  0.00     0.037 A 
ATOM     45  C   UNL A   1      45.901  29.651  27.266  1.00  0.00     0.049 A 
ATOM     46  C   UNL A   1      41.333  31.246  30.075  1.00  0.00     0.074 A 
ATOM     47  C   UNL A   1      46.877  30.610  27.063  1.00  0.00     0.029 A 
ATOM     48  N   UNL A   1      44.884  30.258  27.988  1.00  0.00    -0.354 N 
ATOM     49  N   UNL A   1      42.454  31.028  29.432  1.00  0.00    -0.248 NA
ATOM     50  C   UNL A   1      41.214  32.598  30.636  1.00  0.00     0.031 C 
ATOM     51  C   UNL A   1      46.467  31.789  27.693  1.00  0.00     0.029 A 
ATOM     52  C   UNL A   1      45.220  31.573  28.259  1.00  0.00     0.049 A 
ATOM     53  H   UNL A   1      44.048  29.819  28.266  1.00  0.00     0.167 HD
ATOM     54  C   UNL A   1      43.169  32.215  29.499  1.00  0.00     0.074 A 
ATOM     55  C   UNL A   1      42.349  33.157  30.233  1.00  0.00     0.031 C 
ATOM     56  C   UNL A   1      44.396  32.496  28.998  1.00  0.00     0.037 A 
BRANCH  43  57
ATOM     57  C   UNL A   1      47.105  27.737  26.148  1.00  0.00     0.064 A 
ATOM     58  C   UNL A   1      47.200  27.724  24.748  1.00  0.00     0.173 A 
ATOM     59  C   UNL A   1      48.192  27.250  26.886  1.00  0.00     0.173 A 
ATOM     60  F   UNL A   1      46.180  28.168  23.998  1.00  0.00    -0.203 F 
ATOM     61  C   UNL A   1      48.329  27.215  24.112  1.00  0.00     0.198 A 
ATOM     62  C   UNL A   1      49.331  26.765  26.246  1.00  0.00     0.198 A 
ATOM     63  F   UNL A   1      48.153  27.245  28.227  1.00  0.00    -0.203 F 
ATOM     64  F   UNL A   1      48.377  27.170  22.773  1.00  0.00    -0.200 F 
ATOM     65  C   UNL A   1      49.395  26.742  24.861  1.00  0.00     0.200 A 
ATOM     66  F   UNL A   1      50.365  26.316  26.971  1.00  0.00    -0.200 F 
ATOM     67  F   UNL A   1      50.481  26.253  24.247  1.00  0.00    -0.200 F 
ENDBRANCH  43  57
BRANCH  44  68
ATOM     68  C   UNL A   1      38.946  30.771  30.993  1.00  0.00     0.064 A 
ATOM     69  C   UNL A   1      37.852  31.256  30.265  1.00  0.00     0.173 A 
ATOM     70  C   UNL A   1      38.822  30.682  32.386  1.00  0.00     0.173 A 
ATOM     71  F   UNL A   1      37.932  31.371  28.931  1.00  0.00    -0.203 F 
ATOM     72  C   UNL A   1      36.676  31.639  30.907  1.00  0.00     0.198 A 
ATOM     73  C   UNL A   1      37.640  31.049  33.025  1.00  0.00     0.198 A 
ATOM     74  F   UNL A   1      39.841  30.217  33.122  1.00  0.00    -0.203 F 
ATOM     75  F   UNL A   1      35.649  32.115  30.190  1.00  0.00    -0.200 F 
ATOM     76  C   UNL A   1      36.568  31.528  32.286  1.00  0.00     0.200 A 
ATOM     77  F   UNL A   1      37.534  30.929  34.355  1.00  0.00    -0.200 F 
ATOM     78  F   UNL A   1      35.432  31.882  32.900  1.00  0.00    -0.200 F 
ENDBRANCH  44  68
BRANCH  56  79
ATOM     79  C   UNL A   1      44.940  33.874  29.227  1.00  0.00     0.064 A 
ATOM     80  C   UNL A   1      44.651  34.923  28.343  1.00  0.00     0.173 A 
ATOM     81  C   UNL A   1      45.685  34.166  30.379  1.00  0.00     0.173 A 
ATOM     82  F   UNL A   1      43.953  34.689  27.222  1.00  0.00    -0.203 F 
ATOM     83  C   UNL A   1      45.097  36.216  28.601  1.00  0.00     0.198 A 
ATOM     84  C   UNL A   1      46.109  35.465  30.645  1.00  0.00     0.198 A 
ATOM     85  F   UNL A   1      45.980  33.196  31.257  1.00  0.00    -0.203 F 
ATOM     86  F   UNL A   1      44.830  37.201  27.732  1.00  0.00    -0.200 F 
ATOM     87  C   UNL A   1      45.817  36.488  29.756  1.00  0.00     0.200 A 
ATOM     88  F   UNL A   1      46.796  35.728  31.766  1.00  0.00    -0.200 F 
ATOM     89  F   UNL A   1      46.231  37.737  30.011  1.00  0.00    -0.200 F 
ENDBRANCH  56  79
ENDBRANCH  30  31
ENDBRANCH  23  25
ENDBRANCH  22  23
ENDBRANCH  21  22
ENDBRANCH   1  21
TORSDOF 13
ENDMDL
