MODEL 1
REMARK VINA RESULT:     -10.5      0.000      0.000
REMARK SMILES C[C@@H](c1ccc(F)cc1)N1C[C@H](C(=O)OCCOC(=O)c2ccc(-c3c4nc(c(-c5c(F)c(F)c(F)c(F)c5F)c5ccc([nH]5)c(-c5c(F)c(F)c(F)c(F)c5F)c5nc(c(-c6c(F)c(F)c(F)c(F)c6F)c6ccc3[nH]6)C=C5)C=C4)cc2)CC1=O
REMARK SMILES IDX 16 1 15 2 13 3 14 4 12 5 10 6 11 7 85 8 84 9 86 10 2 11 1 12
REMARK SMILES IDX 3 13 4 14 9 15 5 16 8 17 6 18 7 19 17 20 18 21 19 22 20 23
REMARK SMILES IDX 21 24 22 25 83 26 23 27 82 28 24 29 25 30 26 31 76 32 27 33
REMARK SMILES IDX 81 34 75 35 77 36 28 37 80 38 74 39 73 40 29 42 61 43 41 44
REMARK SMILES IDX 60 45 42 46 45 47 59 48 78 49 43 50 44 51 58 53 79 54 46 55
REMARK SMILES IDX 30 56 31 57 39 58 32 59 33 60 37 61 40 62 34 63 35 64 38 65
REMARK SMILES IDX 36 66 62 67 63 68 71 69 64 70 65 71 69 72 72 73 66 74 67 75
REMARK SMILES IDX 70 76 68 77 47 78 48 79 56 80 49 81 50 82 54 83 57 84 51 85
REMARK SMILES IDX 52 86 55 87 53 88
REMARK H PARENT 77 41 45 52
REMARK Flexibility Score: inf
ROOT
ATOM      1  C   UNL A   1      33.968  34.346  29.199  1.00  0.00     0.274 C 
ENDROOT
BRANCH   1   2
ATOM      2  O   UNL A   1      34.040  33.888  30.564  1.00  0.00    -0.462 OA
BRANCH   2   3
ATOM      3  C   UNL A   1      33.838  34.856  31.495  1.00  0.00     0.311 C 
ATOM      4  O   UNL A   1      33.811  36.054  31.239  1.00  0.00    -0.252 OA
BRANCH   3   5
ATOM      5  C   UNL A   1      33.779  34.317  32.913  1.00  0.00     0.128 C 
ATOM      6  N   UNL A   1      35.860  33.385  33.142  1.00  0.00    -0.335 N 
ATOM      7  C   UNL A   1      34.500  32.978  32.930  1.00  0.00     0.136 C 
ATOM      8  C   UNL A   1      35.909  34.480  33.981  1.00  0.00     0.224 C 
ATOM      9  C   UNL A   1      34.546  35.130  33.965  1.00  0.00     0.117 C 
ATOM     10  O   UNL A   1      36.874  34.869  34.625  1.00  0.00    -0.275 OA
BRANCH   6  11
ATOM     11  C   UNL A   1      37.022  32.725  32.566  1.00  0.00     0.112 C 
ATOM     12  C   UNL A   1      36.810  31.225  32.392  1.00  0.00     0.036 C 
BRANCH  11  13
ATOM     13  C   UNL A   1      37.599  33.474  31.359  1.00  0.00    -0.026 A 
ATOM     14  C   UNL A   1      38.574  34.462  31.590  1.00  0.00     0.009 A 
ATOM     15  C   UNL A   1      37.344  33.129  30.026  1.00  0.00     0.009 A 
ATOM     16  C   UNL A   1      39.411  34.936  30.574  1.00  0.00     0.039 A 
ATOM     17  C   UNL A   1      38.151  33.632  28.994  1.00  0.00     0.039 A 
ATOM     18  C   UNL A   1      39.209  34.486  29.284  1.00  0.00     0.123 A 
ATOM     19  F   UNL A   1      40.060  34.850  28.315  1.00  0.00    -0.207 F 
ENDBRANCH  11  13
ENDBRANCH   6  11
ENDBRANCH   3   5
ENDBRANCH   2   3
ENDBRANCH   1   2
BRANCH   1  20
ATOM     20  C   UNL A   1      34.264  33.224  28.204  1.00  0.00     0.275 C 
BRANCH  20  21
ATOM     21  O   UNL A   1      34.441  31.936  28.838  1.00  0.00    -0.458 OA
BRANCH  21  22
ATOM     22  C   UNL A   1      34.574  30.868  28.005  1.00  0.00     0.338 C 
ATOM     23  O   UNL A   1      33.852  30.596  27.060  1.00  0.00    -0.246 OA
BRANCH  22  24
ATOM     24  C   UNL A   1      35.849  30.158  28.297  1.00  0.00     0.060 A 
ATOM     25  C   UNL A   1      36.891  30.301  27.380  1.00  0.00     0.016 A 
ATOM     26  C   UNL A   1      36.097  29.480  29.496  1.00  0.00     0.016 A 
ATOM     27  C   UNL A   1      38.203  29.936  27.723  1.00  0.00     0.010 A 
ATOM     28  C   UNL A   1      37.407  29.061  29.815  1.00  0.00     0.010 A 
ATOM     29  C   UNL A   1      38.491  29.340  28.962  1.00  0.00    -0.014 A 
BRANCH  29  30
ATOM     30  C   UNL A   1      39.881  28.867  29.271  1.00  0.00     0.031 A 
ATOM     31  C   UNL A   1      40.724  29.719  30.162  1.00  0.00     0.074 A 
ATOM     32  C   UNL A   1      40.407  27.692  28.856  1.00  0.00     0.049 A 
ATOM     33  N   UNL A   1      41.950  29.521  30.570  1.00  0.00    -0.248 NA
ATOM     34  C   UNL A   1      40.092  30.938  30.685  1.00  0.00     0.031 C 
ATOM     35  C   UNL A   1      39.677  26.685  28.120  1.00  0.00     0.029 A 
ATOM     36  N   UNL A   1      41.656  27.120  29.000  1.00  0.00    -0.354 N 
ATOM     37  C   UNL A   1      42.222  30.569  31.429  1.00  0.00     0.074 A 
ATOM     38  C   UNL A   1      41.049  31.416  31.460  1.00  0.00     0.031 C 
ATOM     39  C   UNL A   1      40.457  25.626  27.860  1.00  0.00     0.029 A 
ATOM     40  C   UNL A   1      41.790  25.894  28.376  1.00  0.00     0.049 A 
ATOM     41  H   UNL A   1      42.387  27.549  29.502  1.00  0.00     0.167 HD
ATOM     42  C   UNL A   1      43.351  30.807  32.131  1.00  0.00     0.037 A 
ATOM     43  C   UNL A   1      42.855  25.079  28.215  1.00  0.00     0.037 A 
ATOM     44  C   UNL A   1      44.549  30.023  32.046  1.00  0.00     0.049 A 
ATOM     45  C   UNL A   1      44.166  25.477  28.838  1.00  0.00     0.074 A 
ATOM     46  C   UNL A   1      45.774  30.270  32.637  1.00  0.00     0.029 A 
ATOM     47  N   UNL A   1      44.685  28.856  31.308  1.00  0.00    -0.354 N 
ATOM     48  N   UNL A   1      44.422  26.492  29.625  1.00  0.00    -0.248 NA
ATOM     49  C   UNL A   1      45.334  24.623  28.567  1.00  0.00     0.031 C 
ATOM     50  C   UNL A   1      46.670  29.287  32.207  1.00  0.00     0.029 A 
ATOM     51  C   UNL A   1      45.986  28.389  31.405  1.00  0.00     0.049 A 
ATOM     52  H   UNL A   1      43.965  28.424  30.794  1.00  0.00     0.167 HD
ATOM     53  C   UNL A   1      45.759  26.380  29.973  1.00  0.00     0.074 A 
ATOM     54  C   UNL A   1      46.267  25.193  29.318  1.00  0.00     0.031 C 
ATOM     55  C   UNL A   1      46.489  27.195  30.770  1.00  0.00     0.037 A 
BRANCH  42  56
ATOM     56  C   UNL A   1      43.337  32.033  32.984  1.00  0.00     0.064 A 
ATOM     57  C   UNL A   1      43.671  33.276  32.431  1.00  0.00     0.173 A 
ATOM     58  C   UNL A   1      42.921  31.986  34.322  1.00  0.00     0.173 A 
ATOM     59  F   UNL A   1      44.056  33.365  31.149  1.00  0.00    -0.203 F 
ATOM     60  C   UNL A   1      43.583  34.436  33.190  1.00  0.00     0.198 A 
ATOM     61  C   UNL A   1      42.807  33.153  35.069  1.00  0.00     0.198 A 
ATOM     62  F   UNL A   1      42.554  30.820  34.876  1.00  0.00    -0.203 F 
ATOM     63  F   UNL A   1      43.903  35.616  32.642  1.00  0.00    -0.200 F 
ATOM     64  C   UNL A   1      43.140  34.376  34.503  1.00  0.00     0.200 A 
ATOM     65  F   UNL A   1      42.338  33.101  36.323  1.00  0.00    -0.200 F 
ATOM     66  F   UNL A   1      43.015  35.501  35.219  1.00  0.00    -0.200 F 
ENDBRANCH  42  56
BRANCH  43  67
ATOM     67  C   UNL A   1      42.756  23.814  27.424  1.00  0.00     0.064 A 
ATOM     68  C   UNL A   1      43.052  23.782  26.051  1.00  0.00     0.173 A 
ATOM     69  C   UNL A   1      42.430  22.595  28.038  1.00  0.00     0.173 A 
ATOM     70  F   UNL A   1      43.390  24.911  25.410  1.00  0.00    -0.203 F 
ATOM     71  C   UNL A   1      43.014  22.589  25.327  1.00  0.00     0.198 A 
ATOM     72  C   UNL A   1      42.420  21.398  27.318  1.00  0.00     0.198 A 
ATOM     73  F   UNL A   1      42.173  22.555  29.353  1.00  0.00    -0.203 F 
ATOM     74  F   UNL A   1      43.292  22.594  24.016  1.00  0.00    -0.200 F 
ATOM     75  C   UNL A   1      42.708  21.397  25.962  1.00  0.00     0.200 A 
ATOM     76  F   UNL A   1      42.159  20.242  27.945  1.00  0.00    -0.200 F 
ATOM     77  F   UNL A   1      42.705  20.247  25.274  1.00  0.00    -0.200 F 
ENDBRANCH  43  67
BRANCH  55  78
ATOM     78  C   UNL A   1      47.922  26.836  31.028  1.00  0.00     0.064 A 
ATOM     79  C   UNL A   1      48.934  27.342  30.196  1.00  0.00     0.173 A 
ATOM     80  C   UNL A   1      48.283  25.901  32.008  1.00  0.00     0.173 A 
ATOM     81  F   UNL A   1      48.639  28.238  29.242  1.00  0.00    -0.203 F 
ATOM     82  C   UNL A   1      50.246  26.894  30.309  1.00  0.00     0.198 A 
ATOM     83  C   UNL A   1      49.603  25.479  32.140  1.00  0.00     0.198 A 
ATOM     84  F   UNL A   1      47.355  25.401  32.838  1.00  0.00    -0.203 F 
ATOM     85  F   UNL A   1      51.183  27.348  29.466  1.00  0.00    -0.200 F 
ATOM     86  C   UNL A   1      50.579  25.962  31.281  1.00  0.00     0.200 A 
ATOM     87  F   UNL A   1      49.929  24.595  33.093  1.00  0.00    -0.200 F 
ATOM     88  F   UNL A   1      51.842  25.524  31.385  1.00  0.00    -0.200 F 
ENDBRANCH  55  78
ENDBRANCH  29  30
ENDBRANCH  22  24
ENDBRANCH  21  22
ENDBRANCH  20  21
ENDBRANCH   1  20
TORSDOF 13
ENDMDL
MODEL 2
REMARK VINA RESULT:     -10.3      1.590      2.532
REMARK SMILES C[C@@H](c1ccc(F)cc1)N1C[C@H](C(=O)OCCOC(=O)c2ccc(-c3c4nc(c(-c5c(F)c(F)c(F)c(F)c5F)c5ccc([nH]5)c(-c5c(F)c(F)c(F)c(F)c5F)c5nc(c(-c6c(F)c(F)c(F)c(F)c6F)c6ccc3[nH]6)C=C5)C=C4)cc2)CC1=O
REMARK SMILES IDX 16 1 15 2 13 3 14 4 12 5 10 6 11 7 85 8 84 9 86 10 2 11 1 12
REMARK SMILES IDX 3 13 4 14 9 15 5 16 8 17 6 18 7 19 17 20 18 21 19 22 20 23
REMARK SMILES IDX 21 24 22 25 83 26 23 27 82 28 24 29 25 30 26 31 76 32 27 33
REMARK SMILES IDX 81 34 75 35 77 36 28 37 80 38 74 39 73 40 29 42 61 43 41 44
REMARK SMILES IDX 60 45 42 46 45 47 59 48 78 49 43 50 44 51 58 53 79 54 46 55
REMARK SMILES IDX 30 56 31 57 39 58 32 59 33 60 37 61 40 62 34 63 35 64 38 65
REMARK SMILES IDX 36 66 62 67 63 68 71 69 64 70 65 71 69 72 72 73 66 74 67 75
REMARK SMILES IDX 70 76 68 77 47 78 48 79 56 80 49 81 50 82 54 83 57 84 51 85
REMARK SMILES IDX 52 86 55 87 53 88
REMARK H PARENT 77 41 45 52
REMARK Flexibility Score: inf
ROOT
ATOM      1  C   UNL A   1      34.672  34.404  28.870  1.00  0.00     0.274 C 
ENDROOT
BRANCH   1   2
ATOM      2  O   UNL A   1      34.733  34.219  30.298  1.00  0.00    -0.462 OA
BRANCH   2   3
ATOM      3  C   UNL A   1      35.621  33.277  30.707  1.00  0.00     0.311 C 
ATOM      4  O   UNL A   1      36.688  33.056  30.146  1.00  0.00    -0.252 OA
BRANCH   3   5
ATOM      5  C   UNL A   1      35.105  32.428  31.855  1.00  0.00     0.128 C 
ATOM      6  N   UNL A   1      36.636  32.888  33.497  1.00  0.00    -0.335 N 
ATOM      7  C   UNL A   1      36.309  31.839  32.574  1.00  0.00     0.136 C 
ATOM      8  C   UNL A   1      35.488  33.502  33.954  1.00  0.00     0.224 C 
ATOM      9  C   UNL A   1      34.382  33.192  32.973  1.00  0.00     0.117 C 
ATOM     10  O   UNL A   1      35.371  34.180  34.965  1.00  0.00    -0.275 OA
BRANCH   6  11
ATOM     11  C   UNL A   1      37.988  33.241  33.904  1.00  0.00     0.112 C 
ATOM     12  C   UNL A   1      38.438  34.577  33.323  1.00  0.00     0.036 C 
BRANCH  11  13
ATOM     13  C   UNL A   1      38.236  33.034  35.402  1.00  0.00    -0.026 A 
ATOM     14  C   UNL A   1      38.483  34.165  36.203  1.00  0.00     0.009 A 
ATOM     15  C   UNL A   1      38.072  31.810  36.062  1.00  0.00     0.009 A 
ATOM     16  C   UNL A   1      38.361  34.134  37.595  1.00  0.00     0.039 A 
ATOM     17  C   UNL A   1      37.990  31.762  37.463  1.00  0.00     0.039 A 
ATOM     18  C   UNL A   1      38.081  32.930  38.211  1.00  0.00     0.123 A 
ATOM     19  F   UNL A   1      37.862  32.897  39.533  1.00  0.00    -0.207 F 
ENDBRANCH  11  13
ENDBRANCH   6  11
ENDBRANCH   3   5
ENDBRANCH   2   3
ENDBRANCH   1   2
BRANCH   1  20
ATOM     20  C   UNL A   1      33.870  33.296  28.187  1.00  0.00     0.275 C 
BRANCH  20  21
ATOM     21  O   UNL A   1      34.702  32.349  27.478  1.00  0.00    -0.458 OA
BRANCH  21  22
ATOM     22  C   UNL A   1      34.402  31.033  27.656  1.00  0.00     0.338 C 
ATOM     23  O   UNL A   1      33.353  30.486  27.359  1.00  0.00    -0.246 OA
BRANCH  22  24
ATOM     24  C   UNL A   1      35.613  30.297  28.109  1.00  0.00     0.060 A 
ATOM     25  C   UNL A   1      36.709  30.265  27.245  1.00  0.00     0.016 A 
ATOM     26  C   UNL A   1      35.756  29.765  29.395  1.00  0.00     0.016 A 
ATOM     27  C   UNL A   1      37.976  29.876  27.709  1.00  0.00     0.010 A 
ATOM     28  C   UNL A   1      37.019  29.318  29.842  1.00  0.00     0.010 A 
ATOM     29  C   UNL A   1      38.162  29.427  29.027  1.00  0.00    -0.014 A 
BRANCH  29  30
ATOM     30  C   UNL A   1      39.502  28.922  29.474  1.00  0.00     0.031 A 
ATOM     31  C   UNL A   1      40.225  29.703  30.522  1.00  0.00     0.074 A 
ATOM     32  C   UNL A   1      40.076  27.775  29.046  1.00  0.00     0.049 A 
ATOM     33  N   UNL A   1      41.389  29.467  31.067  1.00  0.00    -0.248 NA
ATOM     34  C   UNL A   1      39.531  30.887  31.046  1.00  0.00     0.031 C 
ATOM     35  C   UNL A   1      39.446  26.829  28.156  1.00  0.00     0.029 A 
ATOM     36  N   UNL A   1      41.298  27.184  29.306  1.00  0.00    -0.354 N 
ATOM     37  C   UNL A   1      41.550  30.450  32.025  1.00  0.00     0.074 A 
ATOM     38  C   UNL A   1      40.382  31.302  31.967  1.00  0.00     0.031 C 
ATOM     39  C   UNL A   1      40.253  25.783  27.921  1.00  0.00     0.029 A 
ATOM     40  C   UNL A   1      41.510  26.003  28.620  1.00  0.00     0.049 A 
ATOM     41  H   UNL A   1      41.959  27.570  29.925  1.00  0.00     0.167 HD
ATOM     42  C   UNL A   1      42.581  30.628  32.878  1.00  0.00     0.037 A 
ATOM     43  C   UNL A   1      42.588  25.193  28.537  1.00  0.00     0.037 A 
ATOM     44  C   UNL A   1      43.781  29.843  32.890  1.00  0.00     0.049 A 
ATOM     45  C   UNL A   1      43.809  25.535  29.347  1.00  0.00     0.074 A 
ATOM     46  C   UNL A   1      44.921  30.037  33.646  1.00  0.00     0.029 A 
ATOM     47  N   UNL A   1      44.009  28.729  32.095  1.00  0.00    -0.354 N 
ATOM     48  N   UNL A   1      43.963  26.491  30.229  1.00  0.00    -0.248 NA
ATOM     49  C   UNL A   1      45.003  24.693  29.165  1.00  0.00     0.031 C 
ATOM     50  C   UNL A   1      45.865  29.079  33.265  1.00  0.00     0.029 A 
ATOM     51  C   UNL A   1      45.289  28.245  32.321  1.00  0.00     0.049 A 
ATOM     52  H   UNL A   1      43.361  28.340  31.465  1.00  0.00     0.167 HD
ATOM     53  C   UNL A   1      45.245  26.343  30.734  1.00  0.00     0.074 A 
ATOM     54  C   UNL A   1      45.832  25.201  30.067  1.00  0.00     0.031 C 
ATOM     55  C   UNL A   1      45.869  27.094  31.672  1.00  0.00     0.037 A 
BRANCH  42  56
ATOM     56  C   UNL A   1      42.459  31.792  33.807  1.00  0.00     0.064 A 
ATOM     57  C   UNL A   1      42.715  33.089  33.344  1.00  0.00     0.173 A 
ATOM     58  C   UNL A   1      42.017  31.628  35.127  1.00  0.00     0.173 A 
ATOM     59  F   UNL A   1      43.123  33.289  32.082  1.00  0.00    -0.203 F 
ATOM     60  C   UNL A   1      42.526  34.187  34.173  1.00  0.00     0.198 A 
ATOM     61  C   UNL A   1      41.801  32.732  35.944  1.00  0.00     0.198 A 
ATOM     62  F   UNL A   1      41.722  30.405  35.596  1.00  0.00    -0.203 F 
ATOM     63  F   UNL A   1      42.773  35.421  33.711  1.00  0.00    -0.200 F 
ATOM     64  C   UNL A   1      42.059  34.010  35.466  1.00  0.00     0.200 A 
ATOM     65  F   UNL A   1      41.308  32.564  37.179  1.00  0.00    -0.200 F 
ATOM     66  F   UNL A   1      41.836  35.074  36.249  1.00  0.00    -0.200 F 
ENDBRANCH  42  56
BRANCH  43  67
ATOM     67  C   UNL A   1      42.590  23.987  27.653  1.00  0.00     0.064 A 
ATOM     68  C   UNL A   1      42.928  24.076  26.292  1.00  0.00     0.173 A 
ATOM     69  C   UNL A   1      42.320  22.708  28.163  1.00  0.00     0.173 A 
ATOM     70  F   UNL A   1      43.217  25.267  25.748  1.00  0.00    -0.203 F 
ATOM     71  C   UNL A   1      42.986  22.941  25.481  1.00  0.00     0.198 A 
ATOM     72  C   UNL A   1      42.405  21.571  27.358  1.00  0.00     0.198 A 
ATOM     73  F   UNL A   1      42.026  22.555  29.462  1.00  0.00    -0.203 F 
ATOM     74  F   UNL A   1      43.302  23.060  24.185  1.00  0.00    -0.200 F 
ATOM     75  C   UNL A   1      42.734  21.689  26.017  1.00  0.00     0.200 A 
ATOM     76  F   UNL A   1      42.195  20.357  27.890  1.00  0.00    -0.200 F 
ATOM     77  F   UNL A   1      42.821  20.595  25.246  1.00  0.00    -0.200 F 
ENDBRANCH  43  67
BRANCH  55  78
ATOM     78  C   UNL A   1      47.258  26.706  32.082  1.00  0.00     0.064 A 
ATOM     79  C   UNL A   1      48.366  27.261  31.422  1.00  0.00     0.173 A 
ATOM     80  C   UNL A   1      47.492  25.702  33.032  1.00  0.00     0.173 A 
ATOM     81  F   UNL A   1      48.194  28.224  30.504  1.00  0.00    -0.203 F 
ATOM     82  C   UNL A   1      49.654  26.795  31.668  1.00  0.00     0.198 A 
ATOM     83  C   UNL A   1      48.785  25.261  33.299  1.00  0.00     0.198 A 
ATOM     84  F   UNL A   1      46.468  25.153  33.702  1.00  0.00    -0.203 F 
ATOM     85  F   UNL A   1      50.689  27.298  30.984  1.00  0.00    -0.200 F 
ATOM     86  C   UNL A   1      49.862  25.795  32.606  1.00  0.00     0.200 A 
ATOM     87  F   UNL A   1      48.989  24.310  34.222  1.00  0.00    -0.200 F 
ATOM     88  F   UNL A   1      51.101  25.340  32.837  1.00  0.00    -0.200 F 
ENDBRANCH  55  78
ENDBRANCH  29  30
ENDBRANCH  22  24
ENDBRANCH  21  22
ENDBRANCH  20  21
ENDBRANCH   1  20
TORSDOF 13
ENDMDL
MODEL 3
REMARK VINA RESULT:     -10.1      4.345     10.980
REMARK SMILES C[C@@H](c1ccc(F)cc1)N1C[C@H](C(=O)OCCOC(=O)c2ccc(-c3c4nc(c(-c5c(F)c(F)c(F)c(F)c5F)c5ccc([nH]5)c(-c5c(F)c(F)c(F)c(F)c5F)c5nc(c(-c6c(F)c(F)c(F)c(F)c6F)c6ccc3[nH]6)C=C5)C=C4)cc2)CC1=O
REMARK SMILES IDX 16 1 15 2 13 3 14 4 12 5 10 6 11 7 85 8 84 9 86 10 2 11 1 12
REMARK SMILES IDX 3 13 4 14 9 15 5 16 8 17 6 18 7 19 17 20 18 21 19 22 20 23
REMARK SMILES IDX 21 24 22 25 83 26 23 27 82 28 24 29 25 30 26 31 76 32 27 33
REMARK SMILES IDX 81 34 75 35 77 36 28 37 80 38 74 39 73 40 29 42 61 43 41 44
REMARK SMILES IDX 60 45 42 46 45 47 59 48 78 49 43 50 44 51 58 53 79 54 46 55
REMARK SMILES IDX 30 56 31 57 39 58 32 59 33 60 37 61 40 62 34 63 35 64 38 65
REMARK SMILES IDX 36 66 62 67 63 68 71 69 64 70 65 71 69 72 72 73 66 74 67 75
REMARK SMILES IDX 70 76 68 77 47 78 48 79 56 80 49 81 50 82 54 83 57 84 51 85
REMARK SMILES IDX 52 86 55 87 53 88
REMARK H PARENT 77 41 45 52
REMARK Flexibility Score: inf
ROOT
ATOM      1  C   UNL A   1      42.037  20.892  27.305  1.00  0.00     0.274 C 
ENDROOT
BRANCH   1   2
ATOM      2  O   UNL A   1      43.055  21.449  26.451  1.00  0.00    -0.462 OA
BRANCH   2   3
ATOM      3  C   UNL A   1      43.073  22.807  26.408  1.00  0.00     0.311 C 
ATOM      4  O   UNL A   1      42.884  23.523  27.384  1.00  0.00    -0.252 OA
BRANCH   3   5
ATOM      5  C   UNL A   1      43.222  23.357  25.001  1.00  0.00     0.128 C 
ATOM      6  N   UNL A   1      45.179  24.537  25.169  1.00  0.00    -0.335 N 
ATOM      7  C   UNL A   1      43.765  24.773  25.113  1.00  0.00     0.136 C 
ATOM      8  C   UNL A   1      45.521  23.470  24.363  1.00  0.00     0.224 C 
ATOM      9  C   UNL A   1      44.270  22.659  24.122  1.00  0.00     0.117 C 
ATOM     10  O   UNL A   1      46.632  23.211  23.921  1.00  0.00    -0.275 OA
BRANCH   6  11
ATOM     11  C   UNL A   1      46.119  25.324  25.953  1.00  0.00     0.112 C 
ATOM     12  C   UNL A   1      46.889  24.475  26.958  1.00  0.00     0.036 C 
BRANCH  11  13
ATOM     13  C   UNL A   1      46.951  26.288  25.100  1.00  0.00    -0.026 A 
ATOM     14  C   UNL A   1      48.289  25.949  24.820  1.00  0.00     0.009 A 
ATOM     15  C   UNL A   1      46.425  27.405  24.440  1.00  0.00     0.009 A 
ATOM     16  C   UNL A   1      49.008  26.550  23.781  1.00  0.00     0.039 A 
ATOM     17  C   UNL A   1      47.157  28.042  23.425  1.00  0.00     0.039 A 
ATOM     18  C   UNL A   1      48.416  27.575  23.069  1.00  0.00     0.123 A 
ATOM     19  F   UNL A   1      49.049  28.094  22.008  1.00  0.00    -0.207 F 
ENDBRANCH  11  13
ENDBRANCH   6  11
ENDBRANCH   3   5
ENDBRANCH   2   3
ENDBRANCH   1   2
BRANCH   1  20
ATOM     20  C   UNL A   1      40.676  20.837  26.610  1.00  0.00     0.275 C 
BRANCH  20  21
ATOM     21  O   UNL A   1      39.696  21.712  27.213  1.00  0.00    -0.458 OA
BRANCH  21  22
ATOM     22  C   UNL A   1      39.016  22.530  26.364  1.00  0.00     0.338 C 
ATOM     23  O   UNL A   1      38.204  22.182  25.523  1.00  0.00    -0.246 OA
BRANCH  22  24
ATOM     24  C   UNL A   1      39.269  23.952  26.724  1.00  0.00     0.060 A 
ATOM     25  C   UNL A   1      38.907  24.366  28.006  1.00  0.00     0.016 A 
ATOM     26  C   UNL A   1      39.969  24.842  25.902  1.00  0.00     0.016 A 
ATOM     27  C   UNL A   1      39.388  25.576  28.530  1.00  0.00     0.010 A 
ATOM     28  C   UNL A   1      40.402  26.085  26.412  1.00  0.00     0.010 A 
ATOM     29  C   UNL A   1      40.174  26.444  27.754  1.00  0.00    -0.014 A 
BRANCH  29  30
ATOM     30  C   UNL A   1      40.595  27.777  28.298  1.00  0.00     0.031 A 
ATOM     31  C   UNL A   1      42.058  28.033  28.457  1.00  0.00     0.074 A 
ATOM     32  C   UNL A   1      39.751  28.792  28.594  1.00  0.00     0.049 A 
ATOM     33  N   UNL A   1      42.662  29.102  28.904  1.00  0.00    -0.248 NA
ATOM     34  C   UNL A   1      42.957  26.953  28.029  1.00  0.00     0.031 C 
ATOM     35  C   UNL A   1      38.327  28.766  28.354  1.00  0.00     0.029 A 
ATOM     36  N   UNL A   1      39.947  30.048  29.135  1.00  0.00    -0.354 N 
ATOM     37  C   UNL A   1      44.013  28.840  28.773  1.00  0.00     0.074 A 
ATOM     38  C   UNL A   1      44.141  27.502  28.236  1.00  0.00     0.031 C 
ATOM     39  C   UNL A   1      37.757  29.917  28.737  1.00  0.00     0.029 A 
ATOM     40  C   UNL A   1      38.784  30.774  29.311  1.00  0.00     0.049 A 
ATOM     41  H   UNL A   1      40.837  30.395  29.376  1.00  0.00     0.167 HD
ATOM     42  C   UNL A   1      45.055  29.642  29.075  1.00  0.00     0.037 A 
ATOM     43  C   UNL A   1      38.553  31.977  29.879  1.00  0.00     0.037 A 
ATOM     44  C   UNL A   1      44.946  30.936  29.684  1.00  0.00     0.049 A 
ATOM     45  C   UNL A   1      39.725  32.764  30.399  1.00  0.00     0.074 A 
ATOM     46  C   UNL A   1      45.962  31.760  30.128  1.00  0.00     0.029 A 
ATOM     47  N   UNL A   1      43.751  31.586  29.958  1.00  0.00    -0.354 N 
ATOM     48  N   UNL A   1      41.001  32.490  30.300  1.00  0.00    -0.248 NA
ATOM     49  C   UNL A   1      39.438  34.026  31.101  1.00  0.00     0.031 C 
ATOM     50  C   UNL A   1      45.383  32.881  30.729  1.00  0.00     0.029 A 
ATOM     51  C   UNL A   1      44.007  32.789  30.597  1.00  0.00     0.049 A 
ATOM     52  H   UNL A   1      42.855  31.245  29.732  1.00  0.00     0.167 HD
ATOM     53  C   UNL A   1      41.669  33.554  30.886  1.00  0.00     0.074 A 
ATOM     54  C   UNL A   1      40.659  34.488  31.336  1.00  0.00     0.031 C 
ATOM     55  C   UNL A   1      43.003  33.732  31.028  1.00  0.00     0.037 A 
BRANCH  42  56
ATOM     56  C   UNL A   1      46.410  29.069  28.815  1.00  0.00     0.064 A 
ATOM     57  C   UNL A   1      47.029  29.265  27.575  1.00  0.00     0.173 A 
ATOM     58  C   UNL A   1      47.121  28.393  29.819  1.00  0.00     0.173 A 
ATOM     59  F   UNL A   1      46.390  29.922  26.595  1.00  0.00    -0.203 F 
ATOM     60  C   UNL A   1      48.321  28.809  27.348  1.00  0.00     0.198 A 
ATOM     61  C   UNL A   1      48.425  27.965  29.596  1.00  0.00     0.198 A 
ATOM     62  F   UNL A   1      46.578  28.221  31.034  1.00  0.00    -0.203 F 
ATOM     63  F   UNL A   1      48.899  29.011  26.155  1.00  0.00    -0.200 F 
ATOM     64  C   UNL A   1      49.022  28.171  28.360  1.00  0.00     0.200 A 
ATOM     65  F   UNL A   1      49.116  27.387  30.587  1.00  0.00    -0.200 F 
ATOM     66  F   UNL A   1      50.284  27.771  28.152  1.00  0.00    -0.200 F 
ENDBRANCH  42  56
BRANCH  43  67
ATOM     67  C   UNL A   1      37.167  32.523  30.010  1.00  0.00     0.064 A 
ATOM     68  C   UNL A   1      36.393  32.290  31.160  1.00  0.00     0.173 A 
ATOM     69  C   UNL A   1      36.611  33.347  29.020  1.00  0.00     0.173 A 
ATOM     70  F   UNL A   1      36.875  31.528  32.152  1.00  0.00    -0.203 F 
ATOM     71  C   UNL A   1      35.122  32.849  31.306  1.00  0.00     0.198 A 
ATOM     72  C   UNL A   1      35.351  33.927  29.180  1.00  0.00     0.198 A 
ATOM     73  F   UNL A   1      37.316  33.635  27.916  1.00  0.00    -0.203 F 
ATOM     74  F   UNL A   1      34.404  32.600  32.410  1.00  0.00    -0.200 F 
ATOM     75  C   UNL A   1      34.605  33.674  30.320  1.00  0.00     0.200 A 
ATOM     76  F   UNL A   1      34.871  34.755  28.239  1.00  0.00    -0.200 F 
ATOM     77  F   UNL A   1      33.399  34.237  30.475  1.00  0.00    -0.200 F 
ENDBRANCH  43  67
BRANCH  55  78
ATOM     78  C   UNL A   1      43.485  34.999  31.669  1.00  0.00     0.064 A 
ATOM     79  C   UNL A   1      43.748  36.130  30.879  1.00  0.00     0.173 A 
ATOM     80  C   UNL A   1      43.807  35.060  33.032  1.00  0.00     0.173 A 
ATOM     81  F   UNL A   1      43.458  36.120  29.568  1.00  0.00    -0.203 F 
ATOM     82  C   UNL A   1      44.351  37.259  31.422  1.00  0.00     0.198 A 
ATOM     83  C   UNL A   1      44.381  36.204  33.579  1.00  0.00     0.198 A 
ATOM     84  F   UNL A   1      43.560  34.012  33.832  1.00  0.00    -0.203 F 
ATOM     85  F   UNL A   1      44.645  38.303  30.635  1.00  0.00    -0.200 F 
ATOM     86  C   UNL A   1      44.669  37.295  32.771  1.00  0.00     0.200 A 
ATOM     87  F   UNL A   1      44.667  36.247  34.887  1.00  0.00    -0.200 F 
ATOM     88  F   UNL A   1      45.258  38.380  33.293  1.00  0.00    -0.200 F 
ENDBRANCH  55  78
ENDBRANCH  29  30
ENDBRANCH  22  24
ENDBRANCH  21  22
ENDBRANCH  20  21
ENDBRANCH   1  20
TORSDOF 13
ENDMDL
