MODEL 1
REMARK VINA RESULT:     -13.4      0.000      0.000
REMARK SMILES CC(=O)Nc1ccc(/C(=C\c2ccc(S(C)(=O)=O)cc2)C(=O)OCCOC(=O)c2ccc(-c3c4nc(c(-c5c(F)c(F)c(F)c(F)c5F)c5ccc([nH]5)c(-c5c(F)c(F)c(F)c(F)c5F)c5nc(c(-c6c(F)c(F)c(F)c(F)c6F)c6ccc3[nH]6)C=C5)C=C4)cc2)cc1
REMARK SMILES IDX 24 1 23 2 21 3 22 4 9 5 10 6 8 7 5 8 6 9 93 10 7 11 92 12
REMARK SMILES IDX 4 13 1 14 2 15 3 16 11 18 12 19 20 20 13 21 19 22 14 23
REMARK SMILES IDX 15 24 16 25 17 26 18 27 25 28 26 29 27 30 28 31 29 32 30 33
REMARK SMILES IDX 91 34 31 35 90 36 32 37 33 38 34 39 84 40 35 41 89 42 83 43
REMARK SMILES IDX 85 44 36 45 88 46 82 47 81 48 37 50 69 51 49 52 68 53 50 54
REMARK SMILES IDX 53 55 67 56 86 57 51 58 52 59 66 61 87 62 54 63 38 64 39 65
REMARK SMILES IDX 47 66 40 67 41 68 45 69 48 70 42 71 43 72 46 73 44 74 70 75
REMARK SMILES IDX 71 76 79 77 72 78 73 79 77 80 80 81 74 82 75 83 78 84 76 85
REMARK SMILES IDX 55 86 56 87 64 88 57 89 58 90 62 91 65 92 59 93 60 94 63 95
REMARK SMILES IDX 61 96
REMARK H PARENT 4 17 85 49 53 60
REMARK Flexibility Score: inf
ROOT
ATOM      1  C   UNL A   1      33.485  27.839  24.302  1.00  0.00     0.275 C 
ENDROOT
BRANCH   1   2
ATOM      2  O   UNL A   1      32.702  26.763  23.741  1.00  0.00    -0.458 OA
BRANCH   2   3
ATOM      3  C   UNL A   1      33.275  25.998  22.769  1.00  0.00     0.338 C 
ATOM      4  O   UNL A   1      33.653  26.410  21.683  1.00  0.00    -0.246 OA
BRANCH   3   5
ATOM      5  C   UNL A   1      33.421  24.561  23.222  1.00  0.00     0.067 C 
ATOM      6  C   UNL A   1      32.289  23.828  23.041  1.00  0.00     0.024 C 
BRANCH   5   7
ATOM      7  C   UNL A   1      34.717  24.082  23.839  1.00  0.00    -0.011 A 
ATOM      8  C   UNL A   1      36.850  22.771  25.226  1.00  0.00     0.041 A 
ATOM      9  C   UNL A   1      36.711  22.631  23.854  1.00  0.00     0.027 A 
ATOM     10  C   UNL A   1      36.064  23.716  25.863  1.00  0.00     0.027 A 
ATOM     11  C   UNL A   1      35.670  23.291  23.179  1.00  0.00     0.011 A 
ATOM     12  C   UNL A   1      35.028  24.369  25.172  1.00  0.00     0.011 A 
BRANCH   8  13
ATOM     13  N   UNL A   1      37.814  21.994  25.880  1.00  0.00    -0.326 N 
ATOM     14  C   UNL A   1      39.414  23.795  26.506  1.00  0.00     0.114 C 
ATOM     15  C   UNL A   1      39.042  22.342  26.375  1.00  0.00     0.221 C 
ATOM     16  O   UNL A   1      39.797  21.457  26.780  1.00  0.00    -0.275 OA
ATOM     17  H   UNL A   1      37.571  21.048  26.003  1.00  0.00     0.169 HD
ENDBRANCH   8  13
ENDBRANCH   5   7
BRANCH   6  18
ATOM     18  C   UNL A   1      32.094  22.411  23.356  1.00  0.00    -0.025 A 
ATOM     19  C   UNL A   1      31.996  21.509  22.287  1.00  0.00     0.009 A 
ATOM     20  C   UNL A   1      32.201  21.941  24.671  1.00  0.00     0.009 A 
ATOM     21  C   UNL A   1      32.153  20.145  22.518  1.00  0.00     0.021 A 
ATOM     22  C   UNL A   1      32.358  20.574  24.905  1.00  0.00     0.021 A 
ATOM     23  C   UNL A   1      32.377  19.690  23.821  1.00  0.00     0.067 A 
BRANCH  23  24
ATOM     24  S   UNL A   1      32.921  18.013  24.057  1.00  0.00     0.175 S 
ATOM     25  C   UNL A   1      34.604  18.178  24.574  1.00  0.00     0.163 C 
ATOM     26  O   UNL A   1      32.153  17.477  25.165  1.00  0.00    -0.224 OA
ATOM     27  O   UNL A   1      32.904  17.361  22.763  1.00  0.00    -0.224 OA
ENDBRANCH  23  24
ENDBRANCH   6  18
ENDBRANCH   3   5
ENDBRANCH   2   3
ENDBRANCH   1   2
BRANCH   1  28
ATOM     28  C   UNL A   1      32.582  28.762  25.117  1.00  0.00     0.275 C 
BRANCH  28  29
ATOM     29  O   UNL A   1      33.312  29.969  25.387  1.00  0.00    -0.458 OA
BRANCH  29  30
ATOM     30  C   UNL A   1      33.259  30.451  26.645  1.00  0.00     0.338 C 
ATOM     31  O   UNL A   1      32.286  30.895  27.239  1.00  0.00    -0.246 OA
BRANCH  30  32
ATOM     32  C   UNL A   1      34.596  30.316  27.251  1.00  0.00     0.060 A 
ATOM     33  C   UNL A   1      35.123  29.042  27.437  1.00  0.00     0.016 A 
ATOM     34  C   UNL A   1      35.292  31.427  27.722  1.00  0.00     0.016 A 
ATOM     35  C   UNL A   1      36.291  28.866  28.177  1.00  0.00     0.010 A 
ATOM     36  C   UNL A   1      36.519  31.250  28.380  1.00  0.00     0.010 A 
ATOM     37  C   UNL A   1      37.014  29.962  28.663  1.00  0.00    -0.014 A 
BRANCH  37  38
ATOM     38  C   UNL A   1      38.212  29.765  29.541  1.00  0.00     0.031 A 
ATOM     39  C   UNL A   1      39.393  28.975  29.027  1.00  0.00     0.074 A 
ATOM     40  C   UNL A   1      38.320  30.346  30.756  1.00  0.00     0.049 A 
ATOM     41  N   UNL A   1      40.422  28.495  29.679  1.00  0.00    -0.248 NA
ATOM     42  C   UNL A   1      39.422  28.699  27.582  1.00  0.00     0.031 C 
ATOM     43  C   UNL A   1      37.342  31.249  31.362  1.00  0.00     0.029 A 
ATOM     44  N   UNL A   1      39.326  30.281  31.695  1.00  0.00    -0.354 N 
ATOM     45  C   UNL A   1      41.184  27.812  28.740  1.00  0.00     0.074 A 
ATOM     46  C   UNL A   1      40.506  27.945  27.468  1.00  0.00     0.031 C 
ATOM     47  C   UNL A   1      37.820  31.700  32.531  1.00  0.00     0.029 A 
ATOM     48  C   UNL A   1      39.074  31.016  32.829  1.00  0.00     0.049 A 
ATOM     49  H   UNL A   1      40.149  29.756  31.565  1.00  0.00     0.167 HD
ATOM     50  C   UNL A   1      42.340  27.129  28.919  1.00  0.00     0.037 A 
ATOM     51  C   UNL A   1      39.730  31.085  34.005  1.00  0.00     0.037 A 
ATOM     52  C   UNL A   1      43.051  27.041  30.167  1.00  0.00     0.049 A 
ATOM     53  C   UNL A   1      40.944  30.222  34.226  1.00  0.00     0.074 A 
ATOM     54  C   UNL A   1      44.197  26.320  30.461  1.00  0.00     0.029 A 
ATOM     55  N   UNL A   1      42.700  27.722  31.321  1.00  0.00    -0.354 N 
ATOM     56  N   UNL A   1      41.569  29.443  33.380  1.00  0.00    -0.248 NA
ATOM     57  C   UNL A   1      41.514  30.211  35.583  1.00  0.00     0.031 C 
ATOM     58  C   UNL A   1      44.520  26.540  31.803  1.00  0.00     0.029 A 
ATOM     59  C   UNL A   1      43.597  27.426  32.334  1.00  0.00     0.049 A 
ATOM     60  H   UNL A   1      41.929  28.327  31.407  1.00  0.00     0.167 HD
ATOM     61  C   UNL A   1      42.608  28.860  34.093  1.00  0.00     0.074 A 
ATOM     62  C   UNL A   1      42.540  29.383  35.440  1.00  0.00     0.031 C 
ATOM     63  C   UNL A   1      43.529  27.962  33.668  1.00  0.00     0.037 A 
BRANCH  50  64
ATOM     64  C   UNL A   1      42.884  26.370  27.746  1.00  0.00     0.064 A 
ATOM     65  C   UNL A   1      42.605  25.011  27.544  1.00  0.00     0.173 A 
ATOM     66  C   UNL A   1      43.673  27.030  26.791  1.00  0.00     0.173 A 
ATOM     67  F   UNL A   1      41.873  24.332  28.439  1.00  0.00    -0.203 F 
ATOM     68  C   UNL A   1      43.113  24.336  26.436  1.00  0.00     0.198 A 
ATOM     69  C   UNL A   1      44.159  26.358  25.674  1.00  0.00     0.198 A 
ATOM     70  F   UNL A   1      43.966  28.331  26.940  1.00  0.00    -0.203 F 
ATOM     71  F   UNL A   1      42.869  23.028  26.281  1.00  0.00    -0.200 F 
ATOM     72  C   UNL A   1      43.883  25.011  25.500  1.00  0.00     0.200 A 
ATOM     73  F   UNL A   1      44.896  27.015  24.767  1.00  0.00    -0.200 F 
ATOM     74  F   UNL A   1      44.367  24.361  24.433  1.00  0.00    -0.200 F 
ENDBRANCH  50  64
BRANCH  51  75
ATOM     75  C   UNL A   1      39.200  31.938  35.105  1.00  0.00     0.064 A 
ATOM     76  C   UNL A   1      39.466  33.313  35.151  1.00  0.00     0.173 A 
ATOM     77  C   UNL A   1      38.423  31.392  36.140  1.00  0.00     0.173 A 
ATOM     78  F   UNL A   1      40.236  33.879  34.210  1.00  0.00    -0.203 F 
ATOM     79  C   UNL A   1      38.972  34.108  36.185  1.00  0.00     0.198 A 
ATOM     80  C   UNL A   1      37.900  32.193  37.151  1.00  0.00     0.198 A 
ATOM     81  F   UNL A   1      38.153  30.078  36.156  1.00  0.00    -0.203 F 
ATOM     82  F   UNL A   1      39.274  35.414  36.227  1.00  0.00    -0.200 F 
ATOM     83  C   UNL A   1      38.179  33.550  37.176  1.00  0.00     0.200 A 
ATOM     84  F   UNL A   1      37.125  31.649  38.099  1.00  0.00    -0.200 F 
ATOM     85  F   UNL A   1      37.693  34.317  38.162  1.00  0.00    -0.200 F 
ENDBRANCH  51  75
BRANCH  63  86
ATOM     86  C   UNL A   1      44.559  27.503  34.654  1.00  0.00     0.064 A 
ATOM     87  C   UNL A   1      44.375  26.339  35.414  1.00  0.00     0.173 A 
ATOM     88  C   UNL A   1      45.773  28.192  34.788  1.00  0.00     0.173 A 
ATOM     89  F   UNL A   1      43.224  25.653  35.329  1.00  0.00    -0.203 F 
ATOM     90  C   UNL A   1      45.367  25.887  36.279  1.00  0.00     0.198 A 
ATOM     91  C   UNL A   1      46.771  27.727  35.640  1.00  0.00     0.198 A 
ATOM     92  F   UNL A   1      45.998  29.309  34.078  1.00  0.00    -0.203 F 
ATOM     93  F   UNL A   1      45.161  24.786  37.015  1.00  0.00    -0.200 F 
ATOM     94  C   UNL A   1      46.566  26.576  36.385  1.00  0.00     0.200 A 
ATOM     95  F   UNL A   1      47.933  28.387  35.733  1.00  0.00    -0.200 F 
ATOM     96  F   UNL A   1      47.525  26.131  37.209  1.00  0.00    -0.200 F 
ENDBRANCH  63  86
ENDBRANCH  37  38
ENDBRANCH  30  32
ENDBRANCH  29  30
ENDBRANCH  28  29
ENDBRANCH   1  28
TORSDOF 15
ENDMDL
MODEL 2
REMARK VINA RESULT:     -13.2      0.419      1.634
REMARK SMILES CC(=O)Nc1ccc(/C(=C\c2ccc(S(C)(=O)=O)cc2)C(=O)OCCOC(=O)c2ccc(-c3c4nc(c(-c5c(F)c(F)c(F)c(F)c5F)c5ccc([nH]5)c(-c5c(F)c(F)c(F)c(F)c5F)c5nc(c(-c6c(F)c(F)c(F)c(F)c6F)c6ccc3[nH]6)C=C5)C=C4)cc2)cc1
REMARK SMILES IDX 24 1 23 2 21 3 22 4 9 5 10 6 8 7 5 8 6 9 93 10 7 11 92 12
REMARK SMILES IDX 4 13 1 14 2 15 3 16 11 18 12 19 20 20 13 21 19 22 14 23
REMARK SMILES IDX 15 24 16 25 17 26 18 27 25 28 26 29 27 30 28 31 29 32 30 33
REMARK SMILES IDX 91 34 31 35 90 36 32 37 33 38 34 39 84 40 35 41 89 42 83 43
REMARK SMILES IDX 85 44 36 45 88 46 82 47 81 48 37 50 69 51 49 52 68 53 50 54
REMARK SMILES IDX 53 55 67 56 86 57 51 58 52 59 66 61 87 62 54 63 38 64 39 65
REMARK SMILES IDX 47 66 40 67 41 68 45 69 48 70 42 71 43 72 46 73 44 74 70 75
REMARK SMILES IDX 71 76 79 77 72 78 73 79 77 80 80 81 74 82 75 83 78 84 76 85
REMARK SMILES IDX 55 86 56 87 64 88 57 89 58 90 62 91 65 92 59 93 60 94 63 95
REMARK SMILES IDX 61 96
REMARK H PARENT 4 17 85 49 53 60
REMARK Flexibility Score: inf
ROOT
ATOM      1  C   UNL A   1      33.490  27.980  24.179  1.00  0.00     0.275 C 
ENDROOT
BRANCH   1   2
ATOM      2  O   UNL A   1      32.711  26.882  23.657  1.00  0.00    -0.458 OA
BRANCH   2   3
ATOM      3  C   UNL A   1      33.288  26.084  22.713  1.00  0.00     0.338 C 
ATOM      4  O   UNL A   1      33.650  26.455  21.607  1.00  0.00    -0.246 OA
BRANCH   3   5
ATOM      5  C   UNL A   1      33.458  24.670  23.226  1.00  0.00     0.067 C 
ATOM      6  C   UNL A   1      32.335  23.915  23.088  1.00  0.00     0.024 C 
BRANCH   5   7
ATOM      7  C   UNL A   1      34.767  24.236  23.850  1.00  0.00    -0.011 A 
ATOM      8  C   UNL A   1      36.927  23.029  25.288  1.00  0.00     0.041 A 
ATOM      9  C   UNL A   1      36.758  22.784  23.934  1.00  0.00     0.027 A 
ATOM     10  C   UNL A   1      36.156  24.023  25.867  1.00  0.00     0.027 A 
ATOM     11  C   UNL A   1      35.704  23.393  23.233  1.00  0.00     0.011 A 
ATOM     12  C   UNL A   1      35.107  24.624  25.150  1.00  0.00     0.011 A 
BRANCH   8  13
ATOM     13  N   UNL A   1      37.904  22.301  25.979  1.00  0.00    -0.326 N 
ATOM     14  C   UNL A   1      39.415  24.173  26.614  1.00  0.00     0.114 C 
ATOM     15  C   UNL A   1      39.104  22.705  26.498  1.00  0.00     0.221 C 
ATOM     16  O   UNL A   1      39.882  21.857  26.938  1.00  0.00    -0.275 OA
ATOM     17  H   UNL A   1      37.695  21.348  26.112  1.00  0.00     0.169 HD
ENDBRANCH   8  13
ENDBRANCH   5   7
BRANCH   6  18
ATOM     18  C   UNL A   1      32.163  22.510  23.464  1.00  0.00    -0.025 A 
ATOM     19  C   UNL A   1      32.131  21.554  22.439  1.00  0.00     0.009 A 
ATOM     20  C   UNL A   1      32.227  22.108  24.804  1.00  0.00     0.009 A 
ATOM     21  C   UNL A   1      32.313  20.208  22.743  1.00  0.00     0.021 A 
ATOM     22  C   UNL A   1      32.409  20.758  25.112  1.00  0.00     0.021 A 
ATOM     23  C   UNL A   1      32.494  19.823  24.075  1.00  0.00     0.067 A 
BRANCH  23  24
ATOM     24  S   UNL A   1      33.070  18.176  24.417  1.00  0.00     0.175 S 
ATOM     25  C   UNL A   1      32.899  17.332  22.871  1.00  0.00     0.163 C 
ATOM     26  O   UNL A   1      34.484  18.282  24.726  1.00  0.00    -0.224 OA
ATOM     27  O   UNL A   1      32.150  17.579  25.366  1.00  0.00    -0.224 OA
ENDBRANCH  23  24
ENDBRANCH   6  18
ENDBRANCH   3   5
ENDBRANCH   2   3
ENDBRANCH   1   2
BRANCH   1  28
ATOM     28  C   UNL A   1      32.629  28.822  25.117  1.00  0.00     0.275 C 
BRANCH  28  29
ATOM     29  O   UNL A   1      33.333  30.045  25.386  1.00  0.00    -0.458 OA
BRANCH  29  30
ATOM     30  C   UNL A   1      33.289  30.514  26.650  1.00  0.00     0.338 C 
ATOM     31  O   UNL A   1      32.323  30.965  27.250  1.00  0.00    -0.246 OA
BRANCH  30  32
ATOM     32  C   UNL A   1      34.624  30.354  27.252  1.00  0.00     0.060 A 
ATOM     33  C   UNL A   1      35.084  29.071  27.532  1.00  0.00     0.016 A 
ATOM     34  C   UNL A   1      35.385  31.458  27.630  1.00  0.00     0.016 A 
ATOM     35  C   UNL A   1      36.251  28.888  28.272  1.00  0.00     0.010 A 
ATOM     36  C   UNL A   1      36.609  31.265  28.289  1.00  0.00     0.010 A 
ATOM     37  C   UNL A   1      37.038  29.978  28.666  1.00  0.00    -0.014 A 
BRANCH  37  38
ATOM     38  C   UNL A   1      38.235  29.784  29.546  1.00  0.00     0.031 A 
ATOM     39  C   UNL A   1      39.416  28.991  29.036  1.00  0.00     0.074 A 
ATOM     40  C   UNL A   1      38.343  30.370  30.758  1.00  0.00     0.049 A 
ATOM     41  N   UNL A   1      40.445  28.514  29.691  1.00  0.00    -0.248 NA
ATOM     42  C   UNL A   1      39.447  28.709  27.592  1.00  0.00     0.031 C 
ATOM     43  C   UNL A   1      37.365  31.276  31.360  1.00  0.00     0.029 A 
ATOM     44  N   UNL A   1      39.347  30.308  31.699  1.00  0.00    -0.354 N 
ATOM     45  C   UNL A   1      41.207  27.826  28.755  1.00  0.00     0.074 A 
ATOM     46  C   UNL A   1      40.530  27.954  27.482  1.00  0.00     0.031 C 
ATOM     47  C   UNL A   1      37.842  31.731  32.527  1.00  0.00     0.029 A 
ATOM     48  C   UNL A   1      39.095  31.048  32.829  1.00  0.00     0.049 A 
ATOM     49  H   UNL A   1      40.171  29.782  31.572  1.00  0.00     0.167 HD
ATOM     50  C   UNL A   1      42.363  27.143  28.938  1.00  0.00     0.037 A 
ATOM     51  C   UNL A   1      39.751  31.121  34.006  1.00  0.00     0.037 A 
ATOM     52  C   UNL A   1      43.073  27.060  30.187  1.00  0.00     0.049 A 
ATOM     53  C   UNL A   1      40.964  30.259  34.231  1.00  0.00     0.074 A 
ATOM     54  C   UNL A   1      44.218  26.340  30.485  1.00  0.00     0.029 A 
ATOM     55  N   UNL A   1      42.721  27.746  31.337  1.00  0.00    -0.354 N 
ATOM     56  N   UNL A   1      41.589  29.476  33.389  1.00  0.00    -0.248 NA
ATOM     57  C   UNL A   1      41.532  30.253  35.588  1.00  0.00     0.031 C 
ATOM     58  C   UNL A   1      44.540  26.566  31.827  1.00  0.00     0.029 A 
ATOM     59  C   UNL A   1      43.617  27.454  32.353  1.00  0.00     0.049 A 
ATOM     60  H   UNL A   1      41.950  28.352  31.421  1.00  0.00     0.167 HD
ATOM     61  C   UNL A   1      42.627  28.895  34.105  1.00  0.00     0.074 A 
ATOM     62  C   UNL A   1      42.558  29.424  35.450  1.00  0.00     0.031 C 
ATOM     63  C   UNL A   1      43.549  27.995  33.684  1.00  0.00     0.037 A 
BRANCH  50  64
ATOM     64  C   UNL A   1      42.907  26.379  27.769  1.00  0.00     0.064 A 
ATOM     65  C   UNL A   1      42.646  25.015  27.584  1.00  0.00     0.173 A 
ATOM     66  C   UNL A   1      43.679  27.039  26.800  1.00  0.00     0.173 A 
ATOM     67  F   UNL A   1      41.933  24.334  28.493  1.00  0.00    -0.203 F 
ATOM     68  C   UNL A   1      43.155  24.335  26.479  1.00  0.00     0.198 A 
ATOM     69  C   UNL A   1      44.164  26.363  25.685  1.00  0.00     0.198 A 
ATOM     70  F   UNL A   1      43.953  28.347  26.931  1.00  0.00    -0.203 F 
ATOM     71  F   UNL A   1      42.928  23.021  26.341  1.00  0.00    -0.200 F 
ATOM     72  C   UNL A   1      43.906  25.010  25.529  1.00  0.00     0.200 A 
ATOM     73  F   UNL A   1      44.883  27.020  24.765  1.00  0.00    -0.200 F 
ATOM     74  F   UNL A   1      44.391  24.355  24.465  1.00  0.00    -0.200 F 
ENDBRANCH  50  64
BRANCH  51  75
ATOM     75  C   UNL A   1      39.220  31.980  35.102  1.00  0.00     0.064 A 
ATOM     76  C   UNL A   1      38.452  31.439  36.141  1.00  0.00     0.173 A 
ATOM     77  C   UNL A   1      39.462  33.363  35.124  1.00  0.00     0.173 A 
ATOM     78  F   UNL A   1      38.156  30.131  36.146  1.00  0.00    -0.203 F 
ATOM     79  C   UNL A   1      37.952  32.246  37.163  1.00  0.00     0.198 A 
ATOM     80  C   UNL A   1      38.995  34.161  36.164  1.00  0.00     0.198 A 
ATOM     81  F   UNL A   1      40.177  33.936  34.145  1.00  0.00    -0.203 F 
ATOM     82  F   UNL A   1      37.187  31.712  38.124  1.00  0.00    -0.200 F 
ATOM     83  C   UNL A   1      38.235  33.605  37.180  1.00  0.00     0.200 A 
ATOM     84  F   UNL A   1      39.281  35.470  36.181  1.00  0.00    -0.200 F 
ATOM     85  F   UNL A   1      37.767  34.378  38.169  1.00  0.00    -0.200 F 
ENDBRANCH  51  75
BRANCH  63  86
ATOM     86  C   UNL A   1      44.577  27.540  34.674  1.00  0.00     0.064 A 
ATOM     87  C   UNL A   1      45.779  28.239  34.852  1.00  0.00     0.173 A 
ATOM     88  C   UNL A   1      44.327  26.437  35.503  1.00  0.00     0.173 A 
ATOM     89  F   UNL A   1      46.068  29.293  34.072  1.00  0.00    -0.203 F 
ATOM     90  C   UNL A   1      46.698  27.844  35.819  1.00  0.00     0.198 A 
ATOM     91  C   UNL A   1      45.239  26.056  36.483  1.00  0.00     0.198 A 
ATOM     92  F   UNL A   1      43.188  25.739  35.375  1.00  0.00    -0.203 F 
ATOM     93  F   UNL A   1      47.853  28.511  35.957  1.00  0.00    -0.200 F 
ATOM     94  C   UNL A   1      46.424  26.759  36.640  1.00  0.00     0.200 A 
ATOM     95  F   UNL A   1      44.968  25.015  37.282  1.00  0.00    -0.200 F 
ATOM     96  F   UNL A   1      47.304  26.390  37.579  1.00  0.00    -0.200 F 
ENDBRANCH  63  86
ENDBRANCH  37  38
ENDBRANCH  30  32
ENDBRANCH  29  30
ENDBRANCH  28  29
ENDBRANCH   1  28
TORSDOF 15
ENDMDL
MODEL 3
REMARK VINA RESULT:     -12.9      4.330      9.817
REMARK SMILES CC(=O)Nc1ccc(/C(=C\c2ccc(S(C)(=O)=O)cc2)C(=O)OCCOC(=O)c2ccc(-c3c4nc(c(-c5c(F)c(F)c(F)c(F)c5F)c5ccc([nH]5)c(-c5c(F)c(F)c(F)c(F)c5F)c5nc(c(-c6c(F)c(F)c(F)c(F)c6F)c6ccc3[nH]6)C=C5)C=C4)cc2)cc1
REMARK SMILES IDX 24 1 23 2 21 3 22 4 9 5 10 6 8 7 5 8 6 9 93 10 7 11 92 12
REMARK SMILES IDX 4 13 1 14 2 15 3 16 11 18 12 19 20 20 13 21 19 22 14 23
REMARK SMILES IDX 15 24 16 25 17 26 18 27 25 28 26 29 27 30 28 31 29 32 30 33
REMARK SMILES IDX 91 34 31 35 90 36 32 37 33 38 34 39 84 40 35 41 89 42 83 43
REMARK SMILES IDX 85 44 36 45 88 46 82 47 81 48 37 50 69 51 49 52 68 53 50 54
REMARK SMILES IDX 53 55 67 56 86 57 51 58 52 59 66 61 87 62 54 63 38 64 39 65
REMARK SMILES IDX 47 66 40 67 41 68 45 69 48 70 42 71 43 72 46 73 44 74 70 75
REMARK SMILES IDX 71 76 79 77 72 78 73 79 77 80 80 81 74 82 75 83 78 84 76 85
REMARK SMILES IDX 55 86 56 87 64 88 57 89 58 90 62 91 65 92 59 93 60 94 63 95
REMARK SMILES IDX 61 96
REMARK H PARENT 4 17 85 49 53 60
REMARK Flexibility Score: inf
ROOT
ATOM      1  C   UNL A   1      34.997  22.637  26.353  1.00  0.00     0.275 C 
ENDROOT
BRANCH   1   2
ATOM      2  O   UNL A   1      33.945  23.019  25.441  1.00  0.00    -0.458 OA
BRANCH   2   3
ATOM      3  C   UNL A   1      32.723  23.318  25.967  1.00  0.00     0.338 C 
ATOM      4  O   UNL A   1      32.116  22.626  26.771  1.00  0.00    -0.246 OA
BRANCH   3   5
ATOM      5  C   UNL A   1      32.218  24.649  25.452  1.00  0.00     0.067 C 
ATOM      6  C   UNL A   1      31.337  24.523  24.424  1.00  0.00     0.024 C 
BRANCH   5   7
ATOM      7  C   UNL A   1      32.726  25.942  26.052  1.00  0.00    -0.011 A 
ATOM      8  C   UNL A   1      33.548  28.609  26.690  1.00  0.00     0.041 A 
ATOM      9  C   UNL A   1      32.365  28.096  27.199  1.00  0.00     0.027 A 
ATOM     10  C   UNL A   1      34.408  27.736  26.045  1.00  0.00     0.027 A 
ATOM     11  C   UNL A   1      31.977  26.780  26.893  1.00  0.00     0.011 A 
ATOM     12  C   UNL A   1      34.005  26.423  25.749  1.00  0.00     0.011 A 
BRANCH   8  13
ATOM     13  N   UNL A   1      33.833  29.963  26.905  1.00  0.00    -0.326 N 
ATOM     14  C   UNL A   1      35.887  29.718  28.289  1.00  0.00     0.114 C 
ATOM     15  C   UNL A   1      34.779  30.550  27.701  1.00  0.00     0.221 C 
ATOM     16  O   UNL A   1      34.754  31.772  27.859  1.00  0.00    -0.275 OA
ATOM     17  H   UNL A   1      33.262  30.592  26.407  1.00  0.00     0.169 HD
ENDBRANCH   8  13
ENDBRANCH   5   7
BRANCH   6  18
ATOM     18  C   UNL A   1      30.652  25.602  23.710  1.00  0.00    -0.025 A 
ATOM     19  C   UNL A   1      29.370  25.967  24.143  1.00  0.00     0.009 A 
ATOM     20  C   UNL A   1      31.324  26.379  22.758  1.00  0.00     0.009 A 
ATOM     21  C   UNL A   1      28.823  27.182  23.740  1.00  0.00     0.021 A 
ATOM     22  C   UNL A   1      30.777  27.598  22.350  1.00  0.00     0.021 A 
ATOM     23  C   UNL A   1      29.550  28.010  22.879  1.00  0.00     0.067 A 
BRANCH  23  24
ATOM     24  S   UNL A   1      29.010  29.690  22.653  1.00  0.00     0.175 S 
ATOM     25  C   UNL A   1      27.278  29.635  23.006  1.00  0.00     0.163 C 
ATOM     26  O   UNL A   1      29.661  30.480  23.680  1.00  0.00    -0.224 OA
ATOM     27  O   UNL A   1      29.178  30.018  21.251  1.00  0.00    -0.224 OA
ENDBRANCH  23  24
ENDBRANCH   6  18
ENDBRANCH   3   5
ENDBRANCH   2   3
ENDBRANCH   1   2
BRANCH   1  28
ATOM     28  C   UNL A   1      35.851  21.541  25.723  1.00  0.00     0.275 C 
BRANCH  28  29
ATOM     29  O   UNL A   1      37.065  22.144  25.248  1.00  0.00    -0.458 OA
BRANCH  29  30
ATOM     30  C   UNL A   1      38.222  21.700  25.780  1.00  0.00     0.338 C 
ATOM     31  O   UNL A   1      38.676  20.565  25.750  1.00  0.00    -0.246 OA
BRANCH  30  32
ATOM     32  C   UNL A   1      38.922  22.844  26.391  1.00  0.00     0.060 A 
ATOM     33  C   UNL A   1      38.461  24.130  26.128  1.00  0.00     0.016 A 
ATOM     34  C   UNL A   1      40.081  22.666  27.143  1.00  0.00     0.016 A 
ATOM     35  C   UNL A   1      39.206  25.239  26.527  1.00  0.00     0.010 A 
ATOM     36  C   UNL A   1      40.773  23.787  27.627  1.00  0.00     0.010 A 
ATOM     37  C   UNL A   1      40.374  25.093  27.285  1.00  0.00    -0.014 A 
BRANCH  37  38
ATOM     38  C   UNL A   1      41.224  26.279  27.625  1.00  0.00     0.031 A 
ATOM     39  C   UNL A   1      40.672  27.358  28.528  1.00  0.00     0.074 A 
ATOM     40  C   UNL A   1      42.510  26.384  27.227  1.00  0.00     0.049 A 
ATOM     41  N   UNL A   1      41.134  28.559  28.770  1.00  0.00    -0.248 NA
ATOM     42  C   UNL A   1      39.440  27.035  29.265  1.00  0.00     0.031 C 
ATOM     43  C   UNL A   1      43.254  25.382  26.465  1.00  0.00     0.029 A 
ATOM     44  N   UNL A   1      43.435  27.385  27.434  1.00  0.00    -0.354 N 
ATOM     45  C   UNL A   1      40.221  29.152  29.633  1.00  0.00     0.074 A 
ATOM     46  C   UNL A   1      39.180  28.178  29.882  1.00  0.00     0.031 C 
ATOM     47  C   UNL A   1      44.526  25.786  26.325  1.00  0.00     0.029 A 
ATOM     48  C   UNL A   1      44.660  27.135  26.864  1.00  0.00     0.049 A 
ATOM     49  H   UNL A   1      43.235  28.204  27.945  1.00  0.00     0.167 HD
ATOM     50  C   UNL A   1      40.242  30.398  30.165  1.00  0.00     0.037 A 
ATOM     51  C   UNL A   1      45.749  27.918  26.723  1.00  0.00     0.037 A 
ATOM     52  C   UNL A   1      41.302  31.351  29.971  1.00  0.00     0.049 A 
ATOM     53  C   UNL A   1      45.705  29.341  27.213  1.00  0.00     0.074 A 
ATOM     54  C   UNL A   1      41.382  32.660  30.418  1.00  0.00     0.029 A 
ATOM     55  N   UNL A   1      42.482  31.087  29.296  1.00  0.00    -0.354 N 
ATOM     56  N   UNL A   1      44.765  29.954  27.887  1.00  0.00    -0.248 NA
ATOM     57  C   UNL A   1      46.855  30.195  26.877  1.00  0.00     0.031 C 
ATOM     58  C   UNL A   1      42.598  33.197  29.985  1.00  0.00     0.029 A 
ATOM     59  C   UNL A   1      43.290  32.212  29.300  1.00  0.00     0.049 A 
ATOM     60  H   UNL A   1      42.713  30.227  28.877  1.00  0.00     0.167 HD
ATOM     61  C   UNL A   1      45.212  31.256  28.067  1.00  0.00     0.074 A 
ATOM     62  C   UNL A   1      46.513  31.346  27.442  1.00  0.00     0.031 C 
ATOM     63  C   UNL A   1      44.590  32.288  28.687  1.00  0.00     0.037 A 
BRANCH  50  64
ATOM     64  C   UNL A   1      39.051  30.827  30.969  1.00  0.00     0.064 A 
ATOM     65  C   UNL A   1      37.990  31.546  30.402  1.00  0.00     0.173 A 
ATOM     66  C   UNL A   1      38.961  30.479  32.326  1.00  0.00     0.173 A 
ATOM     67  F   UNL A   1      38.040  31.921  29.115  1.00  0.00    -0.203 F 
ATOM     68  C   UNL A   1      36.890  31.918  31.172  1.00  0.00     0.198 A 
ATOM     69  C   UNL A   1      37.850  30.832  33.085  1.00  0.00     0.198 A 
ATOM     70  F   UNL A   1      39.951  29.788  32.913  1.00  0.00    -0.203 F 
ATOM     71  F   UNL A   1      35.904  32.641  30.622  1.00  0.00    -0.200 F 
ATOM     72  C   UNL A   1      36.818  31.555  32.508  1.00  0.00     0.200 A 
ATOM     73  F   UNL A   1      37.780  30.472  34.374  1.00  0.00    -0.200 F 
ATOM     74  F   UNL A   1      35.756  31.911  33.245  1.00  0.00    -0.200 F 
ENDBRANCH  50  64
BRANCH  51  75
ATOM     75  C   UNL A   1      46.948  27.403  26.003  1.00  0.00     0.064 A 
ATOM     76  C   UNL A   1      47.980  26.748  26.687  1.00  0.00     0.173 A 
ATOM     77  C   UNL A   1      47.089  27.567  24.615  1.00  0.00     0.173 A 
ATOM     78  F   UNL A   1      47.915  26.602  28.019  1.00  0.00    -0.203 F 
ATOM     79  C   UNL A   1      49.103  26.272  26.011  1.00  0.00     0.198 A 
ATOM     80  C   UNL A   1      48.193  27.059  23.937  1.00  0.00     0.198 A 
ATOM     81  F   UNL A   1      46.139  28.202  23.913  1.00  0.00    -0.203 F 
ATOM     82  F   UNL A   1      50.095  25.684  26.694  1.00  0.00    -0.200 F 
ATOM     83  C   UNL A   1      49.202  26.416  24.635  1.00  0.00     0.200 A 
ATOM     84  F   UNL A   1      48.276  27.191  22.606  1.00  0.00    -0.200 F 
ATOM     85  F   UNL A   1      50.275  25.946  23.983  1.00  0.00    -0.200 F 
ENDBRANCH  51  75
BRANCH  63  86
ATOM     86  C   UNL A   1      45.313  33.599  28.750  1.00  0.00     0.064 A 
ATOM     87  C   UNL A   1      46.232  33.878  29.771  1.00  0.00     0.173 A 
ATOM     88  C   UNL A   1      45.139  34.555  27.739  1.00  0.00     0.173 A 
ATOM     89  F   UNL A   1      46.421  32.998  30.767  1.00  0.00    -0.203 F 
ATOM     90  C   UNL A   1      46.945  35.072  29.782  1.00  0.00     0.198 A 
ATOM     91  C   UNL A   1      45.869  35.741  27.742  1.00  0.00     0.198 A 
ATOM     92  F   UNL A   1      44.275  34.331  26.737  1.00  0.00    -0.203 F 
ATOM     93  F   UNL A   1      47.801  35.331  30.781  1.00  0.00    -0.200 F 
ATOM     94  C   UNL A   1      46.770  35.999  28.764  1.00  0.00     0.200 A 
ATOM     95  F   UNL A   1      45.707  36.629  26.752  1.00  0.00    -0.200 F 
ATOM     96  F   UNL A   1      47.468  37.142  28.770  1.00  0.00    -0.200 F 
ENDBRANCH  63  86
ENDBRANCH  37  38
ENDBRANCH  30  32
ENDBRANCH  29  30
ENDBRANCH  28  29
ENDBRANCH   1  28
TORSDOF 15
ENDMDL
