MODEL 1
REMARK VINA RESULT:     -12.1      0.000      0.000
REMARK SMILES O=C(OCCOC(=O)c1ccc(-c2c3nc(c(-c4c(F)c(F)c(F)c(F)c4F)c4ccc([nH]4)c(-c4c(F)c(F)c(F)c(F)c4F)c4nc(c(-c5c(F)c(F)c(F)c(F)c5F)c5ccc2[nH]5)C=C4)C=C3)cc1)c1ccc(CN2C(=O)CSC2=S)cc1
REMARK SMILES IDX 4 1 3 2 2 3 1 4 72 5 73 6 85 7 74 8 84 9 75 10 76 11 77 12
REMARK SMILES IDX 78 13 82 14 79 15 80 16 81 17 83 18 5 19 6 20 7 21 8 22 9 23
REMARK SMILES IDX 10 24 71 25 11 26 70 27 12 28 13 29 14 30 64 31 15 32 69 33
REMARK SMILES IDX 63 34 65 35 16 36 68 37 62 38 61 39 17 41 49 42 29 43 48 44
REMARK SMILES IDX 30 45 33 46 47 47 66 48 31 49 32 50 46 52 67 53 34 54 18 55
REMARK SMILES IDX 19 56 27 57 20 58 21 59 25 60 28 61 22 62 23 63 26 64 24 65
REMARK SMILES IDX 50 66 51 67 59 68 52 69 53 70 57 71 60 72 54 73 55 74 58 75
REMARK SMILES IDX 56 76 35 77 36 78 44 79 37 80 38 81 42 82 45 83 39 84 40 85
REMARK SMILES IDX 43 86 41 87
REMARK H PARENT 65 40 33 51
REMARK Flexibility Score: inf
ROOT
ATOM      1  C   UNL A   1      42.873  21.272  26.016  1.00  0.00     0.275 C 
ENDROOT
BRANCH   1   2
ATOM      2  O   UNL A   1      41.480  21.409  25.675  1.00  0.00    -0.458 OA
BRANCH   2   3
ATOM      3  C   UNL A   1      40.394  21.515  26.477  1.00  0.00     0.338 C 
ATOM      4  O   UNL A   1      40.430  20.970  27.580  1.00  0.00    -0.246 OA
BRANCH   3   5
ATOM      5  C   UNL A   1      39.085  22.124  26.054  1.00  0.00     0.060 A 
ATOM      6  C   UNL A   1      38.064  21.480  25.362  1.00  0.00     0.016 A 
ATOM      7  C   UNL A   1      38.842  23.452  26.455  1.00  0.00     0.016 A 
ATOM      8  C   UNL A   1      36.815  22.077  25.190  1.00  0.00     0.006 A 
ATOM      9  C   UNL A   1      37.608  24.079  26.225  1.00  0.00     0.006 A 
ATOM     10  C   UNL A   1      36.561  23.377  25.629  1.00  0.00    -0.028 A 
BRANCH  10  11
ATOM     11  C   UNL A   1      35.180  23.982  25.458  1.00  0.00     0.162 C 
BRANCH  11  12
ATOM     12  N   UNL A   1      34.229  22.964  25.016  1.00  0.00    -0.293 N 
ATOM     13  C   UNL A   1      34.032  22.778  23.659  1.00  0.00     0.238 C 
ATOM     14  C   UNL A   1      33.471  22.190  25.863  1.00  0.00     0.143 C 
ATOM     15  O   UNL A   1      34.720  23.264  22.766  1.00  0.00    -0.273 OA
ATOM     16  C   UNL A   1      32.795  21.974  23.379  1.00  0.00     0.177 C 
ATOM     17  S   UNL A   1      32.379  21.176  24.936  1.00  0.00    -0.086 SA
ATOM     18  S   UNL A   1      33.513  22.143  27.531  1.00  0.00    -0.052 S 
ENDBRANCH  11  12
ENDBRANCH  10  11
ENDBRANCH   3   5
ENDBRANCH   2   3
ENDBRANCH   1   2
BRANCH   1  19
ATOM     19  C   UNL A   1      43.800  22.023  25.047  1.00  0.00     0.275 C 
BRANCH  19  20
ATOM     20  O   UNL A   1      43.288  23.320  24.692  1.00  0.00    -0.458 OA
BRANCH  20  21
ATOM     21  C   UNL A   1      44.069  24.371  25.055  1.00  0.00     0.338 C 
ATOM     22  O   UNL A   1      45.154  24.660  24.577  1.00  0.00    -0.246 OA
BRANCH  21  23
ATOM     23  C   UNL A   1      43.367  25.228  26.043  1.00  0.00     0.060 A 
ATOM     24  C   UNL A   1      43.823  26.543  26.206  1.00  0.00     0.016 A 
ATOM     25  C   UNL A   1      42.290  24.770  26.809  1.00  0.00     0.016 A 
ATOM     26  C   UNL A   1      43.233  27.388  27.154  1.00  0.00     0.010 A 
ATOM     27  C   UNL A   1      41.690  25.623  27.747  1.00  0.00     0.010 A 
ATOM     28  C   UNL A   1      42.176  26.928  27.950  1.00  0.00    -0.014 A 
BRANCH  28  29
ATOM     29  C   UNL A   1      41.676  27.744  29.091  1.00  0.00     0.031 A 
ATOM     30  C   UNL A   1      42.366  27.635  30.423  1.00  0.00     0.074 A 
ATOM     31  C   UNL A   1      40.627  28.579  28.969  1.00  0.00     0.049 A 
ATOM     32  N   UNL A   1      42.078  28.217  31.560  1.00  0.00    -0.248 NA
ATOM     33  C   UNL A   1      43.539  26.749  30.479  1.00  0.00     0.031 C 
ATOM     34  C   UNL A   1      39.892  28.836  27.737  1.00  0.00     0.029 A 
ATOM     35  N   UNL A   1      39.988  29.358  29.906  1.00  0.00    -0.354 N 
ATOM     36  C   UNL A   1      43.034  27.773  32.463  1.00  0.00     0.074 A 
ATOM     37  C   UNL A   1      43.878  26.833  31.755  1.00  0.00     0.031 C 
ATOM     38  C   UNL A   1      38.877  29.678  27.995  1.00  0.00     0.029 A 
ATOM     39  C   UNL A   1      38.891  30.023  29.416  1.00  0.00     0.049 A 
ATOM     40  H   UNL A   1      40.289  29.430  30.841  1.00  0.00     0.167 HD
ATOM     41  C   UNL A   1      43.213  28.130  33.757  1.00  0.00     0.037 A 
ATOM     42  C   UNL A   1      37.999  30.818  30.040  1.00  0.00     0.037 A 
ATOM     43  C   UNL A   1      42.390  29.068  34.473  1.00  0.00     0.049 A 
ATOM     44  C   UNL A   1      38.166  31.137  31.505  1.00  0.00     0.074 A 
ATOM     45  C   UNL A   1      42.523  29.508  35.778  1.00  0.00     0.029 A 
ATOM     46  N   UNL A   1      41.275  29.702  33.948  1.00  0.00    -0.354 N 
ATOM     47  N   UNL A   1      39.103  30.751  32.334  1.00  0.00    -0.248 NA
ATOM     48  C   UNL A   1      37.156  32.016  32.114  1.00  0.00     0.031 C 
ATOM     49  C   UNL A   1      41.458  30.371  36.060  1.00  0.00     0.029 A 
ATOM     50  C   UNL A   1      40.692  30.508  34.913  1.00  0.00     0.049 A 
ATOM     51  H   UNL A   1      40.946  29.596  33.027  1.00  0.00     0.167 HD
ATOM     52  C   UNL A   1      38.825  31.376  33.544  1.00  0.00     0.074 A 
ATOM     53  C   UNL A   1      37.627  32.161  33.345  1.00  0.00     0.031 C 
ATOM     54  C   UNL A   1      39.513  31.308  34.710  1.00  0.00     0.037 A 
BRANCH  41  55
ATOM     55  C   UNL A   1      44.349  27.482  34.489  1.00  0.00     0.064 A 
ATOM     56  C   UNL A   1      44.187  26.264  35.165  1.00  0.00     0.173 A 
ATOM     57  C   UNL A   1      45.616  28.083  34.506  1.00  0.00     0.173 A 
ATOM     58  F   UNL A   1      42.989  25.659  35.191  1.00  0.00    -0.203 F 
ATOM     59  C   UNL A   1      45.245  25.688  35.863  1.00  0.00     0.198 A 
ATOM     60  C   UNL A   1      46.679  27.489  35.179  1.00  0.00     0.198 A 
ATOM     61  F   UNL A   1      45.821  29.245  33.870  1.00  0.00    -0.203 F 
ATOM     62  F   UNL A   1      45.054  24.553  36.550  1.00  0.00    -0.200 F 
ATOM     63  C   UNL A   1      46.491  26.298  35.865  1.00  0.00     0.200 A 
ATOM     64  F   UNL A   1      47.885  28.074  35.172  1.00  0.00    -0.200 F 
ATOM     65  F   UNL A   1      47.508  25.744  36.538  1.00  0.00    -0.200 F 
ENDBRANCH  41  55
BRANCH  42  66
ATOM     66  C   UNL A   1      36.857  31.390  29.279  1.00  0.00     0.064 A 
ATOM     67  C   UNL A   1      36.839  32.742  28.910  1.00  0.00     0.173 A 
ATOM     68  C   UNL A   1      35.746  30.603  28.940  1.00  0.00     0.173 A 
ATOM     69  F   UNL A   1      37.867  33.539  29.239  1.00  0.00    -0.203 F 
ATOM     70  C   UNL A   1      35.744  33.292  28.248  1.00  0.00     0.198 A 
ATOM     71  C   UNL A   1      34.660  31.149  28.259  1.00  0.00     0.198 A 
ATOM     72  F   UNL A   1      35.716  29.306  29.279  1.00  0.00    -0.203 F 
ATOM     73  F   UNL A   1      35.730  34.598  27.950  1.00  0.00    -0.200 F 
ATOM     74  C   UNL A   1      34.657  32.494  27.920  1.00  0.00     0.200 A 
ATOM     75  F   UNL A   1      33.612  30.377  27.945  1.00  0.00    -0.200 F 
ATOM     76  F   UNL A   1      33.600  33.026  27.291  1.00  0.00    -0.200 F 
ENDBRANCH  42  66
BRANCH  54  77
ATOM     77  C   UNL A   1      39.032  32.146  35.861  1.00  0.00     0.064 A 
ATOM     78  C   UNL A   1      38.232  31.612  36.882  1.00  0.00     0.173 A 
ATOM     79  C   UNL A   1      39.438  33.484  35.979  1.00  0.00     0.173 A 
ATOM     80  F   UNL A   1      37.805  30.343  36.811  1.00  0.00    -0.203 F 
ATOM     81  C   UNL A   1      37.846  32.392  37.971  1.00  0.00     0.198 A 
ATOM     82  C   UNL A   1      39.073  34.253  37.082  1.00  0.00     0.198 A 
ATOM     83  F   UNL A   1      40.209  34.043  35.033  1.00  0.00    -0.203 F 
ATOM     84  F   UNL A   1      37.055  31.871  38.919  1.00  0.00    -0.200 F 
ATOM     85  C   UNL A   1      38.274  33.707  38.074  1.00  0.00     0.200 A 
ATOM     86  F   UNL A   1      39.500  35.519  37.187  1.00  0.00    -0.200 F 
ATOM     87  F   UNL A   1      37.915  34.449  39.131  1.00  0.00    -0.200 F 
ENDBRANCH  54  77
ENDBRANCH  28  29
ENDBRANCH  21  23
ENDBRANCH  20  21
ENDBRANCH  19  20
ENDBRANCH   1  19
TORSDOF 13
ENDMDL
MODEL 2
REMARK VINA RESULT:     -11.8      5.749     10.865
REMARK SMILES O=C(OCCOC(=O)c1ccc(-c2c3nc(c(-c4c(F)c(F)c(F)c(F)c4F)c4ccc([nH]4)c(-c4c(F)c(F)c(F)c(F)c4F)c4nc(c(-c5c(F)c(F)c(F)c(F)c5F)c5ccc2[nH]5)C=C4)C=C3)cc1)c1ccc(CN2C(=O)CSC2=S)cc1
REMARK SMILES IDX 4 1 3 2 2 3 1 4 72 5 73 6 85 7 74 8 84 9 75 10 76 11 77 12
REMARK SMILES IDX 78 13 82 14 79 15 80 16 81 17 83 18 5 19 6 20 7 21 8 22 9 23
REMARK SMILES IDX 10 24 71 25 11 26 70 27 12 28 13 29 14 30 64 31 15 32 69 33
REMARK SMILES IDX 63 34 65 35 16 36 68 37 62 38 61 39 17 41 49 42 29 43 48 44
REMARK SMILES IDX 30 45 33 46 47 47 66 48 31 49 32 50 46 52 67 53 34 54 18 55
REMARK SMILES IDX 19 56 27 57 20 58 21 59 25 60 28 61 22 62 23 63 26 64 24 65
REMARK SMILES IDX 50 66 51 67 59 68 52 69 53 70 57 71 60 72 54 73 55 74 58 75
REMARK SMILES IDX 56 76 35 77 36 78 44 79 37 80 38 81 42 82 45 83 39 84 40 85
REMARK SMILES IDX 43 86 41 87
REMARK H PARENT 65 40 33 51
REMARK Flexibility Score: inf
ROOT
ATOM      1  C   UNL A   1      34.241  34.282  30.152  1.00  0.00     0.275 C 
ENDROOT
BRANCH   1   2
ATOM      2  O   UNL A   1      33.811  33.150  29.371  1.00  0.00    -0.458 OA
BRANCH   2   3
ATOM      3  C   UNL A   1      34.397  32.555  28.304  1.00  0.00     0.338 C 
ATOM      4  O   UNL A   1      35.208  33.208  27.647  1.00  0.00    -0.246 OA
BRANCH   3   5
ATOM      5  C   UNL A   1      34.015  31.200  27.775  1.00  0.00     0.060 A 
ATOM      6  C   UNL A   1      32.775  30.840  27.257  1.00  0.00     0.016 A 
ATOM      7  C   UNL A   1      35.027  30.221  27.738  1.00  0.00     0.016 A 
ATOM      8  C   UNL A   1      32.583  29.616  26.615  1.00  0.00     0.006 A 
ATOM      9  C   UNL A   1      34.818  28.964  27.152  1.00  0.00     0.006 A 
ATOM     10  C   UNL A   1      33.601  28.665  26.539  1.00  0.00    -0.028 A 
BRANCH  10  11
ATOM     11  C   UNL A   1      33.369  27.360  25.801  1.00  0.00     0.162 C 
BRANCH  11  12
ATOM     12  N   UNL A   1      32.205  27.470  24.925  1.00  0.00    -0.293 N 
ATOM     13  C   UNL A   1      30.993  26.958  25.357  1.00  0.00     0.238 C 
ATOM     14  C   UNL A   1      32.232  28.015  23.663  1.00  0.00     0.143 C 
ATOM     15  O   UNL A   1      30.748  26.577  26.498  1.00  0.00    -0.273 OA
ATOM     16  C   UNL A   1      30.010  26.826  24.231  1.00  0.00     0.177 C 
ATOM     17  S   UNL A   1      30.658  27.853  22.904  1.00  0.00    -0.086 SA
ATOM     18  S   UNL A   1      33.513  28.750  22.885  1.00  0.00    -0.052 S 
ENDBRANCH  11  12
ENDBRANCH  10  11
ENDBRANCH   3   5
ENDBRANCH   2   3
ENDBRANCH   1   2
BRANCH   1  19
ATOM     19  C   UNL A   1      34.395  33.952  31.644  1.00  0.00     0.275 C 
BRANCH  19  20
ATOM     20  O   UNL A   1      34.660  32.556  31.873  1.00  0.00    -0.458 OA
BRANCH  20  21
ATOM     21  C   UNL A   1      35.719  32.292  32.682  1.00  0.00     0.338 C 
ATOM     22  O   UNL A   1      35.772  32.489  33.886  1.00  0.00    -0.246 OA
BRANCH  21  23
ATOM     23  C   UNL A   1      36.792  31.595  31.930  1.00  0.00     0.060 A 
ATOM     24  C   UNL A   1      37.808  30.974  32.669  1.00  0.00     0.016 A 
ATOM     25  C   UNL A   1      36.825  31.546  30.533  1.00  0.00     0.016 A 
ATOM     26  C   UNL A   1      38.872  30.338  32.019  1.00  0.00     0.010 A 
ATOM     27  C   UNL A   1      37.884  30.896  29.883  1.00  0.00     0.010 A 
ATOM     28  C   UNL A   1      38.934  30.313  30.620  1.00  0.00    -0.014 A 
BRANCH  28  29
ATOM     29  C   UNL A   1      40.153  29.819  29.922  1.00  0.00     0.031 A 
ATOM     30  C   UNL A   1      41.290  30.774  29.677  1.00  0.00     0.074 A 
ATOM     31  C   UNL A   1      40.272  28.545  29.504  1.00  0.00     0.049 A 
ATOM     32  N   UNL A   1      42.425  30.574  29.056  1.00  0.00    -0.248 NA
ATOM     33  C   UNL A   1      41.123  32.136  30.205  1.00  0.00     0.031 C 
ATOM     34  C   UNL A   1      39.287  27.492  29.715  1.00  0.00     0.029 A 
ATOM     35  N   UNL A   1      41.277  27.924  28.800  1.00  0.00    -0.354 N 
ATOM     36  C   UNL A   1      43.107  31.781  29.123  1.00  0.00     0.074 A 
ATOM     37  C   UNL A   1      42.237  32.720  29.798  1.00  0.00     0.031 C 
ATOM     38  C   UNL A   1      39.710  26.364  29.119  1.00  0.00     0.029 A 
ATOM     39  C   UNL A   1      41.004  26.616  28.484  1.00  0.00     0.049 A 
ATOM     40  H   UNL A   1      42.114  28.376  28.545  1.00  0.00     0.167 HD
ATOM     41  C   UNL A   1      44.354  32.078  28.685  1.00  0.00     0.037 A 
ATOM     42  C   UNL A   1      41.712  25.723  27.764  1.00  0.00     0.037 A 
ATOM     43  C   UNL A   1      45.234  31.155  28.020  1.00  0.00     0.049 A 
ATOM     44  C   UNL A   1      43.063  26.100  27.210  1.00  0.00     0.074 A 
ATOM     45  C   UNL A   1      46.526  31.369  27.572  1.00  0.00     0.029 A 
ATOM     46  N   UNL A   1      44.911  29.847  27.698  1.00  0.00    -0.354 N 
ATOM     47  N   UNL A   1      43.719  27.228  27.324  1.00  0.00    -0.248 NA
ATOM     48  C   UNL A   1      43.778  25.070  26.441  1.00  0.00     0.031 C 
ATOM     49  C   UNL A   1      46.966  30.205  26.933  1.00  0.00     0.029 A 
ATOM     50  C   UNL A   1      45.968  29.250  27.030  1.00  0.00     0.049 A 
ATOM     51  H   UNL A   1      44.057  29.407  27.912  1.00  0.00     0.167 HD
ATOM     52  C   UNL A   1      44.937  27.028  26.686  1.00  0.00     0.074 A 
ATOM     53  C   UNL A   1      44.929  25.674  26.180  1.00  0.00     0.031 C 
ATOM     54  C   UNL A   1      45.971  27.894  26.546  1.00  0.00     0.037 A 
BRANCH  41  55
ATOM     55  C   UNL A   1      44.834  33.481  28.905  1.00  0.00     0.064 A 
ATOM     56  C   UNL A   1      45.537  33.844  30.063  1.00  0.00     0.173 A 
ATOM     57  C   UNL A   1      44.595  34.472  27.941  1.00  0.00     0.173 A 
ATOM     58  F   UNL A   1      45.775  32.935  31.020  1.00  0.00    -0.203 F 
ATOM     59  C   UNL A   1      45.952  35.156  30.264  1.00  0.00     0.198 A 
ATOM     60  C   UNL A   1      45.038  35.776  28.132  1.00  0.00     0.198 A 
ATOM     61  F   UNL A   1      43.931  34.172  26.814  1.00  0.00    -0.203 F 
ATOM     62  F   UNL A   1      46.572  35.494  31.404  1.00  0.00    -0.200 F 
ATOM     63  C   UNL A   1      45.708  36.120  29.297  1.00  0.00     0.200 A 
ATOM     64  F   UNL A   1      44.810  36.704  27.192  1.00  0.00    -0.200 F 
ATOM     65  F   UNL A   1      46.107  37.384  29.493  1.00  0.00    -0.200 F 
ENDBRANCH  41  55
BRANCH  42  66
ATOM     66  C   UNL A   1      41.163  24.361  27.528  1.00  0.00     0.064 A 
ATOM     67  C   UNL A   1      41.755  23.232  28.111  1.00  0.00     0.173 A 
ATOM     68  C   UNL A   1      40.062  24.161  26.683  1.00  0.00     0.173 A 
ATOM     69  F   UNL A   1      42.829  23.373  28.902  1.00  0.00    -0.203 F 
ATOM     70  C   UNL A   1      41.277  21.952  27.844  1.00  0.00     0.198 A 
ATOM     71  C   UNL A   1      39.571  22.881  26.433  1.00  0.00     0.198 A 
ATOM     72  F   UNL A   1      39.467  25.210  26.096  1.00  0.00    -0.203 F 
ATOM     73  F   UNL A   1      41.891  20.886  28.375  1.00  0.00    -0.200 F 
ATOM     74  C   UNL A   1      40.184  21.777  27.008  1.00  0.00     0.200 A 
ATOM     75  F   UNL A   1      38.516  22.715  25.625  1.00  0.00    -0.200 F 
ATOM     76  F   UNL A   1      39.730  20.544  26.744  1.00  0.00    -0.200 F 
ENDBRANCH  42  66
BRANCH  54  77
ATOM     77  C   UNL A   1      47.216  27.399  25.865  1.00  0.00     0.064 A 
ATOM     78  C   UNL A   1      47.405  27.529  24.482  1.00  0.00     0.173 A 
ATOM     79  C   UNL A   1      48.264  26.851  26.621  1.00  0.00     0.173 A 
ATOM     80  F   UNL A   1      46.430  28.033  23.711  1.00  0.00    -0.203 F 
ATOM     81  C   UNL A   1      48.592  27.117  23.880  1.00  0.00     0.198 A 
ATOM     82  C   UNL A   1      49.460  26.466  26.020  1.00  0.00     0.198 A 
ATOM     83  F   UNL A   1      48.138  26.710  27.950  1.00  0.00    -0.203 F 
ATOM     84  F   UNL A   1      48.739  27.221  22.552  1.00  0.00    -0.200 F 
ATOM     85  C   UNL A   1      49.621  26.595  24.650  1.00  0.00     0.200 A 
ATOM     86  F   UNL A   1      50.458  25.975  26.768  1.00  0.00    -0.200 F 
ATOM     87  F   UNL A   1      50.768  26.215  24.069  1.00  0.00    -0.200 F 
ENDBRANCH  54  77
ENDBRANCH  28  29
ENDBRANCH  21  23
ENDBRANCH  20  21
ENDBRANCH  19  20
ENDBRANCH   1  19
TORSDOF 13
ENDMDL
MODEL 3
REMARK VINA RESULT:     -11.5      3.558      8.803
REMARK SMILES O=C(OCCOC(=O)c1ccc(-c2c3nc(c(-c4c(F)c(F)c(F)c(F)c4F)c4ccc([nH]4)c(-c4c(F)c(F)c(F)c(F)c4F)c4nc(c(-c5c(F)c(F)c(F)c(F)c5F)c5ccc2[nH]5)C=C4)C=C3)cc1)c1ccc(CN2C(=O)CSC2=S)cc1
REMARK SMILES IDX 4 1 3 2 2 3 1 4 72 5 73 6 85 7 74 8 84 9 75 10 76 11 77 12
REMARK SMILES IDX 78 13 82 14 79 15 80 16 81 17 83 18 5 19 6 20 7 21 8 22 9 23
REMARK SMILES IDX 10 24 71 25 11 26 70 27 12 28 13 29 14 30 64 31 15 32 69 33
REMARK SMILES IDX 63 34 65 35 16 36 68 37 62 38 61 39 17 41 49 42 29 43 48 44
REMARK SMILES IDX 30 45 33 46 47 47 66 48 31 49 32 50 46 52 67 53 34 54 18 55
REMARK SMILES IDX 19 56 27 57 20 58 21 59 25 60 28 61 22 62 23 63 26 64 24 65
REMARK SMILES IDX 50 66 51 67 59 68 52 69 53 70 57 71 60 72 54 73 55 74 58 75
REMARK SMILES IDX 56 76 35 77 36 78 44 79 37 80 38 81 42 82 45 83 39 84 40 85
REMARK SMILES IDX 43 86 41 87
REMARK H PARENT 65 40 33 51
REMARK Flexibility Score: inf
ROOT
ATOM      1  C   UNL A   1      31.403  31.969  26.800  1.00  0.00     0.275 C 
ENDROOT
BRANCH   1   2
ATOM      2  O   UNL A   1      32.051  30.858  26.151  1.00  0.00    -0.458 OA
BRANCH   2   3
ATOM      3  C   UNL A   1      32.792  29.853  26.678  1.00  0.00     0.338 C 
ATOM      4  O   UNL A   1      33.813  30.148  27.299  1.00  0.00    -0.246 OA
BRANCH   3   5
ATOM      5  C   UNL A   1      32.535  28.393  26.429  1.00  0.00     0.060 A 
ATOM      6  C   UNL A   1      31.335  27.721  26.640  1.00  0.00     0.016 A 
ATOM      7  C   UNL A   1      33.589  27.648  25.864  1.00  0.00     0.016 A 
ATOM      8  C   UNL A   1      31.146  26.413  26.194  1.00  0.00     0.006 A 
ATOM      9  C   UNL A   1      33.422  26.311  25.474  1.00  0.00     0.006 A 
ATOM     10  C   UNL A   1      32.179  25.691  25.593  1.00  0.00    -0.028 A 
BRANCH  10  11
ATOM     11  C   UNL A   1      31.927  24.283  25.087  1.00  0.00     0.162 C 
BRANCH  11  12
ATOM     12  N   UNL A   1      32.752  23.324  25.818  1.00  0.00    -0.293 N 
ATOM     13  C   UNL A   1      32.385  22.972  27.106  1.00  0.00     0.238 C 
ATOM     14  C   UNL A   1      33.910  22.766  25.330  1.00  0.00     0.143 C 
ATOM     15  O   UNL A   1      31.316  23.248  27.642  1.00  0.00    -0.273 OA
ATOM     16  C   UNL A   1      33.500  22.278  27.834  1.00  0.00     0.177 C 
ATOM     17  S   UNL A   1      34.656  21.757  26.558  1.00  0.00    -0.086 SA
ATOM     18  S   UNL A   1      34.584  22.950  23.815  1.00  0.00    -0.052 S 
ENDBRANCH  11  12
ENDBRANCH  10  11
ENDBRANCH   3   5
ENDBRANCH   2   3
ENDBRANCH   1   2
BRANCH   1  19
ATOM     19  C   UNL A   1      32.288  33.224  26.858  1.00  0.00     0.275 C 
BRANCH  19  20
ATOM     20  O   UNL A   1      32.434  33.732  28.196  1.00  0.00    -0.458 OA
BRANCH  20  21
ATOM     21  C   UNL A   1      33.536  34.497  28.408  1.00  0.00     0.338 C 
ATOM     22  O   UNL A   1      33.583  35.716  28.378  1.00  0.00    -0.246 OA
BRANCH  21  23
ATOM     23  C   UNL A   1      34.687  33.655  28.824  1.00  0.00     0.060 A 
ATOM     24  C   UNL A   1      34.417  32.520  29.599  1.00  0.00     0.016 A 
ATOM     25  C   UNL A   1      36.007  33.959  28.479  1.00  0.00     0.016 A 
ATOM     26  C   UNL A   1      35.462  31.710  30.060  1.00  0.00     0.010 A 
ATOM     27  C   UNL A   1      37.052  33.138  28.929  1.00  0.00     0.010 A 
ATOM     28  C   UNL A   1      36.791  32.025  29.750  1.00  0.00    -0.014 A 
BRANCH  28  29
ATOM     29  C   UNL A   1      37.915  31.292  30.396  1.00  0.00     0.031 A 
ATOM     30  C   UNL A   1      38.277  31.620  31.818  1.00  0.00     0.074 A 
ATOM     31  C   UNL A   1      38.617  30.342  29.749  1.00  0.00     0.049 A 
ATOM     32  N   UNL A   1      39.241  31.140  32.564  1.00  0.00    -0.248 NA
ATOM     33  C   UNL A   1      37.439  32.625  32.489  1.00  0.00     0.031 C 
ATOM     34  C   UNL A   1      38.353  29.875  28.394  1.00  0.00     0.029 A 
ATOM     35  N   UNL A   1      39.710  29.609  30.147  1.00  0.00    -0.354 N 
ATOM     36  C   UNL A   1      39.121  31.780  33.790  1.00  0.00     0.074 A 
ATOM     37  C   UNL A   1      38.026  32.719  33.671  1.00  0.00     0.031 C 
ATOM     38  C   UNL A   1      39.281  28.964  28.052  1.00  0.00     0.029 A 
ATOM     39  C   UNL A   1      40.206  28.781  29.170  1.00  0.00     0.049 A 
ATOM     40  H   UNL A   1      40.101  29.673  31.049  1.00  0.00     0.167 HD
ATOM     41  C   UNL A   1      39.840  31.589  34.922  1.00  0.00     0.037 A 
ATOM     42  C   UNL A   1      41.283  27.971  29.173  1.00  0.00     0.037 A 
ATOM     43  C   UNL A   1      40.924  30.654  35.061  1.00  0.00     0.049 A 
ATOM     44  C   UNL A   1      42.123  27.835  30.418  1.00  0.00     0.074 A 
ATOM     45  C   UNL A   1      41.684  30.378  36.184  1.00  0.00     0.029 A 
ATOM     46  N   UNL A   1      41.411  29.852  34.041  1.00  0.00    -0.354 N 
ATOM     47  N   UNL A   1      41.969  28.407  31.587  1.00  0.00    -0.248 NA
ATOM     48  C   UNL A   1      43.279  26.927  30.347  1.00  0.00     0.031 C 
ATOM     49  C   UNL A   1      42.664  29.444  35.831  1.00  0.00     0.029 A 
ATOM     50  C   UNL A   1      42.481  29.101  34.501  1.00  0.00     0.049 A 
ATOM     51  H   UNL A   1      41.050  29.820  33.126  1.00  0.00     0.167 HD
ATOM     52  C   UNL A   1      42.973  27.894  32.400  1.00  0.00     0.074 A 
ATOM     53  C   UNL A   1      43.737  26.970  31.591  1.00  0.00     0.031 C 
ATOM     54  C   UNL A   1      43.227  28.162  33.704  1.00  0.00     0.037 A 
BRANCH  41  55
ATOM     55  C   UNL A   1      39.474  32.430  36.108  1.00  0.00     0.064 A 
ATOM     56  C   UNL A   1      40.107  33.655  36.362  1.00  0.00     0.173 A 
ATOM     57  C   UNL A   1      38.472  32.009  36.994  1.00  0.00     0.173 A 
ATOM     58  F   UNL A   1      41.083  34.092  35.551  1.00  0.00    -0.203 F 
ATOM     59  C   UNL A   1      39.775  34.412  37.481  1.00  0.00     0.198 A 
ATOM     60  C   UNL A   1      38.122  32.783  38.095  1.00  0.00     0.198 A 
ATOM     61  F   UNL A   1      37.834  30.847  36.790  1.00  0.00    -0.203 F 
ATOM     62  F   UNL A   1      40.433  35.552  37.737  1.00  0.00    -0.200 F 
ATOM     63  C   UNL A   1      38.780  33.978  38.344  1.00  0.00     0.200 A 
ATOM     64  F   UNL A   1      37.152  32.368  38.923  1.00  0.00    -0.200 F 
ATOM     65  F   UNL A   1      38.462  34.707  39.423  1.00  0.00    -0.200 F 
ENDBRANCH  41  55
BRANCH  42  66
ATOM     66  C   UNL A   1      41.634  27.201  27.951  1.00  0.00     0.064 A 
ATOM     67  C   UNL A   1      41.140  25.905  27.746  1.00  0.00     0.173 A 
ATOM     68  C   UNL A   1      42.501  27.732  26.984  1.00  0.00     0.173 A 
ATOM     69  F   UNL A   1      40.332  25.345  28.659  1.00  0.00    -0.203 F 
ATOM     70  C   UNL A   1      41.515  25.162  26.630  1.00  0.00     0.198 A 
ATOM     71  C   UNL A   1      42.859  26.996  25.857  1.00  0.00     0.198 A 
ATOM     72  F   UNL A   1      43.004  28.966  27.141  1.00  0.00    -0.203 F 
ATOM     73  F   UNL A   1      41.069  23.907  26.482  1.00  0.00    -0.200 F 
ATOM     74  C   UNL A   1      42.371  25.709  25.685  1.00  0.00     0.200 A 
ATOM     75  F   UNL A   1      43.686  27.526  24.947  1.00  0.00    -0.200 F 
ATOM     76  F   UNL A   1      42.739  24.989  24.615  1.00  0.00    -0.200 F 
ENDBRANCH  42  66
BRANCH  54  77
ATOM     77  C   UNL A   1      44.343  27.411  34.373  1.00  0.00     0.064 A 
ATOM     78  C   UNL A   1      44.160  26.121  34.893  1.00  0.00     0.173 A 
ATOM     79  C   UNL A   1      45.632  27.964  34.432  1.00  0.00     0.173 A 
ATOM     80  F   UNL A   1      42.946  25.552  34.874  1.00  0.00    -0.203 F 
ATOM     81  C   UNL A   1      45.223  25.419  35.457  1.00  0.00     0.198 A 
ATOM     82  C   UNL A   1      46.698  27.249  34.972  1.00  0.00     0.198 A 
ATOM     83  F   UNL A   1      45.863  29.192  33.944  1.00  0.00    -0.203 F 
ATOM     84  F   UNL A   1      45.018  24.201  35.976  1.00  0.00    -0.200 F 
ATOM     85  C   UNL A   1      46.491  25.979  35.488  1.00  0.00     0.200 A 
ATOM     86  F   UNL A   1      47.925  27.786  34.987  1.00  0.00    -0.200 F 
ATOM     87  F   UNL A   1      47.516  25.294  36.016  1.00  0.00    -0.200 F 
ENDBRANCH  54  77
ENDBRANCH  28  29
ENDBRANCH  21  23
ENDBRANCH  20  21
ENDBRANCH  19  20
ENDBRANCH   1  19
TORSDOF 13
ENDMDL
