MODEL 1
REMARK VINA RESULT:     -11.5      0.000      0.000
REMARK SMILES CCOC(=O)C1=C(C)N(c2ccccc2)C(=O)[C@@H]1CC(=O)OCCOC(=O)c1ccc(-c2c3nc(c(-c4c(F)c(F)c(F)c(F)c4F)c4ccc([nH]4)c(-c4c(F)c(F)c(F)c(F)c4F)c4nc(c(-c5c(F)c(F)c(F)c(F)c5F)c5ccc2[nH]5)C=C4)C=C3)cc1
REMARK SMILES IDX 23 1 22 2 20 3 21 4 19 5 18 6 6 7 7 8 8 9 9 10 16 11 17 12
REMARK SMILES IDX 4 13 5 14 3 15 2 16 1 17 10 18 11 19 15 20 12 21 14 22 13 23
REMARK SMILES IDX 24 24 25 25 26 26 27 27 28 28 29 29 90 30 30 31 89 32 31 33
REMARK SMILES IDX 32 34 33 35 83 36 34 37 88 38 82 39 84 40 35 41 87 42 81 43
REMARK SMILES IDX 80 44 36 46 68 47 48 48 67 49 49 50 52 51 66 52 85 53 50 54
REMARK SMILES IDX 51 55 65 57 86 58 53 59 37 60 38 61 46 62 39 63 40 64 44 65
REMARK SMILES IDX 47 66 41 67 42 68 45 69 43 70 69 71 70 72 78 73 71 74 72 75
REMARK SMILES IDX 76 76 79 77 73 78 74 79 77 80 75 81 54 82 55 83 63 84 56 85
REMARK SMILES IDX 57 86 61 87 64 88 58 89 59 90 62 91 60 92
REMARK H PARENT 84 45 52 56
REMARK Flexibility Score: inf
ROOT
ATOM      1  C   UNL A   1      31.623  29.313  24.482  1.00  0.00     0.274 C 
ENDROOT
BRANCH   1   2
ATOM      2  O   UNL A   1      32.039  27.990  24.863  1.00  0.00    -0.462 OA
BRANCH   2   3
ATOM      3  C   UNL A   1      32.297  27.092  23.891  1.00  0.00     0.307 C 
ATOM      4  O   UNL A   1      31.596  26.901  22.906  1.00  0.00    -0.252 OA
BRANCH   3   5
ATOM      5  C   UNL A   1      33.543  26.286  24.181  1.00  0.00     0.141 C 
BRANCH   5   6
ATOM      6  C   UNL A   1      33.341  24.769  24.125  1.00  0.00     0.130 C 
ATOM      7  C   UNL A   1      32.935  24.207  25.464  1.00  0.00     0.070 C 
ATOM      8  C   UNL A   1      33.904  23.477  26.037  1.00  0.00     0.034 C 
ATOM      9  C   UNL A   1      33.924  22.888  27.406  1.00  0.00     0.065 C 
ATOM     10  N   UNL A   1      34.986  23.432  25.184  1.00  0.00    -0.284 N 
ATOM     11  C   UNL A   1      34.693  24.078  23.974  1.00  0.00     0.239 C 
ATOM     12  O   UNL A   1      35.395  24.106  22.972  1.00  0.00    -0.273 OA
BRANCH   7  13
ATOM     13  C   UNL A   1      31.665  24.544  26.106  1.00  0.00     0.336 C 
ATOM     14  O   UNL A   1      31.559  25.372  26.995  1.00  0.00    -0.246 OA
BRANCH  13  15
ATOM     15  O   UNL A   1      30.673  23.804  25.558  1.00  0.00    -0.463 OA
BRANCH  15  16
ATOM     16  C   UNL A   1      30.398  22.557  26.221  1.00  0.00     0.230 C 
ATOM     17  C   UNL A   1      29.371  22.735  27.327  1.00  0.00     0.049 C 
ENDBRANCH  15  16
ENDBRANCH  13  15
ENDBRANCH   7  13
BRANCH  10  18
ATOM     18  C   UNL A   1      36.276  22.904  25.416  1.00  0.00     0.049 A 
ATOM     19  C   UNL A   1      37.286  23.664  26.007  1.00  0.00     0.027 A 
ATOM     20  C   UNL A   1      36.542  21.577  25.045  1.00  0.00     0.027 A 
ATOM     21  C   UNL A   1      38.547  23.100  26.223  1.00  0.00     0.002 A 
ATOM     22  C   UNL A   1      37.808  21.028  25.230  1.00  0.00     0.002 A 
ATOM     23  C   UNL A   1      38.810  21.790  25.823  1.00  0.00     0.000 A 
ENDBRANCH  10  18
ENDBRANCH   5   6
ENDBRANCH   3   5
ENDBRANCH   2   3
ENDBRANCH   1   2
BRANCH   1  24
ATOM     24  C   UNL A   1      31.637  30.262  25.681  1.00  0.00     0.275 C 
BRANCH  24  25
ATOM     25  O   UNL A   1      32.850  30.100  26.444  1.00  0.00    -0.458 OA
BRANCH  25  26
ATOM     26  C   UNL A   1      33.316  31.222  27.036  1.00  0.00     0.338 C 
ATOM     27  O   UNL A   1      32.752  32.294  27.163  1.00  0.00    -0.246 OA
BRANCH  26  28
ATOM     28  C   UNL A   1      34.620  30.946  27.650  1.00  0.00     0.060 A 
ATOM     29  C   UNL A   1      34.955  29.620  27.940  1.00  0.00     0.016 A 
ATOM     30  C   UNL A   1      35.457  31.994  28.030  1.00  0.00     0.016 A 
ATOM     31  C   UNL A   1      36.133  29.332  28.621  1.00  0.00     0.010 A 
ATOM     32  C   UNL A   1      36.643  31.703  28.707  1.00  0.00     0.010 A 
ATOM     33  C   UNL A   1      36.980  30.374  29.019  1.00  0.00    -0.014 A 
BRANCH  33  34
ATOM     34  C   UNL A   1      38.196  30.074  29.810  1.00  0.00     0.031 A 
ATOM     35  C   UNL A   1      39.237  29.150  29.250  1.00  0.00     0.074 A 
ATOM     36  C   UNL A   1      38.361  30.633  31.023  1.00  0.00     0.049 A 
ATOM     37  N   UNL A   1      40.321  28.681  29.815  1.00  0.00    -0.248 NA
ATOM     38  C   UNL A   1      39.030  28.688  27.869  1.00  0.00     0.031 C 
ATOM     39  C   UNL A   1      37.436  31.577  31.648  1.00  0.00     0.029 A 
ATOM     40  N   UNL A   1      39.362  30.479  31.948  1.00  0.00    -0.354 N 
ATOM     41  C   UNL A   1      40.912  27.855  28.869  1.00  0.00     0.074 A 
ATOM     42  C   UNL A   1      40.058  27.867  27.701  1.00  0.00     0.031 C 
ATOM     43  C   UNL A   1      37.909  31.916  32.858  1.00  0.00     0.029 A 
ATOM     44  C   UNL A   1      39.142  31.174  33.112  1.00  0.00     0.049 A 
ATOM     45  H   UNL A   1      40.160  29.925  31.793  1.00  0.00     0.167 HD
ATOM     46  C   UNL A   1      42.067  27.154  28.970  1.00  0.00     0.037 A 
ATOM     47  C   UNL A   1      39.839  31.183  34.263  1.00  0.00     0.037 A 
ATOM     48  C   UNL A   1      42.915  27.155  30.135  1.00  0.00     0.049 A 
ATOM     49  C   UNL A   1      41.083  30.342  34.370  1.00  0.00     0.074 A 
ATOM     50  C   UNL A   1      44.113  26.492  30.331  1.00  0.00     0.029 A 
ATOM     51  N   UNL A   1      42.647  27.853  31.303  1.00  0.00    -0.354 N 
ATOM     52  N   UNL A   1      41.644  29.570  33.470  1.00  0.00    -0.248 NA
ATOM     53  C   UNL A   1      41.793  30.372  35.656  1.00  0.00     0.031 C 
ATOM     54  C   UNL A   1      44.545  26.747  31.637  1.00  0.00     0.029 A 
ATOM     55  C   UNL A   1      43.648  27.617  32.234  1.00  0.00     0.049 A 
ATOM     56  H   UNL A   1      41.864  28.431  31.451  1.00  0.00     0.167 HD
ATOM     57  C   UNL A   1      42.782  29.049  34.068  1.00  0.00     0.074 A 
ATOM     58  C   UNL A   1      42.843  29.603  35.404  1.00  0.00     0.031 C 
ATOM     59  C   UNL A   1      43.697  28.188  33.557  1.00  0.00     0.037 A 
BRANCH  46  60
ATOM     60  C   UNL A   1      42.470  26.304  27.800  1.00  0.00     0.064 A 
ATOM     61  C   UNL A   1      41.930  25.025  27.592  1.00  0.00     0.173 A 
ATOM     62  C   UNL A   1      43.379  26.792  26.848  1.00  0.00     0.173 A 
ATOM     63  F   UNL A   1      41.066  24.506  28.479  1.00  0.00    -0.203 F 
ATOM     64  C   UNL A   1      42.303  24.260  26.490  1.00  0.00     0.198 A 
ATOM     65  C   UNL A   1      43.728  26.036  25.733  1.00  0.00     0.198 A 
ATOM     66  F   UNL A   1      43.923  28.010  26.995  1.00  0.00    -0.203 F 
ATOM     67  F   UNL A   1      41.808  23.024  26.338  1.00  0.00    -0.200 F 
ATOM     68  C   UNL A   1      43.194  24.769  25.558  1.00  0.00     0.200 A 
ATOM     69  F   UNL A   1      44.578  26.535  24.825  1.00  0.00    -0.200 F 
ATOM     70  F   UNL A   1      43.545  24.033  24.493  1.00  0.00    -0.200 F 
ENDBRANCH  46  60
BRANCH  47  71
ATOM     71  C   UNL A   1      39.367  31.998  35.413  1.00  0.00     0.064 A 
ATOM     72  C   UNL A   1      38.518  31.451  36.384  1.00  0.00     0.173 A 
ATOM     73  C   UNL A   1      39.741  33.342  35.555  1.00  0.00     0.173 A 
ATOM     74  F   UNL A   1      38.112  30.178  36.280  1.00  0.00    -0.203 F 
ATOM     75  C   UNL A   1      38.040  32.226  37.441  1.00  0.00     0.198 A 
ATOM     76  C   UNL A   1      39.289  34.106  36.629  1.00  0.00     0.198 A 
ATOM     77  F   UNL A   1      40.551  33.914  34.653  1.00  0.00    -0.203 F 
ATOM     78  F   UNL A   1      37.186  31.694  38.325  1.00  0.00    -0.200 F 
ATOM     79  C   UNL A   1      38.432  33.550  37.566  1.00  0.00     0.200 A 
ATOM     80  F   UNL A   1      39.680  35.382  36.753  1.00  0.00    -0.200 F 
ATOM     81  F   UNL A   1      37.974  34.294  38.582  1.00  0.00    -0.200 F 
ENDBRANCH  47  71
BRANCH  59  82
ATOM     82  C   UNL A   1      44.867  27.830  34.428  1.00  0.00     0.064 A 
ATOM     83  C   UNL A   1      44.854  26.699  35.256  1.00  0.00     0.173 A 
ATOM     84  C   UNL A   1      46.032  28.613  34.404  1.00  0.00     0.173 A 
ATOM     85  F   UNL A   1      43.758  25.927  35.327  1.00  0.00    -0.203 F 
ATOM     86  C   UNL A   1      45.952  26.380  36.050  1.00  0.00     0.198 A 
ATOM     87  C   UNL A   1      47.141  28.272  35.173  1.00  0.00     0.198 A 
ATOM     88  F   UNL A   1      46.100  29.702  33.623  1.00  0.00    -0.203 F 
ATOM     89  F   UNL A   1      45.898  25.324  36.872  1.00  0.00    -0.200 F 
ATOM     90  C   UNL A   1      47.098  27.161  36.002  1.00  0.00     0.200 A 
ATOM     91  F   UNL A   1      48.252  29.021  35.113  1.00  0.00    -0.200 F 
ATOM     92  F   UNL A   1      48.156  26.848  36.760  1.00  0.00    -0.200 F 
ENDBRANCH  59  82
ENDBRANCH  33  34
ENDBRANCH  26  28
ENDBRANCH  25  26
ENDBRANCH  24  25
ENDBRANCH   1  24
TORSDOF 16
ENDMDL
MODEL 2
REMARK VINA RESULT:     -11.4      0.567      2.077
REMARK SMILES CCOC(=O)C1=C(C)N(c2ccccc2)C(=O)[C@@H]1CC(=O)OCCOC(=O)c1ccc(-c2c3nc(c(-c4c(F)c(F)c(F)c(F)c4F)c4ccc([nH]4)c(-c4c(F)c(F)c(F)c(F)c4F)c4nc(c(-c5c(F)c(F)c(F)c(F)c5F)c5ccc2[nH]5)C=C4)C=C3)cc1
REMARK SMILES IDX 23 1 22 2 20 3 21 4 19 5 18 6 6 7 7 8 8 9 9 10 16 11 17 12
REMARK SMILES IDX 4 13 5 14 3 15 2 16 1 17 10 18 11 19 15 20 12 21 14 22 13 23
REMARK SMILES IDX 24 24 25 25 26 26 27 27 28 28 29 29 90 30 30 31 89 32 31 33
REMARK SMILES IDX 32 34 33 35 83 36 34 37 88 38 82 39 84 40 35 41 87 42 81 43
REMARK SMILES IDX 80 44 36 46 68 47 48 48 67 49 49 50 52 51 66 52 85 53 50 54
REMARK SMILES IDX 51 55 65 57 86 58 53 59 37 60 38 61 46 62 39 63 40 64 44 65
REMARK SMILES IDX 47 66 41 67 42 68 45 69 43 70 69 71 70 72 78 73 71 74 72 75
REMARK SMILES IDX 76 76 79 77 73 78 74 79 77 80 75 81 54 82 55 83 63 84 56 85
REMARK SMILES IDX 57 86 61 87 64 88 58 89 59 90 62 91 60 92
REMARK H PARENT 84 45 52 56
REMARK Flexibility Score: inf
ROOT
ATOM      1  C   UNL A   1      31.355  29.323  24.587  1.00  0.00     0.274 C 
ENDROOT
BRANCH   1   2
ATOM      2  O   UNL A   1      32.627  28.816  24.146  1.00  0.00    -0.462 OA
BRANCH   2   3
ATOM      3  C   UNL A   1      32.662  27.622  23.520  1.00  0.00     0.307 C 
ATOM      4  O   UNL A   1      32.012  27.329  22.526  1.00  0.00    -0.252 OA
BRANCH   3   5
ATOM      5  C   UNL A   1      33.569  26.640  24.227  1.00  0.00     0.141 C 
BRANCH   5   6
ATOM      6  C   UNL A   1      33.176  25.171  24.041  1.00  0.00     0.130 C 
ATOM      7  C   UNL A   1      32.698  24.550  25.329  1.00  0.00     0.070 C 
ATOM      8  C   UNL A   1      33.565  23.656  25.828  1.00  0.00     0.034 C 
ATOM      9  C   UNL A   1      33.506  22.952  27.141  1.00  0.00     0.065 C 
ATOM     10  N   UNL A   1      34.635  23.548  24.965  1.00  0.00    -0.284 N 
ATOM     11  C   UNL A   1      34.429  24.330  23.819  1.00  0.00     0.239 C 
ATOM     12  O   UNL A   1      35.132  24.356  22.817  1.00  0.00    -0.273 OA
BRANCH   7  13
ATOM     13  C   UNL A   1      31.479  24.990  26.009  1.00  0.00     0.336 C 
ATOM     14  O   UNL A   1      31.446  25.326  27.180  1.00  0.00    -0.246 OA
BRANCH  13  15
ATOM     15  O   UNL A   1      30.443  24.956  25.139  1.00  0.00    -0.463 OA
BRANCH  15  16
ATOM     16  C   UNL A   1      29.598  26.120  25.143  1.00  0.00     0.230 C 
ATOM     17  C   UNL A   1      28.935  26.325  23.791  1.00  0.00     0.049 C 
ENDBRANCH  15  16
ENDBRANCH  13  15
ENDBRANCH   7  13
BRANCH  10  18
ATOM     18  C   UNL A   1      35.845  22.842  25.140  1.00  0.00     0.049 A 
ATOM     19  C   UNL A   1      36.980  23.450  25.679  1.00  0.00     0.027 A 
ATOM     20  C   UNL A   1      35.903  21.492  24.763  1.00  0.00     0.027 A 
ATOM     21  C   UNL A   1      38.157  22.714  25.839  1.00  0.00     0.002 A 
ATOM     22  C   UNL A   1      37.086  20.768  24.892  1.00  0.00     0.002 A 
ATOM     23  C   UNL A   1      38.212  21.379  25.434  1.00  0.00     0.000 A 
ENDBRANCH  10  18
ENDBRANCH   5   6
ENDBRANCH   3   5
ENDBRANCH   2   3
ENDBRANCH   1   2
BRANCH   1  24
ATOM     24  C   UNL A   1      31.528  30.343  25.713  1.00  0.00     0.275 C 
BRANCH  24  25
ATOM     25  O   UNL A   1      32.826  30.209  26.326  1.00  0.00    -0.458 OA
BRANCH  25  26
ATOM     26  C   UNL A   1      33.255  31.290  27.014  1.00  0.00     0.338 C 
ATOM     27  O   UNL A   1      32.662  32.334  27.219  1.00  0.00    -0.246 OA
BRANCH  26  28
ATOM     28  C   UNL A   1      34.557  30.996  27.625  1.00  0.00     0.060 A 
ATOM     29  C   UNL A   1      34.847  29.675  27.979  1.00  0.00     0.016 A 
ATOM     30  C   UNL A   1      35.439  32.029  27.938  1.00  0.00     0.016 A 
ATOM     31  C   UNL A   1      36.023  29.378  28.658  1.00  0.00     0.010 A 
ATOM     32  C   UNL A   1      36.624  31.729  28.614  1.00  0.00     0.010 A 
ATOM     33  C   UNL A   1      36.915  30.405  28.990  1.00  0.00    -0.014 A 
BRANCH  33  34
ATOM     34  C   UNL A   1      38.131  30.100  29.779  1.00  0.00     0.031 A 
ATOM     35  C   UNL A   1      39.164  29.166  29.221  1.00  0.00     0.074 A 
ATOM     36  C   UNL A   1      38.303  30.663  30.989  1.00  0.00     0.049 A 
ATOM     37  N   UNL A   1      40.246  28.692  29.785  1.00  0.00    -0.248 NA
ATOM     38  C   UNL A   1      38.950  28.699  27.842  1.00  0.00     0.031 C 
ATOM     39  C   UNL A   1      37.386  31.617  31.612  1.00  0.00     0.029 A 
ATOM     40  N   UNL A   1      39.306  30.507  31.912  1.00  0.00    -0.354 N 
ATOM     41  C   UNL A   1      40.829  27.858  28.842  1.00  0.00     0.074 A 
ATOM     42  C   UNL A   1      39.971  27.871  27.675  1.00  0.00     0.031 C 
ATOM     43  C   UNL A   1      37.865  31.958  32.820  1.00  0.00     0.029 A 
ATOM     44  C   UNL A   1      39.093  31.209  33.074  1.00  0.00     0.049 A 
ATOM     45  H   UNL A   1      40.099  29.946  31.758  1.00  0.00     0.167 HD
ATOM     46  C   UNL A   1      41.978  27.149  28.942  1.00  0.00     0.037 A 
ATOM     47  C   UNL A   1      39.793  31.217  34.223  1.00  0.00     0.037 A 
ATOM     48  C   UNL A   1      42.829  27.149  30.105  1.00  0.00     0.049 A 
ATOM     49  C   UNL A   1      41.032  30.368  34.331  1.00  0.00     0.074 A 
ATOM     50  C   UNL A   1      44.023  26.478  30.301  1.00  0.00     0.029 A 
ATOM     51  N   UNL A   1      42.570  27.854  31.271  1.00  0.00    -0.354 N 
ATOM     52  N   UNL A   1      41.584  29.588  33.433  1.00  0.00    -0.248 NA
ATOM     53  C   UNL A   1      41.745  30.399  35.615  1.00  0.00     0.031 C 
ATOM     54  C   UNL A   1      44.461  26.736  31.605  1.00  0.00     0.029 A 
ATOM     55  C   UNL A   1      43.571  27.616  32.200  1.00  0.00     0.049 A 
ATOM     56  H   UNL A   1      41.791  28.438  31.418  1.00  0.00     0.167 HD
ATOM     57  C   UNL A   1      42.721  29.062  34.030  1.00  0.00     0.074 A 
ATOM     58  C   UNL A   1      42.789  29.622  35.363  1.00  0.00     0.031 C 
ATOM     59  C   UNL A   1      43.628  28.192  33.520  1.00  0.00     0.037 A 
BRANCH  46  60
ATOM     60  C   UNL A   1      42.372  26.290  27.775  1.00  0.00     0.064 A 
ATOM     61  C   UNL A   1      43.343  26.700  26.848  1.00  0.00     0.173 A 
ATOM     62  C   UNL A   1      41.799  25.020  27.604  1.00  0.00     0.173 A 
ATOM     63  F   UNL A   1      43.912  27.911  26.958  1.00  0.00    -0.203 F 
ATOM     64  C   UNL A   1      43.708  25.880  25.783  1.00  0.00     0.198 A 
ATOM     65  C   UNL A   1      42.187  24.192  26.555  1.00  0.00     0.198 A 
ATOM     66  F   UNL A   1      40.869  24.577  28.464  1.00  0.00    -0.203 F 
ATOM     67  F   UNL A   1      44.604  26.312  24.885  1.00  0.00    -0.200 F 
ATOM     68  C   UNL A   1      43.136  24.625  25.642  1.00  0.00     0.200 A 
ATOM     69  F   UNL A   1      41.645  22.973  26.428  1.00  0.00    -0.200 F 
ATOM     70  F   UNL A   1      43.496  23.835  24.621  1.00  0.00    -0.200 F 
ENDBRANCH  46  60
BRANCH  47  71
ATOM     71  C   UNL A   1      39.331  32.041  35.371  1.00  0.00     0.064 A 
ATOM     72  C   UNL A   1      39.715  33.382  35.498  1.00  0.00     0.173 A 
ATOM     73  C   UNL A   1      38.512  31.499  36.372  1.00  0.00     0.173 A 
ATOM     74  F   UNL A   1      40.518  33.940  34.580  1.00  0.00    -0.203 F 
ATOM     75  C   UNL A   1      39.318  34.144  36.596  1.00  0.00     0.198 A 
ATOM     76  C   UNL A   1      38.088  32.271  37.452  1.00  0.00     0.198 A 
ATOM     77  F   UNL A   1      38.116  30.220  36.299  1.00  0.00    -0.203 F 
ATOM     78  F   UNL A   1      39.743  35.408  36.720  1.00  0.00    -0.200 F 
ATOM     79  C   UNL A   1      38.499  33.590  37.568  1.00  0.00     0.200 A 
ATOM     80  F   UNL A   1      37.287  31.735  38.383  1.00  0.00    -0.200 F 
ATOM     81  F   UNL A   1      38.116  34.322  38.622  1.00  0.00    -0.200 F 
ENDBRANCH  47  71
BRANCH  59  82
ATOM     82  C   UNL A   1      44.797  27.830  34.390  1.00  0.00     0.064 A 
ATOM     83  C   UNL A   1      45.973  28.595  34.405  1.00  0.00     0.173 A 
ATOM     84  C   UNL A   1      44.724  26.721  35.249  1.00  0.00     0.173 A 
ATOM     85  F   UNL A   1      46.099  29.655  33.592  1.00  0.00    -0.203 F 
ATOM     86  C   UNL A   1      47.043  28.247  35.226  1.00  0.00     0.198 A 
ATOM     87  C   UNL A   1      45.783  26.397  36.091  1.00  0.00     0.198 A 
ATOM     88  F   UNL A   1      43.620  25.961  35.279  1.00  0.00    -0.203 F 
ATOM     89  F   UNL A   1      48.175  28.962  35.185  1.00  0.00    -0.200 F 
ATOM     90  C   UNL A   1      46.944  27.154  36.074  1.00  0.00     0.200 A 
ATOM     91  F   UNL A   1      45.679  25.348  36.921  1.00  0.00    -0.200 F 
ATOM     92  F   UNL A   1      47.972  26.826  36.868  1.00  0.00    -0.200 F 
ENDBRANCH  59  82
ENDBRANCH  33  34
ENDBRANCH  26  28
ENDBRANCH  25  26
ENDBRANCH  24  25
ENDBRANCH   1  24
TORSDOF 16
ENDMDL
MODEL 3
REMARK VINA RESULT:     -11.3      1.301      2.618
REMARK SMILES CCOC(=O)C1=C(C)N(c2ccccc2)C(=O)[C@@H]1CC(=O)OCCOC(=O)c1ccc(-c2c3nc(c(-c4c(F)c(F)c(F)c(F)c4F)c4ccc([nH]4)c(-c4c(F)c(F)c(F)c(F)c4F)c4nc(c(-c5c(F)c(F)c(F)c(F)c5F)c5ccc2[nH]5)C=C4)C=C3)cc1
REMARK SMILES IDX 23 1 22 2 20 3 21 4 19 5 18 6 6 7 7 8 8 9 9 10 16 11 17 12
REMARK SMILES IDX 4 13 5 14 3 15 2 16 1 17 10 18 11 19 15 20 12 21 14 22 13 23
REMARK SMILES IDX 24 24 25 25 26 26 27 27 28 28 29 29 90 30 30 31 89 32 31 33
REMARK SMILES IDX 32 34 33 35 83 36 34 37 88 38 82 39 84 40 35 41 87 42 81 43
REMARK SMILES IDX 80 44 36 46 68 47 48 48 67 49 49 50 52 51 66 52 85 53 50 54
REMARK SMILES IDX 51 55 65 57 86 58 53 59 37 60 38 61 46 62 39 63 40 64 44 65
REMARK SMILES IDX 47 66 41 67 42 68 45 69 43 70 69 71 70 72 78 73 71 74 72 75
REMARK SMILES IDX 76 76 79 77 73 78 74 79 77 80 75 81 54 82 55 83 63 84 56 85
REMARK SMILES IDX 57 86 61 87 64 88 58 89 59 90 62 91 60 92
REMARK H PARENT 84 45 52 56
REMARK Flexibility Score: inf
ROOT
ATOM      1  C   UNL A   1      31.416  29.445  25.391  1.00  0.00     0.274 C 
ENDROOT
BRANCH   1   2
ATOM      2  O   UNL A   1      32.218  28.328  25.812  1.00  0.00    -0.462 OA
BRANCH   2   3
ATOM      3  C   UNL A   1      31.629  27.345  26.523  1.00  0.00     0.307 C 
ATOM      4  O   UNL A   1      31.121  27.482  27.627  1.00  0.00    -0.252 OA
BRANCH   3   5
ATOM      5  C   UNL A   1      31.715  26.009  25.819  1.00  0.00     0.141 C 
BRANCH   5   6
ATOM      6  C   UNL A   1      33.108  25.666  25.284  1.00  0.00     0.130 C 
ATOM      7  C   UNL A   1      33.112  25.512  23.784  1.00  0.00     0.070 C 
ATOM      8  C   UNL A   1      33.279  24.240  23.392  1.00  0.00     0.034 C 
ATOM      9  C   UNL A   1      33.196  23.684  22.011  1.00  0.00     0.065 C 
ATOM     10  N   UNL A   1      33.442  23.451  24.511  1.00  0.00    -0.284 N 
ATOM     11  C   UNL A   1      33.469  24.236  25.673  1.00  0.00     0.239 C 
ATOM     12  O   UNL A   1      33.718  23.852  26.808  1.00  0.00    -0.273 OA
BRANCH   7  13
ATOM     13  C   UNL A   1      32.829  26.626  22.878  1.00  0.00     0.336 C 
ATOM     14  O   UNL A   1      33.591  27.562  22.704  1.00  0.00    -0.246 OA
BRANCH  13  15
ATOM     15  O   UNL A   1      31.621  26.437  22.297  1.00  0.00    -0.463 OA
BRANCH  15  16
ATOM     16  C   UNL A   1      30.709  27.544  22.401  1.00  0.00     0.230 C 
ATOM     17  C   UNL A   1      29.540  27.212  23.314  1.00  0.00     0.049 C 
ENDBRANCH  15  16
ENDBRANCH  13  15
ENDBRANCH   7  13
BRANCH  10  18
ATOM     18  C   UNL A   1      33.508  22.043  24.599  1.00  0.00     0.049 A 
ATOM     19  C   UNL A   1      32.359  21.250  24.592  1.00  0.00     0.027 A 
ATOM     20  C   UNL A   1      34.766  21.428  24.692  1.00  0.00     0.027 A 
ATOM     21  C   UNL A   1      32.470  19.860  24.677  1.00  0.00     0.002 A 
ATOM     22  C   UNL A   1      34.874  20.044  24.811  1.00  0.00     0.002 A 
ATOM     23  C   UNL A   1      33.724  19.260  24.799  1.00  0.00     0.000 A 
ENDBRANCH  10  18
ENDBRANCH   5   6
ENDBRANCH   3   5
ENDBRANCH   2   3
ENDBRANCH   1   2
BRANCH   1  24
ATOM     24  C   UNL A   1      31.755  30.702  26.194  1.00  0.00     0.275 C 
BRANCH  24  25
ATOM     25  O   UNL A   1      33.181  30.830  26.360  1.00  0.00    -0.458 OA
BRANCH  25  26
ATOM     26  C   UNL A   1      33.579  31.787  27.228  1.00  0.00     0.338 C 
ATOM     27  O   UNL A   1      32.976  32.788  27.570  1.00  0.00    -0.246 OA
BRANCH  26  28
ATOM     28  C   UNL A   1      34.856  31.395  27.837  1.00  0.00     0.060 A 
ATOM     29  C   UNL A   1      34.987  30.096  28.336  1.00  0.00     0.016 A 
ATOM     30  C   UNL A   1      35.874  32.332  28.007  1.00  0.00     0.016 A 
ATOM     31  C   UNL A   1      36.142  29.725  29.017  1.00  0.00     0.010 A 
ATOM     32  C   UNL A   1      37.035  31.956  28.684  1.00  0.00     0.010 A 
ATOM     33  C   UNL A   1      37.170  30.657  29.205  1.00  0.00    -0.014 A 
BRANCH  33  34
ATOM     34  C   UNL A   1      38.366  30.285  29.996  1.00  0.00     0.031 A 
ATOM     35  C   UNL A   1      39.378  29.342  29.414  1.00  0.00     0.074 A 
ATOM     36  C   UNL A   1      38.540  30.797  31.228  1.00  0.00     0.049 A 
ATOM     37  N   UNL A   1      40.438  28.815  29.971  1.00  0.00    -0.248 NA
ATOM     38  C   UNL A   1      39.167  28.935  28.016  1.00  0.00     0.031 C 
ATOM     39  C   UNL A   1      37.645  31.754  31.877  1.00  0.00     0.029 A 
ATOM     40  N   UNL A   1      39.526  30.575  32.155  1.00  0.00    -0.354 N 
ATOM     41  C   UNL A   1      41.007  27.999  29.003  1.00  0.00     0.074 A 
ATOM     42  C   UNL A   1      40.165  28.083  27.828  1.00  0.00     0.031 C 
ATOM     43  C   UNL A   1      38.119  32.034  33.102  1.00  0.00     0.029 A 
ATOM     44  C   UNL A   1      39.321  31.239  33.340  1.00  0.00     0.049 A 
ATOM     45  H   UNL A   1      40.305  29.997  31.988  1.00  0.00     0.167 HD
ATOM     46  C   UNL A   1      42.134  27.253  29.088  1.00  0.00     0.037 A 
ATOM     47  C   UNL A   1      40.007  31.183  34.496  1.00  0.00     0.037 A 
ATOM     48  C   UNL A   1      42.970  27.183  30.260  1.00  0.00     0.049 A 
ATOM     49  C   UNL A   1      41.218  30.293  34.586  1.00  0.00     0.074 A 
ATOM     50  C   UNL A   1      44.141  26.469  30.443  1.00  0.00     0.029 A 
ATOM     51  N   UNL A   1      42.718  27.851  31.449  1.00  0.00    -0.354 N 
ATOM     52  N   UNL A   1      41.758  29.531  33.664  1.00  0.00    -0.248 NA
ATOM     53  C   UNL A   1      41.916  30.254  35.878  1.00  0.00     0.031 C 
ATOM     54  C   UNL A   1      44.570  26.665  31.760  1.00  0.00     0.029 A 
ATOM     55  C   UNL A   1      43.700  27.547  32.379  1.00  0.00     0.049 A 
ATOM     56  H   UNL A   1      41.955  28.453  31.610  1.00  0.00     0.167 HD
ATOM     57  C   UNL A   1      42.871  28.948  34.253  1.00  0.00     0.074 A 
ATOM     58  C   UNL A   1      42.940  29.455  35.608  1.00  0.00     0.031 C 
ATOM     59  C   UNL A   1      43.758  28.071  33.721  1.00  0.00     0.037 A 
BRANCH  46  60
ATOM     60  C   UNL A   1      42.516  26.428  27.894  1.00  0.00     0.064 A 
ATOM     61  C   UNL A   1      43.403  26.905  26.917  1.00  0.00     0.173 A 
ATOM     62  C   UNL A   1      42.020  25.123  27.746  1.00  0.00     0.173 A 
ATOM     63  F   UNL A   1      43.895  28.150  27.004  1.00  0.00    -0.203 F 
ATOM     64  C   UNL A   1      43.759  26.116  25.825  1.00  0.00     0.198 A 
ATOM     65  C   UNL A   1      42.401  24.327  26.669  1.00  0.00     0.198 A 
ATOM     66  F   UNL A   1      41.172  24.615  28.653  1.00  0.00    -0.203 F 
ATOM     67  F   UNL A   1      44.572  26.611  24.882  1.00  0.00    -0.200 F 
ATOM     68  C   UNL A   1      43.265  24.826  25.707  1.00  0.00     0.200 A 
ATOM     69  F   UNL A   1      41.934  23.075  26.563  1.00  0.00    -0.200 F 
ATOM     70  F   UNL A   1      43.617  24.066  24.660  1.00  0.00    -0.200 F 
ENDBRANCH  46  60
BRANCH  47  71
ATOM     71  C   UNL A   1      39.555  31.976  35.670  1.00  0.00     0.064 A 
ATOM     72  C   UNL A   1      40.109  33.233  35.948  1.00  0.00     0.173 A 
ATOM     73  C   UNL A   1      38.576  31.486  36.547  1.00  0.00     0.173 A 
ATOM     74  F   UNL A   1      41.065  33.734  35.153  1.00  0.00    -0.203 F 
ATOM     75  C   UNL A   1      39.717  33.959  37.072  1.00  0.00     0.198 A 
ATOM     76  C   UNL A   1      38.163  32.227  37.651  1.00  0.00     0.198 A 
ATOM     77  F   UNL A   1      38.016  30.288  36.327  1.00  0.00    -0.203 F 
ATOM     78  F   UNL A   1      40.301  35.134  37.343  1.00  0.00    -0.200 F 
ATOM     79  C   UNL A   1      38.739  33.459  37.918  1.00  0.00     0.200 A 
ATOM     80  F   UNL A   1      37.209  31.745  38.460  1.00  0.00    -0.200 F 
ATOM     81  F   UNL A   1      38.363  34.158  38.997  1.00  0.00    -0.200 F 
ENDBRANCH  47  71
BRANCH  59  82
ATOM     82  C   UNL A   1      44.906  27.641  34.589  1.00  0.00     0.064 A 
ATOM     83  C   UNL A   1      44.818  26.523  35.430  1.00  0.00     0.173 A 
ATOM     84  C   UNL A   1      46.123  28.339  34.549  1.00  0.00     0.173 A 
ATOM     85  F   UNL A   1      43.671  25.832  35.517  1.00  0.00    -0.203 F 
ATOM     86  C   UNL A   1      45.897  26.136  36.221  1.00  0.00     0.198 A 
ATOM     87  C   UNL A   1      47.210  27.929  35.315  1.00  0.00     0.198 A 
ATOM     88  F   UNL A   1      46.263  29.411  33.755  1.00  0.00    -0.203 F 
ATOM     89  F   UNL A   1      45.773  25.095  37.056  1.00  0.00    -0.200 F 
ATOM     90  C   UNL A   1      47.094  26.833  36.157  1.00  0.00     0.200 A 
ATOM     91  F   UNL A   1      48.371  28.596  35.240  1.00  0.00    -0.200 F 
ATOM     92  F   UNL A   1      48.133  26.454  36.912  1.00  0.00    -0.200 F 
ENDBRANCH  59  82
ENDBRANCH  33  34
ENDBRANCH  26  28
ENDBRANCH  25  26
ENDBRANCH  24  25
ENDBRANCH   1  24
TORSDOF 16
ENDMDL
