MODEL 1
REMARK VINA RESULT:     -11.4      0.000      0.000
REMARK SMILES CCC(CC)([NH2+]Cc1cc(C(N)=O)ccc1F)C(=O)OCCOC(=O)c1ccc(-c2c3nc(c(-c4c(F)c(F)c(F)c(F)c4F)c4ccc([nH]4)c(-c4c(F)c(F)c(F)c(F)c4F)c4nc(c(-c5c(F)c(F)c(F)c(F)c5F)c5ccc2[nH]5)C=C4)C=C3)cc1
REMARK SMILES IDX 21 1 20 2 18 3 19 4 3 5 2 6 1 7 4 8 5 9 6 10 7 13 8 14 9 15
REMARK SMILES IDX 16 16 10 17 15 18 17 19 14 20 11 21 12 22 13 23 22 26 23 27
REMARK SMILES IDX 24 28 25 29 26 30 27 31 88 32 28 33 87 34 29 35 30 36 31 37
REMARK SMILES IDX 81 38 32 39 86 40 80 41 82 42 33 43 85 44 79 45 78 46 34 48
REMARK SMILES IDX 66 49 46 50 65 51 47 52 50 53 64 54 83 55 48 56 49 57 63 59
REMARK SMILES IDX 84 60 51 61 35 62 36 63 44 64 37 65 38 66 42 67 45 68 39 69
REMARK SMILES IDX 40 70 43 71 41 72 67 73 68 74 76 75 69 76 70 77 74 78 77 79
REMARK SMILES IDX 71 80 72 81 75 82 73 83 52 84 53 85 61 86 54 87 55 88 59 89
REMARK SMILES IDX 62 90 56 91 57 92 60 93 58 94
REMARK H PARENT 6 11 6 12 12 24 12 25 82 47 50 58
REMARK Flexibility Score: inf
ROOT
ATOM      1  C   UNL A   1      31.363  29.371  25.170  1.00  0.00     0.274 C 
ENDROOT
BRANCH   1   2
ATOM      2  O   UNL A   1      32.196  28.373  25.800  1.00  0.00    -0.457 OA
BRANCH   2   3
ATOM      3  C   UNL A   1      31.539  27.469  26.585  1.00  0.00     0.368 C 
ATOM      4  O   UNL A   1      31.092  27.741  27.697  1.00  0.00    -0.245 OA
BRANCH   3   5
ATOM      5  C   UNL A   1      31.494  26.042  25.948  1.00  0.00     0.194 C 
BRANCH   5   6
ATOM      6  C   UNL A   1      32.686  25.917  24.957  1.00  0.00     0.077 C 
ATOM      7  C   UNL A   1      34.002  25.461  25.591  1.00  0.00     0.011 C 
ENDBRANCH   5   6
BRANCH   5   8
ATOM      8  C   UNL A   1      30.155  25.858  25.165  1.00  0.00     0.077 C 
ATOM      9  C   UNL A   1      30.251  25.807  23.643  1.00  0.00     0.011 C 
ENDBRANCH   5   8
BRANCH   5  10
ATOM     10  N   UNL A   1      31.702  24.971  26.973  1.00  0.00    -0.328 N 
ATOM     11  H   UNL A   1      31.406  25.363  27.867  1.00  0.00     0.347 HD
ATOM     12  H   UNL A   1      32.686  24.732  26.855  1.00  0.00     0.347 HD
BRANCH  10  13
ATOM     13  C   UNL A   1      31.033  23.666  26.847  1.00  0.00     0.301 C 
BRANCH  13  14
ATOM     14  C   UNL A   1      31.799  22.630  26.073  1.00  0.00     0.043 A 
ATOM     15  C   UNL A   1      31.556  22.442  24.704  1.00  0.00     0.026 A 
ATOM     16  C   UNL A   1      32.850  21.927  26.664  1.00  0.00     0.132 A 
ATOM     17  C   UNL A   1      32.472  21.746  23.911  1.00  0.00     0.040 A 
ATOM     18  C   UNL A   1      33.685  21.109  25.905  1.00  0.00     0.040 A 
ATOM     19  F   UNL A   1      33.090  22.060  27.975  1.00  0.00    -0.206 F 
ATOM     20  C   UNL A   1      33.517  21.045  24.520  1.00  0.00     0.017 A 
BRANCH  17  21
ATOM     21  C   UNL A   1      32.442  21.853  22.427  1.00  0.00     0.248 C 
ATOM     22  N   UNL A   1      31.680  20.940  21.747  1.00  0.00    -0.366 N 
ATOM     23  O   UNL A   1      33.009  22.767  21.842  1.00  0.00    -0.270 OA
ATOM     24  H   UNL A   1      31.232  20.212  22.235  1.00  0.00     0.159 HD
ATOM     25  H   UNL A   1      31.581  21.011  20.770  1.00  0.00     0.159 HD
ENDBRANCH  17  21
ENDBRANCH  13  14
ENDBRANCH  10  13
ENDBRANCH   5  10
ENDBRANCH   3   5
ENDBRANCH   2   3
ENDBRANCH   1   2
BRANCH   1  26
ATOM     26  C   UNL A   1      31.588  30.714  25.863  1.00  0.00     0.275 C 
BRANCH  26  27
ATOM     27  O   UNL A   1      32.799  30.574  26.619  1.00  0.00    -0.458 OA
BRANCH  27  28
ATOM     28  C   UNL A   1      33.283  31.697  27.192  1.00  0.00     0.338 C 
ATOM     29  O   UNL A   1      32.727  32.767  27.340  1.00  0.00    -0.246 OA
BRANCH  28  30
ATOM     30  C   UNL A   1      34.609  31.361  27.739  1.00  0.00     0.060 A 
ATOM     31  C   UNL A   1      34.869  30.029  28.070  1.00  0.00     0.016 A 
ATOM     32  C   UNL A   1      35.545  32.350  28.023  1.00  0.00     0.016 A 
ATOM     33  C   UNL A   1      36.030  29.693  28.756  1.00  0.00     0.010 A 
ATOM     34  C   UNL A   1      36.750  31.994  28.640  1.00  0.00     0.010 A 
ATOM     35  C   UNL A   1      36.986  30.668  29.051  1.00  0.00    -0.014 A 
BRANCH  35  36
ATOM     36  C   UNL A   1      38.159  30.321  29.901  1.00  0.00     0.031 A 
ATOM     37  C   UNL A   1      39.263  29.484  29.315  1.00  0.00     0.074 A 
ATOM     38  C   UNL A   1      38.293  30.798  31.154  1.00  0.00     0.049 A 
ATOM     39  N   UNL A   1      40.257  28.882  29.916  1.00  0.00    -0.248 NA
ATOM     40  C   UNL A   1      39.240  29.295  27.856  1.00  0.00     0.031 C 
ATOM     41  C   UNL A   1      37.367  31.712  31.823  1.00  0.00     0.029 A 
ATOM     42  N   UNL A   1      39.284  30.594  32.084  1.00  0.00    -0.354 N 
ATOM     43  C   UNL A   1      40.927  28.181  28.923  1.00  0.00     0.074 A 
ATOM     44  C   UNL A   1      40.240  28.445  27.676  1.00  0.00     0.031 C 
ATOM     45  C   UNL A   1      37.857  32.026  33.032  1.00  0.00     0.029 A 
ATOM     46  C   UNL A   1      39.081  31.266  33.264  1.00  0.00     0.049 A 
ATOM     47  H   UNL A   1      40.066  30.018  31.919  1.00  0.00     0.167 HD
ATOM     48  C   UNL A   1      42.012  27.381  29.043  1.00  0.00     0.037 A 
ATOM     49  C   UNL A   1      39.781  31.244  34.414  1.00  0.00     0.037 A 
ATOM     50  C   UNL A   1      42.737  27.180  30.269  1.00  0.00     0.049 A 
ATOM     51  C   UNL A   1      40.973  30.335  34.537  1.00  0.00     0.074 A 
ATOM     52  C   UNL A   1      43.819  26.352  30.508  1.00  0.00     0.029 A 
ATOM     53  N   UNL A   1      42.472  27.848  31.454  1.00  0.00    -0.354 N 
ATOM     54  N   UNL A   1      41.509  29.551  33.635  1.00  0.00    -0.248 NA
ATOM     55  C   UNL A   1      41.635  30.283  35.848  1.00  0.00     0.031 C 
ATOM     56  C   UNL A   1      44.204  26.511  31.844  1.00  0.00     0.029 A 
ATOM     57  C   UNL A   1      43.380  27.461  32.426  1.00  0.00     0.049 A 
ATOM     58  H   UNL A   1      41.747  28.501  31.586  1.00  0.00     0.167 HD
ATOM     59  C   UNL A   1      42.568  28.913  34.266  1.00  0.00     0.074 A 
ATOM     60  C   UNL A   1      42.615  29.418  35.622  1.00  0.00     0.031 C 
ATOM     61  C   UNL A   1      43.416  27.981  33.767  1.00  0.00     0.037 A 
BRANCH  48  62
ATOM     62  C   UNL A   1      42.453  26.629  27.825  1.00  0.00     0.064 A 
ATOM     63  C   UNL A   1      43.389  27.201  26.951  1.00  0.00     0.173 A 
ATOM     64  C   UNL A   1      41.940  25.364  27.508  1.00  0.00     0.173 A 
ATOM     65  F   UNL A   1      43.909  28.410  27.211  1.00  0.00    -0.203 F 
ATOM     66  C   UNL A   1      43.792  26.534  25.797  1.00  0.00     0.198 A 
ATOM     67  C   UNL A   1      42.364  24.689  26.366  1.00  0.00     0.198 A 
ATOM     68  F   UNL A   1      41.060  24.769  28.326  1.00  0.00    -0.203 F 
ATOM     69  F   UNL A   1      44.674  27.107  24.967  1.00  0.00    -0.200 F 
ATOM     70  C   UNL A   1      43.283  25.277  25.508  1.00  0.00     0.200 A 
ATOM     71  F   UNL A   1      41.892  23.463  26.101  1.00  0.00    -0.200 F 
ATOM     72  F   UNL A   1      43.686  24.628  24.408  1.00  0.00    -0.200 F 
ENDBRANCH  48  62
BRANCH  49  73
ATOM     73  C   UNL A   1      39.345  32.087  35.558  1.00  0.00     0.064 A 
ATOM     74  C   UNL A   1      39.811  33.400  35.717  1.00  0.00     0.173 A 
ATOM     75  C   UNL A   1      38.465  31.584  36.525  1.00  0.00     0.173 A 
ATOM     76  F   UNL A   1      40.650  33.929  34.815  1.00  0.00    -0.203 F 
ATOM     77  C   UNL A   1      39.436  34.168  36.816  1.00  0.00     0.198 A 
ATOM     78  C   UNL A   1      38.070  32.361  37.611  1.00  0.00     0.198 A 
ATOM     79  F   UNL A   1      37.971  30.344  36.399  1.00  0.00    -0.203 F 
ATOM     80  F   UNL A   1      39.925  35.407  36.965  1.00  0.00    -0.200 F 
ATOM     81  C   UNL A   1      38.565  33.649  37.762  1.00  0.00     0.200 A 
ATOM     82  F   UNL A   1      37.209  31.866  38.510  1.00  0.00    -0.200 F 
ATOM     83  F   UNL A   1      38.197  34.391  38.816  1.00  0.00    -0.200 F 
ENDBRANCH  49  73
BRANCH  61  84
ATOM     84  C   UNL A   1      44.481  27.457  34.682  1.00  0.00     0.064 A 
ATOM     85  C   UNL A   1      45.729  28.092  34.756  1.00  0.00     0.173 A 
ATOM     86  C   UNL A   1      44.288  26.288  35.430  1.00  0.00     0.173 A 
ATOM     87  F   UNL A   1      45.961  29.211  34.053  1.00  0.00    -0.203 F 
ATOM     88  C   UNL A   1      46.751  27.569  35.544  1.00  0.00     0.198 A 
ATOM     89  C   UNL A   1      45.306  25.777  36.231  1.00  0.00     0.198 A 
ATOM     90  F   UNL A   1      43.107  25.653  35.398  1.00  0.00    -0.203 F 
ATOM     91  F   UNL A   1      47.943  28.179  35.585  1.00  0.00    -0.200 F 
ATOM     92  C   UNL A   1      46.538  26.414  36.281  1.00  0.00     0.200 A 
ATOM     93  F   UNL A   1      45.094  24.672  36.958  1.00  0.00    -0.200 F 
ATOM     94  F   UNL A   1      47.520  25.914  37.044  1.00  0.00    -0.200 F 
ENDBRANCH  61  84
ENDBRANCH  35  36
ENDBRANCH  28  30
ENDBRANCH  27  28
ENDBRANCH  26  27
ENDBRANCH   1  26
TORSDOF 17
ENDMDL
MODEL 2
REMARK VINA RESULT:     -11.4      1.343      1.637
REMARK SMILES CCC(CC)([NH2+]Cc1cc(C(N)=O)ccc1F)C(=O)OCCOC(=O)c1ccc(-c2c3nc(c(-c4c(F)c(F)c(F)c(F)c4F)c4ccc([nH]4)c(-c4c(F)c(F)c(F)c(F)c4F)c4nc(c(-c5c(F)c(F)c(F)c(F)c5F)c5ccc2[nH]5)C=C4)C=C3)cc1
REMARK SMILES IDX 21 1 20 2 18 3 19 4 3 5 2 6 1 7 4 8 5 9 6 10 7 13 8 14 9 15
REMARK SMILES IDX 16 16 10 17 15 18 17 19 14 20 11 21 12 22 13 23 22 26 23 27
REMARK SMILES IDX 24 28 25 29 26 30 27 31 88 32 28 33 87 34 29 35 30 36 31 37
REMARK SMILES IDX 81 38 32 39 86 40 80 41 82 42 33 43 85 44 79 45 78 46 34 48
REMARK SMILES IDX 66 49 46 50 65 51 47 52 50 53 64 54 83 55 48 56 49 57 63 59
REMARK SMILES IDX 84 60 51 61 35 62 36 63 44 64 37 65 38 66 42 67 45 68 39 69
REMARK SMILES IDX 40 70 43 71 41 72 67 73 68 74 76 75 69 76 70 77 74 78 77 79
REMARK SMILES IDX 71 80 72 81 75 82 73 83 52 84 53 85 61 86 54 87 55 88 59 89
REMARK SMILES IDX 62 90 56 91 57 92 60 93 58 94
REMARK H PARENT 6 11 6 12 12 24 12 25 82 47 50 58
REMARK Flexibility Score: inf
ROOT
ATOM      1  C   UNL A   1      31.539  29.032  24.459  1.00  0.00     0.274 C 
ENDROOT
BRANCH   1   2
ATOM      2  O   UNL A   1      31.694  27.751  25.109  1.00  0.00    -0.457 OA
BRANCH   2   3
ATOM      3  C   UNL A   1      31.264  26.672  24.390  1.00  0.00     0.368 C 
ATOM      4  O   UNL A   1      30.101  26.528  24.019  1.00  0.00    -0.245 OA
BRANCH   3   5
ATOM      5  C   UNL A   1      32.391  25.612  24.168  1.00  0.00     0.194 C 
BRANCH   5   6
ATOM      6  C   UNL A   1      32.946  25.197  25.561  1.00  0.00     0.077 C 
ATOM      7  C   UNL A   1      31.904  24.625  26.523  1.00  0.00     0.011 C 
ENDBRANCH   5   6
BRANCH   5   8
ATOM      8  C   UNL A   1      33.545  26.240  23.323  1.00  0.00     0.077 C 
ATOM      9  C   UNL A   1      33.178  26.754  21.935  1.00  0.00     0.011 C 
ENDBRANCH   5   8
BRANCH   5  10
ATOM     10  N   UNL A   1      31.858  24.355  23.552  1.00  0.00    -0.328 N 
ATOM     11  H   UNL A   1      31.160  24.642  22.866  1.00  0.00     0.347 HD
ATOM     12  H   UNL A   1      31.545  23.821  24.362  1.00  0.00     0.347 HD
BRANCH  10  13
ATOM     13  C   UNL A   1      32.756  23.412  22.867  1.00  0.00     0.301 C 
BRANCH  13  14
ATOM     14  C   UNL A   1      33.466  22.441  23.767  1.00  0.00     0.043 A 
ATOM     15  C   UNL A   1      32.766  21.376  24.356  1.00  0.00     0.026 A 
ATOM     16  C   UNL A   1      34.850  22.499  23.934  1.00  0.00     0.132 A 
ATOM     17  C   UNL A   1      33.457  20.291  24.903  1.00  0.00     0.040 A 
ATOM     18  C   UNL A   1      35.537  21.492  24.608  1.00  0.00     0.040 A 
ATOM     19  F   UNL A   1      35.545  23.517  23.410  1.00  0.00    -0.206 F 
ATOM     20  C   UNL A   1      34.844  20.368  25.064  1.00  0.00     0.017 A 
BRANCH  17  21
ATOM     21  C   UNL A   1      32.768  19.002  25.183  1.00  0.00     0.248 C 
ATOM     22  N   UNL A   1      32.842  18.516  26.461  1.00  0.00    -0.366 N 
ATOM     23  O   UNL A   1      32.094  18.441  24.329  1.00  0.00    -0.270 OA
ATOM     24  H   UNL A   1      33.390  18.981  27.134  1.00  0.00     0.159 HD
ATOM     25  H   UNL A   1      32.350  17.700  26.707  1.00  0.00     0.159 HD
ENDBRANCH  17  21
ENDBRANCH  13  14
ENDBRANCH  10  13
ENDBRANCH   5  10
ENDBRANCH   3   5
ENDBRANCH   2   3
ENDBRANCH   1   2
BRANCH   1  26
ATOM     26  C   UNL A   1      31.511  30.128  25.523  1.00  0.00     0.275 C 
BRANCH  26  27
ATOM     27  O   UNL A   1      32.830  30.169  26.087  1.00  0.00    -0.458 OA
BRANCH  27  28
ATOM     28  C   UNL A   1      33.094  31.195  26.924  1.00  0.00     0.338 C 
ATOM     29  O   UNL A   1      32.358  32.102  27.259  1.00  0.00    -0.246 OA
BRANCH  28  30
ATOM     30  C   UNL A   1      34.438  30.959  27.480  1.00  0.00     0.060 A 
ATOM     31  C   UNL A   1      34.815  29.644  27.759  1.00  0.00     0.016 A 
ATOM     32  C   UNL A   1      35.274  32.017  27.822  1.00  0.00     0.016 A 
ATOM     33  C   UNL A   1      35.992  29.387  28.452  1.00  0.00     0.010 A 
ATOM     34  C   UNL A   1      36.498  31.747  28.445  1.00  0.00     0.010 A 
ATOM     35  C   UNL A   1      36.850  30.432  28.805  1.00  0.00    -0.014 A 
BRANCH  35  36
ATOM     36  C   UNL A   1      38.037  30.157  29.660  1.00  0.00     0.031 A 
ATOM     37  C   UNL A   1      39.168  29.340  29.099  1.00  0.00     0.074 A 
ATOM     38  C   UNL A   1      38.159  30.684  30.895  1.00  0.00     0.049 A 
ATOM     39  N   UNL A   1      40.185  28.795  29.716  1.00  0.00    -0.248 NA
ATOM     40  C   UNL A   1      39.146  29.097  27.648  1.00  0.00     0.031 C 
ATOM     41  C   UNL A   1      37.204  31.588  31.535  1.00  0.00     0.029 A 
ATOM     42  N   UNL A   1      39.160  30.549  31.826  1.00  0.00    -0.354 N 
ATOM     43  C   UNL A   1      40.876  28.083  28.746  1.00  0.00     0.074 A 
ATOM     44  C   UNL A   1      40.175  28.277  27.494  1.00  0.00     0.031 C 
ATOM     45  C   UNL A   1      37.687  31.963  32.730  1.00  0.00     0.029 A 
ATOM     46  C   UNL A   1      38.939  31.256  32.982  1.00  0.00     0.049 A 
ATOM     47  H   UNL A   1      39.962  29.995  31.678  1.00  0.00     0.167 HD
ATOM     48  C   UNL A   1      41.990  27.327  28.889  1.00  0.00     0.037 A 
ATOM     49  C   UNL A   1      39.643  31.300  34.129  1.00  0.00     0.037 A 
ATOM     50  C   UNL A   1      42.725  27.196  30.118  1.00  0.00     0.049 A 
ATOM     51  C   UNL A   1      40.867  30.439  34.278  1.00  0.00     0.074 A 
ATOM     52  C   UNL A   1      43.837  26.416  30.381  1.00  0.00     0.029 A 
ATOM     53  N   UNL A   1      42.442  27.897  31.280  1.00  0.00    -0.354 N 
ATOM     54  N   UNL A   1      41.427  29.643  33.403  1.00  0.00    -0.248 NA
ATOM     55  C   UNL A   1      41.536  30.458  35.587  1.00  0.00     0.031 C 
ATOM     56  C   UNL A   1      44.222  26.637  31.708  1.00  0.00     0.029 A 
ATOM     57  C   UNL A   1      43.367  27.578  32.260  1.00  0.00     0.049 A 
ATOM     58  H   UNL A   1      41.695  28.528  31.391  1.00  0.00     0.167 HD
ATOM     59  C   UNL A   1      42.511  29.066  34.050  1.00  0.00     0.074 A 
ATOM     60  C   UNL A   1      42.545  29.621  35.387  1.00  0.00     0.031 C 
ATOM     61  C   UNL A   1      43.390  28.147  33.581  1.00  0.00     0.037 A 
BRANCH  48  62
ATOM     62  C   UNL A   1      42.452  26.548  27.697  1.00  0.00     0.064 A 
ATOM     63  C   UNL A   1      43.421  27.090  26.839  1.00  0.00     0.173 A 
ATOM     64  C   UNL A   1      41.928  25.285  27.387  1.00  0.00     0.173 A 
ATOM     65  F   UNL A   1      43.952  28.295  27.094  1.00  0.00    -0.203 F 
ATOM     66  C   UNL A   1      43.845  26.397  25.709  1.00  0.00     0.198 A 
ATOM     67  C   UNL A   1      42.373  24.584  26.268  1.00  0.00     0.198 A 
ATOM     68  F   UNL A   1      41.016  24.718  28.189  1.00  0.00    -0.203 F 
ATOM     69  F   UNL A   1      44.759  26.942  24.894  1.00  0.00    -0.200 F 
ATOM     70  C   UNL A   1      43.325  25.143  25.427  1.00  0.00     0.200 A 
ATOM     71  F   UNL A   1      41.890  23.361  26.011  1.00  0.00    -0.200 F 
ATOM     72  F   UNL A   1      43.748  24.469  24.349  1.00  0.00    -0.200 F 
ENDBRANCH  48  62
BRANCH  49  73
ATOM     73  C   UNL A   1      39.181  32.168  35.244  1.00  0.00     0.064 A 
ATOM     74  C   UNL A   1      39.551  33.519  35.319  1.00  0.00     0.173 A 
ATOM     75  C   UNL A   1      38.376  31.653  36.267  1.00  0.00     0.173 A 
ATOM     76  F   UNL A   1      40.317  34.060  34.361  1.00  0.00    -0.203 F 
ATOM     77  C   UNL A   1      39.155  34.314  36.391  1.00  0.00     0.198 A 
ATOM     78  C   UNL A   1      37.958  32.455  37.326  1.00  0.00     0.198 A 
ATOM     79  F   UNL A   1      37.974  30.374  36.223  1.00  0.00    -0.203 F 
ATOM     80  F   UNL A   1      39.552  35.592  36.458  1.00  0.00    -0.200 F 
ATOM     81  C   UNL A   1      38.358  33.783  37.393  1.00  0.00     0.200 A 
ATOM     82  F   UNL A   1      37.168  31.946  38.280  1.00  0.00    -0.200 F 
ATOM     83  F   UNL A   1      37.969  34.550  38.421  1.00  0.00    -0.200 F 
ENDBRANCH  49  73
BRANCH  61  84
ATOM     84  C   UNL A   1      44.476  27.694  34.508  1.00  0.00     0.064 A 
ATOM     85  C   UNL A   1      45.709  28.362  34.538  1.00  0.00     0.173 A 
ATOM     86  C   UNL A   1      44.319  26.559  35.315  1.00  0.00     0.173 A 
ATOM     87  F   UNL A   1      45.906  29.450  33.778  1.00  0.00    -0.203 F 
ATOM     88  C   UNL A   1      46.751  27.903  35.338  1.00  0.00     0.198 A 
ATOM     89  C   UNL A   1      45.357  26.113  36.129  1.00  0.00     0.198 A 
ATOM     90  F   UNL A   1      43.153  25.896  35.328  1.00  0.00    -0.203 F 
ATOM     91  F   UNL A   1      47.928  28.543  35.336  1.00  0.00    -0.200 F 
ATOM     92  C   UNL A   1      46.574  26.781  36.134  1.00  0.00     0.200 A 
ATOM     93  F   UNL A   1      45.179  25.041  36.912  1.00  0.00    -0.200 F 
ATOM     94  F   UNL A   1      47.575  26.344  36.910  1.00  0.00    -0.200 F 
ENDBRANCH  61  84
ENDBRANCH  35  36
ENDBRANCH  28  30
ENDBRANCH  27  28
ENDBRANCH  26  27
ENDBRANCH   1  26
TORSDOF 17
ENDMDL
MODEL 3
REMARK VINA RESULT:     -11.3      4.467      9.825
REMARK SMILES CCC(CC)([NH2+]Cc1cc(C(N)=O)ccc1F)C(=O)OCCOC(=O)c1ccc(-c2c3nc(c(-c4c(F)c(F)c(F)c(F)c4F)c4ccc([nH]4)c(-c4c(F)c(F)c(F)c(F)c4F)c4nc(c(-c5c(F)c(F)c(F)c(F)c5F)c5ccc2[nH]5)C=C4)C=C3)cc1
REMARK SMILES IDX 21 1 20 2 18 3 19 4 3 5 2 6 1 7 4 8 5 9 6 10 7 13 8 14 9 15
REMARK SMILES IDX 16 16 10 17 15 18 17 19 14 20 11 21 12 22 13 23 22 26 23 27
REMARK SMILES IDX 24 28 25 29 26 30 27 31 88 32 28 33 87 34 29 35 30 36 31 37
REMARK SMILES IDX 81 38 32 39 86 40 80 41 82 42 33 43 85 44 79 45 78 46 34 48
REMARK SMILES IDX 66 49 46 50 65 51 47 52 50 53 64 54 83 55 48 56 49 57 63 59
REMARK SMILES IDX 84 60 51 61 35 62 36 63 44 64 37 65 38 66 42 67 45 68 39 69
REMARK SMILES IDX 40 70 43 71 41 72 67 73 68 74 76 75 69 76 70 77 74 78 77 79
REMARK SMILES IDX 71 80 72 81 75 82 73 83 52 84 53 85 61 86 54 87 55 88 59 89
REMARK SMILES IDX 62 90 56 91 57 92 60 93 58 94
REMARK H PARENT 6 11 6 12 12 24 12 25 82 47 50 58
REMARK Flexibility Score: inf
ROOT
ATOM      1  C   UNL A   1      36.684  22.544  23.740  1.00  0.00     0.274 C 
ENDROOT
BRANCH   1   2
ATOM      2  O   UNL A   1      35.672  23.421  24.281  1.00  0.00    -0.457 OA
BRANCH   2   3
ATOM      3  C   UNL A   1      34.542  23.550  23.525  1.00  0.00     0.368 C 
ATOM      4  O   UNL A   1      34.511  23.338  22.315  1.00  0.00    -0.245 OA
BRANCH   3   5
ATOM      5  C   UNL A   1      33.323  24.075  24.352  1.00  0.00     0.194 C 
BRANCH   5   6
ATOM      6  C   UNL A   1      33.770  24.214  25.836  1.00  0.00     0.077 C 
ATOM      7  C   UNL A   1      33.089  23.245  26.805  1.00  0.00     0.011 C 
ENDBRANCH   5   6
BRANCH   5   8
ATOM      8  C   UNL A   1      32.148  23.049  24.266  1.00  0.00     0.077 C 
ATOM      9  C   UNL A   1      31.145  23.248  23.133  1.00  0.00     0.011 C 
ENDBRANCH   5   8
BRANCH   5  10
ATOM     10  N   UNL A   1      32.909  25.447  23.921  1.00  0.00    -0.328 N 
ATOM     11  H   UNL A   1      32.233  25.323  23.168  1.00  0.00     0.347 HD
ATOM     12  H   UNL A   1      33.798  25.893  23.700  1.00  0.00     0.347 HD
BRANCH  10  13
ATOM     13  C   UNL A   1      32.302  26.387  24.877  1.00  0.00     0.301 C 
BRANCH  13  14
ATOM     14  C   UNL A   1      30.982  26.964  24.452  1.00  0.00     0.043 A 
ATOM     15  C   UNL A   1      30.932  28.161  23.721  1.00  0.00     0.026 A 
ATOM     16  C   UNL A   1      29.793  26.263  24.661  1.00  0.00     0.132 A 
ATOM     17  C   UNL A   1      29.769  28.524  23.035  1.00  0.00     0.040 A 
ATOM     18  C   UNL A   1      28.593  26.698  24.102  1.00  0.00     0.040 A 
ATOM     19  F   UNL A   1      29.800  25.133  25.380  1.00  0.00    -0.206 F 
ATOM     20  C   UNL A   1      28.587  27.812  23.258  1.00  0.00     0.017 A 
BRANCH  17  21
ATOM     21  C   UNL A   1      29.798  29.559  21.967  1.00  0.00     0.248 C 
ATOM     22  N   UNL A   1      31.020  30.075  21.626  1.00  0.00    -0.366 N 
ATOM     23  O   UNL A   1      28.783  29.878  21.361  1.00  0.00    -0.270 OA
ATOM     24  H   UNL A   1      31.825  29.807  22.125  1.00  0.00     0.159 HD
ATOM     25  H   UNL A   1      31.093  30.716  20.882  1.00  0.00     0.159 HD
ENDBRANCH  17  21
ENDBRANCH  13  14
ENDBRANCH  10  13
ENDBRANCH   5  10
ENDBRANCH   3   5
ENDBRANCH   2   3
ENDBRANCH   1   2
BRANCH   1  26
ATOM     26  C   UNL A   1      36.849  21.344  24.671  1.00  0.00     0.275 C 
BRANCH  26  27
ATOM     27  O   UNL A   1      37.449  21.851  25.871  1.00  0.00    -0.458 OA
BRANCH  27  28
ATOM     28  C   UNL A   1      38.755  21.561  26.060  1.00  0.00     0.338 C 
ATOM     29  O   UNL A   1      39.355  20.554  25.743  1.00  0.00    -0.246 OA
BRANCH  28  30
ATOM     30  C   UNL A   1      39.383  22.766  26.630  1.00  0.00     0.060 A 
ATOM     31  C   UNL A   1      38.927  24.014  26.202  1.00  0.00     0.016 A 
ATOM     32  C   UNL A   1      40.474  22.673  27.489  1.00  0.00     0.016 A 
ATOM     33  C   UNL A   1      39.607  25.169  26.567  1.00  0.00     0.010 A 
ATOM     34  C   UNL A   1      41.105  23.846  27.921  1.00  0.00     0.010 A 
ATOM     35  C   UNL A   1      40.704  25.103  27.431  1.00  0.00    -0.014 A 
BRANCH  35  36
ATOM     36  C   UNL A   1      41.502  26.329  27.707  1.00  0.00     0.031 A 
ATOM     37  C   UNL A   1      40.916  27.400  28.588  1.00  0.00     0.074 A 
ATOM     38  C   UNL A   1      42.763  26.473  27.253  1.00  0.00     0.049 A 
ATOM     39  N   UNL A   1      41.324  28.627  28.786  1.00  0.00    -0.248 NA
ATOM     40  C   UNL A   1      39.703  27.040  29.339  1.00  0.00     0.031 C 
ATOM     41  C   UNL A   1      43.511  25.477  26.485  1.00  0.00     0.029 A 
ATOM     42  N   UNL A   1      43.648  27.513  27.396  1.00  0.00    -0.354 N 
ATOM     43  C   UNL A   1      40.377  29.207  29.619  1.00  0.00     0.074 A 
ATOM     44  C   UNL A   1      39.382  28.194  29.905  1.00  0.00     0.031 C 
ATOM     45  C   UNL A   1      44.754  25.935  26.268  1.00  0.00     0.029 A 
ATOM     46  C   UNL A   1      44.864  27.290  26.797  1.00  0.00     0.049 A 
ATOM     47  H   UNL A   1      43.431  28.342  27.882  1.00  0.00     0.167 HD
ATOM     48  C   UNL A   1      40.337  30.474  30.094  1.00  0.00     0.037 A 
ATOM     49  C   UNL A   1      45.931  28.100  26.657  1.00  0.00     0.037 A 
ATOM     50  C   UNL A   1      41.364  31.455  29.869  1.00  0.00     0.049 A 
ATOM     51  C   UNL A   1      45.862  29.510  27.174  1.00  0.00     0.074 A 
ATOM     52  C   UNL A   1      41.396  32.780  30.265  1.00  0.00     0.029 A 
ATOM     53  N   UNL A   1      42.562  31.200  29.220  1.00  0.00    -0.354 N 
ATOM     54  N   UNL A   1      44.894  30.103  27.826  1.00  0.00    -0.248 NA
ATOM     55  C   UNL A   1      47.022  30.373  26.904  1.00  0.00     0.031 C 
ATOM     56  C   UNL A   1      42.611  33.332  29.844  1.00  0.00     0.029 A 
ATOM     57  C   UNL A   1      43.347  32.341  29.214  1.00  0.00     0.049 A 
ATOM     58  H   UNL A   1      42.817  30.337  28.821  1.00  0.00     0.167 HD
ATOM     59  C   UNL A   1      45.323  31.405  28.045  1.00  0.00     0.074 A 
ATOM     60  C   UNL A   1      46.651  31.511  27.477  1.00  0.00     0.031 C 
ATOM     61  C   UNL A   1      44.668  32.425  28.652  1.00  0.00     0.037 A 
BRANCH  48  62
ATOM     62  C   UNL A   1      39.120  30.882  30.866  1.00  0.00     0.064 A 
ATOM     63  C   UNL A   1      39.065  30.664  32.251  1.00  0.00     0.173 A 
ATOM     64  C   UNL A   1      38.007  31.463  30.244  1.00  0.00     0.173 A 
ATOM     65  F   UNL A   1      40.105  30.110  32.892  1.00  0.00    -0.203 F 
ATOM     66  C   UNL A   1      37.933  31.008  32.986  1.00  0.00     0.198 A 
ATOM     67  C   UNL A   1      36.886  31.829  30.986  1.00  0.00     0.198 A 
ATOM     68  F   UNL A   1      38.023  31.711  28.926  1.00  0.00    -0.203 F 
ATOM     69  F   UNL A   1      37.895  30.774  34.305  1.00  0.00    -0.200 F 
ATOM     70  C   UNL A   1      36.847  31.595  32.354  1.00  0.00     0.200 A 
ATOM     71  F   UNL A   1      35.848  32.421  30.380  1.00  0.00    -0.200 F 
ATOM     72  F   UNL A   1      35.766  31.943  33.064  1.00  0.00    -0.200 F 
ENDBRANCH  48  62
BRANCH  49  73
ATOM     73  C   UNL A   1      47.146  27.602  25.961  1.00  0.00     0.064 A 
ATOM     74  C   UNL A   1      48.236  27.082  26.676  1.00  0.00     0.173 A 
ATOM     75  C   UNL A   1      47.246  27.656  24.565  1.00  0.00     0.173 A 
ATOM     76  F   UNL A   1      48.187  27.005  28.013  1.00  0.00    -0.203 F 
ATOM     77  C   UNL A   1      49.391  26.662  26.021  1.00  0.00     0.198 A 
ATOM     78  C   UNL A   1      48.391  27.211  23.909  1.00  0.00     0.198 A 
ATOM     79  F   UNL A   1      46.218  28.118  23.838  1.00  0.00    -0.203 F 
ATOM     80  F   UNL A   1      50.432  26.204  26.729  1.00  0.00    -0.200 F 
ATOM     81  C   UNL A   1      49.468  26.725  24.638  1.00  0.00     0.200 A 
ATOM     82  F   UNL A   1      48.453  27.250  22.571  1.00  0.00    -0.200 F 
ATOM     83  F   UNL A   1      50.576  26.313  24.007  1.00  0.00    -0.200 F 
ENDBRANCH  49  73
BRANCH  61  84
ATOM     84  C   UNL A   1      45.378  33.740  28.751  1.00  0.00     0.064 A 
ATOM     85  C   UNL A   1      46.173  34.036  29.868  1.00  0.00     0.173 A 
ATOM     86  C   UNL A   1      45.216  34.731  27.773  1.00  0.00     0.173 A 
ATOM     87  F   UNL A   1      46.351  33.120  30.832  1.00  0.00    -0.203 F 
ATOM     88  C   UNL A   1      46.774  35.283  30.007  1.00  0.00     0.198 A 
ATOM     89  C   UNL A   1      45.834  35.972  27.906  1.00  0.00     0.198 A 
ATOM     90  F   UNL A   1      44.475  34.488  26.682  1.00  0.00    -0.203 F 
ATOM     91  F   UNL A   1      47.512  35.553  31.092  1.00  0.00    -0.200 F 
ATOM     92  C   UNL A   1      46.606  36.249  29.026  1.00  0.00     0.200 A 
ATOM     93  F   UNL A   1      45.688  36.897  26.948  1.00  0.00    -0.200 F 
ATOM     94  F   UNL A   1      47.191  37.447  29.157  1.00  0.00    -0.200 F 
ENDBRANCH  61  84
ENDBRANCH  35  36
ENDBRANCH  28  30
ENDBRANCH  27  28
ENDBRANCH  26  27
ENDBRANCH   1  26
TORSDOF 17
ENDMDL
