MODEL 1
REMARK VINA RESULT:     -11.3      0.000      0.000
REMARK SMILES CC(=O)NCCc1c[nH]c2ccc(C(=O)OCCOC(=O)c3ccc(-c4c5nc(c(-c6c(F)c(F)c(F)c(F)c6F)c6ccc([nH]6)c(-c6c(F)c(F)c(F)c(F)c6F)c6nc(c(-c7c(F)c(F)c(F)c(F)c7F)c7ccc4[nH]7)C=C6)C=C5)cc3)cc12
REMARK SMILES IDX 17 1 16 2 14 3 15 4 13 5 7 6 8 7 86 8 9 9 10 10 85 11 11 13
REMARK SMILES IDX 12 14 6 15 5 16 4 17 1 18 2 19 3 20 18 22 19 23 20 24 21 25
REMARK SMILES IDX 22 26 23 27 84 28 24 29 83 30 25 31 26 32 27 33 77 34 28 35
REMARK SMILES IDX 82 36 76 37 78 38 29 39 81 40 75 41 74 42 30 44 62 45 42 46
REMARK SMILES IDX 61 47 43 48 46 49 60 50 79 51 44 52 45 53 59 55 80 56 47 57
REMARK SMILES IDX 31 58 32 59 40 60 33 61 34 62 38 63 41 64 35 65 36 66 39 67
REMARK SMILES IDX 37 68 63 69 64 70 72 71 65 72 66 73 70 74 73 75 67 76 68 77
REMARK SMILES IDX 71 78 69 79 48 80 49 81 57 82 50 83 51 84 55 85 58 86 52 87
REMARK SMILES IDX 53 88 56 89 54 90
REMARK H PARENT 9 12 4 21 78 43 46 54
REMARK Flexibility Score: inf
ROOT
ATOM      1  C   UNL A   1      33.156  35.203  28.560  1.00  0.00     0.275 C 
ENDROOT
BRANCH   1   2
ATOM      2  O   UNL A   1      33.193  33.806  28.913  1.00  0.00    -0.458 OA
BRANCH   2   3
ATOM      3  C   UNL A   1      34.439  33.304  29.091  1.00  0.00     0.338 C 
ATOM      4  O   UNL A   1      35.333  33.803  29.755  1.00  0.00    -0.246 OA
BRANCH   3   5
ATOM      5  C   UNL A   1      34.586  31.987  28.438  1.00  0.00     0.060 A 
ATOM      6  C   UNL A   1      32.719  29.632  26.070  1.00  0.00    -0.021 A 
ATOM      7  C   UNL A   1      33.253  28.369  25.900  1.00  0.00     0.087 A 
ATOM      8  C   UNL A   1      33.589  30.317  26.976  1.00  0.00     0.003 A 
ATOM      9  N   UNL A   1      34.401  28.277  26.646  1.00  0.00    -0.361 N 
ATOM     10  C   UNL A   1      34.635  29.461  27.308  1.00  0.00     0.046 A 
ATOM     11  C   UNL A   1      33.569  31.596  27.557  1.00  0.00     0.026 A 
ATOM     12  H   UNL A   1      34.975  27.480  26.700  1.00  0.00     0.166 HD
ATOM     13  C   UNL A   1      35.678  29.834  28.172  1.00  0.00     0.027 A 
ATOM     14  C   UNL A   1      35.638  31.120  28.731  1.00  0.00     0.018 A 
BRANCH   6  15
ATOM     15  C   UNL A   1      31.486  30.184  25.412  1.00  0.00     0.059 C 
BRANCH  15  16
ATOM     16  C   UNL A   1      30.794  29.207  24.452  1.00  0.00     0.120 C 
BRANCH  16  17
ATOM     17  N   UNL A   1      30.632  29.750  23.109  1.00  0.00    -0.356 N 
ATOM     18  C   UNL A   1      28.305  29.023  22.775  1.00  0.00     0.114 C 
ATOM     19  C   UNL A   1      29.549  29.702  22.285  1.00  0.00     0.216 C 
ATOM     20  O   UNL A   1      29.608  30.213  21.170  1.00  0.00    -0.275 OA
ATOM     21  H   UNL A   1      31.419  30.217  22.746  1.00  0.00     0.163 HD
ENDBRANCH  16  17
ENDBRANCH  15  16
ENDBRANCH   6  15
ENDBRANCH   3   5
ENDBRANCH   2   3
ENDBRANCH   1   2
BRANCH   1  22
ATOM     22  C   UNL A   1      33.018  36.083  29.802  1.00  0.00     0.275 C 
BRANCH  22  23
ATOM     23  O   UNL A   1      32.364  35.360  30.862  1.00  0.00    -0.458 OA
BRANCH  23  24
ATOM     24  C   UNL A   1      32.591  35.812  32.115  1.00  0.00     0.338 C 
ATOM     25  O   UNL A   1      31.959  36.660  32.723  1.00  0.00    -0.246 OA
BRANCH  24  26
ATOM     26  C   UNL A   1      33.778  35.151  32.692  1.00  0.00     0.060 A 
ATOM     27  C   UNL A   1      34.979  35.840  32.829  1.00  0.00     0.016 A 
ATOM     28  C   UNL A   1      33.723  33.788  32.991  1.00  0.00     0.016 A 
ATOM     29  C   UNL A   1      36.147  35.150  33.158  1.00  0.00     0.010 A 
ATOM     30  C   UNL A   1      34.873  33.120  33.426  1.00  0.00     0.010 A 
ATOM     31  C   UNL A   1      36.111  33.782  33.474  1.00  0.00    -0.014 A 
BRANCH  31  32
ATOM     32  C   UNL A   1      37.367  33.051  33.818  1.00  0.00     0.031 A 
ATOM     33  C   UNL A   1      37.969  33.161  35.196  1.00  0.00     0.074 A 
ATOM     34  C   UNL A   1      37.962  32.255  32.906  1.00  0.00     0.049 A 
ATOM     35  N   UNL A   1      39.114  32.701  35.639  1.00  0.00    -0.248 NA
ATOM     36  C   UNL A   1      37.194  33.897  36.207  1.00  0.00     0.031 C 
ATOM     37  C   UNL A   1      37.489  32.034  31.540  1.00  0.00     0.029 A 
ATOM     38  N   UNL A   1      39.070  31.447  33.005  1.00  0.00    -0.354 N 
ATOM     39  C   UNL A   1      39.240  33.177  36.940  1.00  0.00     0.074 A 
ATOM     40  C   UNL A   1      38.035  33.923  37.233  1.00  0.00     0.031 C 
ATOM     41  C   UNL A   1      38.231  31.075  30.967  1.00  0.00     0.029 A 
ATOM     42  C   UNL A   1      39.285  30.671  31.890  1.00  0.00     0.049 A 
ATOM     43  H   UNL A   1      39.653  31.425  33.797  1.00  0.00     0.167 HD
ATOM     44  C   UNL A   1      40.278  33.025  37.797  1.00  0.00     0.037 A 
ATOM     45  C   UNL A   1      40.227  29.742  31.639  1.00  0.00     0.037 A 
ATOM     46  C   UNL A   1      41.442  32.218  37.533  1.00  0.00     0.049 A 
ATOM     47  C   UNL A   1      41.322  29.518  32.645  1.00  0.00     0.074 A 
ATOM     48  C   UNL A   1      42.557  32.019  38.329  1.00  0.00     0.029 A 
ATOM     49  N   UNL A   1      41.626  31.451  36.394  1.00  0.00    -0.354 N 
ATOM     50  N   UNL A   1      41.477  30.049  33.832  1.00  0.00    -0.248 NA
ATOM     51  C   UNL A   1      42.401  28.599  32.252  1.00  0.00     0.031 C 
ATOM     52  C   UNL A   1      43.426  31.147  37.661  1.00  0.00     0.029 A 
ATOM     53  C   UNL A   1      42.835  30.777  36.465  1.00  0.00     0.049 A 
ATOM     54  H   UNL A   1      40.990  31.393  35.643  1.00  0.00     0.167 HD
ATOM     55  C   UNL A   1      42.682  29.558  34.313  1.00  0.00     0.074 A 
ATOM     56  C   UNL A   1      43.188  28.636  33.318  1.00  0.00     0.031 C 
ATOM     57  C   UNL A   1      43.329  29.872  35.461  1.00  0.00     0.037 A 
BRANCH  44  58
ATOM     58  C   UNL A   1      40.239  33.800  39.081  1.00  0.00     0.064 A 
ATOM     59  C   UNL A   1      39.619  33.307  40.236  1.00  0.00     0.173 A 
ATOM     60  C   UNL A   1      40.873  35.051  39.157  1.00  0.00     0.173 A 
ATOM     61  F   UNL A   1      38.988  32.124  40.211  1.00  0.00    -0.203 F 
ATOM     62  C   UNL A   1      39.618  34.047  41.417  1.00  0.00     0.198 A 
ATOM     63  C   UNL A   1      40.891  35.778  40.344  1.00  0.00     0.198 A 
ATOM     64  F   UNL A   1      41.486  35.565  38.080  1.00  0.00    -0.203 F 
ATOM     65  F   UNL A   1      38.987  33.576  42.501  1.00  0.00    -0.200 F 
ATOM     66  C   UNL A   1      40.258  35.278  41.472  1.00  0.00     0.200 A 
ATOM     67  F   UNL A   1      41.520  36.960  40.397  1.00  0.00    -0.200 F 
ATOM     68  F   UNL A   1      40.260  35.985  42.610  1.00  0.00    -0.200 F 
ENDBRANCH  44  58
BRANCH  45  69
ATOM     69  C   UNL A   1      40.176  28.945  30.386  1.00  0.00     0.064 A 
ATOM     70  C   UNL A   1      40.795  29.421  29.220  1.00  0.00     0.173 A 
ATOM     71  C   UNL A   1      39.525  27.705  30.317  1.00  0.00     0.173 A 
ATOM     72  F   UNL A   1      41.408  30.615  29.230  1.00  0.00    -0.203 F 
ATOM     73  C   UNL A   1      40.760  28.691  28.035  1.00  0.00     0.198 A 
ATOM     74  C   UNL A   1      39.518  26.962  29.140  1.00  0.00     0.198 A 
ATOM     75  F   UNL A   1      38.912  27.208  31.401  1.00  0.00    -0.203 F 
ATOM     76  F   UNL A   1      41.326  29.189  26.927  1.00  0.00    -0.200 F 
ATOM     77  C   UNL A   1      40.129  27.456  27.998  1.00  0.00     0.200 A 
ATOM     78  F   UNL A   1      38.916  25.764  29.110  1.00  0.00    -0.200 F 
ATOM     79  F   UNL A   1      40.103  26.750  26.860  1.00  0.00    -0.200 F 
ENDBRANCH  45  69
BRANCH  57  80
ATOM     80  C   UNL A   1      44.669  29.240  35.685  1.00  0.00     0.064 A 
ATOM     81  C   UNL A   1      44.786  28.015  36.358  1.00  0.00     0.173 A 
ATOM     82  C   UNL A   1      45.838  29.837  35.194  1.00  0.00     0.173 A 
ATOM     83  F   UNL A   1      43.694  27.413  36.856  1.00  0.00    -0.203 F 
ATOM     84  C   UNL A   1      46.028  27.418  36.546  1.00  0.00     0.198 A 
ATOM     85  C   UNL A   1      47.078  29.227  35.368  1.00  0.00     0.198 A 
ATOM     86  F   UNL A   1      45.778  31.008  34.542  1.00  0.00    -0.203 F 
ATOM     87  F   UNL A   1      46.119  26.264  37.224  1.00  0.00    -0.200 F 
ATOM     88  C   UNL A   1      47.172  28.021  36.048  1.00  0.00     0.200 A 
ATOM     89  F   UNL A   1      48.183  29.806  34.879  1.00  0.00    -0.200 F 
ATOM     90  F   UNL A   1      48.368  27.444  36.227  1.00  0.00    -0.200 F 
ENDBRANCH  57  80
ENDBRANCH  31  32
ENDBRANCH  24  26
ENDBRANCH  23  24
ENDBRANCH  22  23
ENDBRANCH   1  22
TORSDOF 14
ENDMDL
MODEL 2
REMARK VINA RESULT:     -11.2      4.113      9.340
REMARK SMILES CC(=O)NCCc1c[nH]c2ccc(C(=O)OCCOC(=O)c3ccc(-c4c5nc(c(-c6c(F)c(F)c(F)c(F)c6F)c6ccc([nH]6)c(-c6c(F)c(F)c(F)c(F)c6F)c6nc(c(-c7c(F)c(F)c(F)c(F)c7F)c7ccc4[nH]7)C=C6)C=C5)cc3)cc12
REMARK SMILES IDX 17 1 16 2 14 3 15 4 13 5 7 6 8 7 86 8 9 9 10 10 85 11 11 13
REMARK SMILES IDX 12 14 6 15 5 16 4 17 1 18 2 19 3 20 18 22 19 23 20 24 21 25
REMARK SMILES IDX 22 26 23 27 84 28 24 29 83 30 25 31 26 32 27 33 77 34 28 35
REMARK SMILES IDX 82 36 76 37 78 38 29 39 81 40 75 41 74 42 30 44 62 45 42 46
REMARK SMILES IDX 61 47 43 48 46 49 60 50 79 51 44 52 45 53 59 55 80 56 47 57
REMARK SMILES IDX 31 58 32 59 40 60 33 61 34 62 38 63 41 64 35 65 36 66 39 67
REMARK SMILES IDX 37 68 63 69 64 70 72 71 65 72 66 73 70 74 73 75 67 76 68 77
REMARK SMILES IDX 71 78 69 79 48 80 49 81 57 82 50 83 51 84 55 85 58 86 52 87
REMARK SMILES IDX 53 88 56 89 54 90
REMARK H PARENT 9 12 4 21 78 43 46 54
REMARK Flexibility Score: inf
ROOT
ATOM      1  C   UNL A   1      31.773  28.361  26.625  1.00  0.00     0.275 C 
ENDROOT
BRANCH   1   2
ATOM      2  O   UNL A   1      31.861  27.410  25.545  1.00  0.00    -0.458 OA
BRANCH   2   3
ATOM      3  C   UNL A   1      31.601  26.129  25.902  1.00  0.00     0.338 C 
ATOM      4  O   UNL A   1      30.554  25.703  26.365  1.00  0.00    -0.246 OA
BRANCH   3   5
ATOM      5  C   UNL A   1      32.737  25.241  25.582  1.00  0.00     0.060 A 
ATOM      6  C   UNL A   1      33.500  21.572  24.804  1.00  0.00    -0.021 A 
ATOM      7  C   UNL A   1      34.833  21.214  24.743  1.00  0.00     0.087 A 
ATOM      8  C   UNL A   1      33.474  22.974  25.091  1.00  0.00     0.003 A 
ATOM      9  N   UNL A   1      35.596  22.333  24.964  1.00  0.00    -0.361 N 
ATOM     10  C   UNL A   1      34.788  23.427  25.171  1.00  0.00     0.046 A 
ATOM     11  C   UNL A   1      32.439  23.900  25.306  1.00  0.00     0.026 A 
ATOM     12  H   UNL A   1      36.580  22.350  24.973  1.00  0.00     0.166 HD
ATOM     13  C   UNL A   1      35.114  24.769  25.427  1.00  0.00     0.027 A 
ATOM     14  C   UNL A   1      34.061  25.674  25.628  1.00  0.00     0.018 A 
BRANCH   6  15
ATOM     15  C   UNL A   1      32.314  20.675  24.584  1.00  0.00     0.059 C 
BRANCH  15  16
ATOM     16  C   UNL A   1      32.572  19.199  24.917  1.00  0.00     0.120 C 
BRANCH  16  17
ATOM     17  N   UNL A   1      32.772  18.376  23.732  1.00  0.00    -0.356 N 
ATOM     18  C   UNL A   1      34.617  17.015  24.626  1.00  0.00     0.114 C 
ATOM     19  C   UNL A   1      33.674  17.379  23.518  1.00  0.00     0.216 C 
ATOM     20  O   UNL A   1      33.699  16.801  22.434  1.00  0.00    -0.275 OA
ATOM     21  H   UNL A   1      32.169  18.569  22.979  1.00  0.00     0.163 HD
ENDBRANCH  16  17
ENDBRANCH  15  16
ENDBRANCH   6  15
ENDBRANCH   3   5
ENDBRANCH   2   3
ENDBRANCH   1   2
BRANCH   1  22
ATOM     22  C   UNL A   1      31.652  29.789  26.094  1.00  0.00     0.275 C 
BRANCH  22  23
ATOM     23  O   UNL A   1      32.953  30.393  25.970  1.00  0.00    -0.458 OA
BRANCH  23  24
ATOM     24  C   UNL A   1      33.288  31.282  26.931  1.00  0.00     0.338 C 
ATOM     25  O   UNL A   1      32.667  32.275  27.270  1.00  0.00    -0.246 OA
BRANCH  24  26
ATOM     26  C   UNL A   1      34.580  30.914  27.542  1.00  0.00     0.060 A 
ATOM     27  C   UNL A   1      34.877  29.585  27.833  1.00  0.00     0.016 A 
ATOM     28  C   UNL A   1      35.461  31.923  27.937  1.00  0.00     0.016 A 
ATOM     29  C   UNL A   1      35.992  29.273  28.612  1.00  0.00     0.010 A 
ATOM     30  C   UNL A   1      36.636  31.598  28.624  1.00  0.00     0.010 A 
ATOM     31  C   UNL A   1      36.897  30.271  29.009  1.00  0.00    -0.014 A 
BRANCH  31  32
ATOM     32  C   UNL A   1      38.084  29.928  29.848  1.00  0.00     0.031 A 
ATOM     33  C   UNL A   1      39.250  29.176  29.259  1.00  0.00     0.074 A 
ATOM     34  C   UNL A   1      38.140  30.319  31.137  1.00  0.00     0.049 A 
ATOM     35  N   UNL A   1      40.307  28.684  29.860  1.00  0.00    -0.248 NA
ATOM     36  C   UNL A   1      39.221  28.926  27.809  1.00  0.00     0.031 C 
ATOM     37  C   UNL A   1      37.099  31.067  31.840  1.00  0.00     0.029 A 
ATOM     38  N   UNL A   1      39.135  30.178  32.076  1.00  0.00    -0.354 N 
ATOM     39  C   UNL A   1      41.010  27.985  28.885  1.00  0.00     0.074 A 
ATOM     40  C   UNL A   1      40.287  28.153  27.643  1.00  0.00     0.031 C 
ATOM     41  C   UNL A   1      37.550  31.411  33.056  1.00  0.00     0.029 A 
ATOM     42  C   UNL A   1      38.877  30.839  33.254  1.00  0.00     0.049 A 
ATOM     43  H   UNL A   1      39.954  29.654  31.921  1.00  0.00     0.167 HD
ATOM     44  C   UNL A   1      42.140  27.251  29.024  1.00  0.00     0.037 A 
ATOM     45  C   UNL A   1      39.623  30.966  34.367  1.00  0.00     0.037 A 
ATOM     46  C   UNL A   1      42.902  27.147  30.243  1.00  0.00     0.049 A 
ATOM     47  C   UNL A   1      40.923  30.218  34.469  1.00  0.00     0.074 A 
ATOM     48  C   UNL A   1      44.047  26.411  30.489  1.00  0.00     0.029 A 
ATOM     49  N   UNL A   1      42.608  27.828  31.414  1.00  0.00    -0.354 N 
ATOM     50  N   UNL A   1      41.527  29.483  33.568  1.00  0.00    -0.248 NA
ATOM     51  C   UNL A   1      41.620  30.279  35.762  1.00  0.00     0.031 C 
ATOM     52  C   UNL A   1      44.435  26.629  31.817  1.00  0.00     0.029 A 
ATOM     53  C   UNL A   1      43.550  27.529  32.385  1.00  0.00     0.049 A 
ATOM     54  H   UNL A   1      41.841  28.436  31.537  1.00  0.00     0.167 HD
ATOM     55  C   UNL A   1      42.653  28.968  34.194  1.00  0.00     0.074 A 
ATOM     56  C   UNL A   1      42.686  29.525  35.529  1.00  0.00     0.031 C 
ATOM     57  C   UNL A   1      43.560  28.082  33.714  1.00  0.00     0.037 A 
BRANCH  44  58
ATOM     58  C   UNL A   1      42.593  26.441  27.845  1.00  0.00     0.064 A 
ATOM     59  C   UNL A   1      43.552  26.910  26.937  1.00  0.00     0.173 A 
ATOM     60  C   UNL A   1      42.075  25.151  27.647  1.00  0.00     0.173 A 
ATOM     61  F   UNL A   1      44.065  28.140  27.073  1.00  0.00    -0.203 F 
ATOM     62  C   UNL A   1      43.962  26.123  25.862  1.00  0.00     0.198 A 
ATOM     63  C   UNL A   1      42.504  24.358  26.587  1.00  0.00     0.198 A 
ATOM     64  F   UNL A   1      41.159  24.654  28.492  1.00  0.00    -0.203 F 
ATOM     65  F   UNL A   1      44.851  26.603  24.983  1.00  0.00    -0.200 F 
ATOM     66  C   UNL A   1      43.443  24.847  25.691  1.00  0.00     0.200 A 
ATOM     67  F   UNL A   1      42.009  23.121  26.432  1.00  0.00    -0.200 F 
ATOM     68  F   UNL A   1      43.843  24.090  24.660  1.00  0.00    -0.200 F 
ENDBRANCH  44  58
BRANCH  45  69
ATOM     69  C   UNL A   1      39.166  31.843  35.477  1.00  0.00     0.064 A 
ATOM     70  C   UNL A   1      39.547  33.193  35.512  1.00  0.00     0.173 A 
ATOM     71  C   UNL A   1      38.346  31.371  36.511  1.00  0.00     0.173 A 
ATOM     72  F   UNL A   1      40.353  33.685  34.558  1.00  0.00    -0.203 F 
ATOM     73  C   UNL A   1      39.131  34.033  36.542  1.00  0.00     0.198 A 
ATOM     74  C   UNL A   1      37.905  32.220  37.523  1.00  0.00     0.198 A 
ATOM     75  F   UNL A   1      37.959  30.088  36.529  1.00  0.00    -0.203 F 
ATOM     76  F   UNL A   1      39.544  35.308  36.571  1.00  0.00    -0.200 F 
ATOM     77  C   UNL A   1      38.302  33.549  37.542  1.00  0.00     0.200 A 
ATOM     78  F   UNL A   1      37.096  31.751  38.484  1.00  0.00    -0.200 F 
ATOM     79  F   UNL A   1      37.895  34.360  38.528  1.00  0.00    -0.200 F 
ENDBRANCH  45  69
BRANCH  57  80
ATOM     80  C   UNL A   1      44.641  27.637  34.651  1.00  0.00     0.064 A 
ATOM     81  C   UNL A   1      45.844  28.352  34.757  1.00  0.00     0.173 A 
ATOM     82  C   UNL A   1      44.465  26.517  35.474  1.00  0.00     0.173 A 
ATOM     83  F   UNL A   1      46.063  29.423  33.978  1.00  0.00    -0.203 F 
ATOM     84  C   UNL A   1      46.839  27.950  35.642  1.00  0.00     0.198 A 
ATOM     85  C   UNL A   1      45.455  26.129  36.374  1.00  0.00     0.198 A 
ATOM     86  F   UNL A   1      43.331  25.803  35.411  1.00  0.00    -0.203 F 
ATOM     87  F   UNL A   1      47.995  28.627  35.701  1.00  0.00    -0.200 F 
ATOM     88  C   UNL A   1      46.643  26.843  36.453  1.00  0.00     0.200 A 
ATOM     89  F   UNL A   1      45.261  25.064  37.162  1.00  0.00    -0.200 F 
ATOM     90  F   UNL A   1      47.600  26.458  37.308  1.00  0.00    -0.200 F 
ENDBRANCH  57  80
ENDBRANCH  31  32
ENDBRANCH  24  26
ENDBRANCH  23  24
ENDBRANCH  22  23
ENDBRANCH   1  22
TORSDOF 14
ENDMDL
MODEL 3
REMARK VINA RESULT:     -11.2      8.119     13.354
REMARK SMILES CC(=O)NCCc1c[nH]c2ccc(C(=O)OCCOC(=O)c3ccc(-c4c5nc(c(-c6c(F)c(F)c(F)c(F)c6F)c6ccc([nH]6)c(-c6c(F)c(F)c(F)c(F)c6F)c6nc(c(-c7c(F)c(F)c(F)c(F)c7F)c7ccc4[nH]7)C=C6)C=C5)cc3)cc12
REMARK SMILES IDX 17 1 16 2 14 3 15 4 13 5 7 6 8 7 86 8 9 9 10 10 85 11 11 13
REMARK SMILES IDX 12 14 6 15 5 16 4 17 1 18 2 19 3 20 18 22 19 23 20 24 21 25
REMARK SMILES IDX 22 26 23 27 84 28 24 29 83 30 25 31 26 32 27 33 77 34 28 35
REMARK SMILES IDX 82 36 76 37 78 38 29 39 81 40 75 41 74 42 30 44 62 45 42 46
REMARK SMILES IDX 61 47 43 48 46 49 60 50 79 51 44 52 45 53 59 55 80 56 47 57
REMARK SMILES IDX 31 58 32 59 40 60 33 61 34 62 38 63 41 64 35 65 36 66 39 67
REMARK SMILES IDX 37 68 63 69 64 70 72 71 65 72 66 73 70 74 73 75 67 76 68 77
REMARK SMILES IDX 71 78 69 79 48 80 49 81 57 82 50 83 51 84 55 85 58 86 52 87
REMARK SMILES IDX 53 88 56 89 54 90
REMARK H PARENT 9 12 4 21 78 43 46 54
REMARK Flexibility Score: inf
ROOT
ATOM      1  C   UNL A   1      41.969  19.085  26.648  1.00  0.00     0.275 C 
ENDROOT
BRANCH   1   2
ATOM      2  O   UNL A   1      41.280  20.160  25.980  1.00  0.00    -0.458 OA
BRANCH   2   3
ATOM      3  C   UNL A   1      41.429  21.373  26.565  1.00  0.00     0.338 C 
ATOM      4  O   UNL A   1      42.455  21.823  27.049  1.00  0.00    -0.246 OA
BRANCH   3   5
ATOM      5  C   UNL A   1      40.187  22.167  26.480  1.00  0.00     0.060 A 
ATOM      6  C   UNL A   1      36.535  21.844  25.383  1.00  0.00    -0.021 A 
ATOM      7  C   UNL A   1      35.790  23.007  25.351  1.00  0.00     0.087 A 
ATOM      8  C   UNL A   1      37.842  22.217  25.830  1.00  0.00     0.003 A 
ATOM      9  N   UNL A   1      36.584  24.045  25.771  1.00  0.00    -0.361 N 
ATOM     10  C   UNL A   1      37.844  23.587  26.079  1.00  0.00     0.046 A 
ATOM     11  C   UNL A   1      39.037  21.505  26.031  1.00  0.00     0.026 A 
ATOM     12  H   UNL A   1      36.294  24.983  25.841  1.00  0.00     0.166 HD
ATOM     13  C   UNL A   1      38.976  24.272  26.549  1.00  0.00     0.027 A 
ATOM     14  C   UNL A   1      40.153  23.535  26.750  1.00  0.00     0.018 A 
BRANCH   6  15
ATOM     15  C   UNL A   1      36.059  20.460  25.042  1.00  0.00     0.059 C 
BRANCH  15  16
ATOM     16  C   UNL A   1      34.572  20.379  24.671  1.00  0.00     0.120 C 
BRANCH  16  17
ATOM     17  N   UNL A   1      33.839  19.410  25.473  1.00  0.00    -0.356 N 
ATOM     18  C   UNL A   1      32.429  18.530  23.658  1.00  0.00     0.114 C 
ATOM     19  C   UNL A   1      32.855  18.547  25.096  1.00  0.00     0.216 C 
ATOM     20  O   UNL A   1      32.341  17.805  25.930  1.00  0.00    -0.275 OA
ATOM     21  H   UNL A   1      34.090  19.374  26.424  1.00  0.00     0.163 HD
ENDBRANCH  16  17
ENDBRANCH  15  16
ENDBRANCH   6  15
ENDBRANCH   3   5
ENDBRANCH   2   3
ENDBRANCH   1   2
BRANCH   1  22
ATOM     22  C   UNL A   1      43.141  18.575  25.810  1.00  0.00     0.275 C 
BRANCH  22  23
ATOM     23  O   UNL A   1      43.269  19.347  24.601  1.00  0.00    -0.458 OA
BRANCH  23  24
ATOM     24  C   UNL A   1      44.531  19.594  24.186  1.00  0.00     0.338 C 
ATOM     25  O   UNL A   1      45.287  18.825  23.616  1.00  0.00    -0.246 OA
BRANCH  24  26
ATOM     26  C   UNL A   1      44.931  20.967  24.549  1.00  0.00     0.060 A 
ATOM     27  C   UNL A   1      45.738  21.203  25.660  1.00  0.00     0.016 A 
ATOM     28  C   UNL A   1      44.397  22.044  23.840  1.00  0.00     0.016 A 
ATOM     29  C   UNL A   1      45.920  22.506  26.125  1.00  0.00     0.010 A 
ATOM     30  C   UNL A   1      44.671  23.356  24.245  1.00  0.00     0.010 A 
ATOM     31  C   UNL A   1      45.402  23.604  25.420  1.00  0.00    -0.014 A 
BRANCH  31  32
ATOM     32  C   UNL A   1      45.597  24.994  25.930  1.00  0.00     0.031 A 
ATOM     33  C   UNL A   1      46.885  25.735  25.673  1.00  0.00     0.074 A 
ATOM     34  C   UNL A   1      44.607  25.617  26.601  1.00  0.00     0.049 A 
ATOM     35  N   UNL A   1      47.282  26.894  26.140  1.00  0.00    -0.248 NA
ATOM     36  C   UNL A   1      47.865  25.083  24.789  1.00  0.00     0.031 C 
ATOM     37  C   UNL A   1      43.301  25.037  26.911  1.00  0.00     0.029 A 
ATOM     38  N   UNL A   1      44.528  26.893  27.106  1.00  0.00    -0.354 N 
ATOM     39  C   UNL A   1      48.587  27.060  25.691  1.00  0.00     0.074 A 
ATOM     40  C   UNL A   1      48.902  25.906  24.877  1.00  0.00     0.031 C 
ATOM     41  C   UNL A   1      42.517  25.982  27.453  1.00  0.00     0.029 A 
ATOM     42  C   UNL A   1      43.288  27.211  27.607  1.00  0.00     0.049 A 
ATOM     43  H   UNL A   1      45.287  27.520  27.110  1.00  0.00     0.167 HD
ATOM     44  C   UNL A   1      49.449  28.071  25.959  1.00  0.00     0.037 A 
ATOM     45  C   UNL A   1      42.825  28.359  28.135  1.00  0.00     0.037 A 
ATOM     46  C   UNL A   1      49.110  29.256  26.706  1.00  0.00     0.049 A 
ATOM     47  C   UNL A   1      43.774  29.507  28.340  1.00  0.00     0.074 A 
ATOM     48  C   UNL A   1      49.919  30.325  27.048  1.00  0.00     0.029 A 
ATOM     49  N   UNL A   1      47.846  29.539  27.199  1.00  0.00    -0.354 N 
ATOM     50  N   UNL A   1      45.033  29.611  27.994  1.00  0.00    -0.248 NA
ATOM     51  C   UNL A   1      43.247  30.681  29.052  1.00  0.00     0.031 C 
ATOM     52  C   UNL A   1      49.149  31.247  27.768  1.00  0.00     0.029 A 
ATOM     53  C   UNL A   1      47.853  30.767  27.843  1.00  0.00     0.049 A 
ATOM     54  H   UNL A   1      47.058  28.955  27.106  1.00  0.00     0.167 HD
ATOM     55  C   UNL A   1      45.458  30.841  28.476  1.00  0.00     0.074 A 
ATOM     56  C   UNL A   1      44.306  31.477  29.080  1.00  0.00     0.031 C 
ATOM     57  C   UNL A   1      46.701  31.380  28.451  1.00  0.00     0.037 A 
BRANCH  44  58
ATOM     58  C   UNL A   1      50.869  27.915  25.500  1.00  0.00     0.064 A 
ATOM     59  C   UNL A   1      51.262  28.171  24.180  1.00  0.00     0.173 A 
ATOM     60  C   UNL A   1      51.859  27.535  26.419  1.00  0.00     0.173 A 
ATOM     61  F   UNL A   1      50.352  28.522  23.260  1.00  0.00    -0.203 F 
ATOM     62  C   UNL A   1      52.594  28.032  23.792  1.00  0.00     0.198 A 
ATOM     63  C   UNL A   1      53.192  27.421  26.035  1.00  0.00     0.198 A 
ATOM     64  F   UNL A   1      51.535  27.285  27.697  1.00  0.00    -0.203 F 
ATOM     65  F   UNL A   1      52.944  28.244  22.516  1.00  0.00    -0.200 F 
ATOM     66  C   UNL A   1      53.558  27.664  24.720  1.00  0.00     0.200 A 
ATOM     67  F   UNL A   1      54.122  27.076  26.937  1.00  0.00    -0.200 F 
ATOM     68  F   UNL A   1      54.838  27.537  24.346  1.00  0.00    -0.200 F 
ENDBRANCH  44  58
BRANCH  45  69
ATOM     69  C   UNL A   1      41.391  28.489  28.502  1.00  0.00     0.064 A 
ATOM     70  C   UNL A   1      40.952  28.118  29.782  1.00  0.00     0.173 A 
ATOM     71  C   UNL A   1      40.434  28.984  27.605  1.00  0.00     0.173 A 
ATOM     72  F   UNL A   1      41.826  27.614  30.667  1.00  0.00    -0.203 F 
ATOM     73  C   UNL A   1      39.613  28.232  30.147  1.00  0.00     0.198 A 
ATOM     74  C   UNL A   1      39.101  29.126  27.981  1.00  0.00     0.198 A 
ATOM     75  F   UNL A   1      40.799  29.346  26.366  1.00  0.00    -0.203 F 
ATOM     76  F   UNL A   1      39.217  27.832  31.363  1.00  0.00    -0.200 F 
ATOM     77  C   UNL A   1      38.689  28.745  29.250  1.00  0.00     0.200 A 
ATOM     78  F   UNL A   1      38.212  29.633  27.114  1.00  0.00    -0.200 F 
ATOM     79  F   UNL A   1      37.403  28.862  29.604  1.00  0.00    -0.200 F 
ENDBRANCH  45  69
BRANCH  57  80
ATOM     80  C   UNL A   1      46.886  32.704  29.125  1.00  0.00     0.064 A 
ATOM     81  C   UNL A   1      47.254  32.781  30.477  1.00  0.00     0.173 A 
ATOM     82  C   UNL A   1      46.734  33.902  28.414  1.00  0.00     0.173 A 
ATOM     83  F   UNL A   1      47.398  31.660  31.201  1.00  0.00    -0.203 F 
ATOM     84  C   UNL A   1      47.447  34.011  31.097  1.00  0.00     0.198 A 
ATOM     85  C   UNL A   1      46.947  35.132  29.033  1.00  0.00     0.198 A 
ATOM     86  F   UNL A   1      46.385  33.881  27.119  1.00  0.00    -0.203 F 
ATOM     87  F   UNL A   1      47.763  34.061  32.399  1.00  0.00    -0.200 F 
ATOM     88  C   UNL A   1      47.298  35.185  30.375  1.00  0.00     0.200 A 
ATOM     89  F   UNL A   1      46.810  36.265  28.332  1.00  0.00    -0.200 F 
ATOM     90  F   UNL A   1      47.487  36.370  30.972  1.00  0.00    -0.200 F 
ENDBRANCH  57  80
ENDBRANCH  31  32
ENDBRANCH  24  26
ENDBRANCH  23  24
ENDBRANCH  22  23
ENDBRANCH   1  22
TORSDOF 14
ENDMDL
