MODEL 1
REMARK VINA RESULT:     -14.6      0.000      0.000
REMARK SMILES Cc1coc2c(C)c3oc(=O)c(CC(=O)NCC(=O)N[C@H](C(=O)OCCOC(=O)c4ccc(-c5c6nc(c(-c7c(F)c(F)c(F)c(F)c7F)c7ccc([nH]7)c(-c7c(F)c(F)c(F)c(F)c7F)c7nc(c(-c8c(F)c(F)c(F)c(F)c8F)c8ccc5[nH]8)C=C7)C=C6)cc4)C(C)C)c(C)c3cc12
REMARK SMILES IDX 24 1 22 2 23 3 21 4 20 5 18 6 19 7 17 9 16 10 14 11 15 12
REMARK SMILES IDX 13 14 12 15 1 16 2 17 3 18 100 19 4 20 5 21 99 22 6 23 98 24
REMARK SMILES IDX 7 25 8 26 96 27 9 28 97 29 10 30 11 31 93 32 94 33 95 34
REMARK SMILES IDX 25 35 26 36 27 37 28 38 29 39 30 40 31 41 92 42 32 43 91 44
REMARK SMILES IDX 33 45 34 46 35 47 85 48 36 49 90 50 84 51 86 52 37 53 89 54
REMARK SMILES IDX 83 55 82 56 38 58 70 59 50 60 69 61 51 62 54 63 68 64 87 65
REMARK SMILES IDX 52 66 53 67 67 69 88 70 55 71 39 72 40 73 48 74 41 75 42 76
REMARK SMILES IDX 46 77 49 78 43 79 44 80 47 81 45 82 71 83 72 84 80 85 73 86
REMARK SMILES IDX 74 87 78 88 81 89 75 90 76 91 79 92 77 93 56 94 57 95 65 96
REMARK SMILES IDX 58 97 59 98 63 99 66 100 60 101 61 102 64 103 62 104
REMARK H PARENT 20 8 16 13 86 57 54 68
REMARK Flexibility Score: inf
ROOT
ATOM      1  O   UNL A   1      35.905  29.352  29.937  1.00  0.00    -0.461 OA
ENDROOT
BRANCH   1   2
ATOM      2  C   UNL A   1      36.100  29.655  28.600  1.00  0.00     0.329 C 
ATOM      3  O   UNL A   1      36.999  29.106  27.960  1.00  0.00    -0.250 OA
BRANCH   2   4
ATOM      4  C   UNL A   1      35.041  30.823  27.802  1.00  0.00     0.194 C 
BRANCH   4   5
ATOM      5  N   UNL A   1      33.677  30.174  27.965  1.00  0.00    -0.341 N 
ATOM      6  C   UNL A   1      32.733  29.722  27.076  1.00  0.00     0.240 C 
ATOM      7  O   UNL A   1      31.799  29.051  27.524  1.00  0.00    -0.273 OA
ATOM      8  H   UNL A   1      33.415  30.051  28.906  1.00  0.00     0.164 HD
BRANCH   6   9
ATOM      9  C   UNL A   1      32.909  29.863  25.556  1.00  0.00     0.216 C 
BRANCH   9  10
ATOM     10  N   UNL A   1      31.612  29.979  25.010  1.00  0.00    -0.347 N 
ATOM     11  C   UNL A   1      30.863  29.653  23.988  1.00  0.00     0.225 C 
ATOM     12  O   UNL A   1      29.959  30.494  24.184  1.00  0.00    -0.275 OA
ATOM     13  H   UNL A   1      31.063  30.505  25.636  1.00  0.00     0.164 HD
BRANCH  11  14
ATOM     14  C   UNL A   1      30.901  28.617  22.668  1.00  0.00     0.143 C 
BRANCH  14  15
ATOM     15  C   UNL A   1      31.145  27.224  22.893  1.00  0.00     0.051 A 
ATOM     16  C   UNL A   1      36.784  22.825  23.488  1.00  0.00     0.048 C 
ATOM     17  C   UNL A   1      35.507  22.481  24.167  1.00  0.00    -0.005 A 
ATOM     18  C   UNL A   1      35.173  21.365  24.893  1.00  0.00     0.199 A 
ATOM     19  C   UNL A   1      34.331  23.283  24.145  1.00  0.00     0.024 A 
ATOM     20  O   UNL A   1      33.890  21.423  25.333  1.00  0.00    -0.464 OA
ATOM     21  C   UNL A   1      33.325  22.583  24.862  1.00  0.00     0.140 A 
ATOM     22  C   UNL A   1      34.166  24.527  23.516  1.00  0.00     0.024 A 
ATOM     23  C   UNL A   1      31.964  22.923  25.106  1.00  0.00     0.036 A 
ATOM     24  C   UNL A   1      32.906  25.004  23.580  1.00  0.00     0.022 A 
ATOM     25  C   UNL A   1      31.003  22.221  25.987  1.00  0.00     0.052 C 
ATOM     26  C   UNL A   1      31.746  24.101  24.442  1.00  0.00     0.145 A 
ATOM     27  C   UNL A   1      32.486  26.533  22.666  1.00  0.00    -0.029 A 
ATOM     28  O   UNL A   1      30.089  24.882  24.533  1.00  0.00    -0.422 OA
ATOM     29  C   UNL A   1      33.506  26.850  21.599  1.00  0.00     0.046 C 
ATOM     30  C   UNL A   1      29.593  26.410  23.745  1.00  0.00     0.340 A 
ATOM     31  O   UNL A   1      28.461  26.869  23.841  1.00  0.00    -0.246 OA
ENDBRANCH  14  15
ENDBRANCH  11  14
ENDBRANCH   9  10
ENDBRANCH   6   9
ENDBRANCH   4   5
BRANCH   4  32
ATOM     32  C   UNL A   1      34.728  32.677  27.844  1.00  0.00     0.017 C 
ATOM     33  C   UNL A   1      32.889  33.825  27.926  1.00  0.00     0.010 C 
ATOM     34  C   UNL A   1      36.290  33.211  28.516  1.00  0.00     0.010 C 
ENDBRANCH   4  32
ENDBRANCH   2   4
ENDBRANCH   1   2
BRANCH   1  35
ATOM     35  C   UNL A   1      36.725  29.745  31.240  1.00  0.00     0.274 C 
BRANCH  35  36
ATOM     36  C   UNL A   1      37.417  31.375  31.437  1.00  0.00     0.275 C 
BRANCH  36  37
ATOM     37  O   UNL A   1      38.700  31.718  32.243  1.00  0.00    -0.458 OA
BRANCH  37  38
ATOM     38  C   UNL A   1      39.983  31.780  31.753  1.00  0.00     0.338 C 
ATOM     39  O   UNL A   1      40.999  31.973  32.405  1.00  0.00    -0.246 OA
BRANCH  38  40
ATOM     40  C   UNL A   1      40.280  31.674  30.292  1.00  0.00     0.060 A 
ATOM     41  C   UNL A   1      39.702  30.478  29.757  1.00  0.00     0.016 A 
ATOM     42  C   UNL A   1      41.663  31.827  30.235  1.00  0.00     0.016 A 
ATOM     43  C   UNL A   1      40.435  29.311  29.868  1.00  0.00     0.010 A 
ATOM     44  C   UNL A   1      42.434  30.681  30.200  1.00  0.00     0.010 A 
ATOM     45  C   UNL A   1      41.802  29.433  30.137  1.00  0.00    -0.014 A 
BRANCH  45  46
ATOM     46  C   UNL A   1      42.623  28.263  29.910  1.00  0.00     0.031 A 
ATOM     47  C   UNL A   1      43.230  27.870  31.217  1.00  0.00     0.074 A 
ATOM     48  C   UNL A   1      42.598  27.610  28.734  1.00  0.00     0.049 A 
ATOM     49  N   UNL A   1      44.484  27.852  31.528  1.00  0.00    -0.248 NA
ATOM     50  C   UNL A   1      42.338  27.867  32.407  1.00  0.00     0.031 C 
ATOM     51  C   UNL A   1      41.867  27.941  27.508  1.00  0.00     0.029 A 
ATOM     52  N   UNL A   1      43.112  26.385  28.453  1.00  0.00    -0.354 N 
ATOM     53  C   UNL A   1      44.511  27.595  32.897  1.00  0.00     0.074 A 
ATOM     54  C   UNL A   1      43.221  27.949  33.400  1.00  0.00     0.031 C 
ATOM     55  C   UNL A   1      41.745  26.830  26.742  1.00  0.00     0.029 A 
ATOM     56  C   UNL A   1      42.490  25.758  27.368  1.00  0.00     0.049 A 
ATOM     57  H   UNL A   1      43.851  25.979  28.962  1.00  0.00     0.167 HD
ATOM     58  C   UNL A   1      45.439  26.743  33.406  1.00  0.00     0.037 A 
ATOM     59  C   UNL A   1      42.545  24.415  27.162  1.00  0.00     0.037 A 
ATOM     60  C   UNL A   1      46.566  26.660  32.507  1.00  0.00     0.049 A 
ATOM     61  C   UNL A   1      43.705  23.926  27.978  1.00  0.00     0.074 A 
ATOM     62  C   UNL A   1      47.463  27.598  32.030  1.00  0.00     0.029 A 
ATOM     63  N   UNL A   1      46.568  25.627  31.596  1.00  0.00    -0.354 N 
ATOM     64  N   UNL A   1      44.941  24.291  27.731  1.00  0.00    -0.248 NA
ATOM     65  C   UNL A   1      43.426  23.561  29.366  1.00  0.00     0.031 C 
ATOM     66  C   UNL A   1      47.590  27.310  30.640  1.00  0.00     0.029 A 
ATOM     67  C   UNL A   1      46.880  26.141  30.361  1.00  0.00     0.049 A 
ATOM     68  H   UNL A   1      46.378  24.682  31.796  1.00  0.00     0.167 HD
ATOM     69  C   UNL A   1      45.471  24.610  28.978  1.00  0.00     0.074 A 
ATOM     70  C   UNL A   1      44.498  24.111  29.951  1.00  0.00     0.031 C 
ATOM     71  C   UNL A   1      46.474  25.528  29.116  1.00  0.00     0.037 A 
BRANCH  58  72
ATOM     72  C   UNL A   1      45.103  25.664  34.414  1.00  0.00     0.064 A 
ATOM     73  C   UNL A   1      45.793  25.668  35.640  1.00  0.00     0.173 A 
ATOM     74  C   UNL A   1      44.376  24.479  34.140  1.00  0.00     0.173 A 
ATOM     75  F   UNL A   1      46.508  26.738  36.018  1.00  0.00    -0.203 F 
ATOM     76  C   UNL A   1      45.843  24.540  36.463  1.00  0.00     0.198 A 
ATOM     77  C   UNL A   1      44.396  23.372  34.981  1.00  0.00     0.198 A 
ATOM     78  F   UNL A   1      43.690  24.278  33.013  1.00  0.00    -0.203 F 
ATOM     79  F   UNL A   1      46.619  24.550  37.554  1.00  0.00    -0.200 F 
ATOM     80  C   UNL A   1      45.157  23.387  36.125  1.00  0.00     0.200 A 
ATOM     81  F   UNL A   1      43.732  22.263  34.621  1.00  0.00    -0.200 F 
ATOM     82  F   UNL A   1      45.259  22.283  36.875  1.00  0.00    -0.200 F 
ENDBRANCH  58  72
BRANCH  59  83
ATOM     83  C   UNL A   1      41.472  23.527  26.647  1.00  0.00     0.064 A 
ATOM     84  C   UNL A   1      41.722  22.192  26.291  1.00  0.00     0.173 A 
ATOM     85  C   UNL A   1      40.115  23.904  26.722  1.00  0.00     0.173 A 
ATOM     86  F   UNL A   1      42.982  21.735  26.243  1.00  0.00    -0.203 F 
ATOM     87  C   UNL A   1      40.680  21.290  26.033  1.00  0.00     0.198 A 
ATOM     88  C   UNL A   1      39.078  23.005  26.464  1.00  0.00     0.198 A 
ATOM     89  F   UNL A   1      39.764  25.131  27.133  1.00  0.00    -0.203 F 
ATOM     90  F   UNL A   1      40.957  20.012  25.738  1.00  0.00    -0.200 F 
ATOM     91  C   UNL A   1      39.359  21.695  26.128  1.00  0.00     0.200 A 
ATOM     92  F   UNL A   1      37.803  23.404  26.597  1.00  0.00    -0.200 F 
ATOM     93  F   UNL A   1      38.361  20.821  25.935  1.00  0.00    -0.200 F 
ENDBRANCH  59  83
BRANCH  71  94
ATOM     94  C   UNL A   1      47.102  26.103  27.870  1.00  0.00     0.064 A 
ATOM     95  C   UNL A   1      46.671  27.282  27.235  1.00  0.00     0.173 A 
ATOM     96  C   UNL A   1      48.324  25.566  27.452  1.00  0.00     0.173 A 
ATOM     97  F   UNL A   1      45.565  27.916  27.637  1.00  0.00    -0.203 F 
ATOM     98  C   UNL A   1      47.417  27.882  26.220  1.00  0.00     0.198 A 
ATOM     99  C   UNL A   1      49.086  26.183  26.463  1.00  0.00     0.198 A 
ATOM    100  F   UNL A   1      48.819  24.480  28.063  1.00  0.00    -0.203 F 
ATOM    101  F   UNL A   1      46.985  29.013  25.642  1.00  0.00    -0.200 F 
ATOM    102  C   UNL A   1      48.631  27.336  25.843  1.00  0.00     0.200 A 
ATOM    103  F   UNL A   1      50.285  25.681  26.143  1.00  0.00    -0.200 F 
ATOM    104  F   UNL A   1      49.379  27.937  24.906  1.00  0.00    -0.200 F 
ENDBRANCH  71  94
ENDBRANCH  45  46
ENDBRANCH  38  40
ENDBRANCH  37  38
ENDBRANCH  36  37
ENDBRANCH  35  36
ENDBRANCH   1  35
TORSDOF 17
ENDMDL
MODEL 2
REMARK VINA RESULT:     -14.5      4.625     10.750
REMARK SMILES Cc1coc2c(C)c3oc(=O)c(CC(=O)NCC(=O)N[C@H](C(=O)OCCOC(=O)c4ccc(-c5c6nc(c(-c7c(F)c(F)c(F)c(F)c7F)c7ccc([nH]7)c(-c7c(F)c(F)c(F)c(F)c7F)c7nc(c(-c8c(F)c(F)c(F)c(F)c8F)c8ccc5[nH]8)C=C7)C=C6)cc4)C(C)C)c(C)c3cc12
REMARK SMILES IDX 24 1 22 2 23 3 21 4 20 5 18 6 19 7 17 9 16 10 14 11 15 12
REMARK SMILES IDX 13 14 12 15 1 16 2 17 3 18 100 19 4 20 5 21 99 22 6 23 98 24
REMARK SMILES IDX 7 25 8 26 96 27 9 28 97 29 10 30 11 31 93 32 94 33 95 34
REMARK SMILES IDX 25 35 26 36 27 37 28 38 29 39 30 40 31 41 92 42 32 43 91 44
REMARK SMILES IDX 33 45 34 46 35 47 85 48 36 49 90 50 84 51 86 52 37 53 89 54
REMARK SMILES IDX 83 55 82 56 38 58 70 59 50 60 69 61 51 62 54 63 68 64 87 65
REMARK SMILES IDX 52 66 53 67 67 69 88 70 55 71 39 72 40 73 48 74 41 75 42 76
REMARK SMILES IDX 46 77 49 78 43 79 44 80 47 81 45 82 71 83 72 84 80 85 73 86
REMARK SMILES IDX 74 87 78 88 81 89 75 90 76 91 79 92 77 93 56 94 57 95 65 96
REMARK SMILES IDX 58 97 59 98 63 99 66 100 60 101 61 102 64 103 62 104
REMARK H PARENT 20 8 16 13 86 57 54 68
REMARK Flexibility Score: inf
ROOT
ATOM      1  O   UNL A   1      43.792  31.729  26.072  1.00  0.00    -0.461 OA
ENDROOT
BRANCH   1   2
ATOM      2  C   UNL A   1      44.090  30.942  27.172  1.00  0.00     0.329 C 
ATOM      3  O   UNL A   1      45.020  31.243  27.923  1.00  0.00    -0.250 OA
BRANCH   2   4
ATOM      4  C   UNL A   1      43.118  29.505  27.511  1.00  0.00     0.194 C 
BRANCH   4   5
ATOM      5  N   UNL A   1      44.141  28.575  28.142  1.00  0.00    -0.341 N 
ATOM      6  C   UNL A   1      44.433  27.243  27.982  1.00  0.00     0.240 C 
ATOM      7  O   UNL A   1      45.468  26.817  28.501  1.00  0.00    -0.273 OA
ATOM      8  H   UNL A   1      44.716  29.022  28.805  1.00  0.00     0.164 HD
BRANCH   6   9
ATOM      9  C   UNL A   1      43.626  26.338  27.039  1.00  0.00     0.216 C 
BRANCH   9  10
ATOM     10  N   UNL A   1      43.315  25.170  27.770  1.00  0.00    -0.347 N 
ATOM     11  C   UNL A   1      42.781  23.980  27.681  1.00  0.00     0.225 C 
ATOM     12  O   UNL A   1      42.608  23.796  28.905  1.00  0.00    -0.275 OA
ATOM     13  H   UNL A   1      43.614  25.303  28.699  1.00  0.00     0.164 HD
BRANCH  11  14
ATOM     14  C   UNL A   1      42.282  22.899  26.497  1.00  0.00     0.143 C 
BRANCH  14  15
ATOM     15  C   UNL A   1      40.921  22.454  26.500  1.00  0.00     0.051 A 
ATOM     16  C   UNL A   1      34.402  25.220  25.337  1.00  0.00     0.048 C 
ATOM     17  C   UNL A   1      34.640  23.772  25.103  1.00  0.00    -0.005 A 
ATOM     18  C   UNL A   1      33.757  22.788  24.731  1.00  0.00     0.199 A 
ATOM     19  C   UNL A   1      35.890  23.114  25.272  1.00  0.00     0.024 A 
ATOM     20  O   UNL A   1      34.370  21.579  24.643  1.00  0.00    -0.464 OA
ATOM     21  C   UNL A   1      35.685  21.735  25.002  1.00  0.00     0.140 A 
ATOM     22  C   UNL A   1      37.108  23.696  25.659  1.00  0.00     0.024 A 
ATOM     23  C   UNL A   1      36.595  20.641  25.063  1.00  0.00     0.036 A 
ATOM     24  C   UNL A   1      38.104  22.803  25.835  1.00  0.00     0.022 A 
ATOM     25  C   UNL A   1      36.358  19.246  24.627  1.00  0.00     0.052 C 
ATOM     26  C   UNL A   1      37.781  21.162  25.509  1.00  0.00     0.145 A 
ATOM     27  C   UNL A   1      39.709  23.380  26.500  1.00  0.00    -0.029 A 
ATOM     28  O   UNL A   1      39.226  20.050  25.703  1.00  0.00    -0.422 OA
ATOM     29  C   UNL A   1      39.588  24.726  27.173  1.00  0.00     0.046 C 
ATOM     30  C   UNL A   1      40.856  20.520  26.270  1.00  0.00     0.340 A 
ATOM     31  O   UNL A   1      41.776  19.719  26.386  1.00  0.00    -0.246 OA
ENDBRANCH  14  15
ENDBRANCH  11  14
ENDBRANCH   9  10
ENDBRANCH   6   9
ENDBRANCH   4   5
BRANCH   4  32
ATOM     32  C   UNL A   1      41.480  29.093  28.338  1.00  0.00     0.017 C 
ATOM     33  C   UNL A   1      40.737  29.492  30.337  1.00  0.00     0.010 C 
ATOM     34  C   UNL A   1      40.459  28.946  26.885  1.00  0.00     0.010 C 
ENDBRANCH   4  32
ENDBRANCH   2   4
ENDBRANCH   1   2
BRANCH   1  35
ATOM     35  C   UNL A   1      44.438  33.077  25.531  1.00  0.00     0.274 C 
BRANCH  35  36
ATOM     36  C   UNL A   1      44.136  34.633  26.343  1.00  0.00     0.275 C 
BRANCH  36  37
ATOM     37  O   UNL A   1      43.187  34.848  27.555  1.00  0.00    -0.458 OA
BRANCH  37  38
ATOM     38  C   UNL A   1      43.351  35.758  28.573  1.00  0.00     0.338 C 
ATOM     39  O   UNL A   1      43.012  36.933  28.555  1.00  0.00    -0.246 OA
BRANCH  38  40
ATOM     40  C   UNL A   1      44.048  35.406  29.847  1.00  0.00     0.060 A 
ATOM     41  C   UNL A   1      44.210  33.987  29.944  1.00  0.00     0.016 A 
ATOM     42  C   UNL A   1      43.289  36.056  30.817  1.00  0.00     0.016 A 
ATOM     43  C   UNL A   1      43.155  33.259  30.461  1.00  0.00     0.010 A 
ATOM     44  C   UNL A   1      42.313  35.325  31.464  1.00  0.00     0.010 A 
ATOM     45  C   UNL A   1      42.185  33.958  31.186  1.00  0.00    -0.014 A 
BRANCH  45  46
ATOM     46  C   UNL A   1      41.288  33.175  32.008  1.00  0.00     0.031 A 
ATOM     47  C   UNL A   1      39.949  33.165  31.345  1.00  0.00     0.074 A 
ATOM     48  C   UNL A   1      41.744  32.458  33.052  1.00  0.00     0.049 A 
ATOM     49  N   UNL A   1      38.843  33.656  31.798  1.00  0.00    -0.248 NA
ATOM     50  C   UNL A   1      39.921  32.930  29.878  1.00  0.00     0.031 C 
ATOM     51  C   UNL A   1      43.105  32.372  33.590  1.00  0.00     0.029 A 
ATOM     52  N   UNL A   1      41.085  31.503  33.756  1.00  0.00    -0.354 N 
ATOM     53  C   UNL A   1      37.945  33.555  30.738  1.00  0.00     0.074 A 
ATOM     54  C   UNL A   1      38.732  33.433  29.552  1.00  0.00     0.031 C 
ATOM     55  C   UNL A   1      43.231  31.234  34.313  1.00  0.00     0.029 A 
ATOM     56  C   UNL A   1      41.937  30.589  34.386  1.00  0.00     0.049 A 
ATOM     57  H   UNL A   1      40.103  31.458  33.817  1.00  0.00     0.167 HD
ATOM     58  C   UNL A   1      36.663  33.173  30.974  1.00  0.00     0.037 A 
ATOM     59  C   UNL A   1      41.528  29.357  34.788  1.00  0.00     0.037 A 
ATOM     60  C   UNL A   1      36.320  33.445  32.350  1.00  0.00     0.049 A 
ATOM     61  C   UNL A   1      40.031  29.425  34.849  1.00  0.00     0.074 A 
ATOM     62  C   UNL A   1      36.275  34.607  33.098  1.00  0.00     0.029 A 
ATOM     63  N   UNL A   1      36.468  32.413  33.250  1.00  0.00    -0.354 N 
ATOM     64  N   UNL A   1      39.397  30.210  35.687  1.00  0.00    -0.248 NA
ATOM     65  C   UNL A   1      39.307  29.109  33.618  1.00  0.00     0.031 C 
ATOM     66  C   UNL A   1      36.875  34.264  34.345  1.00  0.00     0.029 A 
ATOM     67  C   UNL A   1      37.133  32.893  34.351  1.00  0.00     0.049 A 
ATOM     68  H   UNL A   1      36.150  31.489  33.125  1.00  0.00     0.167 HD
ATOM     69  C   UNL A   1      38.407  30.820  34.921  1.00  0.00     0.074 A 
ATOM     70  C   UNL A   1      38.383  30.078  33.659  1.00  0.00     0.031 C 
ATOM     71  C   UNL A   1      37.924  32.060  35.231  1.00  0.00     0.037 A 
BRANCH  58  72
ATOM     72  C   UNL A   1      35.941  32.144  30.129  1.00  0.00     0.064 A 
ATOM     73  C   UNL A   1      36.581  30.912  29.899  1.00  0.00     0.173 A 
ATOM     74  C   UNL A   1      34.818  32.398  29.302  1.00  0.00     0.173 A 
ATOM     75  F   UNL A   1      37.648  30.551  30.626  1.00  0.00    -0.203 F 
ATOM     76  C   UNL A   1      36.198  30.064  28.857  1.00  0.00     0.198 A 
ATOM     77  C   UNL A   1      34.417  31.533  28.291  1.00  0.00     0.198 A 
ATOM     78  F   UNL A   1      34.108  33.527  29.349  1.00  0.00    -0.203 F 
ATOM     79  F   UNL A   1      36.919  28.966  28.598  1.00  0.00    -0.200 F 
ATOM     80  C   UNL A   1      35.126  30.383  28.043  1.00  0.00     0.200 A 
ATOM     81  F   UNL A   1      33.382  31.875  27.509  1.00  0.00    -0.200 F 
ATOM     82  F   UNL A   1      34.801  29.608  27.001  1.00  0.00    -0.200 F 
ENDBRANCH  58  72
BRANCH  59  83
ATOM     83  C   UNL A   1      42.291  28.084  34.742  1.00  0.00     0.064 A 
ATOM     84  C   UNL A   1      42.196  27.126  35.764  1.00  0.00     0.173 A 
ATOM     85  C   UNL A   1      42.948  27.670  33.565  1.00  0.00     0.173 A 
ATOM     86  F   UNL A   1      41.545  27.417  36.899  1.00  0.00    -0.203 F 
ATOM     87  C   UNL A   1      42.720  25.834  35.615  1.00  0.00     0.198 A 
ATOM     88  C   UNL A   1      43.471  26.383  33.417  1.00  0.00     0.198 A 
ATOM     89  F   UNL A   1      43.019  28.478  32.497  1.00  0.00    -0.203 F 
ATOM     90  F   UNL A   1      42.574  24.932  36.597  1.00  0.00    -0.200 F 
ATOM     91  C   UNL A   1      43.350  25.461  34.438  1.00  0.00     0.200 A 
ATOM     92  F   UNL A   1      44.044  26.027  32.257  1.00  0.00    -0.200 F 
ATOM     93  F   UNL A   1      43.804  24.211  34.274  1.00  0.00    -0.200 F 
ENDBRANCH  59  83
BRANCH  71  94
ATOM     94  C   UNL A   1      38.386  32.716  36.509  1.00  0.00     0.064 A 
ATOM     95  C   UNL A   1      37.970  32.328  37.796  1.00  0.00     0.173 A 
ATOM     96  C   UNL A   1      39.462  33.606  36.430  1.00  0.00     0.173 A 
ATOM     97  F   UNL A   1      37.014  31.409  37.963  1.00  0.00    -0.203 F 
ATOM     98  C   UNL A   1      38.589  32.822  38.945  1.00  0.00     0.198 A 
ATOM     99  C   UNL A   1      40.103  34.072  37.575  1.00  0.00     0.198 A 
ATOM    100  F   UNL A   1      39.946  33.962  35.231  1.00  0.00    -0.203 F 
ATOM    101  F   UNL A   1      38.177  32.424  40.158  1.00  0.00    -0.200 F 
ATOM    102  C   UNL A   1      39.663  33.686  38.831  1.00  0.00     0.200 A 
ATOM    103  F   UNL A   1      41.177  34.862  37.457  1.00  0.00    -0.200 F 
ATOM    104  F   UNL A   1      40.297  34.121  39.930  1.00  0.00    -0.200 F 
ENDBRANCH  71  94
ENDBRANCH  45  46
ENDBRANCH  38  40
ENDBRANCH  37  38
ENDBRANCH  36  37
ENDBRANCH  35  36
ENDBRANCH   1  35
TORSDOF 17
ENDMDL
MODEL 3
REMARK VINA RESULT:     -14.3      4.358      8.699
REMARK SMILES Cc1coc2c(C)c3oc(=O)c(CC(=O)NCC(=O)N[C@H](C(=O)OCCOC(=O)c4ccc(-c5c6nc(c(-c7c(F)c(F)c(F)c(F)c7F)c7ccc([nH]7)c(-c7c(F)c(F)c(F)c(F)c7F)c7nc(c(-c8c(F)c(F)c(F)c(F)c8F)c8ccc5[nH]8)C=C7)C=C6)cc4)C(C)C)c(C)c3cc12
REMARK SMILES IDX 24 1 22 2 23 3 21 4 20 5 18 6 19 7 17 9 16 10 14 11 15 12
REMARK SMILES IDX 13 14 12 15 1 16 2 17 3 18 100 19 4 20 5 21 99 22 6 23 98 24
REMARK SMILES IDX 7 25 8 26 96 27 9 28 97 29 10 30 11 31 93 32 94 33 95 34
REMARK SMILES IDX 25 35 26 36 27 37 28 38 29 39 30 40 31 41 92 42 32 43 91 44
REMARK SMILES IDX 33 45 34 46 35 47 85 48 36 49 90 50 84 51 86 52 37 53 89 54
REMARK SMILES IDX 83 55 82 56 38 58 70 59 50 60 69 61 51 62 54 63 68 64 87 65
REMARK SMILES IDX 52 66 53 67 67 69 88 70 55 71 39 72 40 73 48 74 41 75 42 76
REMARK SMILES IDX 46 77 49 78 43 79 44 80 47 81 45 82 71 83 72 84 80 85 73 86
REMARK SMILES IDX 74 87 78 88 81 89 75 90 76 91 79 92 77 93 56 94 57 95 65 96
REMARK SMILES IDX 58 97 59 98 63 99 66 100 60 101 61 102 64 103 62 104
REMARK H PARENT 20 8 16 13 86 57 54 68
REMARK Flexibility Score: inf
ROOT
ATOM      1  O   UNL A   1      34.832  32.896  29.796  1.00  0.00    -0.461 OA
ENDROOT
BRANCH   1   2
ATOM      2  C   UNL A   1      34.770  32.601  31.148  1.00  0.00     0.329 C 
ATOM      3  O   UNL A   1      35.356  31.616  31.601  1.00  0.00    -0.250 OA
BRANCH   2   4
ATOM      4  C   UNL A   1      33.857  33.656  32.233  1.00  0.00     0.194 C 
BRANCH   4   5
ATOM      5  N   UNL A   1      34.503  33.358  33.577  1.00  0.00    -0.341 N 
ATOM      6  C   UNL A   1      35.707  33.698  34.142  1.00  0.00     0.240 C 
ATOM      7  O   UNL A   1      35.861  33.468  35.344  1.00  0.00    -0.273 OA
ATOM      8  H   UNL A   1      33.940  32.806  34.165  1.00  0.00     0.164 HD
BRANCH   6   9
ATOM      9  C   UNL A   1      36.766  34.511  33.381  1.00  0.00     0.216 C 
BRANCH   9  10
ATOM     10  N   UNL A   1      37.576  33.577  32.699  1.00  0.00    -0.347 N 
ATOM     11  C   UNL A   1      38.722  32.946  32.737  1.00  0.00     0.225 C 
ATOM     12  O   UNL A   1      38.749  32.602  31.536  1.00  0.00    -0.275 OA
ATOM     13  H   UNL A   1      37.098  33.293  31.886  1.00  0.00     0.164 HD
BRANCH  11  14
ATOM     14  C   UNL A   1      39.970  32.648  33.820  1.00  0.00     0.143 C 
BRANCH  14  15
ATOM     15  C   UNL A   1      39.652  32.475  35.205  1.00  0.00     0.051 A 
ATOM     16  C   UNL A   1      39.289  36.497  41.137  1.00  0.00     0.048 C 
ATOM     17  C   UNL A   1      38.449  35.276  41.023  1.00  0.00    -0.005 A 
ATOM     18  C   UNL A   1      37.597  34.709  41.939  1.00  0.00     0.199 A 
ATOM     19  C   UNL A   1      38.413  34.415  39.891  1.00  0.00     0.024 A 
ATOM     20  O   UNL A   1      37.028  33.575  41.453  1.00  0.00    -0.464 OA
ATOM     21  C   UNL A   1      37.534  33.343  40.198  1.00  0.00     0.140 A 
ATOM     22  C   UNL A   1      39.127  34.564  38.690  1.00  0.00     0.024 A 
ATOM     23  C   UNL A   1      37.175  32.198  39.431  1.00  0.00     0.036 A 
ATOM     24  C   UNL A   1      38.969  33.533  37.835  1.00  0.00     0.022 A 
ATOM     25  C   UNL A   1      36.138  31.190  39.746  1.00  0.00     0.052 C 
ATOM     26  C   UNL A   1      37.912  32.273  38.278  1.00  0.00     0.145 A 
ATOM     27  C   UNL A   1      39.962  33.494  36.297  1.00  0.00    -0.029 A 
ATOM     28  O   UNL A   1      37.711  30.966  37.007  1.00  0.00    -0.422 OA
ATOM     29  C   UNL A   1      41.156  34.415  36.374  1.00  0.00     0.046 C 
ATOM     30  C   UNL A   1      38.570  30.871  35.441  1.00  0.00     0.340 A 
ATOM     31  O   UNL A   1      38.394  29.960  34.640  1.00  0.00    -0.246 OA
ENDBRANCH  14  15
ENDBRANCH  11  14
ENDBRANCH   9  10
ENDBRANCH   6   9
ENDBRANCH   4   5
BRANCH   4  32
ATOM     32  C   UNL A   1      33.335  35.460  32.311  1.00  0.00     0.017 C 
ATOM     33  C   UNL A   1      33.898  37.065  33.658  1.00  0.00     0.010 C 
ATOM     34  C   UNL A   1      32.842  35.685  30.613  1.00  0.00     0.010 C 
ENDBRANCH   4  32
ENDBRANCH   2   4
ENDBRANCH   1   2
BRANCH   1  35
ATOM     35  C   UNL A   1      34.875  31.961  28.511  1.00  0.00     0.274 C 
BRANCH  35  36
ATOM     36  C   UNL A   1      36.264  30.892  28.196  1.00  0.00     0.275 C 
BRANCH  36  37
ATOM     37  O   UNL A   1      37.582  30.861  29.018  1.00  0.00    -0.458 OA
BRANCH  37  38
ATOM     38  C   UNL A   1      38.716  30.143  28.722  1.00  0.00     0.338 C 
ATOM     39  O   UNL A   1      39.805  30.250  29.268  1.00  0.00    -0.246 OA
BRANCH  38  40
ATOM     40  C   UNL A   1      38.756  29.149  27.606  1.00  0.00     0.060 A 
ATOM     41  C   UNL A   1      38.741  27.817  28.131  1.00  0.00     0.016 A 
ATOM     42  C   UNL A   1      39.857  29.555  26.856  1.00  0.00     0.016 A 
ATOM     43  C   UNL A   1      39.952  27.266  28.505  1.00  0.00     0.010 A 
ATOM     44  C   UNL A   1      41.064  28.929  27.098  1.00  0.00     0.010 A 
ATOM     45  C   UNL A   1      41.114  27.868  28.011  1.00  0.00    -0.014 A 
BRANCH  45  46
ATOM     46  C   UNL A   1      42.341  27.107  28.107  1.00  0.00     0.031 A 
ATOM     47  C   UNL A   1      42.890  27.295  29.483  1.00  0.00     0.074 A 
ATOM     48  C   UNL A   1      42.710  26.252  27.135  1.00  0.00     0.049 A 
ATOM     49  N   UNL A   1      44.008  27.852  29.814  1.00  0.00    -0.248 NA
ATOM     50  C   UNL A   1      41.931  27.203  30.615  1.00  0.00     0.031 C 
ATOM     51  C   UNL A   1      42.061  25.978  25.850  1.00  0.00     0.029 A 
ATOM     52  N   UNL A   1      43.683  25.307  27.186  1.00  0.00    -0.354 N 
ATOM     53  C   UNL A   1      43.966  27.943  31.204  1.00  0.00     0.074 A 
ATOM     54  C   UNL A   1      42.589  27.853  31.573  1.00  0.00     0.031 C 
ATOM     55  C   UNL A   1      42.466  24.770  25.390  1.00  0.00     0.029 A 
ATOM     56  C   UNL A   1      43.484  24.256  26.283  1.00  0.00     0.049 A 
ATOM     57  H   UNL A   1      44.454  25.357  27.797  1.00  0.00     0.167 HD
ATOM     58  C   UNL A   1      45.081  27.673  31.932  1.00  0.00     0.037 A 
ATOM     59  C   UNL A   1      44.073  23.040  26.427  1.00  0.00     0.037 A 
ATOM     60  C   UNL A   1      46.254  27.848  31.108  1.00  0.00     0.049 A 
ATOM     61  C   UNL A   1      45.225  23.254  27.365  1.00  0.00     0.074 A 
ATOM     62  C   UNL A   1      46.773  28.933  30.426  1.00  0.00     0.029 A 
ATOM     63  N   UNL A   1      46.760  26.726  30.490  1.00  0.00    -0.354 N 
ATOM     64  N   UNL A   1      46.247  24.017  27.059  1.00  0.00    -0.248 NA
ATOM     65  C   UNL A   1      44.941  23.130  28.794  1.00  0.00     0.031 C 
ATOM     66  C   UNL A   1      47.168  28.415  29.158  1.00  0.00     0.029 A 
ATOM     67  C   UNL A   1      46.998  27.030  29.172  1.00  0.00     0.049 A 
ATOM     68  H   UNL A   1      46.924  25.856  30.920  1.00  0.00     0.167 HD
ATOM     69  C   UNL A   1      46.460  24.794  28.194  1.00  0.00     0.074 A 
ATOM     70  C   UNL A   1      45.643  24.180  29.243  1.00  0.00     0.031 C 
ATOM     71  C   UNL A   1      47.011  26.042  28.115  1.00  0.00     0.037 A 
BRANCH  58  72
ATOM     72  C   UNL A   1      45.064  26.807  33.175  1.00  0.00     0.064 A 
ATOM     73  C   UNL A   1      44.520  25.513  33.070  1.00  0.00     0.173 A 
ATOM     74  C   UNL A   1      45.269  27.264  34.500  1.00  0.00     0.173 A 
ATOM     75  F   UNL A   1      44.290  24.965  31.868  1.00  0.00    -0.203 F 
ATOM     76  C   UNL A   1      44.113  24.790  34.195  1.00  0.00     0.198 A 
ATOM     77  C   UNL A   1      44.898  26.525  35.617  1.00  0.00     0.198 A 
ATOM     78  F   UNL A   1      45.742  28.477  34.797  1.00  0.00    -0.203 F 
ATOM     79  F   UNL A   1      43.483  23.620  34.036  1.00  0.00    -0.200 F 
ATOM     80  C   UNL A   1      44.288  25.304  35.467  1.00  0.00     0.200 A 
ATOM     81  F   UNL A   1      45.068  27.054  36.839  1.00  0.00    -0.200 F 
ATOM     82  F   UNL A   1      43.836  24.645  36.540  1.00  0.00    -0.200 F 
ENDBRANCH  58  72
BRANCH  59  83
ATOM     83  C   UNL A   1      43.492  21.705  26.133  1.00  0.00     0.064 A 
ATOM     84  C   UNL A   1      44.189  20.743  25.384  1.00  0.00     0.173 A 
ATOM     85  C   UNL A   1      42.330  21.255  26.791  1.00  0.00     0.173 A 
ATOM     86  F   UNL A   1      45.331  21.072  24.764  1.00  0.00    -0.203 F 
ATOM     87  C   UNL A   1      43.753  19.413  25.305  1.00  0.00     0.198 A 
ATOM     88  C   UNL A   1      41.895  19.929  26.712  1.00  0.00     0.198 A 
ATOM     89  F   UNL A   1      41.638  22.070  27.600  1.00  0.00    -0.203 F 
ATOM     90  F   UNL A   1      44.467  18.512  24.614  1.00  0.00    -0.200 F 
ATOM     91  C   UNL A   1      42.611  19.005  25.976  1.00  0.00     0.200 A 
ATOM     92  F   UNL A   1      40.809  19.543  27.398  1.00  0.00    -0.200 F 
ATOM     93  F   UNL A   1      42.223  17.723  25.945  1.00  0.00    -0.200 F 
ENDBRANCH  59  83
BRANCH  71  94
ATOM     94  C   UNL A   1      47.516  26.524  26.778  1.00  0.00     0.064 A 
ATOM     95  C   UNL A   1      48.737  26.131  26.201  1.00  0.00     0.173 A 
ATOM     96  C   UNL A   1      46.620  27.220  25.958  1.00  0.00     0.173 A 
ATOM     97  F   UNL A   1      49.609  25.380  26.881  1.00  0.00    -0.203 F 
ATOM     98  C   UNL A   1      49.052  26.435  24.876  1.00  0.00     0.198 A 
ATOM     99  C   UNL A   1      46.920  27.494  24.626  1.00  0.00     0.198 A 
ATOM    100  F   UNL A   1      45.414  27.566  26.431  1.00  0.00    -0.203 F 
ATOM    101  F   UNL A   1      50.220  26.035  24.351  1.00  0.00    -0.200 F 
ATOM    102  C   UNL A   1      48.137  27.108  24.087  1.00  0.00     0.200 A 
ATOM    103  F   UNL A   1      46.007  28.095  23.852  1.00  0.00    -0.200 F 
ATOM    104  F   UNL A   1      48.411  27.355  22.798  1.00  0.00    -0.200 F 
ENDBRANCH  71  94
ENDBRANCH  45  46
ENDBRANCH  38  40
ENDBRANCH  37  38
ENDBRANCH  36  37
ENDBRANCH  35  36
ENDBRANCH   1  35
TORSDOF 17
ENDMDL
