MODEL 1
REMARK VINA RESULT:     -12.7      0.000      0.000
REMARK SMILES CC(C)CCc1cc2c(cc1Cl)C=C(C(=O)OCCOC(=O)c1ccc(-c3c4nc(c(-c5c(F)c(F)c(F)c(F)c5F)c5ccc([nH]5)c(-c5c(F)c(F)c(F)c(F)c5F)c5nc(c(-c6c(F)c(F)c(F)c(F)c6F)c6ccc3[nH]6)C=C5)C=C4)cc1)[C@H](C(F)(F)F)O2
REMARK SMILES IDX 18 1 17 2 15 3 16 4 14 5 6 6 7 7 11 8 8 9 10 10 12 11 9 12
REMARK SMILES IDX 91 13 13 14 86 15 5 16 4 17 2 18 1 19 3 20 87 21 88 22 89 23
REMARK SMILES IDX 90 24 19 25 20 26 21 27 22 28 23 29 24 30 85 31 25 32 84 33
REMARK SMILES IDX 26 34 27 35 28 36 78 37 29 38 83 39 77 40 79 41 30 42 82 43
REMARK SMILES IDX 76 44 75 45 31 47 63 48 43 49 62 50 44 51 47 52 61 53 80 54
REMARK SMILES IDX 45 55 46 56 60 58 81 59 48 60 32 61 33 62 41 63 34 64 35 65
REMARK SMILES IDX 39 66 42 67 36 68 37 69 40 70 38 71 64 72 65 73 73 74 66 75
REMARK SMILES IDX 67 76 71 77 74 78 68 79 69 80 72 81 70 82 49 83 50 84 58 85
REMARK SMILES IDX 51 86 52 87 56 88 59 89 53 90 54 91 57 92 55 93
REMARK H PARENT 79 46 47 57
REMARK Flexibility Score: inf
ROOT
ATOM      1  C   UNL A   1      31.504  29.508  25.249  1.00  0.00     0.275 C 
ENDROOT
BRANCH   1   2
ATOM      2  O   UNL A   1      32.624  28.594  25.235  1.00  0.00    -0.459 OA
BRANCH   2   3
ATOM      3  C   UNL A   1      33.114  28.284  24.018  1.00  0.00     0.338 C 
ATOM      4  O   UNL A   1      33.464  29.090  23.170  1.00  0.00    -0.246 OA
BRANCH   3   5
ATOM      5  C   UNL A   1      33.285  26.823  23.857  1.00  0.00     0.087 C 
ATOM      6  C   UNL A   1      34.235  21.979  24.892  1.00  0.00    -0.026 A 
ATOM      7  C   UNL A   1      34.236  22.750  23.705  1.00  0.00     0.052 A 
ATOM      8  C   UNL A   1      33.907  22.614  26.101  1.00  0.00     0.045 A 
ATOM      9  C   UNL A   1      33.943  24.116  23.733  1.00  0.00     0.128 A 
ATOM     10  C   UNL A   1      33.617  23.978  26.126  1.00  0.00     0.032 A 
ATOM     11  Cl  UNL A   1      33.917  21.800  27.625  1.00  0.00    -0.084 Cl
ATOM     12  C   UNL A   1      33.667  24.727  24.951  1.00  0.00     0.019 A 
ATOM     13  O   UNL A   1      34.022  24.827  22.563  1.00  0.00    -0.475 OA
ATOM     14  C   UNL A   1      33.512  26.162  25.000  1.00  0.00     0.027 C 
ATOM     15  C   UNL A   1      33.327  26.128  22.517  1.00  0.00     0.316 C 
BRANCH   6  16
ATOM     16  C   UNL A   1      34.659  20.527  24.828  1.00  0.00     0.037 C 
BRANCH  16  17
ATOM     17  C   UNL A   1      33.659  19.551  24.191  1.00  0.00     0.008 C 
BRANCH  17  18
ATOM     18  C   UNL A   1      33.812  18.078  24.607  1.00  0.00    -0.017 C 
ATOM     19  C   UNL A   1      32.599  17.577  25.391  1.00  0.00     0.007 C 
ATOM     20  C   UNL A   1      34.017  17.212  23.360  1.00  0.00     0.007 C 
ENDBRANCH  17  18
ENDBRANCH  16  17
ENDBRANCH   6  16
BRANCH  15  21
ATOM     21  C   UNL A   1      31.985  25.932  21.787  1.00  0.00     0.430 C 
ATOM     22  F   UNL A   1      31.230  27.049  21.743  1.00  0.00    -0.167 F 
ATOM     23  F   UNL A   1      32.209  25.579  20.492  1.00  0.00    -0.167 F 
ATOM     24  F   UNL A   1      31.237  24.953  22.343  1.00  0.00    -0.167 F 
ENDBRANCH  15  21
ENDBRANCH   3   5
ENDBRANCH   2   3
ENDBRANCH   1   2
BRANCH   1  25
ATOM     25  C   UNL A   1      31.789  30.726  26.133  1.00  0.00     0.275 C 
BRANCH  25  26
ATOM     26  O   UNL A   1      33.209  30.915  26.317  1.00  0.00    -0.458 OA
BRANCH  26  27
ATOM     27  C   UNL A   1      33.573  31.831  27.237  1.00  0.00     0.338 C 
ATOM     28  O   UNL A   1      32.923  32.799  27.627  1.00  0.00    -0.246 OA
BRANCH  27  29
ATOM     29  C   UNL A   1      34.850  31.443  27.846  1.00  0.00     0.060 A 
ATOM     30  C   UNL A   1      35.869  32.358  28.094  1.00  0.00     0.016 A 
ATOM     31  C   UNL A   1      34.975  30.128  28.284  1.00  0.00     0.016 A 
ATOM     32  C   UNL A   1      37.031  31.926  28.752  1.00  0.00     0.010 A 
ATOM     33  C   UNL A   1      36.107  29.706  28.977  1.00  0.00     0.010 A 
ATOM     34  C   UNL A   1      37.161  30.595  29.204  1.00  0.00    -0.014 A 
BRANCH  34  35
ATOM     35  C   UNL A   1      38.375  30.138  29.939  1.00  0.00     0.031 A 
ATOM     36  C   UNL A   1      38.632  30.564  31.363  1.00  0.00     0.074 A 
ATOM     37  C   UNL A   1      39.287  29.375  29.305  1.00  0.00     0.049 A 
ATOM     38  N   UNL A   1      39.611  30.221  32.164  1.00  0.00    -0.248 NA
ATOM     39  C   UNL A   1      37.693  31.529  31.954  1.00  0.00     0.031 C 
ATOM     40  C   UNL A   1      39.227  28.986  27.897  1.00  0.00     0.029 A 
ATOM     41  N   UNL A   1      40.436  28.779  29.765  1.00  0.00    -0.354 N 
ATOM     42  C   UNL A   1      39.412  30.934  33.339  1.00  0.00     0.074 A 
ATOM     43  C   UNL A   1      38.257  31.778  33.127  1.00  0.00     0.031 C 
ATOM     44  C   UNL A   1      40.251  28.163  27.624  1.00  0.00     0.029 A 
ATOM     45  C   UNL A   1      41.051  27.981  28.832  1.00  0.00     0.049 A 
ATOM     46  H   UNL A   1      40.785  28.912  30.676  1.00  0.00     0.167 HD
ATOM     47  C   UNL A   1      40.103  30.865  34.503  1.00  0.00     0.037 A 
ATOM     48  C   UNL A   1      42.120  27.168  28.945  1.00  0.00     0.037 A 
ATOM     49  C   UNL A   1      41.217  29.984  34.736  1.00  0.00     0.049 A 
ATOM     50  C   UNL A   1      42.827  27.050  30.267  1.00  0.00     0.074 A 
ATOM     51  C   UNL A   1      41.911  29.764  35.913  1.00  0.00     0.029 A 
ATOM     52  N   UNL A   1      41.794  29.172  33.772  1.00  0.00    -0.354 N 
ATOM     53  N   UNL A   1      42.563  27.648  31.401  1.00  0.00    -0.248 NA
ATOM     54  C   UNL A   1      43.980  26.139  30.324  1.00  0.00     0.031 C 
ATOM     55  C   UNL A   1      42.926  28.838  35.656  1.00  0.00     0.029 A 
ATOM     56  C   UNL A   1      42.844  28.458  34.326  1.00  0.00     0.049 A 
ATOM     57  H   UNL A   1      41.501  29.111  32.834  1.00  0.00     0.167 HD
ATOM     58  C   UNL A   1      43.503  27.180  32.308  1.00  0.00     0.074 A 
ATOM     59  C   UNL A   1      44.335  26.232  31.598  1.00  0.00     0.031 C 
ATOM     60  C   UNL A   1      43.665  27.516  33.610  1.00  0.00     0.037 A 
BRANCH  47  61
ATOM     61  C   UNL A   1      39.646  31.731  35.642  1.00  0.00     0.064 A 
ATOM     62  C   UNL A   1      40.183  33.011  35.844  1.00  0.00     0.173 A 
ATOM     63  C   UNL A   1      38.617  31.308  36.499  1.00  0.00     0.173 A 
ATOM     64  F   UNL A   1      41.170  33.460  35.052  1.00  0.00    -0.203 F 
ATOM     65  C   UNL A   1      39.728  33.827  36.876  1.00  0.00     0.198 A 
ATOM     66  C   UNL A   1      38.146  32.139  37.513  1.00  0.00     0.198 A 
ATOM     67  F   UNL A   1      38.059  30.100  36.342  1.00  0.00    -0.203 F 
ATOM     68  F   UNL A   1      40.285  35.029  37.071  1.00  0.00    -0.200 F 
ATOM     69  C   UNL A   1      38.705  33.394  37.705  1.00  0.00     0.200 A 
ATOM     70  F   UNL A   1      37.145  31.726  38.305  1.00  0.00    -0.200 F 
ATOM     71  F   UNL A   1      38.260  34.185  38.690  1.00  0.00    -0.200 F 
ENDBRANCH  47  61
BRANCH  48  72
ATOM     72  C   UNL A   1      42.526  26.332  27.787  1.00  0.00     0.064 A 
ATOM     73  C   UNL A   1      43.527  26.774  26.912  1.00  0.00     0.173 A 
ATOM     74  C   UNL A   1      41.957  25.073  27.551  1.00  0.00     0.173 A 
ATOM     75  F   UNL A   1      44.087  27.980  27.089  1.00  0.00    -0.203 F 
ATOM     76  C   UNL A   1      43.942  25.989  25.838  1.00  0.00     0.198 A 
ATOM     77  C   UNL A   1      42.388  24.280  26.489  1.00  0.00     0.198 A 
ATOM     78  F   UNL A   1      40.999  24.606  28.365  1.00  0.00    -0.203 F 
ATOM     79  F   UNL A   1      44.883  26.446  25.002  1.00  0.00    -0.200 F 
ATOM     80  C   UNL A   1      43.377  24.740  25.632  1.00  0.00     0.200 A 
ATOM     81  F   UNL A   1      41.849  23.068  26.299  1.00  0.00    -0.200 F 
ATOM     82  F   UNL A   1      43.785  23.980  24.607  1.00  0.00    -0.200 F 
ENDBRANCH  48  72
BRANCH  60  83
ATOM     83  C   UNL A   1      44.784  26.863  34.364  1.00  0.00     0.064 A 
ATOM     84  C   UNL A   1      46.039  27.477  34.473  1.00  0.00     0.173 A 
ATOM     85  C   UNL A   1      44.575  25.660  35.054  1.00  0.00     0.173 A 
ATOM     86  F   UNL A   1      46.289  28.622  33.822  1.00  0.00    -0.203 F 
ATOM     87  C   UNL A   1      47.048  26.907  35.244  1.00  0.00     0.198 A 
ATOM     88  C   UNL A   1      45.579  25.103  35.841  1.00  0.00     0.198 A 
ATOM     89  F   UNL A   1      43.388  25.039  34.985  1.00  0.00    -0.203 F 
ATOM     90  F   UNL A   1      48.249  27.498  35.318  1.00  0.00    -0.200 F 
ATOM     91  C   UNL A   1      46.814  25.726  35.934  1.00  0.00     0.200 A 
ATOM     92  F   UNL A   1      45.348  23.970  36.518  1.00  0.00    -0.200 F 
ATOM     93  F   UNL A   1      47.781  25.188  36.691  1.00  0.00    -0.200 F 
ENDBRANCH  60  83
ENDBRANCH  34  35
ENDBRANCH  27  29
ENDBRANCH  26  27
ENDBRANCH  25  26
ENDBRANCH   1  25
TORSDOF 15
ENDMDL
MODEL 2
REMARK VINA RESULT:     -12.7      4.433      9.977
REMARK SMILES CC(C)CCc1cc2c(cc1Cl)C=C(C(=O)OCCOC(=O)c1ccc(-c3c4nc(c(-c5c(F)c(F)c(F)c(F)c5F)c5ccc([nH]5)c(-c5c(F)c(F)c(F)c(F)c5F)c5nc(c(-c6c(F)c(F)c(F)c(F)c6F)c6ccc3[nH]6)C=C5)C=C4)cc1)[C@H](C(F)(F)F)O2
REMARK SMILES IDX 18 1 17 2 15 3 16 4 14 5 6 6 7 7 11 8 8 9 10 10 12 11 9 12
REMARK SMILES IDX 91 13 13 14 86 15 5 16 4 17 2 18 1 19 3 20 87 21 88 22 89 23
REMARK SMILES IDX 90 24 19 25 20 26 21 27 22 28 23 29 24 30 85 31 25 32 84 33
REMARK SMILES IDX 26 34 27 35 28 36 78 37 29 38 83 39 77 40 79 41 30 42 82 43
REMARK SMILES IDX 76 44 75 45 31 47 63 48 43 49 62 50 44 51 47 52 61 53 80 54
REMARK SMILES IDX 45 55 46 56 60 58 81 59 48 60 32 61 33 62 41 63 34 64 35 65
REMARK SMILES IDX 39 66 42 67 36 68 37 69 40 70 38 71 64 72 65 73 73 74 66 75
REMARK SMILES IDX 67 76 71 77 74 78 68 79 69 80 72 81 70 82 49 83 50 84 58 85
REMARK SMILES IDX 51 86 52 87 56 88 59 89 53 90 54 91 57 92 55 93
REMARK H PARENT 79 46 47 57
REMARK Flexibility Score: inf
ROOT
ATOM      1  C   UNL A   1      35.280  21.058  25.287  1.00  0.00     0.275 C 
ENDROOT
BRANCH   1   2
ATOM      2  O   UNL A   1      35.261  22.362  25.911  1.00  0.00    -0.459 OA
BRANCH   2   3
ATOM      3  C   UNL A   1      34.285  22.564  26.819  1.00  0.00     0.338 C 
ATOM      4  O   UNL A   1      34.212  22.023  27.912  1.00  0.00    -0.246 OA
BRANCH   3   5
ATOM      5  C   UNL A   1      33.345  23.620  26.382  1.00  0.00     0.087 C 
ATOM      6  C   UNL A   1      31.553  27.957  24.533  1.00  0.00    -0.026 A 
ATOM      7  C   UNL A   1      31.032  26.967  25.400  1.00  0.00     0.052 A 
ATOM      8  C   UNL A   1      32.849  27.780  24.018  1.00  0.00     0.045 A 
ATOM      9  C   UNL A   1      31.794  25.852  25.760  1.00  0.00     0.128 A 
ATOM     10  C   UNL A   1      33.606  26.667  24.381  1.00  0.00     0.032 A 
ATOM     11  Cl  UNL A   1      33.619  28.936  22.991  1.00  0.00    -0.084 Cl
ATOM     12  C   UNL A   1      33.089  25.727  25.272  1.00  0.00     0.019 A 
ATOM     13  O   UNL A   1      31.262  24.957  26.655  1.00  0.00    -0.475 OA
ATOM     14  C   UNL A   1      33.926  24.656  25.761  1.00  0.00     0.027 C 
ATOM     15  C   UNL A   1      31.871  23.614  26.704  1.00  0.00     0.316 C 
BRANCH   6  16
ATOM     16  C   UNL A   1      30.732  29.198  24.253  1.00  0.00     0.037 C 
BRANCH  16  17
ATOM     17  C   UNL A   1      29.802  29.141  23.033  1.00  0.00     0.008 C 
BRANCH  17  18
ATOM     18  C   UNL A   1      29.249  30.495  22.555  1.00  0.00    -0.017 C 
ATOM     19  C   UNL A   1      28.029  30.326  21.651  1.00  0.00     0.007 C 
ATOM     20  C   UNL A   1      28.880  31.354  23.769  1.00  0.00     0.007 C 
ENDBRANCH  17  18
ENDBRANCH  16  17
ENDBRANCH   6  16
BRANCH  15  21
ATOM     21  C   UNL A   1      30.981  22.652  25.895  1.00  0.00     0.430 C 
ATOM     22  F   UNL A   1      30.717  23.087  24.646  1.00  0.00    -0.167 F 
ATOM     23  F   UNL A   1      31.607  21.453  25.750  1.00  0.00    -0.167 F 
ATOM     24  F   UNL A   1      29.798  22.413  26.504  1.00  0.00    -0.167 F 
ENDBRANCH  15  21
ENDBRANCH   3   5
ENDBRANCH   2   3
ENDBRANCH   1   2
BRANCH   1  25
ATOM     25  C   UNL A   1      36.713  20.592  25.014  1.00  0.00     0.275 C 
BRANCH  25  26
ATOM     26  O   UNL A   1      37.663  21.646  25.280  1.00  0.00    -0.458 OA
BRANCH  26  27
ATOM     27  C   UNL A   1      38.766  21.292  25.969  1.00  0.00     0.338 C 
ATOM     28  O   UNL A   1      39.254  20.169  26.075  1.00  0.00    -0.246 OA
BRANCH  27  29
ATOM     29  C   UNL A   1      39.426  22.491  26.500  1.00  0.00     0.060 A 
ATOM     30  C   UNL A   1      40.572  22.427  27.288  1.00  0.00     0.016 A 
ATOM     31  C   UNL A   1      38.930  23.726  26.094  1.00  0.00     0.016 A 
ATOM     32  C   UNL A   1      41.190  23.619  27.693  1.00  0.00     0.010 A 
ATOM     33  C   UNL A   1      39.567  24.910  26.456  1.00  0.00     0.010 A 
ATOM     34  C   UNL A   1      40.696  24.875  27.278  1.00  0.00    -0.014 A 
BRANCH  34  35
ATOM     35  C   UNL A   1      41.370  26.145  27.671  1.00  0.00     0.031 A 
ATOM     36  C   UNL A   1      42.775  26.456  27.218  1.00  0.00     0.074 A 
ATOM     37  C   UNL A   1      40.737  27.007  28.490  1.00  0.00     0.049 A 
ATOM     38  N   UNL A   1      43.492  27.534  27.427  1.00  0.00    -0.248 NA
ATOM     39  C   UNL A   1      43.483  25.411  26.464  1.00  0.00     0.031 C 
ATOM     40  C   UNL A   1      39.427  26.782  29.099  1.00  0.00     0.029 A 
ATOM     41  N   UNL A   1      41.103  28.252  28.941  1.00  0.00    -0.354 N 
ATOM     42  C   UNL A   1      44.729  27.288  26.846  1.00  0.00     0.074 A 
ATOM     43  C   UNL A   1      44.691  25.938  26.331  1.00  0.00     0.031 C 
ATOM     44  C   UNL A   1      39.068  27.877  29.787  1.00  0.00     0.029 A 
ATOM     45  C   UNL A   1      40.130  28.874  29.684  1.00  0.00     0.049 A 
ATOM     46  H   UNL A   1      41.979  28.659  28.750  1.00  0.00     0.167 HD
ATOM     47  C   UNL A   1      45.789  28.125  26.718  1.00  0.00     0.037 A 
ATOM     48  C   UNL A   1      40.083  30.119  30.197  1.00  0.00     0.037 A 
ATOM     49  C   UNL A   1      45.808  29.488  27.179  1.00  0.00     0.049 A 
ATOM     50  C   UNL A   1      41.239  31.056  29.980  1.00  0.00     0.074 A 
ATOM     51  C   UNL A   1      46.792  30.445  27.000  1.00  0.00     0.029 A 
ATOM     52  N   UNL A   1      44.792  30.089  27.906  1.00  0.00    -0.354 N 
ATOM     53  N   UNL A   1      42.360  30.849  29.335  1.00  0.00    -0.248 NA
ATOM     54  C   UNL A   1      41.120  32.403  30.558  1.00  0.00     0.031 C 
ATOM     55  C   UNL A   1      46.383  31.619  27.640  1.00  0.00     0.029 A 
ATOM     56  C   UNL A   1      45.131  31.401  28.191  1.00  0.00     0.049 A 
ATOM     57  H   UNL A   1      43.954  29.650  28.177  1.00  0.00     0.167 HD
ATOM     58  C   UNL A   1      43.073  32.036  29.418  1.00  0.00     0.074 A 
ATOM     59  C   UNL A   1      42.251  32.969  30.160  1.00  0.00     0.031 C 
ATOM     60  C   UNL A   1      44.304  32.321  28.930  1.00  0.00     0.037 A 
BRANCH  47  61
ATOM     61  C   UNL A   1      47.006  27.610  26.005  1.00  0.00     0.064 A 
ATOM     62  C   UNL A   1      47.126  27.704  24.610  1.00  0.00     0.173 A 
ATOM     63  C   UNL A   1      48.090  27.080  26.722  1.00  0.00     0.173 A 
ATOM     64  F   UNL A   1      46.116  28.202  23.879  1.00  0.00    -0.203 F 
ATOM     65  C   UNL A   1      48.272  27.263  23.956  1.00  0.00     0.198 A 
ATOM     66  C   UNL A   1      49.247  26.666  26.066  1.00  0.00     0.198 A 
ATOM     67  F   UNL A   1      48.033  26.980  28.058  1.00  0.00    -0.203 F 
ATOM     68  F   UNL A   1      48.346  27.329  22.620  1.00  0.00    -0.200 F 
ATOM     69  C   UNL A   1      49.335  26.752  24.685  1.00  0.00     0.200 A 
ATOM     70  F   UNL A   1      50.280  26.186  26.773  1.00  0.00    -0.200 F 
ATOM     71  F   UNL A   1      50.443  26.340  24.055  1.00  0.00    -0.200 F 
ENDBRANCH  47  61
BRANCH  48  72
ATOM     72  C   UNL A   1      38.853  30.577  30.890  1.00  0.00     0.064 A 
ATOM     73  C   UNL A   1      38.759  30.505  32.287  1.00  0.00     0.173 A 
ATOM     74  C   UNL A   1      37.771  31.123  30.188  1.00  0.00     0.173 A 
ATOM     75  F   UNL A   1      39.763  29.973  32.999  1.00  0.00    -0.203 F 
ATOM     76  C   UNL A   1      37.624  30.958  32.956  1.00  0.00     0.198 A 
ATOM     77  C   UNL A   1      36.645  31.596  30.860  1.00  0.00     0.198 A 
ATOM     78  F   UNL A   1      37.817  31.218  28.851  1.00  0.00    -0.203 F 
ATOM     79  F   UNL A   1      37.549  30.855  34.290  1.00  0.00    -0.200 F 
ATOM     80  C   UNL A   1      36.571  31.510  32.242  1.00  0.00     0.200 A 
ATOM     81  F   UNL A   1      35.633  32.140  30.169  1.00  0.00    -0.200 F 
ATOM     82  F   UNL A   1      35.485  31.957  32.888  1.00  0.00    -0.200 F 
ENDBRANCH  48  72
BRANCH  60  83
ATOM     83  C   UNL A   1      44.851  33.694  29.179  1.00  0.00     0.064 A 
ATOM     84  C   UNL A   1      45.694  33.952  30.267  1.00  0.00     0.173 A 
ATOM     85  C   UNL A   1      44.603  34.738  28.273  1.00  0.00     0.173 A 
ATOM     86  F   UNL A   1      45.952  32.990  31.165  1.00  0.00    -0.203 F 
ATOM     87  C   UNL A   1      46.266  35.209  30.446  1.00  0.00     0.198 A 
ATOM     88  C   UNL A   1      45.194  35.987  28.443  1.00  0.00     0.198 A 
ATOM     89  F   UNL A   1      43.808  34.536  27.212  1.00  0.00    -0.203 F 
ATOM     90  F   UNL A   1      47.053  35.442  31.506  1.00  0.00    -0.200 F 
ATOM     91  C   UNL A   1      46.023  36.222  29.529  1.00  0.00     0.200 A 
ATOM     92  F   UNL A   1      44.968  36.960  27.549  1.00  0.00    -0.200 F 
ATOM     93  F   UNL A   1      46.590  37.425  29.691  1.00  0.00    -0.200 F 
ENDBRANCH  60  83
ENDBRANCH  34  35
ENDBRANCH  27  29
ENDBRANCH  26  27
ENDBRANCH  25  26
ENDBRANCH   1  25
TORSDOF 15
ENDMDL
MODEL 3
REMARK VINA RESULT:     -12.6      4.394      9.939
REMARK SMILES CC(C)CCc1cc2c(cc1Cl)C=C(C(=O)OCCOC(=O)c1ccc(-c3c4nc(c(-c5c(F)c(F)c(F)c(F)c5F)c5ccc([nH]5)c(-c5c(F)c(F)c(F)c(F)c5F)c5nc(c(-c6c(F)c(F)c(F)c(F)c6F)c6ccc3[nH]6)C=C5)C=C4)cc1)[C@H](C(F)(F)F)O2
REMARK SMILES IDX 18 1 17 2 15 3 16 4 14 5 6 6 7 7 11 8 8 9 10 10 12 11 9 12
REMARK SMILES IDX 91 13 13 14 86 15 5 16 4 17 2 18 1 19 3 20 87 21 88 22 89 23
REMARK SMILES IDX 90 24 19 25 20 26 21 27 22 28 23 29 24 30 85 31 25 32 84 33
REMARK SMILES IDX 26 34 27 35 28 36 78 37 29 38 83 39 77 40 79 41 30 42 82 43
REMARK SMILES IDX 76 44 75 45 31 47 63 48 43 49 62 50 44 51 47 52 61 53 80 54
REMARK SMILES IDX 45 55 46 56 60 58 81 59 48 60 32 61 33 62 41 63 34 64 35 65
REMARK SMILES IDX 39 66 42 67 36 68 37 69 40 70 38 71 64 72 65 73 73 74 66 75
REMARK SMILES IDX 67 76 71 77 74 78 68 79 69 80 72 81 70 82 49 83 50 84 58 85
REMARK SMILES IDX 51 86 52 87 56 88 59 89 53 90 54 91 57 92 55 93
REMARK H PARENT 79 46 47 57
REMARK Flexibility Score: inf
ROOT
ATOM      1  C   UNL A   1      35.129  21.061  25.008  1.00  0.00     0.275 C 
ENDROOT
BRANCH   1   2
ATOM      2  O   UNL A   1      34.719  21.898  23.903  1.00  0.00    -0.459 OA
BRANCH   2   3
ATOM      3  C   UNL A   1      33.390  22.079  23.765  1.00  0.00     0.338 C 
ATOM      4  O   UNL A   1      32.563  21.188  23.656  1.00  0.00    -0.246 OA
BRANCH   3   5
ATOM      5  C   UNL A   1      33.022  23.509  23.868  1.00  0.00     0.087 C 
ATOM      6  C   UNL A   1      30.344  27.779  23.694  1.00  0.00    -0.026 A 
ATOM      7  C   UNL A   1      31.728  27.484  23.663  1.00  0.00     0.052 A 
ATOM      8  C   UNL A   1      29.435  26.713  23.798  1.00  0.00     0.045 A 
ATOM      9  C   UNL A   1      32.184  26.163  23.708  1.00  0.00     0.128 A 
ATOM     10  C   UNL A   1      29.893  25.397  23.840  1.00  0.00     0.032 A 
ATOM     11  Cl  UNL A   1      27.722  26.933  23.795  1.00  0.00    -0.084 Cl
ATOM     12  C   UNL A   1      31.260  25.127  23.764  1.00  0.00     0.019 A 
ATOM     13  O   UNL A   1      33.532  25.932  23.610  1.00  0.00    -0.475 OA
ATOM     14  C   UNL A   1      31.723  23.762  23.659  1.00  0.00     0.027 C 
ATOM     15  C   UNL A   1      34.025  24.619  24.067  1.00  0.00     0.316 C 
BRANCH   6  16
ATOM     16  C   UNL A   1      29.893  29.216  23.539  1.00  0.00     0.037 C 
BRANCH  16  17
ATOM     17  C   UNL A   1      29.456  29.647  22.132  1.00  0.00     0.008 C 
BRANCH  17  18
ATOM     18  C   UNL A   1      28.079  30.328  22.044  1.00  0.00    -0.017 C 
ATOM     19  C   UNL A   1      27.662  30.946  23.378  1.00  0.00     0.007 C 
ATOM     20  C   UNL A   1      28.111  31.409  20.960  1.00  0.00     0.007 C 
ENDBRANCH  17  18
ENDBRANCH  16  17
ENDBRANCH   6  16
BRANCH  15  21
ATOM     21  C   UNL A   1      34.609  24.790  25.482  1.00  0.00     0.430 C 
ATOM     22  F   UNL A   1      35.897  24.400  25.582  1.00  0.00    -0.167 F 
ATOM     23  F   UNL A   1      34.586  26.103  25.838  1.00  0.00    -0.167 F 
ATOM     24  F   UNL A   1      33.903  24.112  26.414  1.00  0.00    -0.167 F 
ENDBRANCH  15  21
ENDBRANCH   3   5
ENDBRANCH   2   3
ENDBRANCH   1   2
BRANCH   1  25
ATOM     25  C   UNL A   1      36.635  20.787  24.970  1.00  0.00     0.275 C 
BRANCH  25  26
ATOM     26  O   UNL A   1      37.346  21.656  25.879  1.00  0.00    -0.458 OA
BRANCH  26  27
ATOM     27  C   UNL A   1      38.660  21.401  26.040  1.00  0.00     0.338 C 
ATOM     28  O   UNL A   1      39.274  20.393  25.697  1.00  0.00    -0.246 OA
BRANCH  27  29
ATOM     29  C   UNL A   1      39.333  22.587  26.582  1.00  0.00     0.060 A 
ATOM     30  C   UNL A   1      40.433  22.500  27.430  1.00  0.00     0.016 A 
ATOM     31  C   UNL A   1      38.903  23.830  26.126  1.00  0.00     0.016 A 
ATOM     32  C   UNL A   1      41.071  23.679  27.845  1.00  0.00     0.010 A 
ATOM     33  C   UNL A   1      39.562  24.998  26.499  1.00  0.00     0.010 A 
ATOM     34  C   UNL A   1      40.645  24.942  27.381  1.00  0.00    -0.014 A 
BRANCH  34  35
ATOM     35  C   UNL A   1      41.342  26.196  27.785  1.00  0.00     0.031 A 
ATOM     36  C   UNL A   1      42.750  26.487  27.331  1.00  0.00     0.074 A 
ATOM     37  C   UNL A   1      40.725  27.060  28.614  1.00  0.00     0.049 A 
ATOM     38  N   UNL A   1      43.486  27.550  27.550  1.00  0.00    -0.248 NA
ATOM     39  C   UNL A   1      43.438  25.437  26.565  1.00  0.00     0.031 C 
ATOM     40  C   UNL A   1      39.413  26.852  29.225  1.00  0.00     0.029 A 
ATOM     41  N   UNL A   1      41.114  28.294  29.077  1.00  0.00    -0.354 N 
ATOM     42  C   UNL A   1      44.718  27.289  26.964  1.00  0.00     0.074 A 
ATOM     43  C   UNL A   1      44.655  25.945  26.435  1.00  0.00     0.031 C 
ATOM     44  C   UNL A   1      39.075  27.946  29.925  1.00  0.00     0.029 A 
ATOM     45  C   UNL A   1      40.154  28.926  29.829  1.00  0.00     0.049 A 
ATOM     46  H   UNL A   1      41.997  28.687  28.888  1.00  0.00     0.167 HD
ATOM     47  C   UNL A   1      45.792  28.108  26.841  1.00  0.00     0.037 A 
ATOM     48  C   UNL A   1      40.130  30.166  30.355  1.00  0.00     0.037 A 
ATOM     49  C   UNL A   1      45.836  29.466  27.316  1.00  0.00     0.049 A 
ATOM     50  C   UNL A   1      41.302  31.085  30.144  1.00  0.00     0.074 A 
ATOM     51  C   UNL A   1      46.836  30.407  27.144  1.00  0.00     0.029 A 
ATOM     52  N   UNL A   1      44.832  30.077  28.051  1.00  0.00    -0.354 N 
ATOM     53  N   UNL A   1      42.417  30.865  29.494  1.00  0.00    -0.248 NA
ATOM     54  C   UNL A   1      41.208  32.428  30.737  1.00  0.00     0.031 C 
ATOM     55  C   UNL A   1      46.449  31.581  27.797  1.00  0.00     0.029 A 
ATOM     56  C   UNL A   1      45.195  31.380  28.349  1.00  0.00     0.049 A 
ATOM     57  H   UNL A   1      43.987  29.649  28.320  1.00  0.00     0.167 HD
ATOM     58  C   UNL A   1      43.151  32.038  29.588  1.00  0.00     0.074 A 
ATOM     59  C   UNL A   1      42.348  32.977  30.341  1.00  0.00     0.031 C 
ATOM     60  C   UNL A   1      44.386  32.307  29.099  1.00  0.00     0.037 A 
BRANCH  47  61
ATOM     61  C   UNL A   1      46.998  27.579  26.120  1.00  0.00     0.064 A 
ATOM     62  C   UNL A   1      47.108  27.669  24.724  1.00  0.00     0.173 A 
ATOM     63  C   UNL A   1      48.082  27.040  26.830  1.00  0.00     0.173 A 
ATOM     64  F   UNL A   1      46.097  28.175  23.999  1.00  0.00    -0.203 F 
ATOM     65  C   UNL A   1      48.245  27.215  24.062  1.00  0.00     0.198 A 
ATOM     66  C   UNL A   1      49.229  26.612  26.166  1.00  0.00     0.198 A 
ATOM     67  F   UNL A   1      48.035  26.944  28.166  1.00  0.00    -0.203 F 
ATOM     68  F   UNL A   1      48.309  27.277  22.725  1.00  0.00    -0.200 F 
ATOM     69  C   UNL A   1      49.308  26.694  24.783  1.00  0.00     0.200 A 
ATOM     70  F   UNL A   1      50.264  26.124  26.866  1.00  0.00    -0.200 F 
ATOM     71  F   UNL A   1      50.407  26.270  24.146  1.00  0.00    -0.200 F 
ENDBRANCH  47  61
BRANCH  48  72
ATOM     72  C   UNL A   1      38.910  30.638  31.056  1.00  0.00     0.064 A 
ATOM     73  C   UNL A   1      38.813  30.544  32.451  1.00  0.00     0.173 A 
ATOM     74  C   UNL A   1      37.840  31.220  30.363  1.00  0.00     0.173 A 
ATOM     75  F   UNL A   1      39.806  29.977  33.153  1.00  0.00    -0.203 F 
ATOM     76  C   UNL A   1      37.688  31.010  33.128  1.00  0.00     0.198 A 
ATOM     77  C   UNL A   1      36.724  31.705  31.043  1.00  0.00     0.198 A 
ATOM     78  F   UNL A   1      37.889  31.337  29.028  1.00  0.00    -0.203 F 
ATOM     79  F   UNL A   1      37.611  30.884  34.459  1.00  0.00    -0.200 F 
ATOM     80  C   UNL A   1      36.648  31.596  32.424  1.00  0.00     0.200 A 
ATOM     81  F   UNL A   1      35.725  32.282  30.362  1.00  0.00    -0.200 F 
ATOM     82  F   UNL A   1      35.572  32.056  33.077  1.00  0.00    -0.200 F 
ENDBRANCH  48  72
BRANCH  60  83
ATOM     83  C   UNL A   1      44.958  33.667  29.361  1.00  0.00     0.064 A 
ATOM     84  C   UNL A   1      44.692  34.742  28.502  1.00  0.00     0.173 A 
ATOM     85  C   UNL A   1      45.702  33.919  30.523  1.00  0.00     0.173 A 
ATOM     86  F   UNL A   1      43.995  34.548  27.373  1.00  0.00    -0.203 F 
ATOM     87  C   UNL A   1      45.156  36.022  28.794  1.00  0.00     0.198 A 
ATOM     88  C   UNL A   1      46.146  35.204  30.824  1.00  0.00     0.198 A 
ATOM     89  F   UNL A   1      45.975  32.923  31.379  1.00  0.00    -0.203 F 
ATOM     90  F   UNL A   1      44.910  37.032  27.949  1.00  0.00    -0.200 F 
ATOM     91  C   UNL A   1      45.874  36.253  29.959  1.00  0.00     0.200 A 
ATOM     92  F   UNL A   1      46.828  35.428  31.955  1.00  0.00    -0.200 F 
ATOM     93  F   UNL A   1      46.304  37.489  30.248  1.00  0.00    -0.200 F 
ENDBRANCH  60  83
ENDBRANCH  34  35
ENDBRANCH  27  29
ENDBRANCH  26  27
ENDBRANCH  25  26
ENDBRANCH   1  25
TORSDOF 15
ENDMDL
