MODEL 1
REMARK VINA RESULT:     -11.9      0.000      0.000
REMARK SMILES Cc1cccc(Nc2ccccc2C(=O)OCCOC(=O)c2ccc(-c3c4nc(c(-c5c(F)c(F)c(F)c(F)c5F)c5ccc([nH]5)c(-c5c(F)c(F)c(F)c(F)c5F)c5nc(c(-c6c(F)c(F)c(F)c(F)c6F)c6ccc3[nH]6)C=C5)C=C4)cc2)c1C
REMARK SMILES IDX 17 1 16 2 14 3 15 4 13 5 8 6 9 7 10 8 12 9 11 10 7 11 6 13
REMARK SMILES IDX 1 14 2 15 3 16 85 17 4 18 86 19 5 20 18 21 19 22 20 23 21 24
REMARK SMILES IDX 22 25 23 26 84 27 24 28 83 29 25 30 26 31 27 32 77 33 28 34
REMARK SMILES IDX 82 35 76 36 78 37 29 38 81 39 75 40 74 41 30 43 62 44 42 45
REMARK SMILES IDX 61 46 43 47 46 48 60 49 79 50 44 51 45 52 59 54 80 55 47 56
REMARK SMILES IDX 31 57 32 58 40 59 33 60 34 61 38 62 41 63 35 64 36 65 39 66
REMARK SMILES IDX 37 67 63 68 64 69 72 70 65 71 66 72 70 73 73 74 67 75 68 76
REMARK SMILES IDX 71 77 69 78 48 79 49 80 57 81 50 82 51 83 55 84 58 85 52 86
REMARK SMILES IDX 53 87 56 88 54 89
REMARK H PARENT 7 12 78 42 46 53
REMARK Flexibility Score: inf
ROOT
ATOM      1  C   UNL A   1      33.984  35.331  28.617  1.00  0.00     0.275 C 
ENDROOT
BRANCH   1   2
ATOM      2  O   UNL A   1      33.990  33.933  28.969  1.00  0.00    -0.458 OA
BRANCH   2   3
ATOM      3  C   UNL A   1      33.421  33.115  28.050  1.00  0.00     0.340 C 
ATOM      4  O   UNL A   1      32.414  33.348  27.396  1.00  0.00    -0.246 OA
BRANCH   3   5
ATOM      5  C   UNL A   1      34.215  31.886  27.847  1.00  0.00     0.083 A 
ATOM      6  C   UNL A   1      33.666  30.686  27.364  1.00  0.00     0.053 A 
ATOM      7  C   UNL A   1      34.545  29.600  27.166  1.00  0.00     0.027 A 
ATOM      8  C   UNL A   1      35.917  29.706  27.409  1.00  0.00     0.002 A 
ATOM      9  C   UNL A   1      35.598  31.982  28.093  1.00  0.00     0.018 A 
ATOM     10  C   UNL A   1      36.446  30.901  27.872  1.00  0.00     0.001 A 
BRANCH   6  11
ATOM     11  N   UNL A   1      32.333  30.500  26.946  1.00  0.00    -0.355 N 
ATOM     12  H   UNL A   1      31.700  31.158  27.314  1.00  0.00     0.167 HD
BRANCH  11  13
ATOM     13  C   UNL A   1      31.744  29.543  26.095  1.00  0.00     0.042 A 
ATOM     14  C   UNL A   1      30.811  25.831  25.861  1.00  0.00     0.044 C 
ATOM     15  C   UNL A   1      31.028  27.280  25.514  1.00  0.00    -0.046 A 
ATOM     16  C   UNL A   1      30.880  27.681  24.178  1.00  0.00     0.004 A 
ATOM     17  C   UNL A   1      31.408  28.229  26.497  1.00  0.00    -0.025 A 
ATOM     18  C   UNL A   1      31.128  28.995  23.801  1.00  0.00     0.002 A 
ATOM     19  C   UNL A   1      31.424  27.819  27.951  1.00  0.00     0.047 C 
ATOM     20  C   UNL A   1      31.574  29.911  24.750  1.00  0.00     0.026 A 
ENDBRANCH  11  13
ENDBRANCH   6  11
ENDBRANCH   3   5
ENDBRANCH   2   3
ENDBRANCH   1   2
BRANCH   1  21
ATOM     21  C   UNL A   1      33.105  36.158  29.551  1.00  0.00     0.275 C 
BRANCH  21  22
ATOM     22  O   UNL A   1      32.522  35.321  30.562  1.00  0.00    -0.458 OA
BRANCH  22  23
ATOM     23  C   UNL A   1      32.625  35.785  31.827  1.00  0.00     0.338 C 
ATOM     24  O   UNL A   1      31.943  36.637  32.370  1.00  0.00    -0.246 OA
BRANCH  23  25
ATOM     25  C   UNL A   1      33.715  35.091  32.530  1.00  0.00     0.060 A 
ATOM     26  C   UNL A   1      34.972  35.683  32.599  1.00  0.00     0.016 A 
ATOM     27  C   UNL A   1      33.537  33.780  32.961  1.00  0.00     0.016 A 
ATOM     28  C   UNL A   1      36.082  34.932  32.965  1.00  0.00     0.010 A 
ATOM     29  C   UNL A   1      34.633  33.063  33.450  1.00  0.00     0.010 A 
ATOM     30  C   UNL A   1      35.928  33.613  33.408  1.00  0.00    -0.014 A 
BRANCH  30  31
ATOM     31  C   UNL A   1      37.116  32.795  33.773  1.00  0.00     0.031 A 
ATOM     32  C   UNL A   1      37.794  33.009  35.099  1.00  0.00     0.074 A 
ATOM     33  C   UNL A   1      37.589  31.859  32.927  1.00  0.00     0.049 A 
ATOM     34  N   UNL A   1      38.961  32.584  35.514  1.00  0.00    -0.248 NA
ATOM     35  C   UNL A   1      37.071  33.830  36.083  1.00  0.00     0.031 C 
ATOM     36  C   UNL A   1      37.000  31.506  31.635  1.00  0.00     0.029 A 
ATOM     37  N   UNL A   1      38.681  31.031  33.028  1.00  0.00    -0.354 N 
ATOM     38  C   UNL A   1      39.144  33.151  36.769  1.00  0.00     0.074 A 
ATOM     39  C   UNL A   1      37.964  33.939  37.056  1.00  0.00     0.031 C 
ATOM     40  C   UNL A   1      37.714  30.518  31.077  1.00  0.00     0.029 A 
ATOM     41  C   UNL A   1      38.870  30.239  31.922  1.00  0.00     0.049 A 
ATOM     42  H   UNL A   1      39.270  31.008  33.816  1.00  0.00     0.167 HD
ATOM     43  C   UNL A   1      40.209  33.031  37.597  1.00  0.00     0.037 A 
ATOM     44  C   UNL A   1      39.887  29.422  31.592  1.00  0.00     0.037 A 
ATOM     45  C   UNL A   1      41.344  32.183  37.334  1.00  0.00     0.049 A 
ATOM     46  C   UNL A   1      41.055  29.300  32.526  1.00  0.00     0.074 A 
ATOM     47  C   UNL A   1      42.457  31.959  38.124  1.00  0.00     0.029 A 
ATOM     48  N   UNL A   1      41.497  31.404  36.196  1.00  0.00    -0.354 N 
ATOM     49  N   UNL A   1      41.255  29.890  33.679  1.00  0.00    -0.248 NA
ATOM     50  C   UNL A   1      42.150  28.416  32.103  1.00  0.00     0.031 C 
ATOM     51  C   UNL A   1      43.301  31.069  37.448  1.00  0.00     0.029 A 
ATOM     52  C   UNL A   1      42.693  30.707  36.256  1.00  0.00     0.049 A 
ATOM     53  H   UNL A   1      40.851  31.353  35.454  1.00  0.00     0.167 HD
ATOM     54  C   UNL A   1      42.495  29.453  34.121  1.00  0.00     0.074 A 
ATOM     55  C   UNL A   1      42.990  28.526  33.123  1.00  0.00     0.031 C 
ATOM     56  C   UNL A   1      43.168  29.795  35.247  1.00  0.00     0.037 A 
BRANCH  43  57
ATOM     57  C   UNL A   1      40.223  33.871  38.841  1.00  0.00     0.064 A 
ATOM     58  C   UNL A   1      39.624  33.451  40.037  1.00  0.00     0.173 A 
ATOM     59  C   UNL A   1      40.872  35.117  38.835  1.00  0.00     0.173 A 
ATOM     60  F   UNL A   1      38.980  32.277  40.094  1.00  0.00    -0.203 F 
ATOM     61  C   UNL A   1      39.651  34.260  41.173  1.00  0.00     0.198 A 
ATOM     62  C   UNL A   1      40.920  35.909  39.979  1.00  0.00     0.198 A 
ATOM     63  F   UNL A   1      41.465  35.564  37.718  1.00  0.00    -0.203 F 
ATOM     64  F   UNL A   1      39.031  33.860  42.292  1.00  0.00    -0.200 F 
ATOM     65  C   UNL A   1      40.303  35.484  41.144  1.00  0.00     0.200 A 
ATOM     66  F   UNL A   1      41.561  37.086  39.951  1.00  0.00    -0.200 F 
ATOM     67  F   UNL A   1      40.330  36.257  42.239  1.00  0.00    -0.200 F 
ENDBRANCH  43  57
BRANCH  44  68
ATOM     68  C   UNL A   1      39.858  28.710  30.289  1.00  0.00     0.064 A 
ATOM     69  C   UNL A   1      40.422  29.280  29.140  1.00  0.00     0.173 A 
ATOM     70  C   UNL A   1      39.302  27.425  30.176  1.00  0.00     0.173 A 
ATOM     71  F   UNL A   1      40.941  30.515  29.193  1.00  0.00    -0.203 F 
ATOM     72  C   UNL A   1      40.430  28.592  27.927  1.00  0.00     0.198 A 
ATOM     73  C   UNL A   1      39.339  26.727  28.972  1.00  0.00     0.198 A 
ATOM     74  F   UNL A   1      38.752  26.836  31.247  1.00  0.00    -0.203 F 
ATOM     75  F   UNL A   1      40.949  29.171  26.837  1.00  0.00    -0.200 F 
ATOM     76  C   UNL A   1      39.901  27.313  27.848  1.00  0.00     0.200 A 
ATOM     77  F   UNL A   1      38.843  25.485  28.904  1.00  0.00    -0.200 F 
ATOM     78  F   UNL A   1      39.927  26.646  26.686  1.00  0.00    -0.200 F 
ENDBRANCH  44  68
BRANCH  56  79
ATOM     79  C   UNL A   1      44.504  29.151  35.461  1.00  0.00     0.064 A 
ATOM     80  C   UNL A   1      45.684  29.740  34.985  1.00  0.00     0.173 A 
ATOM     81  C   UNL A   1      44.606  27.946  36.171  1.00  0.00     0.173 A 
ATOM     82  F   UNL A   1      45.632  30.884  34.285  1.00  0.00    -0.203 F 
ATOM     83  C   UNL A   1      46.919  29.134  35.196  1.00  0.00     0.198 A 
ATOM     84  C   UNL A   1      45.845  27.356  36.400  1.00  0.00     0.198 A 
ATOM     85  F   UNL A   1      43.505  27.347  36.648  1.00  0.00    -0.203 F 
ATOM     86  F   UNL A   1      48.031  29.691  34.695  1.00  0.00    -0.200 F 
ATOM     87  C   UNL A   1      46.999  27.946  35.907  1.00  0.00     0.200 A 
ATOM     88  F   UNL A   1      45.923  26.213  37.096  1.00  0.00    -0.200 F 
ATOM     89  F   UNL A   1      48.190  27.365  36.110  1.00  0.00    -0.200 F 
ENDBRANCH  56  79
ENDBRANCH  30  31
ENDBRANCH  23  25
ENDBRANCH  22  23
ENDBRANCH  21  22
ENDBRANCH   1  21
TORSDOF 13
ENDMDL
MODEL 2
REMARK VINA RESULT:     -11.9      2.778      8.672
REMARK SMILES Cc1cccc(Nc2ccccc2C(=O)OCCOC(=O)c2ccc(-c3c4nc(c(-c5c(F)c(F)c(F)c(F)c5F)c5ccc([nH]5)c(-c5c(F)c(F)c(F)c(F)c5F)c5nc(c(-c6c(F)c(F)c(F)c(F)c6F)c6ccc3[nH]6)C=C5)C=C4)cc2)c1C
REMARK SMILES IDX 17 1 16 2 14 3 15 4 13 5 8 6 9 7 10 8 12 9 11 10 7 11 6 13
REMARK SMILES IDX 1 14 2 15 3 16 85 17 4 18 86 19 5 20 18 21 19 22 20 23 21 24
REMARK SMILES IDX 22 25 23 26 84 27 24 28 83 29 25 30 26 31 27 32 77 33 28 34
REMARK SMILES IDX 82 35 76 36 78 37 29 38 81 39 75 40 74 41 30 43 62 44 42 45
REMARK SMILES IDX 61 46 43 47 46 48 60 49 79 50 44 51 45 52 59 54 80 55 47 56
REMARK SMILES IDX 31 57 32 58 40 59 33 60 34 61 38 62 41 63 35 64 36 65 39 66
REMARK SMILES IDX 37 67 63 68 64 69 72 70 65 71 66 72 70 73 73 74 67 75 68 76
REMARK SMILES IDX 71 77 69 78 48 79 49 80 57 81 50 82 51 83 55 84 58 85 52 86
REMARK SMILES IDX 53 87 56 88 54 89
REMARK H PARENT 7 12 78 42 46 53
REMARK Flexibility Score: inf
ROOT
ATOM      1  C   UNL A   1      31.828  28.475  27.347  1.00  0.00     0.275 C 
ENDROOT
BRANCH   1   2
ATOM      2  O   UNL A   1      32.621  27.521  26.612  1.00  0.00    -0.458 OA
BRANCH   2   3
ATOM      3  C   UNL A   1      31.975  26.371  26.299  1.00  0.00     0.340 C 
ATOM      4  O   UNL A   1      30.863  26.035  26.683  1.00  0.00    -0.246 OA
BRANCH   3   5
ATOM      5  C   UNL A   1      32.748  25.555  25.340  1.00  0.00     0.083 A 
ATOM      6  C   UNL A   1      32.280  25.227  24.056  1.00  0.00     0.053 A 
ATOM      7  C   UNL A   1      33.140  24.484  23.220  1.00  0.00     0.027 A 
ATOM      8  C   UNL A   1      34.422  24.105  23.627  1.00  0.00     0.002 A 
ATOM      9  C   UNL A   1      34.039  25.165  25.744  1.00  0.00     0.018 A 
ATOM     10  C   UNL A   1      34.874  24.447  24.891  1.00  0.00     0.001 A 
BRANCH   6  11
ATOM     11  N   UNL A   1      31.073  25.674  23.481  1.00  0.00    -0.355 N 
ATOM     12  H   UNL A   1      30.488  24.951  23.161  1.00  0.00     0.167 HD
BRANCH  11  13
ATOM     13  C   UNL A   1      30.555  26.970  23.283  1.00  0.00     0.042 A 
ATOM     14  C   UNL A   1      27.278  28.955  23.126  1.00  0.00     0.044 C 
ATOM     15  C   UNL A   1      28.737  28.588  23.062  1.00  0.00    -0.046 A 
ATOM     16  C   UNL A   1      29.641  29.515  22.524  1.00  0.00     0.004 A 
ATOM     17  C   UNL A   1      29.202  27.322  23.501  1.00  0.00    -0.025 A 
ATOM     18  C   UNL A   1      30.987  29.196  22.390  1.00  0.00     0.002 A 
ATOM     19  C   UNL A   1      28.248  26.389  24.209  1.00  0.00     0.047 C 
ATOM     20  C   UNL A   1      31.434  27.928  22.750  1.00  0.00     0.026 A 
ENDBRANCH  11  13
ENDBRANCH   6  11
ENDBRANCH   3   5
ENDBRANCH   2   3
ENDBRANCH   1   2
BRANCH   1  21
ATOM     21  C   UNL A   1      31.768  29.833  26.652  1.00  0.00     0.275 C 
BRANCH  21  22
ATOM     22  O   UNL A   1      33.093  30.314  26.376  1.00  0.00    -0.458 OA
BRANCH  22  23
ATOM     23  C   UNL A   1      33.544  31.277  27.209  1.00  0.00     0.338 C 
ATOM     24  O   UNL A   1      32.960  32.279  27.581  1.00  0.00    -0.246 OA
BRANCH  23  25
ATOM     25  C   UNL A   1      34.906  30.954  27.663  1.00  0.00     0.060 A 
ATOM     26  C   UNL A   1      35.246  29.630  27.921  1.00  0.00     0.016 A 
ATOM     27  C   UNL A   1      35.784  31.978  28.001  1.00  0.00     0.016 A 
ATOM     28  C   UNL A   1      36.394  29.328  28.643  1.00  0.00     0.010 A 
ATOM     29  C   UNL A   1      37.002  31.665  28.615  1.00  0.00     0.010 A 
ATOM     30  C   UNL A   1      37.296  30.341  28.990  1.00  0.00    -0.014 A 
BRANCH  30  31
ATOM     31  C   UNL A   1      38.513  30.028  29.787  1.00  0.00     0.031 A 
ATOM     32  C   UNL A   1      39.571  29.125  29.215  1.00  0.00     0.074 A 
ATOM     33  C   UNL A   1      38.678  30.550  31.019  1.00  0.00     0.049 A 
ATOM     34  N   UNL A   1      40.578  28.540  29.815  1.00  0.00    -0.248 NA
ATOM     35  C   UNL A   1      39.473  28.823  27.778  1.00  0.00     0.031 C 
ATOM     36  C   UNL A   1      37.761  31.483  31.676  1.00  0.00     0.029 A 
ATOM     37  N   UNL A   1      39.679  30.368  31.942  1.00  0.00    -0.354 N 
ATOM     38  C   UNL A   1      41.179  27.742  28.850  1.00  0.00     0.074 A 
ATOM     39  C   UNL A   1      40.436  27.926  27.622  1.00  0.00     0.031 C 
ATOM     40  C   UNL A   1      38.253  31.814  32.878  1.00  0.00     0.029 A 
ATOM     41  C   UNL A   1      39.465  31.039  33.120  1.00  0.00     0.049 A 
ATOM     42  H   UNL A   1      40.473  29.810  31.774  1.00  0.00     0.167 HD
ATOM     43  C   UNL A   1      42.248  26.920  28.987  1.00  0.00     0.037 A 
ATOM     44  C   UNL A   1      40.132  30.995  34.288  1.00  0.00     0.037 A 
ATOM     45  C   UNL A   1      43.026  26.804  30.194  1.00  0.00     0.049 A 
ATOM     46  C   UNL A   1      41.315  30.082  34.417  1.00  0.00     0.074 A 
ATOM     47  C   UNL A   1      44.150  26.031  30.426  1.00  0.00     0.029 A 
ATOM     48  N   UNL A   1      42.766  27.497  31.367  1.00  0.00    -0.354 N 
ATOM     49  N   UNL A   1      41.838  29.278  33.524  1.00  0.00    -0.248 NA
ATOM     50  C   UNL A   1      41.989  30.051  35.722  1.00  0.00     0.031 C 
ATOM     51  C   UNL A   1      44.551  26.232  31.752  1.00  0.00     0.029 A 
ATOM     52  C   UNL A   1      43.702  27.161  32.332  1.00  0.00     0.049 A 
ATOM     53  H   UNL A   1      42.027  28.134  31.495  1.00  0.00     0.167 HD
ATOM     54  C   UNL A   1      42.899  28.646  34.154  1.00  0.00     0.074 A 
ATOM     55  C   UNL A   1      42.962  29.180  35.500  1.00  0.00     0.031 C 
ATOM     56  C   UNL A   1      43.740  27.701  33.667  1.00  0.00     0.037 A 
BRANCH  43  57
ATOM     57  C   UNL A   1      42.609  26.047  27.820  1.00  0.00     0.064 A 
ATOM     58  C   UNL A   1      43.616  26.392  26.908  1.00  0.00     0.173 A 
ATOM     59  C   UNL A   1      41.943  24.826  27.629  1.00  0.00     0.173 A 
ATOM     60  F   UNL A   1      44.275  27.553  27.036  1.00  0.00    -0.203 F 
ATOM     61  C   UNL A   1      43.923  25.560  25.832  1.00  0.00     0.198 A 
ATOM     62  C   UNL A   1      42.271  23.985  26.569  1.00  0.00     0.198 A 
ATOM     63  F   UNL A   1      40.974  24.445  28.475  1.00  0.00    -0.203 F 
ATOM     64  F   UNL A   1      44.857  25.933  24.944  1.00  0.00    -0.200 F 
ATOM     65  C   UNL A   1      43.255  24.357  25.667  1.00  0.00     0.200 A 
ATOM     66  F   UNL A   1      41.631  22.817  26.419  1.00  0.00    -0.200 F 
ATOM     67  F   UNL A   1      43.554  23.557  24.633  1.00  0.00    -0.200 F 
ENDBRANCH  43  57
BRANCH  44  68
ATOM     68  C   UNL A   1      39.646  31.801  35.438  1.00  0.00     0.064 A 
ATOM     69  C   UNL A   1      40.132  33.093  35.672  1.00  0.00     0.173 A 
ATOM     70  C   UNL A   1      38.654  31.309  36.301  1.00  0.00     0.173 A 
ATOM     71  F   UNL A   1      41.098  33.596  34.890  1.00  0.00    -0.203 F 
ATOM     72  C   UNL A   1      39.644  33.864  36.727  1.00  0.00     0.198 A 
ATOM     73  C   UNL A   1      38.145  32.091  37.334  1.00  0.00     0.198 A 
ATOM     74  F   UNL A   1      38.155  30.078  36.118  1.00  0.00    -0.203 F 
ATOM     75  F   UNL A   1      40.146  35.086  36.947  1.00  0.00    -0.200 F 
ATOM     76  C   UNL A   1      38.643  33.367  37.548  1.00  0.00     0.200 A 
ATOM     77  F   UNL A   1      37.167  31.614  38.115  1.00  0.00    -0.200 F 
ATOM     78  F   UNL A   1      38.163  34.116  38.550  1.00  0.00    -0.200 F 
ENDBRANCH  44  68
BRANCH  56  79
ATOM     79  C   UNL A   1      44.806  27.199  34.593  1.00  0.00     0.064 A 
ATOM     80  C   UNL A   1      46.047  27.843  34.697  1.00  0.00     0.173 A 
ATOM     81  C   UNL A   1      44.574  26.077  35.402  1.00  0.00     0.173 A 
ATOM     82  F   UNL A   1      46.320  28.909  33.928  1.00  0.00    -0.203 F 
ATOM     83  C   UNL A   1      47.027  27.369  35.565  1.00  0.00     0.198 A 
ATOM     84  C   UNL A   1      45.547  25.621  36.287  1.00  0.00     0.198 A 
ATOM     85  F   UNL A   1      43.401  25.430  35.341  1.00  0.00    -0.203 F 
ATOM     86  F   UNL A   1      48.223  27.974  35.617  1.00  0.00    -0.200 F 
ATOM     87  C   UNL A   1      46.774  26.263  36.362  1.00  0.00     0.200 A 
ATOM     88  F   UNL A   1      45.299  24.558  37.064  1.00  0.00    -0.200 F 
ATOM     89  F   UNL A   1      47.719  25.810  37.198  1.00  0.00    -0.200 F 
ENDBRANCH  56  79
ENDBRANCH  30  31
ENDBRANCH  23  25
ENDBRANCH  22  23
ENDBRANCH  21  22
ENDBRANCH   1  21
TORSDOF 13
ENDMDL
MODEL 3
REMARK VINA RESULT:     -11.6      3.064      8.839
REMARK SMILES Cc1cccc(Nc2ccccc2C(=O)OCCOC(=O)c2ccc(-c3c4nc(c(-c5c(F)c(F)c(F)c(F)c5F)c5ccc([nH]5)c(-c5c(F)c(F)c(F)c(F)c5F)c5nc(c(-c6c(F)c(F)c(F)c(F)c6F)c6ccc3[nH]6)C=C5)C=C4)cc2)c1C
REMARK SMILES IDX 17 1 16 2 14 3 15 4 13 5 8 6 9 7 10 8 12 9 11 10 7 11 6 13
REMARK SMILES IDX 1 14 2 15 3 16 85 17 4 18 86 19 5 20 18 21 19 22 20 23 21 24
REMARK SMILES IDX 22 25 23 26 84 27 24 28 83 29 25 30 26 31 27 32 77 33 28 34
REMARK SMILES IDX 82 35 76 36 78 37 29 38 81 39 75 40 74 41 30 43 62 44 42 45
REMARK SMILES IDX 61 46 43 47 46 48 60 49 79 50 44 51 45 52 59 54 80 55 47 56
REMARK SMILES IDX 31 57 32 58 40 59 33 60 34 61 38 62 41 63 35 64 36 65 39 66
REMARK SMILES IDX 37 67 63 68 64 69 72 70 65 71 66 72 70 73 73 74 67 75 68 76
REMARK SMILES IDX 71 77 69 78 48 79 49 80 57 81 50 82 51 83 55 84 58 85 52 86
REMARK SMILES IDX 53 87 56 88 54 89
REMARK H PARENT 7 12 78 42 46 53
REMARK Flexibility Score: inf
ROOT
ATOM      1  C   UNL A   1      32.878  29.195  24.713  1.00  0.00     0.275 C 
ENDROOT
BRANCH   1   2
ATOM      2  O   UNL A   1      32.398  27.843  24.576  1.00  0.00    -0.458 OA
BRANCH   2   3
ATOM      3  C   UNL A   1      32.940  26.958  25.448  1.00  0.00     0.340 C 
ATOM      4  O   UNL A   1      34.042  27.039  25.973  1.00  0.00    -0.246 OA
BRANCH   3   5
ATOM      5  C   UNL A   1      31.996  25.871  25.780  1.00  0.00     0.083 A 
ATOM      6  C   UNL A   1      32.409  24.575  26.135  1.00  0.00     0.053 A 
ATOM      7  C   UNL A   1      31.406  23.644  26.481  1.00  0.00     0.027 A 
ATOM      8  C   UNL A   1      30.052  23.989  26.500  1.00  0.00     0.002 A 
ATOM      9  C   UNL A   1      30.629  26.208  25.799  1.00  0.00     0.018 A 
ATOM     10  C   UNL A   1      29.662  25.275  26.160  1.00  0.00     0.001 A 
BRANCH   6  11
ATOM     11  N   UNL A   1      33.743  24.151  26.294  1.00  0.00    -0.355 N 
ATOM     12  H   UNL A   1      34.148  24.407  27.154  1.00  0.00     0.167 HD
BRANCH  11  13
ATOM     13  C   UNL A   1      34.602  23.427  25.443  1.00  0.00     0.042 A 
ATOM     14  C   UNL A   1      36.292  20.013  25.000  1.00  0.00     0.044 C 
ATOM     15  C   UNL A   1      35.888  21.450  24.802  1.00  0.00    -0.046 A 
ATOM     16  C   UNL A   1      36.590  22.223  23.866  1.00  0.00     0.004 A 
ATOM     17  C   UNL A   1      34.844  22.038  25.560  1.00  0.00    -0.025 A 
ATOM     18  C   UNL A   1      36.292  23.569  23.693  1.00  0.00     0.002 A 
ATOM     19  C   UNL A   1      34.001  21.163  26.459  1.00  0.00     0.047 C 
ATOM     20  C   UNL A   1      35.320  24.167  24.488  1.00  0.00     0.026 A 
ENDBRANCH  11  13
ENDBRANCH   6  11
ENDBRANCH   3   5
ENDBRANCH   2   3
ENDBRANCH   1   2
BRANCH   1  21
ATOM     21  C   UNL A   1      31.937  30.060  25.548  1.00  0.00     0.275 C 
BRANCH  21  22
ATOM     22  O   UNL A   1      32.408  30.150  26.902  1.00  0.00    -0.458 OA
BRANCH  22  23
ATOM     23  C   UNL A   1      33.042  31.301  27.217  1.00  0.00     0.338 C 
ATOM     24  O   UNL A   1      32.602  32.437  27.168  1.00  0.00    -0.246 OA
BRANCH  23  25
ATOM     25  C   UNL A   1      34.411  31.013  27.674  1.00  0.00     0.060 A 
ATOM     26  C   UNL A   1      34.776  29.700  27.956  1.00  0.00     0.016 A 
ATOM     27  C   UNL A   1      35.269  32.060  27.993  1.00  0.00     0.016 A 
ATOM     28  C   UNL A   1      35.931  29.435  28.681  1.00  0.00     0.010 A 
ATOM     29  C   UNL A   1      36.493  31.782  28.610  1.00  0.00     0.010 A 
ATOM     30  C   UNL A   1      36.814  30.471  29.008  1.00  0.00    -0.014 A 
BRANCH  30  31
ATOM     31  C   UNL A   1      38.038  30.196  29.809  1.00  0.00     0.031 A 
ATOM     32  C   UNL A   1      39.130  29.335  29.235  1.00  0.00     0.074 A 
ATOM     33  C   UNL A   1      38.179  30.716  31.044  1.00  0.00     0.049 A 
ATOM     34  N   UNL A   1      40.154  28.782  29.836  1.00  0.00    -0.248 NA
ATOM     35  C   UNL A   1      39.048  29.038  27.797  1.00  0.00     0.031 C 
ATOM     36  C   UNL A   1      37.227  31.611  31.703  1.00  0.00     0.029 A 
ATOM     37  N   UNL A   1      39.183  30.563  31.970  1.00  0.00    -0.354 N 
ATOM     38  C   UNL A   1      40.787  28.011  28.869  1.00  0.00     0.074 A 
ATOM     39  C   UNL A   1      40.043  28.177  27.639  1.00  0.00     0.031 C 
ATOM     40  C   UNL A   1      37.702  31.952  32.909  1.00  0.00     0.029 A 
ATOM     41  C   UNL A   1      38.940  31.219  33.152  1.00  0.00     0.049 A 
ATOM     42  H   UNL A   1      39.996  30.035  31.803  1.00  0.00     0.167 HD
ATOM     43  C   UNL A   1      41.884  27.227  29.005  1.00  0.00     0.037 A 
ATOM     44  C   UNL A   1      39.603  31.191  34.322  1.00  0.00     0.037 A 
ATOM     45  C   UNL A   1      42.660  27.131  30.215  1.00  0.00     0.049 A 
ATOM     46  C   UNL A   1      40.818  30.320  34.450  1.00  0.00     0.074 A 
ATOM     47  C   UNL A   1      43.810  26.397  30.447  1.00  0.00     0.029 A 
ATOM     48  N   UNL A   1      42.372  27.807  31.391  1.00  0.00    -0.354 N 
ATOM     49  N   UNL A   1      41.373  29.541  33.555  1.00  0.00    -0.248 NA
ATOM     50  C   UNL A   1      41.486  30.305  35.758  1.00  0.00     0.031 C 
ATOM     51  C   UNL A   1      44.198  26.603  31.776  1.00  0.00     0.029 A 
ATOM     52  C   UNL A   1      43.315  27.498  32.358  1.00  0.00     0.049 A 
ATOM     53  H   UNL A   1      41.610  28.417  31.520  1.00  0.00     0.167 HD
ATOM     54  C   UNL A   1      42.452  28.943  34.186  1.00  0.00     0.074 A 
ATOM     55  C   UNL A   1      42.491  29.470  35.535  1.00  0.00     0.031 C 
ATOM     56  C   UNL A   1      43.328  28.031  33.697  1.00  0.00     0.037 A 
BRANCH  43  57
ATOM     57  C   UNL A   1      42.280  26.375  27.835  1.00  0.00     0.064 A 
ATOM     58  C   UNL A   1      41.678  25.137  27.569  1.00  0.00     0.173 A 
ATOM     59  C   UNL A   1      43.273  26.824  26.949  1.00  0.00     0.173 A 
ATOM     60  F   UNL A   1      40.735  24.655  28.391  1.00  0.00    -0.203 F 
ATOM     61  C   UNL A   1      42.075  24.368  26.476  1.00  0.00     0.198 A 
ATOM     62  C   UNL A   1      43.647  26.066  25.842  1.00  0.00     0.198 A 
ATOM     63  F   UNL A   1      43.878  28.004  27.153  1.00  0.00    -0.203 F 
ATOM     64  F   UNL A   1      41.519  23.166  26.268  1.00  0.00    -0.200 F 
ATOM     65  C   UNL A   1      43.053  24.835  25.611  1.00  0.00     0.200 A 
ATOM     66  F   UNL A   1      44.585  26.526  25.002  1.00  0.00    -0.200 F 
ATOM     67  F   UNL A   1      43.430  24.095  24.559  1.00  0.00    -0.200 F 
ENDBRANCH  43  57
BRANCH  44  68
ATOM     68  C   UNL A   1      39.084  31.973  35.475  1.00  0.00     0.064 A 
ATOM     69  C   UNL A   1      38.299  31.368  36.464  1.00  0.00     0.173 A 
ATOM     70  C   UNL A   1      39.398  33.333  35.629  1.00  0.00     0.173 A 
ATOM     71  F   UNL A   1      37.951  30.078  36.347  1.00  0.00    -0.203 F 
ATOM     72  C   UNL A   1      37.848  32.094  37.566  1.00  0.00     0.198 A 
ATOM     73  C   UNL A   1      38.973  34.048  36.745  1.00  0.00     0.198 A 
ATOM     74  F   UNL A   1      40.148  33.957  34.709  1.00  0.00    -0.203 F 
ATOM     75  F   UNL A   1      37.075  31.500  38.484  1.00  0.00    -0.200 F 
ATOM     76  C   UNL A   1      38.195  33.429  37.711  1.00  0.00     0.200 A 
ATOM     77  F   UNL A   1      39.326  35.332  36.890  1.00  0.00    -0.200 F 
ATOM     78  F   UNL A   1      37.777  34.120  38.780  1.00  0.00    -0.200 F 
ENDBRANCH  44  68
BRANCH  56  79
ATOM     79  C   UNL A   1      44.408  27.561  34.624  1.00  0.00     0.064 A 
ATOM     80  C   UNL A   1      45.637  28.230  34.714  1.00  0.00     0.173 A 
ATOM     81  C   UNL A   1      44.200  26.446  35.449  1.00  0.00     0.173 A 
ATOM     82  F   UNL A   1      45.886  29.290  33.930  1.00  0.00    -0.203 F 
ATOM     83  C   UNL A   1      46.629  27.786  35.583  1.00  0.00     0.198 A 
ATOM     84  C   UNL A   1      45.185  26.020  36.335  1.00  0.00     0.198 A 
ATOM     85  F   UNL A   1      43.040  25.776  35.401  1.00  0.00    -0.203 F 
ATOM     86  F   UNL A   1      47.813  28.413  35.622  1.00  0.00    -0.200 F 
ATOM     87  C   UNL A   1      46.401  26.686  36.396  1.00  0.00     0.200 A 
ATOM     88  F   UNL A   1      44.961  24.962  37.127  1.00  0.00    -0.200 F 
ATOM     89  F   UNL A   1      47.357  26.261  37.234  1.00  0.00    -0.200 F 
ENDBRANCH  56  79
ENDBRANCH  30  31
ENDBRANCH  23  25
ENDBRANCH  22  23
ENDBRANCH  21  22
ENDBRANCH   1  21
TORSDOF 13
ENDMDL
