MODEL 1
REMARK VINA RESULT:     -13.0      0.000      0.000
REMARK SMILES O=C(CN1C(=O)CN(C(=O)OCC2c3ccccc3-c3ccccc32)c2ccccc21)OCCOC(=O)c1ccc(-c2c3nc(c(-c4c(F)c(F)c(F)c(F)c4F)c4ccc([nH]4)c(-c4c(F)c(F)c(F)c(F)c4F)c4nc(c(-c5c(F)c(F)c(F)c(F)c5F)c5ccc2[nH]5)C=C4)C=C3)cc1
REMARK SMILES IDX 32 1 2 2 1 3 3 4 4 5 5 6 31 7 6 8 7 9 26 10 30 11 8 12 27 13
REMARK SMILES IDX 29 14 28 15 9 16 10 17 11 18 12 19 13 20 14 21 25 22 15 23
REMARK SMILES IDX 19 24 20 25 24 26 16 27 18 28 21 29 23 30 17 31 22 32 33 33
REMARK SMILES IDX 34 34 35 35 36 36 37 37 38 38 39 39 100 40 40 41 99 42 41 43
REMARK SMILES IDX 42 44 43 45 93 46 44 47 98 48 92 49 94 50 45 51 97 52 91 53
REMARK SMILES IDX 90 54 46 56 78 57 58 58 77 59 59 60 62 61 76 62 95 63 60 64
REMARK SMILES IDX 61 65 75 67 96 68 63 69 47 70 48 71 56 72 49 73 50 74 54 75
REMARK SMILES IDX 57 76 51 77 52 78 55 79 53 80 79 81 80 82 88 83 81 84 82 85
REMARK SMILES IDX 86 86 89 87 83 88 84 89 87 90 85 91 64 92 65 93 73 94 66 95
REMARK SMILES IDX 67 96 71 97 74 98 68 99 69 100 72 101 70 102
REMARK H PARENT 94 55 62 66
REMARK Flexibility Score: inf
ROOT
ATOM      1  O   UNL A   1      35.061  19.757  24.342  1.00  0.00    -0.461 OA
ENDROOT
BRANCH   1   2
ATOM      2  C   UNL A   1      33.747  19.490  24.502  1.00  0.00     0.326 C 
ATOM      3  O   UNL A   1      33.371  18.316  24.469  1.00  0.00    -0.250 OA
BRANCH   2   4
ATOM      4  C   UNL A   1      32.704  20.614  24.549  1.00  0.00     0.248 C 
BRANCH   4   5
ATOM      5  N   UNL A   1      32.919  21.848  23.799  1.00  0.00    -0.298 N 
ATOM      6  C   UNL A   1      32.512  21.793  22.467  1.00  0.00     0.247 C 
ATOM      7  C   UNL A   1      33.683  22.963  24.295  1.00  0.00     0.068 A 
ATOM      8  O   UNL A   1      31.926  20.816  21.998  1.00  0.00    -0.272 OA
ATOM      9  C   UNL A   1      33.029  22.883  21.564  1.00  0.00     0.229 C 
ATOM     10  C   UNL A   1      33.796  24.139  23.510  1.00  0.00     0.071 A 
ATOM     11  C   UNL A   1      34.247  22.967  25.583  1.00  0.00     0.028 A 
ATOM     12  N   UNL A   1      33.180  24.165  22.226  1.00  0.00    -0.266 N 
ATOM     13  C   UNL A   1      34.436  25.268  24.049  1.00  0.00     0.029 A 
ATOM     14  C   UNL A   1      34.885  24.099  26.098  1.00  0.00     0.002 A 
ATOM     15  C   UNL A   1      34.977  25.249  25.332  1.00  0.00     0.002 A 
BRANCH  12  16
ATOM     16  C   UNL A   1      32.688  25.320  21.636  1.00  0.00     0.414 C 
ATOM     17  O   UNL A   1      33.294  26.056  20.868  1.00  0.00    -0.224 OA
BRANCH  16  18
ATOM     18  O   UNL A   1      31.445  25.630  22.123  1.00  0.00    -0.448 OA
BRANCH  18  19
ATOM     19  C   UNL A   1      31.350  26.913  22.759  1.00  0.00     0.248 C 
BRANCH  19  20
ATOM     20  C   UNL A   1      30.538  26.904  24.076  1.00  0.00     0.088 C 
ATOM     21  C   UNL A   1      30.644  25.648  24.940  1.00  0.00    -0.029 A 
ATOM     22  C   UNL A   1      31.127  27.959  25.014  1.00  0.00    -0.029 A 
ATOM     23  C   UNL A   1      30.155  24.374  24.690  1.00  0.00     0.005 A 
ATOM     24  C   UNL A   1      31.330  25.933  26.139  1.00  0.00    -0.014 A 
ATOM     25  C   UNL A   1      31.626  27.346  26.184  1.00  0.00    -0.014 A 
ATOM     26  C   UNL A   1      31.263  29.323  24.802  1.00  0.00     0.005 A 
ATOM     27  C   UNL A   1      30.443  23.365  25.614  1.00  0.00     0.000 A 
ATOM     28  C   UNL A   1      31.599  24.933  27.060  1.00  0.00     0.009 A 
ATOM     29  C   UNL A   1      32.279  28.093  27.149  1.00  0.00     0.009 A 
ATOM     30  C   UNL A   1      31.927  30.073  25.775  1.00  0.00     0.000 A 
ATOM     31  C   UNL A   1      31.164  23.638  26.783  1.00  0.00     0.001 A 
ATOM     32  C   UNL A   1      32.433  29.464  26.935  1.00  0.00     0.001 A 
ENDBRANCH  19  20
ENDBRANCH  18  19
ENDBRANCH  16  18
ENDBRANCH  12  16
ENDBRANCH   4   5
ENDBRANCH   2   4
ENDBRANCH   1   2
BRANCH   1  33
ATOM     33  C   UNL A   1      35.944  20.252  25.365  1.00  0.00     0.274 C 
BRANCH  33  34
ATOM     34  C   UNL A   1      37.343  20.562  24.837  1.00  0.00     0.275 C 
BRANCH  34  35
ATOM     35  O   UNL A   1      37.945  21.581  25.653  1.00  0.00    -0.458 OA
BRANCH  35  36
ATOM     36  C   UNL A   1      39.194  21.307  26.105  1.00  0.00     0.338 C 
ATOM     37  O   UNL A   1      39.835  20.287  25.941  1.00  0.00    -0.246 OA
BRANCH  36  38
ATOM     38  C   UNL A   1      39.748  22.552  26.673  1.00  0.00     0.060 A 
ATOM     39  C   UNL A   1      39.184  23.762  26.259  1.00  0.00     0.016 A 
ATOM     40  C   UNL A   1      40.756  22.534  27.645  1.00  0.00     0.016 A 
ATOM     41  C   UNL A   1      39.643  24.962  26.799  1.00  0.00     0.010 A 
ATOM     42  C   UNL A   1      41.215  23.738  28.185  1.00  0.00     0.010 A 
ATOM     43  C   UNL A   1      40.680  24.959  27.742  1.00  0.00    -0.014 A 
BRANCH  43  44
ATOM     44  C   UNL A   1      41.301  26.249  28.124  1.00  0.00     0.031 A 
ATOM     45  C   UNL A   1      42.716  26.519  27.696  1.00  0.00     0.074 A 
ATOM     46  C   UNL A   1      40.603  27.190  28.783  1.00  0.00     0.049 A 
ATOM     47  N   UNL A   1      43.424  27.614  27.809  1.00  0.00    -0.248 NA
ATOM     48  C   UNL A   1      43.428  25.405  27.051  1.00  0.00     0.031 C 
ATOM     49  C   UNL A   1      39.229  27.051  29.258  1.00  0.00     0.029 A 
ATOM     50  N   UNL A   1      40.963  28.461  29.158  1.00  0.00    -0.354 N 
ATOM     51  C   UNL A   1      44.648  27.331  27.219  1.00  0.00     0.074 A 
ATOM     52  C   UNL A   1      44.614  25.944  26.810  1.00  0.00     0.031 C 
ATOM     53  C   UNL A   1      38.859  28.193  29.865  1.00  0.00     0.029 A 
ATOM     54  C   UNL A   1      39.971  29.142  29.818  1.00  0.00     0.049 A 
ATOM     55  H   UNL A   1      41.849  28.848  28.971  1.00  0.00     0.167 HD
ATOM     56  C   UNL A   1      45.697  28.160  27.007  1.00  0.00     0.037 A 
ATOM     57  C   UNL A   1      39.962  30.393  30.318  1.00  0.00     0.037 A 
ATOM     58  C   UNL A   1      45.748  29.532  27.433  1.00  0.00     0.049 A 
ATOM     59  C   UNL A   1      41.165  31.282  30.118  1.00  0.00     0.074 A 
ATOM     60  C   UNL A   1      46.769  30.450  27.272  1.00  0.00     0.029 A 
ATOM     61  N   UNL A   1      44.729  30.181  28.115  1.00  0.00    -0.354 N 
ATOM     62  N   UNL A   1      42.294  31.024  29.503  1.00  0.00    -0.248 NA
ATOM     63  C   UNL A   1      41.080  32.644  30.664  1.00  0.00     0.031 C 
ATOM     64  C   UNL A   1      46.385  31.645  27.891  1.00  0.00     0.029 A 
ATOM     65  C   UNL A   1      45.107  31.484  28.398  1.00  0.00     0.049 A 
ATOM     66  H   UNL A   1      43.867  29.776  28.362  1.00  0.00     0.167 HD
ATOM     67  C   UNL A   1      43.038  32.196  29.563  1.00  0.00     0.074 A 
ATOM     68  C   UNL A   1      42.225  33.172  30.258  1.00  0.00     0.031 C 
ATOM     69  C   UNL A   1      44.284  32.443  29.089  1.00  0.00     0.037 A 
BRANCH  56  70
ATOM     70  C   UNL A   1      46.877  27.594  26.277  1.00  0.00     0.064 A 
ATOM     71  C   UNL A   1      46.978  27.687  24.880  1.00  0.00     0.173 A 
ATOM     72  C   UNL A   1      47.923  26.974  26.973  1.00  0.00     0.173 A 
ATOM     73  F   UNL A   1      45.993  28.255  24.167  1.00  0.00    -0.203 F 
ATOM     74  C   UNL A   1      48.075  27.158  24.206  1.00  0.00     0.198 A 
ATOM     75  C   UNL A   1      49.030  26.470  26.298  1.00  0.00     0.198 A 
ATOM     76  F   UNL A   1      47.871  26.859  28.308  1.00  0.00    -0.203 F 
ATOM     77  F   UNL A   1      48.130  27.218  22.867  1.00  0.00    -0.200 F 
ATOM     78  C   UNL A   1      49.102  26.555  24.915  1.00  0.00     0.200 A 
ATOM     79  F   UNL A   1      50.027  25.894  26.985  1.00  0.00    -0.200 F 
ATOM     80  F   UNL A   1      50.160  26.051  24.265  1.00  0.00    -0.200 F 
ENDBRANCH  56  70
BRANCH  57  81
ATOM     81  C   UNL A   1      38.769  30.897  31.048  1.00  0.00     0.064 A 
ATOM     82  C   UNL A   1      38.680  30.815  32.444  1.00  0.00     0.173 A 
ATOM     83  C   UNL A   1      37.675  31.434  30.354  1.00  0.00     0.173 A 
ATOM     84  F   UNL A   1      39.690  30.284  33.148  1.00  0.00    -0.203 F 
ATOM     85  C   UNL A   1      37.529  31.221  33.116  1.00  0.00     0.198 A 
ATOM     86  C   UNL A   1      36.536  31.865  31.030  1.00  0.00     0.198 A 
ATOM     87  F   UNL A   1      37.711  31.534  29.017  1.00  0.00    -0.203 F 
ATOM     88  F   UNL A   1      37.448  31.077  34.446  1.00  0.00    -0.200 F 
ATOM     89  C   UNL A   1      36.459  31.749  32.409  1.00  0.00     0.200 A 
ATOM     90  F   UNL A   1      35.507  32.382  30.343  1.00  0.00    -0.200 F 
ATOM     91  F   UNL A   1      35.351  32.134  33.056  1.00  0.00    -0.200 F 
ENDBRANCH  57  81
BRANCH  69  92
ATOM     92  C   UNL A   1      44.834  33.827  29.283  1.00  0.00     0.064 A 
ATOM     93  C   UNL A   1      45.592  34.165  30.413  1.00  0.00     0.173 A 
ATOM     94  C   UNL A   1      44.623  34.820  28.313  1.00  0.00     0.173 A 
ATOM     95  F   UNL A   1      45.811  33.256  31.375  1.00  0.00    -0.203 F 
ATOM     96  C   UNL A   1      46.092  35.454  30.581  1.00  0.00     0.198 A 
ATOM     97  C   UNL A   1      45.150  36.099  28.470  1.00  0.00     0.198 A 
ATOM     98  F   UNL A   1      43.912  34.546  27.209  1.00  0.00    -0.203 F 
ATOM     99  F   UNL A   1      46.770  35.767  31.694  1.00  0.00    -0.200 F 
ATOM    100  C   UNL A   1      45.875  36.418  29.607  1.00  0.00     0.200 A 
ATOM    101  F   UNL A   1      44.951  37.025  27.522  1.00  0.00    -0.200 F 
ATOM    102  F   UNL A   1      46.360  37.657  29.770  1.00  0.00    -0.200 F 
ENDBRANCH  69  92
ENDBRANCH  43  44
ENDBRANCH  36  38
ENDBRANCH  35  36
ENDBRANCH  34  35
ENDBRANCH  33  34
ENDBRANCH   1  33
TORSDOF 16
ENDMDL
MODEL 2
REMARK VINA RESULT:     -12.8      1.585      2.680
REMARK SMILES O=C(CN1C(=O)CN(C(=O)OCC2c3ccccc3-c3ccccc32)c2ccccc21)OCCOC(=O)c1ccc(-c2c3nc(c(-c4c(F)c(F)c(F)c(F)c4F)c4ccc([nH]4)c(-c4c(F)c(F)c(F)c(F)c4F)c4nc(c(-c5c(F)c(F)c(F)c(F)c5F)c5ccc2[nH]5)C=C4)C=C3)cc1
REMARK SMILES IDX 32 1 2 2 1 3 3 4 4 5 5 6 31 7 6 8 7 9 26 10 30 11 8 12 27 13
REMARK SMILES IDX 29 14 28 15 9 16 10 17 11 18 12 19 13 20 14 21 25 22 15 23
REMARK SMILES IDX 19 24 20 25 24 26 16 27 18 28 21 29 23 30 17 31 22 32 33 33
REMARK SMILES IDX 34 34 35 35 36 36 37 37 38 38 39 39 100 40 40 41 99 42 41 43
REMARK SMILES IDX 42 44 43 45 93 46 44 47 98 48 92 49 94 50 45 51 97 52 91 53
REMARK SMILES IDX 90 54 46 56 78 57 58 58 77 59 59 60 62 61 76 62 95 63 60 64
REMARK SMILES IDX 61 65 75 67 96 68 63 69 47 70 48 71 56 72 49 73 50 74 54 75
REMARK SMILES IDX 57 76 51 77 52 78 55 79 53 80 79 81 80 82 88 83 81 84 82 85
REMARK SMILES IDX 86 86 89 87 83 88 84 89 87 90 85 91 64 92 65 93 73 94 66 95
REMARK SMILES IDX 67 96 71 97 74 98 68 99 69 100 72 101 70 102
REMARK H PARENT 94 55 62 66
REMARK Flexibility Score: inf
ROOT
ATOM      1  O   UNL A   1      37.436  21.478  24.897  1.00  0.00    -0.461 OA
ENDROOT
BRANCH   1   2
ATOM      2  C   UNL A   1      36.509  22.173  25.593  1.00  0.00     0.326 C 
ATOM      3  O   UNL A   1      36.839  23.235  26.126  1.00  0.00    -0.250 OA
BRANCH   2   4
ATOM      4  C   UNL A   1      35.120  21.586  25.876  1.00  0.00     0.248 C 
BRANCH   4   5
ATOM      5  N   UNL A   1      33.936  22.438  25.816  1.00  0.00    -0.298 N 
ATOM      6  C   UNL A   1      33.319  22.657  27.047  1.00  0.00     0.247 C 
ATOM      7  C   UNL A   1      33.308  22.851  24.589  1.00  0.00     0.068 A 
ATOM      8  O   UNL A   1      33.797  22.245  28.105  1.00  0.00    -0.272 OA
ATOM      9  C   UNL A   1      31.919  23.212  27.004  1.00  0.00     0.229 C 
ATOM     10  C   UNL A   1      32.188  23.720  24.632  1.00  0.00     0.071 A 
ATOM     11  C   UNL A   1      33.826  22.497  23.331  1.00  0.00     0.028 A 
ATOM     12  N   UNL A   1      31.690  24.129  25.903  1.00  0.00    -0.266 N 
ATOM     13  C   UNL A   1      31.655  24.219  23.431  1.00  0.00     0.029 A 
ATOM     14  C   UNL A   1      33.277  22.999  22.147  1.00  0.00     0.002 A 
ATOM     15  C   UNL A   1      32.195  23.861  22.198  1.00  0.00     0.002 A 
BRANCH  12  16
ATOM     16  C   UNL A   1      31.070  25.350  26.125  1.00  0.00     0.414 C 
ATOM     17  O   UNL A   1      29.906  25.629  25.866  1.00  0.00    -0.224 OA
BRANCH  16  18
ATOM     18  O   UNL A   1      31.969  26.285  26.567  1.00  0.00    -0.448 OA
BRANCH  18  19
ATOM     19  C   UNL A   1      33.202  26.328  25.836  1.00  0.00     0.248 C 
BRANCH  19  20
ATOM     20  C   UNL A   1      33.390  27.610  24.991  1.00  0.00     0.088 C 
ATOM     21  C   UNL A   1      32.168  28.109  24.219  1.00  0.00    -0.029 A 
ATOM     22  C   UNL A   1      33.639  28.783  25.941  1.00  0.00    -0.029 A 
ATOM     23  C   UNL A   1      31.539  27.540  23.121  1.00  0.00     0.005 A 
ATOM     24  C   UNL A   1      31.710  29.328  24.760  1.00  0.00    -0.014 A 
ATOM     25  C   UNL A   1      32.608  29.740  25.814  1.00  0.00    -0.014 A 
ATOM     26  C   UNL A   1      34.651  28.937  26.875  1.00  0.00     0.005 A 
ATOM     27  C   UNL A   1      30.386  28.158  22.631  1.00  0.00     0.000 A 
ATOM     28  C   UNL A   1      30.575  29.946  24.260  1.00  0.00     0.009 A 
ATOM     29  C   UNL A   1      32.575  30.855  26.632  1.00  0.00     0.009 A 
ATOM     30  C   UNL A   1      34.614  30.061  27.703  1.00  0.00     0.000 A 
ATOM     31  C   UNL A   1      29.902  29.344  23.197  1.00  0.00     0.001 A 
ATOM     32  C   UNL A   1      33.584  31.009  27.585  1.00  0.00     0.001 A 
ENDBRANCH  19  20
ENDBRANCH  18  19
ENDBRANCH  16  18
ENDBRANCH  12  16
ENDBRANCH   4   5
ENDBRANCH   2   4
ENDBRANCH   1   2
BRANCH   1  33
ATOM     33  C   UNL A   1      37.604  20.050  24.924  1.00  0.00     0.274 C 
BRANCH  33  34
ATOM     34  C   UNL A   1      39.001  19.630  25.379  1.00  0.00     0.275 C 
BRANCH  34  35
ATOM     35  O   UNL A   1      39.755  20.799  25.742  1.00  0.00    -0.458 OA
BRANCH  35  36
ATOM     36  C   UNL A   1      40.488  20.694  26.878  1.00  0.00     0.338 C 
ATOM     37  O   UNL A   1      40.912  19.679  27.396  1.00  0.00    -0.246 OA
BRANCH  36  38
ATOM     38  C   UNL A   1      40.874  22.058  27.291  1.00  0.00     0.060 A 
ATOM     39  C   UNL A   1      40.295  23.131  26.606  1.00  0.00     0.016 A 
ATOM     40  C   UNL A   1      41.734  22.286  28.371  1.00  0.00     0.016 A 
ATOM     41  C   UNL A   1      40.594  24.438  26.986  1.00  0.00     0.010 A 
ATOM     42  C   UNL A   1      42.032  23.597  28.752  1.00  0.00     0.010 A 
ATOM     43  C   UNL A   1      41.486  24.679  28.041  1.00  0.00    -0.014 A 
BRANCH  43  44
ATOM     44  C   UNL A   1      41.961  26.063  28.273  1.00  0.00     0.031 A 
ATOM     45  C   UNL A   1      43.308  26.459  27.737  1.00  0.00     0.074 A 
ATOM     46  C   UNL A   1      41.185  26.972  28.890  1.00  0.00     0.049 A 
ATOM     47  N   UNL A   1      43.879  27.636  27.713  1.00  0.00    -0.248 NA
ATOM     48  C   UNL A   1      44.119  25.382  27.148  1.00  0.00     0.031 C 
ATOM     49  C   UNL A   1      39.864  26.714  29.458  1.00  0.00     0.029 A 
ATOM     50  N   UNL A   1      41.403  28.305  29.132  1.00  0.00    -0.354 N 
ATOM     51  C   UNL A   1      45.098  27.446  27.075  1.00  0.00     0.074 A 
ATOM     52  C   UNL A   1      45.215  26.033  26.790  1.00  0.00     0.031 C 
ATOM     53  C   UNL A   1      39.387  27.855  29.986  1.00  0.00     0.029 A 
ATOM     54  C   UNL A   1      40.369  28.921  29.791  1.00  0.00     0.049 A 
ATOM     55  H   UNL A   1      42.225  28.776  28.859  1.00  0.00     0.167 HD
ATOM     56  C   UNL A   1      46.025  28.371  26.730  1.00  0.00     0.037 A 
ATOM     57  C   UNL A   1      40.231  30.204  30.182  1.00  0.00     0.037 A 
ATOM     58  C   UNL A   1      45.926  29.773  27.033  1.00  0.00     0.049 A 
ATOM     59  C   UNL A   1      41.302  31.206  29.833  1.00  0.00     0.074 A 
ATOM     60  C   UNL A   1      46.816  30.787  26.732  1.00  0.00     0.029 A 
ATOM     61  N   UNL A   1      44.871  30.357  27.718  1.00  0.00    -0.354 N 
ATOM     62  N   UNL A   1      42.422  31.029  29.174  1.00  0.00    -0.248 NA
ATOM     63  C   UNL A   1      41.077  32.593  30.265  1.00  0.00     0.031 C 
ATOM     64  C   UNL A   1      46.319  31.980  27.269  1.00  0.00     0.029 A 
ATOM     65  C   UNL A   1      45.098  31.715  27.865  1.00  0.00     0.049 A 
ATOM     66  H   UNL A   1      44.079  29.877  28.051  1.00  0.00     0.167 HD
ATOM     67  C   UNL A   1      43.018  32.281  29.088  1.00  0.00     0.074 A 
ATOM     68  C   UNL A   1      42.126  33.214  29.746  1.00  0.00     0.031 C 
ATOM     69  C   UNL A   1      44.198  32.630  28.520  1.00  0.00     0.037 A 
BRANCH  56  70
ATOM     70  C   UNL A   1      47.227  27.884  25.980  1.00  0.00     0.064 A 
ATOM     71  C   UNL A   1      47.211  27.764  24.581  1.00  0.00     0.173 A 
ATOM     72  C   UNL A   1      48.410  27.555  26.655  1.00  0.00     0.173 A 
ATOM     73  F   UNL A   1      46.096  28.050  23.892  1.00  0.00    -0.203 F 
ATOM     74  C   UNL A   1      48.330  27.310  23.890  1.00  0.00     0.198 A 
ATOM     75  C   UNL A   1      49.535  27.126  25.957  1.00  0.00     0.198 A 
ATOM     76  F   UNL A   1      48.474  27.651  27.991  1.00  0.00    -0.203 F 
ATOM     77  F   UNL A   1      48.278  27.161  22.558  1.00  0.00    -0.200 F 
ATOM     78  C   UNL A   1      49.492  26.997  24.577  1.00  0.00     0.200 A 
ATOM     79  F   UNL A   1      50.661  26.830  26.622  1.00  0.00    -0.200 F 
ATOM     80  F   UNL A   1      50.570  26.564  23.909  1.00  0.00    -0.200 F 
ENDBRANCH  56  70
BRANCH  57  81
ATOM     81  C   UNL A   1      39.023  30.628  30.937  1.00  0.00     0.064 A 
ATOM     82  C   UNL A   1      38.976  30.558  32.335  1.00  0.00     0.173 A 
ATOM     83  C   UNL A   1      37.873  31.071  30.267  1.00  0.00     0.173 A 
ATOM     84  F   UNL A   1      40.041  30.115  33.019  1.00  0.00    -0.203 F 
ATOM     85  C   UNL A   1      37.816  30.887  33.034  1.00  0.00     0.198 A 
ATOM     86  C   UNL A   1      36.723  31.426  30.967  1.00  0.00     0.198 A 
ATOM     87  F   UNL A   1      37.867  31.154  28.928  1.00  0.00    -0.203 F 
ATOM     88  F   UNL A   1      37.780  30.757  34.367  1.00  0.00    -0.200 F 
ATOM     89  C   UNL A   1      36.691  31.324  32.350  1.00  0.00     0.200 A 
ATOM     90  F   UNL A   1      35.641  31.854  30.302  1.00  0.00    -0.200 F 
ATOM     91  F   UNL A   1      35.575  31.634  33.021  1.00  0.00    -0.200 F 
ENDBRANCH  57  81
BRANCH  69  92
ATOM     92  C   UNL A   1      44.582  34.082  28.561  1.00  0.00     0.064 A 
ATOM     93  C   UNL A   1      44.107  34.994  27.608  1.00  0.00     0.173 A 
ATOM     94  C   UNL A   1      45.412  34.570  29.582  1.00  0.00     0.173 A 
ATOM     95  F   UNL A   1      43.321  34.575  26.604  1.00  0.00    -0.203 F 
ATOM     96  C   UNL A   1      44.474  36.337  27.656  1.00  0.00     0.198 A 
ATOM     97  C   UNL A   1      45.752  35.919  29.644  1.00  0.00     0.198 A 
ATOM     98  F   UNL A   1      45.886  33.741  30.524  1.00  0.00    -0.203 F 
ATOM     99  F   UNL A   1      44.050  37.180  26.705  1.00  0.00    -0.200 F 
ATOM    100  C   UNL A   1      45.292  36.799  28.678  1.00  0.00     0.200 A 
ATOM    101  F   UNL A   1      46.531  36.366  30.639  1.00  0.00    -0.200 F 
ATOM    102  F   UNL A   1      45.641  38.092  28.723  1.00  0.00    -0.200 F 
ENDBRANCH  69  92
ENDBRANCH  43  44
ENDBRANCH  36  38
ENDBRANCH  35  36
ENDBRANCH  34  35
ENDBRANCH  33  34
ENDBRANCH   1  33
TORSDOF 16
ENDMDL
MODEL 3
REMARK VINA RESULT:     -12.7      1.811      2.938
REMARK SMILES O=C(CN1C(=O)CN(C(=O)OCC2c3ccccc3-c3ccccc32)c2ccccc21)OCCOC(=O)c1ccc(-c2c3nc(c(-c4c(F)c(F)c(F)c(F)c4F)c4ccc([nH]4)c(-c4c(F)c(F)c(F)c(F)c4F)c4nc(c(-c5c(F)c(F)c(F)c(F)c5F)c5ccc2[nH]5)C=C4)C=C3)cc1
REMARK SMILES IDX 32 1 2 2 1 3 3 4 4 5 5 6 31 7 6 8 7 9 26 10 30 11 8 12 27 13
REMARK SMILES IDX 29 14 28 15 9 16 10 17 11 18 12 19 13 20 14 21 25 22 15 23
REMARK SMILES IDX 19 24 20 25 24 26 16 27 18 28 21 29 23 30 17 31 22 32 33 33
REMARK SMILES IDX 34 34 35 35 36 36 37 37 38 38 39 39 100 40 40 41 99 42 41 43
REMARK SMILES IDX 42 44 43 45 93 46 44 47 98 48 92 49 94 50 45 51 97 52 91 53
REMARK SMILES IDX 90 54 46 56 78 57 58 58 77 59 59 60 62 61 76 62 95 63 60 64
REMARK SMILES IDX 61 65 75 67 96 68 63 69 47 70 48 71 56 72 49 73 50 74 54 75
REMARK SMILES IDX 57 76 51 77 52 78 55 79 53 80 79 81 80 82 88 83 81 84 82 85
REMARK SMILES IDX 86 86 89 87 83 88 84 89 87 90 85 91 64 92 65 93 73 94 66 95
REMARK SMILES IDX 67 96 71 97 74 98 68 99 69 100 72 101 70 102
REMARK H PARENT 94 55 62 66
REMARK Flexibility Score: inf
ROOT
ATOM      1  O   UNL A   1      38.748  21.300  25.749  1.00  0.00    -0.461 OA
ENDROOT
BRANCH   1   2
ATOM      2  C   UNL A   1      37.691  22.090  25.463  1.00  0.00     0.326 C 
ATOM      3  O   UNL A   1      37.696  23.257  25.862  1.00  0.00    -0.250 OA
BRANCH   2   4
ATOM      4  C   UNL A   1      36.423  21.522  24.810  1.00  0.00     0.248 C 
BRANCH   4   5
ATOM      5  N   UNL A   1      35.256  22.374  24.606  1.00  0.00    -0.298 N 
ATOM      6  C   UNL A   1      35.274  23.104  23.419  1.00  0.00     0.247 C 
ATOM      7  C   UNL A   1      34.267  22.632  25.619  1.00  0.00     0.068 A 
ATOM      8  O   UNL A   1      36.156  22.958  22.571  1.00  0.00    -0.272 OA
ATOM      9  C   UNL A   1      34.301  24.250  23.323  1.00  0.00     0.229 C 
ATOM     10  C   UNL A   1      33.141  23.438  25.310  1.00  0.00     0.071 A 
ATOM     11  C   UNL A   1      34.325  22.031  26.889  1.00  0.00     0.028 A 
ATOM     12  N   UNL A   1      33.045  24.006  24.007  1.00  0.00    -0.266 N 
ATOM     13  C   UNL A   1      32.117  23.585  26.261  1.00  0.00     0.029 A 
ATOM     14  C   UNL A   1      33.298  22.195  27.823  1.00  0.00     0.002 A 
ATOM     15  C   UNL A   1      32.193  22.969  27.507  1.00  0.00     0.002 A 
BRANCH  12  16
ATOM     16  C   UNL A   1      31.839  24.270  23.374  1.00  0.00     0.414 C 
ATOM     17  O   UNL A   1      30.944  23.464  23.155  1.00  0.00    -0.224 OA
BRANCH  16  18
ATOM     18  O   UNL A   1      31.810  25.551  22.888  1.00  0.00    -0.448 OA
BRANCH  18  19
ATOM     19  C   UNL A   1      31.308  26.532  23.806  1.00  0.00     0.248 C 
BRANCH  19  20
ATOM     20  C   UNL A   1      31.798  27.971  23.520  1.00  0.00     0.088 C 
ATOM     21  C   UNL A   1      30.725  29.017  23.222  1.00  0.00    -0.029 A 
ATOM     22  C   UNL A   1      32.414  28.536  24.803  1.00  0.00    -0.029 A 
ATOM     23  C   UNL A   1      29.904  29.132  22.109  1.00  0.00     0.005 A 
ATOM     24  C   UNL A   1      30.652  29.959  24.270  1.00  0.00    -0.014 A 
ATOM     25  C   UNL A   1      31.684  29.664  25.237  1.00  0.00    -0.014 A 
ATOM     26  C   UNL A   1      33.478  28.040  25.540  1.00  0.00     0.005 A 
ATOM     27  C   UNL A   1      28.944  30.146  22.101  1.00  0.00     0.000 A 
ATOM     28  C   UNL A   1      29.708  30.973  24.250  1.00  0.00     0.009 A 
ATOM     29  C   UNL A   1      32.006  30.299  26.423  1.00  0.00     0.009 A 
ATOM     30  C   UNL A   1      33.797  28.680  26.740  1.00  0.00     0.000 A 
ATOM     31  C   UNL A   1      28.840  31.054  23.162  1.00  0.00     0.001 A 
ATOM     32  C   UNL A   1      33.066  29.796  27.179  1.00  0.00     0.001 A 
ENDBRANCH  19  20
ENDBRANCH  18  19
ENDBRANCH  16  18
ENDBRANCH  12  16
ENDBRANCH   4   5
ENDBRANCH   2   4
ENDBRANCH   1   2
BRANCH   1  33
ATOM     33  C   UNL A   1      38.886  19.919  25.369  1.00  0.00     0.274 C 
BRANCH  33  34
ATOM     34  C   UNL A   1      40.004  19.208  26.130  1.00  0.00     0.275 C 
BRANCH  34  35
ATOM     35  O   UNL A   1      41.186  19.167  25.312  1.00  0.00    -0.458 OA
BRANCH  35  36
ATOM     36  C   UNL A   1      42.363  19.251  25.979  1.00  0.00     0.338 C 
ATOM     37  O   UNL A   1      43.227  18.399  26.069  1.00  0.00    -0.246 OA
BRANCH  36  38
ATOM     38  C   UNL A   1      42.529  20.648  26.424  1.00  0.00     0.060 A 
ATOM     39  C   UNL A   1      42.601  21.639  25.439  1.00  0.00     0.016 A 
ATOM     40  C   UNL A   1      42.544  20.994  27.780  1.00  0.00     0.016 A 
ATOM     41  C   UNL A   1      42.714  22.977  25.808  1.00  0.00     0.010 A 
ATOM     42  C   UNL A   1      42.656  22.337  28.149  1.00  0.00     0.010 A 
ATOM     43  C   UNL A   1      42.771  23.332  27.164  1.00  0.00    -0.014 A 
BRANCH  43  44
ATOM     44  C   UNL A   1      43.120  24.726  27.523  1.00  0.00     0.031 A 
ATOM     45  C   UNL A   1      44.522  25.204  27.270  1.00  0.00     0.074 A 
ATOM     46  C   UNL A   1      42.194  25.574  28.005  1.00  0.00     0.049 A 
ATOM     47  N   UNL A   1      45.025  26.406  27.390  1.00  0.00    -0.248 NA
ATOM     48  C   UNL A   1      45.487  24.189  26.817  1.00  0.00     0.031 C 
ATOM     49  C   UNL A   1      40.804  25.234  28.300  1.00  0.00     0.029 A 
ATOM     50  N   UNL A   1      42.292  26.906  28.324  1.00  0.00    -0.354 N 
ATOM     51  C   UNL A   1      46.352  26.297  26.995  1.00  0.00     0.074 A 
ATOM     52  C   UNL A   1      46.595  24.903  26.697  1.00  0.00     0.031 C 
ATOM     53  C   UNL A   1      40.176  26.331  28.759  1.00  0.00     0.029 A 
ATOM     54  C   UNL A   1      41.120  27.448  28.788  1.00  0.00     0.049 A 
ATOM     55  H   UNL A   1      43.124  27.424  28.229  1.00  0.00     0.167 HD
ATOM     56  C   UNL A   1      47.278  27.276  26.863  1.00  0.00     0.037 A 
ATOM     57  C   UNL A   1      40.843  28.706  29.183  1.00  0.00     0.037 A 
ATOM     58  C   UNL A   1      47.050  28.659  27.181  1.00  0.00     0.049 A 
ATOM     59  C   UNL A   1      41.907  29.770  29.077  1.00  0.00     0.074 A 
ATOM     60  C   UNL A   1      47.927  29.724  27.088  1.00  0.00     0.029 A 
ATOM     61  N   UNL A   1      45.854  29.167  27.666  1.00  0.00    -0.354 N 
ATOM     62  N   UNL A   1      43.140  29.670  28.642  1.00  0.00    -0.248 NA
ATOM     63  C   UNL A   1      41.531  31.127  29.498  1.00  0.00     0.031 C 
ATOM     64  C   UNL A   1      47.275  30.871  27.553  1.00  0.00     0.029 A 
ATOM     65  C   UNL A   1      45.977  30.528  27.894  1.00  0.00     0.049 A 
ATOM     66  H   UNL A   1      45.039  28.639  27.826  1.00  0.00     0.167 HD
ATOM     67  C   UNL A   1      43.675  30.950  28.709  1.00  0.00     0.074 A 
ATOM     68  C   UNL A   1      42.626  31.815  29.209  1.00  0.00     0.031 C 
ATOM     69  C   UNL A   1      44.923  31.374  28.390  1.00  0.00     0.037 A 
BRANCH  56  70
ATOM     70  C   UNL A   1      48.626  26.874  26.345  1.00  0.00     0.064 A 
ATOM     71  C   UNL A   1      48.946  26.998  24.984  1.00  0.00     0.173 A 
ATOM     72  C   UNL A   1      49.610  26.382  27.212  1.00  0.00     0.173 A 
ATOM     73  F   UNL A   1      48.031  27.447  24.112  1.00  0.00    -0.203 F 
ATOM     74  C   UNL A   1      50.199  26.622  24.508  1.00  0.00     0.198 A 
ATOM     75  C   UNL A   1      50.870  26.031  26.736  1.00  0.00     0.198 A 
ATOM     76  F   UNL A   1      49.350  26.243  28.520  1.00  0.00    -0.203 F 
ATOM     77  F   UNL A   1      50.469  26.707  23.197  1.00  0.00    -0.200 F 
ATOM     78  C   UNL A   1      51.161  26.144  25.384  1.00  0.00     0.200 A 
ATOM     79  F   UNL A   1      51.802  25.576  27.585  1.00  0.00    -0.200 F 
ATOM     80  F   UNL A   1      52.368  25.786  24.925  1.00  0.00    -0.200 F 
ENDBRANCH  56  70
BRANCH  57  81
ATOM     81  C   UNL A   1      39.492  29.045  29.702  1.00  0.00     0.064 A 
ATOM     82  C   UNL A   1      39.169  28.881  31.056  1.00  0.00     0.173 A 
ATOM     83  C   UNL A   1      38.482  29.500  28.842  1.00  0.00     0.173 A 
ATOM     84  F   UNL A   1      40.093  28.422  31.913  1.00  0.00    -0.203 F 
ATOM     85  C   UNL A   1      37.881  29.130  31.524  1.00  0.00     0.198 A 
ATOM     86  C   UNL A   1      37.202  29.776  29.315  1.00  0.00     0.198 A 
ATOM     87  F   UNL A   1      38.740  29.673  27.537  1.00  0.00    -0.203 F 
ATOM     88  F   UNL A   1      37.584  28.910  32.813  1.00  0.00    -0.200 F 
ATOM     89  C   UNL A   1      36.899  29.580  30.654  1.00  0.00     0.200 A 
ATOM     90  F   UNL A   1      36.258  30.217  28.473  1.00  0.00    -0.200 F 
ATOM     91  F   UNL A   1      35.659  29.813  31.103  1.00  0.00    -0.200 F 
ENDBRANCH  57  81
BRANCH  69  92
ATOM     92  C   UNL A   1      45.214  32.839  28.546  1.00  0.00     0.064 A 
ATOM     93  C   UNL A   1      45.794  33.352  29.716  1.00  0.00     0.173 A 
ATOM     94  C   UNL A   1      44.937  33.736  27.503  1.00  0.00     0.173 A 
ATOM     95  F   UNL A   1      46.066  32.538  30.747  1.00  0.00    -0.203 F 
ATOM     96  C   UNL A   1      46.055  34.714  29.848  1.00  0.00     0.198 A 
ATOM     97  C   UNL A   1      45.227  35.092  27.627  1.00  0.00     0.198 A 
ATOM     98  F   UNL A   1      44.391  33.296  26.359  1.00  0.00    -0.203 F 
ATOM     99  F   UNL A   1      46.561  35.188  30.995  1.00  0.00    -0.200 F 
ATOM    100  C   UNL A   1      45.777  35.581  28.802  1.00  0.00     0.200 A 
ATOM    101  F   UNL A   1      44.970  35.927  26.611  1.00  0.00    -0.200 F 
ATOM    102  F   UNL A   1      46.031  36.891  28.931  1.00  0.00    -0.200 F 
ENDBRANCH  69  92
ENDBRANCH  43  44
ENDBRANCH  36  38
ENDBRANCH  35  36
ENDBRANCH  34  35
ENDBRANCH  33  34
ENDBRANCH   1  33
TORSDOF 16
ENDMDL
