MODEL 1
REMARK VINA RESULT:     -12.7      0.000      0.000
REMARK SMILES CCc1ccc2[nH]c(C(=O)c3cc(C)ccn3)c(CC(=O)OCCOC(=O)c3ccc(-c4c5nc(c(-c6c(F)c(F)c(F)c(F)c6F)c6ccc([nH]6)c(-c6c(F)c(F)c(F)c(F)c6F)c6nc(c(-c7c(F)c(F)c(F)c(F)c7F)c7ccc4[nH]7)C=C6)C=C5)cc3)c2c1
REMARK SMILES IDX 23 1 22 2 20 3 21 4 19 5 18 6 3 7 4 8 92 9 5 10 91 11 6 12
REMARK SMILES IDX 7 13 8 14 2 16 1 17 9 18 10 19 11 20 12 21 17 22 13 23 16 24
REMARK SMILES IDX 14 25 15 26 24 27 25 28 26 29 27 30 28 31 29 32 90 33 30 34
REMARK SMILES IDX 89 35 31 36 32 37 33 38 83 39 34 40 88 41 82 42 84 43 35 44
REMARK SMILES IDX 87 45 81 46 80 47 36 49 68 50 48 51 67 52 49 53 52 54 66 55
REMARK SMILES IDX 85 56 50 57 51 58 65 60 86 61 53 62 37 63 38 64 46 65 39 66
REMARK SMILES IDX 40 67 44 68 47 69 41 70 42 71 45 72 43 73 69 74 70 75 78 76
REMARK SMILES IDX 71 77 72 78 76 79 79 80 73 81 74 82 77 83 75 84 54 85 55 86
REMARK SMILES IDX 63 87 56 88 57 89 61 90 64 91 58 92 59 93 62 94 60 95
REMARK H PARENT 7 15 84 48 52 59
REMARK Flexibility Score: inf
ROOT
ATOM      1  C   UNL A   1      31.985  27.782  26.322  1.00  0.00     0.274 C 
ENDROOT
BRANCH   1   2
ATOM      2  O   UNL A   1      33.190  27.098  25.927  1.00  0.00    -0.462 OA
BRANCH   2   3
ATOM      3  C   UNL A   1      33.107  25.741  25.889  1.00  0.00     0.310 C 
ATOM      4  O   UNL A   1      32.282  25.083  26.521  1.00  0.00    -0.252 OA
BRANCH   3   5
ATOM      5  C   UNL A   1      34.093  25.065  24.962  1.00  0.00     0.161 C 
BRANCH   5   6
ATOM      6  C   UNL A   1      33.527  24.315  23.794  1.00  0.00     0.000 A 
ATOM      7  C   UNL A   1      32.873  20.623  24.547  1.00  0.00    -0.048 A 
ATOM      8  C   UNL A   1      32.274  20.341  23.314  1.00  0.00     0.006 A 
ATOM      9  C   UNL A   1      33.420  21.897  24.768  1.00  0.00     0.014 A 
ATOM     10  C   UNL A   1      32.181  21.307  22.303  1.00  0.00     0.027 A 
ATOM     11  C   UNL A   1      33.267  22.907  23.797  1.00  0.00     0.004 A 
ATOM     12  C   UNL A   1      32.666  22.589  22.587  1.00  0.00     0.046 A 
ATOM     13  N   UNL A   1      32.654  23.739  21.833  1.00  0.00    -0.352 N 
ATOM     14  C   UNL A   1      32.984  24.829  22.615  1.00  0.00     0.093 A 
ATOM     15  H   UNL A   1      32.441  23.780  20.873  1.00  0.00     0.167 HD
BRANCH   7  16
ATOM     16  C   UNL A   1      32.913  19.587  25.645  1.00  0.00     0.032 C 
ATOM     17  C   UNL A   1      32.544  18.192  25.150  1.00  0.00     0.009 C 
ENDBRANCH   7  16
BRANCH  14  18
ATOM     18  C   UNL A   1      32.706  26.215  22.266  1.00  0.00     0.227 C 
ATOM     19  O   UNL A   1      33.529  26.949  21.722  1.00  0.00    -0.285 OA
BRANCH  18  20
ATOM     20  C   UNL A   1      31.430  26.837  22.691  1.00  0.00     0.113 A 
ATOM     21  C   UNL A   1      31.122  28.128  22.276  1.00  0.00     0.036 A 
ATOM     22  N   UNL A   1      30.594  26.056  23.411  1.00  0.00    -0.253 NA
ATOM     23  C   UNL A   1      29.875  28.651  22.623  1.00  0.00    -0.047 A 
ATOM     24  C   UNL A   1      29.379  26.563  23.691  1.00  0.00     0.112 A 
ATOM     25  C   UNL A   1      29.474  30.040  22.229  1.00  0.00     0.044 C 
ATOM     26  C   UNL A   1      28.979  27.838  23.326  1.00  0.00     0.023 A 
ENDBRANCH  18  20
ENDBRANCH  14  18
ENDBRANCH   5   6
ENDBRANCH   3   5
ENDBRANCH   2   3
ENDBRANCH   1   2
BRANCH   1  27
ATOM     27  C   UNL A   1      31.921  29.177  25.704  1.00  0.00     0.275 C 
BRANCH  27  28
ATOM     28  O   UNL A   1      33.193  29.834  25.844  1.00  0.00    -0.458 OA
BRANCH  28  29
ATOM     29  C   UNL A   1      33.208  30.846  26.741  1.00  0.00     0.338 C 
ATOM     30  O   UNL A   1      32.403  31.764  26.822  1.00  0.00    -0.246 OA
BRANCH  29  31
ATOM     31  C   UNL A   1      34.400  30.757  27.601  1.00  0.00     0.060 A 
ATOM     32  C   UNL A   1      35.205  31.869  27.852  1.00  0.00     0.016 A 
ATOM     33  C   UNL A   1      34.776  29.500  28.076  1.00  0.00     0.016 A 
ATOM     34  C   UNL A   1      36.432  31.708  28.500  1.00  0.00     0.010 A 
ATOM     35  C   UNL A   1      35.954  29.359  28.809  1.00  0.00     0.010 A 
ATOM     36  C   UNL A   1      36.812  30.454  29.004  1.00  0.00    -0.014 A 
BRANCH  36  37
ATOM     37  C   UNL A   1      38.092  30.269  29.736  1.00  0.00     0.031 A 
ATOM     38  C   UNL A   1      39.178  29.404  29.159  1.00  0.00     0.074 A 
ATOM     39  C   UNL A   1      38.265  30.833  30.947  1.00  0.00     0.049 A 
ATOM     40  N   UNL A   1      40.246  28.915  29.740  1.00  0.00    -0.248 NA
ATOM     41  C   UNL A   1      39.039  29.027  27.743  1.00  0.00     0.031 C 
ATOM     42  C   UNL A   1      37.315  31.727  31.608  1.00  0.00     0.029 A 
ATOM     43  N   UNL A   1      39.297  30.721  31.846  1.00  0.00    -0.354 N 
ATOM     44  C   UNL A   1      40.875  28.132  28.781  1.00  0.00     0.074 A 
ATOM     45  C   UNL A   1      40.074  28.213  27.577  1.00  0.00     0.031 C 
ATOM     46  C   UNL A   1      37.811  32.094  32.799  1.00  0.00     0.029 A 
ATOM     47  C   UNL A   1      39.072  31.396  33.020  1.00  0.00     0.049 A 
ATOM     48  H   UNL A   1      40.118  30.206  31.665  1.00  0.00     0.167 HD
ATOM     49  C   UNL A   1      42.015  27.409  28.901  1.00  0.00     0.037 A 
ATOM     50  C   UNL A   1      39.774  31.412  34.168  1.00  0.00     0.037 A 
ATOM     51  C   UNL A   1      42.837  27.372  30.084  1.00  0.00     0.049 A 
ATOM     52  C   UNL A   1      41.018  30.581  34.286  1.00  0.00     0.074 A 
ATOM     53  C   UNL A   1      44.020  26.682  30.294  1.00  0.00     0.029 A 
ATOM     54  N   UNL A   1      42.568  28.068  31.253  1.00  0.00    -0.354 N 
ATOM     55  N   UNL A   1      41.575  29.798  33.398  1.00  0.00    -0.248 NA
ATOM     56  C   UNL A   1      41.720  30.622  35.578  1.00  0.00     0.031 C 
ATOM     57  C   UNL A   1      44.452  26.941  31.600  1.00  0.00     0.029 A 
ATOM     58  C   UNL A   1      43.558  27.818  32.191  1.00  0.00     0.049 A 
ATOM     59  H   UNL A   1      41.790  28.653  31.397  1.00  0.00     0.167 HD
ATOM     60  C   UNL A   1      42.698  29.262  34.012  1.00  0.00     0.074 A 
ATOM     61  C   UNL A   1      42.750  29.820  35.348  1.00  0.00     0.031 C 
ATOM     62  C   UNL A   1      43.600  28.385  33.514  1.00  0.00     0.037 A 
BRANCH  49  63
ATOM     63  C   UNL A   1      42.435  26.568  27.732  1.00  0.00     0.064 A 
ATOM     64  C   UNL A   1      41.860  25.315  27.477  1.00  0.00     0.173 A 
ATOM     65  C   UNL A   1      43.388  27.054  26.823  1.00  0.00     0.173 A 
ATOM     66  F   UNL A   1      40.953  24.803  28.320  1.00  0.00    -0.203 F 
ATOM     67  C   UNL A   1      42.239  24.569  26.363  1.00  0.00     0.198 A 
ATOM     68  C   UNL A   1      43.747  26.315  25.699  1.00  0.00     0.198 A 
ATOM     69  F   UNL A   1      43.963  28.250  27.020  1.00  0.00    -0.203 F 
ATOM     70  F   UNL A   1      41.705  23.358  26.156  1.00  0.00    -0.200 F 
ATOM     71  C   UNL A   1      43.176  25.073  25.472  1.00  0.00     0.200 A 
ATOM     72  F   UNL A   1      44.646  26.808  24.834  1.00  0.00    -0.200 F 
ATOM     73  F   UNL A   1      43.534  24.356  24.397  1.00  0.00    -0.200 F 
ENDBRANCH  49  63
BRANCH  50  74
ATOM     74  C   UNL A   1      39.283  32.223  35.310  1.00  0.00     0.064 A 
ATOM     75  C   UNL A   1      38.485  31.647  36.307  1.00  0.00     0.173 A 
ATOM     76  C   UNL A   1      39.622  33.577  35.440  1.00  0.00     0.173 A 
ATOM     77  F   UNL A   1      38.115  30.362  36.210  1.00  0.00    -0.203 F 
ATOM     78  C   UNL A   1      38.041  32.400  37.393  1.00  0.00     0.198 A 
ATOM     79  C   UNL A   1      39.200  34.321  36.539  1.00  0.00     0.198 A 
ATOM     80  F   UNL A   1      40.382  34.172  34.509  1.00  0.00    -0.203 F 
ATOM     81  F   UNL A   1      37.254  31.835  38.319  1.00  0.00    -0.200 F 
ATOM     82  C   UNL A   1      38.407  33.733  37.512  1.00  0.00     0.200 A 
ATOM     83  F   UNL A   1      39.563  35.605  36.656  1.00  0.00    -0.200 F 
ATOM     84  F   UNL A   1      37.989  34.451  38.563  1.00  0.00    -0.200 F 
ENDBRANCH  50  74
BRANCH  62  85
ATOM     85  C   UNL A   1      44.741  28.000  34.405  1.00  0.00     0.064 A 
ATOM     86  C   UNL A   1      45.925  28.748  34.442  1.00  0.00     0.173 A 
ATOM     87  C   UNL A   1      44.635  26.885  35.251  1.00  0.00     0.173 A 
ATOM     88  F   UNL A   1      46.077  29.811  33.639  1.00  0.00    -0.203 F 
ATOM     89  C   UNL A   1      46.973  28.384  35.285  1.00  0.00     0.198 A 
ATOM     90  C   UNL A   1      45.677  26.536  36.105  1.00  0.00     0.198 A 
ATOM     91  F   UNL A   1      43.520  26.140  35.251  1.00  0.00    -0.203 F 
ATOM     92  F   UNL A   1      48.111  29.092  35.279  1.00  0.00    -0.200 F 
ATOM     93  C   UNL A   1      46.846  27.283  36.118  1.00  0.00     0.200 A 
ATOM     94  F   UNL A   1      45.552  25.476  36.914  1.00  0.00    -0.200 F 
ATOM     95  F   UNL A   1      47.855  26.935  36.928  1.00  0.00    -0.200 F 
ENDBRANCH  62  85
ENDBRANCH  36  37
ENDBRANCH  29  31
ENDBRANCH  28  29
ENDBRANCH  27  28
ENDBRANCH   1  27
TORSDOF 15
ENDMDL
MODEL 2
REMARK VINA RESULT:     -12.6      4.023      9.466
REMARK SMILES CCc1ccc2[nH]c(C(=O)c3cc(C)ccn3)c(CC(=O)OCCOC(=O)c3ccc(-c4c5nc(c(-c6c(F)c(F)c(F)c(F)c6F)c6ccc([nH]6)c(-c6c(F)c(F)c(F)c(F)c6F)c6nc(c(-c7c(F)c(F)c(F)c(F)c7F)c7ccc4[nH]7)C=C6)C=C5)cc3)c2c1
REMARK SMILES IDX 23 1 22 2 20 3 21 4 19 5 18 6 3 7 4 8 92 9 5 10 91 11 6 12
REMARK SMILES IDX 7 13 8 14 2 16 1 17 9 18 10 19 11 20 12 21 17 22 13 23 16 24
REMARK SMILES IDX 14 25 15 26 24 27 25 28 26 29 27 30 28 31 29 32 90 33 30 34
REMARK SMILES IDX 89 35 31 36 32 37 33 38 83 39 34 40 88 41 82 42 84 43 35 44
REMARK SMILES IDX 87 45 81 46 80 47 36 49 68 50 48 51 67 52 49 53 52 54 66 55
REMARK SMILES IDX 85 56 50 57 51 58 65 60 86 61 53 62 37 63 38 64 46 65 39 66
REMARK SMILES IDX 40 67 44 68 47 69 41 70 42 71 45 72 43 73 69 74 70 75 78 76
REMARK SMILES IDX 71 77 72 78 76 79 79 80 73 81 74 82 77 83 75 84 54 85 55 86
REMARK SMILES IDX 63 87 56 88 57 89 61 90 64 91 58 92 59 93 62 94 60 95
REMARK H PARENT 7 15 84 48 52 59
REMARK Flexibility Score: inf
ROOT
ATOM      1  C   UNL A   1      36.484  22.920  23.489  1.00  0.00     0.274 C 
ENDROOT
BRANCH   1   2
ATOM      2  O   UNL A   1      35.172  23.144  22.936  1.00  0.00    -0.462 OA
BRANCH   2   3
ATOM      3  C   UNL A   1      34.607  24.344  23.237  1.00  0.00     0.310 C 
ATOM      4  O   UNL A   1      34.028  25.058  22.418  1.00  0.00    -0.252 OA
BRANCH   3   5
ATOM      5  C   UNL A   1      34.695  24.747  24.693  1.00  0.00     0.161 C 
BRANCH   5   6
ATOM      6  C   UNL A   1      33.414  25.124  25.374  1.00  0.00     0.000 A 
ATOM      7  C   UNL A   1      33.474  28.651  26.851  1.00  0.00    -0.048 A 
ATOM      8  C   UNL A   1      32.136  28.646  27.258  1.00  0.00     0.006 A 
ATOM      9  C   UNL A   1      34.028  27.482  26.304  1.00  0.00     0.014 A 
ATOM     10  C   UNL A   1      31.325  27.513  27.109  1.00  0.00     0.027 A 
ATOM     11  C   UNL A   1      33.212  26.358  26.070  1.00  0.00     0.004 A 
ATOM     12  C   UNL A   1      31.889  26.393  26.487  1.00  0.00     0.046 A 
ATOM     13  N   UNL A   1      31.332  25.181  26.149  1.00  0.00    -0.352 N 
ATOM     14  C   UNL A   1      32.174  24.486  25.304  1.00  0.00     0.093 A 
ATOM     15  H   UNL A   1      30.459  24.855  26.465  1.00  0.00     0.167 HD
BRANCH   7  16
ATOM     16  C   UNL A   1      34.317  29.899  26.968  1.00  0.00     0.032 C 
ATOM     17  C   UNL A   1      35.667  29.636  27.629  1.00  0.00     0.009 C 
ENDBRANCH   7  16
BRANCH  14  18
ATOM     18  C   UNL A   1      31.767  23.373  24.457  1.00  0.00     0.227 C 
ATOM     19  O   UNL A   1      30.949  23.487  23.546  1.00  0.00    -0.285 OA
BRANCH  18  20
ATOM     20  C   UNL A   1      32.242  22.004  24.765  1.00  0.00     0.113 A 
ATOM     21  C   UNL A   1      32.109  20.999  23.813  1.00  0.00     0.036 A 
ATOM     22  N   UNL A   1      32.858  21.838  25.956  1.00  0.00    -0.253 NA
ATOM     23  C   UNL A   1      32.645  19.742  24.103  1.00  0.00    -0.047 A 
ATOM     24  C   UNL A   1      33.410  20.633  26.193  1.00  0.00     0.112 A 
ATOM     25  C   UNL A   1      32.528  18.603  23.137  1.00  0.00     0.044 C 
ATOM     26  C   UNL A   1      33.328  19.568  25.310  1.00  0.00     0.023 A 
ENDBRANCH  18  20
ENDBRANCH  14  18
ENDBRANCH   5   6
ENDBRANCH   3   5
ENDBRANCH   2   3
ENDBRANCH   1   2
BRANCH   1  27
ATOM     27  C   UNL A   1      36.525  21.621  24.291  1.00  0.00     0.275 C 
BRANCH  27  28
ATOM     28  O   UNL A   1      36.965  21.888  25.634  1.00  0.00    -0.458 OA
BRANCH  28  29
ATOM     29  C   UNL A   1      38.273  21.633  25.859  1.00  0.00     0.338 C 
ATOM     30  O   UNL A   1      38.850  20.567  25.689  1.00  0.00    -0.246 OA
BRANCH  29  31
ATOM     31  C   UNL A   1      38.941  22.814  26.430  1.00  0.00     0.060 A 
ATOM     32  C   UNL A   1      38.521  24.110  26.126  1.00  0.00     0.016 A 
ATOM     33  C   UNL A   1      40.087  22.614  27.201  1.00  0.00     0.016 A 
ATOM     34  C   UNL A   1      39.297  25.203  26.517  1.00  0.00     0.010 A 
ATOM     35  C   UNL A   1      40.805  23.711  27.676  1.00  0.00     0.010 A 
ATOM     36  C   UNL A   1      40.437  25.018  27.314  1.00  0.00    -0.014 A 
BRANCH  36  37
ATOM     37  C   UNL A   1      41.253  26.170  27.780  1.00  0.00     0.031 A 
ATOM     38  C   UNL A   1      40.632  27.243  28.632  1.00  0.00     0.074 A 
ATOM     39  C   UNL A   1      42.539  26.285  27.398  1.00  0.00     0.049 A 
ATOM     40  N   UNL A   1      41.089  28.435  28.926  1.00  0.00    -0.248 NA
ATOM     41  C   UNL A   1      39.318  26.941  29.221  1.00  0.00     0.031 C 
ATOM     42  C   UNL A   1      43.279  25.302  26.609  1.00  0.00     0.029 A 
ATOM     43  N   UNL A   1      43.447  27.294  27.608  1.00  0.00    -0.354 N 
ATOM     44  C   UNL A   1      40.099  29.044  29.686  1.00  0.00     0.074 A 
ATOM     45  C   UNL A   1      39.017  28.089  29.813  1.00  0.00     0.031 C 
ATOM     46  C   UNL A   1      44.529  25.745  26.413  1.00  0.00     0.029 A 
ATOM     47  C   UNL A   1      44.653  27.080  26.989  1.00  0.00     0.049 A 
ATOM     48  H   UNL A   1      43.251  28.093  28.150  1.00  0.00     0.167 HD
ATOM     49  C   UNL A   1      40.096  30.289  30.222  1.00  0.00     0.037 A 
ATOM     50  C   UNL A   1      45.722  27.885  26.853  1.00  0.00     0.037 A 
ATOM     51  C   UNL A   1      41.195  31.217  30.137  1.00  0.00     0.049 A 
ATOM     52  C   UNL A   1      45.684  29.269  27.431  1.00  0.00     0.074 A 
ATOM     53  C   UNL A   1      41.291  32.494  30.664  1.00  0.00     0.029 A 
ATOM     54  N   UNL A   1      42.397  30.959  29.495  1.00  0.00    -0.354 N 
ATOM     55  N   UNL A   1      44.724  29.860  28.096  1.00  0.00    -0.248 NA
ATOM     56  C   UNL A   1      46.874  30.107  27.220  1.00  0.00     0.031 C 
ATOM     57  C   UNL A   1      42.542  33.019  30.317  1.00  0.00     0.029 A 
ATOM     58  C   UNL A   1      43.237  32.056  29.605  1.00  0.00     0.049 A 
ATOM     59  H   UNL A   1      42.620  30.122  29.029  1.00  0.00     0.167 HD
ATOM     60  C   UNL A   1      45.193  31.130  28.396  1.00  0.00     0.074 A 
ATOM     61  C   UNL A   1      46.531  31.222  27.850  1.00  0.00     0.031 C 
ATOM     62  C   UNL A   1      44.568  32.130  29.061  1.00  0.00     0.037 A 
BRANCH  49  63
ATOM     63  C   UNL A   1      38.852  30.741  30.928  1.00  0.00     0.064 A 
ATOM     64  C   UNL A   1      38.697  30.604  32.315  1.00  0.00     0.173 A 
ATOM     65  C   UNL A   1      37.825  31.371  30.209  1.00  0.00     0.173 A 
ATOM     66  F   UNL A   1      39.645  29.999  33.044  1.00  0.00    -0.203 F 
ATOM     67  C   UNL A   1      37.549  31.065  32.954  1.00  0.00     0.198 A 
ATOM     68  C   UNL A   1      36.689  31.852  30.855  1.00  0.00     0.198 A 
ATOM     69  F   UNL A   1      37.928  31.532  28.881  1.00  0.00    -0.203 F 
ATOM     70  F   UNL A   1      37.403  30.893  34.275  1.00  0.00    -0.200 F 
ATOM     71  C   UNL A   1      36.550  31.695  32.225  1.00  0.00     0.200 A 
ATOM     72  F   UNL A   1      35.729  32.468  30.150  1.00  0.00    -0.200 F 
ATOM     73  F   UNL A   1      35.448  32.144  32.844  1.00  0.00    -0.200 F 
ENDBRANCH  49  63
BRANCH  50  74
ATOM     74  C   UNL A   1      46.905  27.402  26.098  1.00  0.00     0.064 A 
ATOM     75  C   UNL A   1      47.950  26.735  26.752  1.00  0.00     0.173 A 
ATOM     76  C   UNL A   1      47.002  27.574  24.709  1.00  0.00     0.173 A 
ATOM     77  F   UNL A   1      47.911  26.572  28.082  1.00  0.00    -0.203 F 
ATOM     78  C   UNL A   1      49.051  26.260  26.043  1.00  0.00     0.198 A 
ATOM     79  C   UNL A   1      48.091  27.074  23.999  1.00  0.00     0.198 A 
ATOM     80  F   UNL A   1      46.028  28.208  24.042  1.00  0.00    -0.203 F 
ATOM     81  F   UNL A   1      50.051  25.651  26.694  1.00  0.00    -0.200 F 
ATOM     82  C   UNL A   1      49.115  26.421  24.666  1.00  0.00     0.200 A 
ATOM     83  F   UNL A   1      48.145  27.223  22.668  1.00  0.00    -0.200 F 
ATOM     84  F   UNL A   1      50.170  25.952  23.985  1.00  0.00    -0.200 F 
ENDBRANCH  50  74
BRANCH  62  85
ATOM     85  C   UNL A   1      45.339  33.399  29.265  1.00  0.00     0.064 A 
ATOM     86  C   UNL A   1      46.174  33.576  30.376  1.00  0.00     0.173 A 
ATOM     87  C   UNL A   1      45.260  34.436  28.323  1.00  0.00     0.173 A 
ATOM     88  F   UNL A   1      46.266  32.620  31.311  1.00  0.00    -0.203 F 
ATOM     89  C   UNL A   1      46.892  34.757  30.546  1.00  0.00     0.198 A 
ATOM     90  C   UNL A   1      45.995  35.606  28.487  1.00  0.00     0.198 A 
ATOM     91  F   UNL A   1      44.475  34.309  27.243  1.00  0.00    -0.203 F 
ATOM     92  F   UNL A   1      47.657  34.923  31.634  1.00  0.00    -0.200 F 
ATOM     93  C   UNL A   1      46.807  35.768  29.600  1.00  0.00     0.200 A 
ATOM     94  F   UNL A   1      45.916  36.579  27.570  1.00  0.00    -0.200 F 
ATOM     95  F   UNL A   1      47.499  36.903  29.766  1.00  0.00    -0.200 F 
ENDBRANCH  62  85
ENDBRANCH  36  37
ENDBRANCH  29  31
ENDBRANCH  28  29
ENDBRANCH  27  28
ENDBRANCH   1  27
TORSDOF 15
ENDMDL
MODEL 3
REMARK VINA RESULT:     -12.6      0.332      2.011
REMARK SMILES CCc1ccc2[nH]c(C(=O)c3cc(C)ccn3)c(CC(=O)OCCOC(=O)c3ccc(-c4c5nc(c(-c6c(F)c(F)c(F)c(F)c6F)c6ccc([nH]6)c(-c6c(F)c(F)c(F)c(F)c6F)c6nc(c(-c7c(F)c(F)c(F)c(F)c7F)c7ccc4[nH]7)C=C6)C=C5)cc3)c2c1
REMARK SMILES IDX 23 1 22 2 20 3 21 4 19 5 18 6 3 7 4 8 92 9 5 10 91 11 6 12
REMARK SMILES IDX 7 13 8 14 2 16 1 17 9 18 10 19 11 20 12 21 17 22 13 23 16 24
REMARK SMILES IDX 14 25 15 26 24 27 25 28 26 29 27 30 28 31 29 32 90 33 30 34
REMARK SMILES IDX 89 35 31 36 32 37 33 38 83 39 34 40 88 41 82 42 84 43 35 44
REMARK SMILES IDX 87 45 81 46 80 47 36 49 68 50 48 51 67 52 49 53 52 54 66 55
REMARK SMILES IDX 85 56 50 57 51 58 65 60 86 61 53 62 37 63 38 64 46 65 39 66
REMARK SMILES IDX 40 67 44 68 47 69 41 70 42 71 45 72 43 73 69 74 70 75 78 76
REMARK SMILES IDX 71 77 72 78 76 79 79 80 73 81 74 82 77 83 75 84 54 85 55 86
REMARK SMILES IDX 63 87 56 88 57 89 61 90 64 91 58 92 59 93 62 94 60 95
REMARK H PARENT 7 15 84 48 52 59
REMARK Flexibility Score: inf
ROOT
ATOM      1  C   UNL A   1      31.901  28.045  26.344  1.00  0.00     0.274 C 
ENDROOT
BRANCH   1   2
ATOM      2  O   UNL A   1      33.011  27.368  25.720  1.00  0.00    -0.462 OA
BRANCH   2   3
ATOM      3  C   UNL A   1      32.989  26.010  25.802  1.00  0.00     0.310 C 
ATOM      4  O   UNL A   1      32.198  25.374  26.498  1.00  0.00    -0.252 OA
BRANCH   3   5
ATOM      5  C   UNL A   1      33.999  25.300  24.928  1.00  0.00     0.161 C 
BRANCH   5   6
ATOM      6  C   UNL A   1      33.474  24.596  23.713  1.00  0.00     0.000 A 
ATOM      7  C   UNL A   1      32.739  20.892  24.314  1.00  0.00    -0.048 A 
ATOM      8  C   UNL A   1      32.190  20.660  23.049  1.00  0.00     0.006 A 
ATOM      9  C   UNL A   1      33.293  22.151  24.600  1.00  0.00     0.014 A 
ATOM     10  C   UNL A   1      32.153  21.659  22.067  1.00  0.00     0.027 A 
ATOM     11  C   UNL A   1      33.195  23.194  23.659  1.00  0.00     0.004 A 
ATOM     12  C   UNL A   1      32.642  22.924  22.414  1.00  0.00     0.046 A 
ATOM     13  N   UNL A   1      32.678  24.098  21.699  1.00  0.00    -0.352 N 
ATOM     14  C   UNL A   1      32.988  25.157  22.529  1.00  0.00     0.093 A 
ATOM     15  H   UNL A   1      32.507  24.173  20.733  1.00  0.00     0.167 HD
BRANCH   7  16
ATOM     16  C   UNL A   1      32.719  19.821  25.378  1.00  0.00     0.032 C 
ATOM     17  C   UNL A   1      33.028  18.434  24.821  1.00  0.00     0.009 C 
ENDBRANCH   7  16
BRANCH  14  18
ATOM     18  C   UNL A   1      32.744  26.557  22.216  1.00  0.00     0.227 C 
ATOM     19  O   UNL A   1      33.602  27.300  21.743  1.00  0.00    -0.285 OA
BRANCH  18  20
ATOM     20  C   UNL A   1      31.452  27.179  22.593  1.00  0.00     0.113 A 
ATOM     21  C   UNL A   1      31.167  28.475  22.179  1.00  0.00     0.036 A 
ATOM     22  N   UNL A   1      30.584  26.394  23.268  1.00  0.00    -0.253 NA
ATOM     23  C   UNL A   1      29.907  28.999  22.478  1.00  0.00    -0.047 A 
ATOM     24  C   UNL A   1      29.360  26.902  23.501  1.00  0.00     0.112 A 
ATOM     25  C   UNL A   1      29.528  30.395  22.082  1.00  0.00     0.044 C 
ATOM     26  C   UNL A   1      28.980  28.183  23.133  1.00  0.00     0.023 A 
ENDBRANCH  18  20
ENDBRANCH  14  18
ENDBRANCH   5   6
ENDBRANCH   3   5
ENDBRANCH   2   3
ENDBRANCH   1   2
BRANCH   1  27
ATOM     27  C   UNL A   1      31.758  29.467  25.806  1.00  0.00     0.275 C 
BRANCH  27  28
ATOM     28  O   UNL A   1      33.040  30.118  25.794  1.00  0.00    -0.458 OA
BRANCH  28  29
ATOM     29  C   UNL A   1      33.264  30.939  26.844  1.00  0.00     0.338 C 
ATOM     30  O   UNL A   1      32.539  31.846  27.232  1.00  0.00    -0.246 OA
BRANCH  29  31
ATOM     31  C   UNL A   1      34.575  30.656  27.452  1.00  0.00     0.060 A 
ATOM     32  C   UNL A   1      34.931  29.369  27.857  1.00  0.00     0.016 A 
ATOM     33  C   UNL A   1      35.422  31.733  27.720  1.00  0.00     0.016 A 
ATOM     34  C   UNL A   1      36.090  29.172  28.610  1.00  0.00     0.010 A 
ATOM     35  C   UNL A   1      36.628  31.517  28.386  1.00  0.00     0.010 A 
ATOM     36  C   UNL A   1      36.963  30.241  28.866  1.00  0.00    -0.014 A 
BRANCH  36  37
ATOM     37  C   UNL A   1      38.225  30.046  29.627  1.00  0.00     0.031 A 
ATOM     38  C   UNL A   1      39.320  29.178  29.070  1.00  0.00     0.074 A 
ATOM     39  C   UNL A   1      38.373  30.603  30.844  1.00  0.00     0.049 A 
ATOM     40  N   UNL A   1      40.372  28.682  29.673  1.00  0.00    -0.248 NA
ATOM     41  C   UNL A   1      39.211  28.809  27.649  1.00  0.00     0.031 C 
ATOM     42  C   UNL A   1      37.412  31.498  31.487  1.00  0.00     0.029 A 
ATOM     43  N   UNL A   1      39.384  30.482  31.765  1.00  0.00    -0.354 N 
ATOM     44  C   UNL A   1      41.019  27.901  28.725  1.00  0.00     0.074 A 
ATOM     45  C   UNL A   1      40.246  27.991  27.503  1.00  0.00     0.031 C 
ATOM     46  C   UNL A   1      37.883  31.858  32.691  1.00  0.00     0.029 A 
ATOM     47  C   UNL A   1      39.136  31.152  32.937  1.00  0.00     0.049 A 
ATOM     48  H   UNL A   1      40.206  29.965  31.601  1.00  0.00     0.167 HD
ATOM     49  C   UNL A   1      42.153  27.171  28.867  1.00  0.00     0.037 A 
ATOM     50  C   UNL A   1      39.812  31.160  34.101  1.00  0.00     0.037 A 
ATOM     51  C   UNL A   1      42.948  27.125  30.068  1.00  0.00     0.049 A 
ATOM     52  C   UNL A   1      41.049  30.323  34.244  1.00  0.00     0.074 A 
ATOM     53  C   UNL A   1      44.122  26.429  30.302  1.00  0.00     0.029 A 
ATOM     54  N   UNL A   1      42.656  27.816  31.234  1.00  0.00    -0.354 N 
ATOM     55  N   UNL A   1      41.622  29.541  33.364  1.00  0.00    -0.248 NA
ATOM     56  C   UNL A   1      41.721  30.355  35.551  1.00  0.00     0.031 C 
ATOM     57  C   UNL A   1      44.526  26.679  31.618  1.00  0.00     0.029 A 
ATOM     58  C   UNL A   1      43.623  27.557  32.193  1.00  0.00     0.049 A 
ATOM     59  H   UNL A   1      41.877  28.404  31.363  1.00  0.00     0.167 HD
ATOM     60  C   UNL A   1      42.728  28.997  34.001  1.00  0.00     0.074 A 
ATOM     61  C   UNL A   1      42.753  29.548  35.341  1.00  0.00     0.031 C 
ATOM     62  C   UNL A   1      43.637  28.118  33.519  1.00  0.00     0.037 A 
BRANCH  49  63
ATOM     63  C   UNL A   1      42.595  26.334  27.704  1.00  0.00     0.064 A 
ATOM     64  C   UNL A   1      43.555  26.788  26.788  1.00  0.00     0.173 A 
ATOM     65  C   UNL A   1      42.087  25.036  27.538  1.00  0.00     0.173 A 
ATOM     66  F   UNL A   1      44.062  28.024  26.897  1.00  0.00    -0.203 F 
ATOM     67  C   UNL A   1      43.977  25.978  25.736  1.00  0.00     0.198 A 
ATOM     68  C   UNL A   1      42.529  24.222  26.499  1.00  0.00     0.198 A 
ATOM     69  F   UNL A   1      41.171  24.554  28.391  1.00  0.00    -0.203 F 
ATOM     70  F   UNL A   1      44.869  26.442  24.851  1.00  0.00    -0.200 F 
ATOM     71  C   UNL A   1      43.470  24.694  25.597  1.00  0.00     0.200 A 
ATOM     72  F   UNL A   1      42.044  22.978  26.371  1.00  0.00    -0.200 F 
ATOM     73  F   UNL A   1      43.883  23.914  24.588  1.00  0.00    -0.200 F 
ENDBRANCH  49  63
BRANCH  50  74
ATOM     74  C   UNL A   1      39.298  31.967  35.235  1.00  0.00     0.064 A 
ATOM     75  C   UNL A   1      39.564  33.340  35.317  1.00  0.00     0.173 A 
ATOM     76  C   UNL A   1      38.511  31.389  36.242  1.00  0.00     0.173 A 
ATOM     77  F   UNL A   1      40.333  33.930  34.391  1.00  0.00    -0.203 F 
ATOM     78  C   UNL A   1      39.062  34.106  36.368  1.00  0.00     0.198 A 
ATOM     79  C   UNL A   1      37.989  32.160  37.278  1.00  0.00     0.198 A 
ATOM     80  F   UNL A   1      38.232  30.078  36.207  1.00  0.00    -0.203 F 
ATOM     81  F   UNL A   1      39.355  35.411  36.442  1.00  0.00    -0.200 F 
ATOM     82  C   UNL A   1      38.268  33.516  37.342  1.00  0.00     0.200 A 
ATOM     83  F   UNL A   1      37.214  31.590  38.210  1.00  0.00    -0.200 F 
ATOM     84  F   UNL A   1      37.778  34.257  38.345  1.00  0.00    -0.200 F 
ENDBRANCH  50  74
BRANCH  62  85
ATOM     85  C   UNL A   1      44.755  27.723  34.435  1.00  0.00     0.064 A 
ATOM     86  C   UNL A   1      44.660  26.595  35.261  1.00  0.00     0.173 A 
ATOM     87  C   UNL A   1      45.944  28.467  34.464  1.00  0.00     0.173 A 
ATOM     88  F   UNL A   1      43.536  25.864  35.279  1.00  0.00    -0.203 F 
ATOM     89  C   UNL A   1      45.713  26.234  36.099  1.00  0.00     0.198 A 
ATOM     90  C   UNL A   1      47.001  28.092  35.289  1.00  0.00     0.198 A 
ATOM     91  F   UNL A   1      46.081  29.554  33.690  1.00  0.00    -0.203 F 
ATOM     92  F   UNL A   1      45.588  25.173  36.908  1.00  0.00    -0.200 F 
ATOM     93  C   UNL A   1      46.883  26.979  36.108  1.00  0.00     0.200 A 
ATOM     94  F   UNL A   1      48.133  28.809  35.293  1.00  0.00    -0.200 F 
ATOM     95  F   UNL A   1      47.894  26.630  36.914  1.00  0.00    -0.200 F 
ENDBRANCH  62  85
ENDBRANCH  36  37
ENDBRANCH  29  31
ENDBRANCH  28  29
ENDBRANCH  27  28
ENDBRANCH   1  27
TORSDOF 15
ENDMDL
