MODEL 1
REMARK VINA RESULT:     -12.8      0.000      0.000
REMARK SMILES CC(C)=Cc1c(C(=O)OCCOC(=O)c2ccc(-c3c4nc(c(-c5c(F)c(F)c(F)c(F)c5F)c5ccc([nH]5)c(-c5c(F)c(F)c(F)c(F)c5F)c5nc(c(-c6c(F)c(F)c(F)c(F)c6F)c6ccc3[nH]6)C=C5)C=C4)cc2)nnn1-c1ccc(C(C)C)cc1
REMARK SMILES IDX 10 1 9 2 7 3 8 4 6 5 5 6 80 7 78 8 79 9 4 10 1 11 2 12 3 13
REMARK SMILES IDX 81 14 82 15 89 16 83 17 88 18 84 19 85 20 86 21 87 22 11 23
REMARK SMILES IDX 12 24 13 25 14 26 15 27 16 28 77 29 17 30 76 31 18 32 19 33
REMARK SMILES IDX 20 34 70 35 21 36 75 37 69 38 71 39 22 40 74 41 68 42 67 43
REMARK SMILES IDX 23 45 55 46 35 47 54 48 36 49 39 50 53 51 72 52 37 53 38 54
REMARK SMILES IDX 52 56 73 57 40 58 24 59 25 60 33 61 26 62 27 63 31 64 34 65
REMARK SMILES IDX 28 66 29 67 32 68 30 69 56 70 57 71 65 72 58 73 59 74 63 75
REMARK SMILES IDX 66 76 60 77 61 78 64 79 62 80 41 81 42 82 50 83 43 84 44 85
REMARK SMILES IDX 48 86 51 87 45 88 46 89 49 90 47 91
REMARK H PARENT 71 44 39 55
REMARK Flexibility Score: inf
ROOT
ATOM      1  C   UNL A   1      32.349  29.598  25.879  1.00  0.00     0.275 C 
ENDROOT
BRANCH   1   2
ATOM      2  O   UNL A   1      32.081  28.254  26.309  1.00  0.00    -0.457 OA
BRANCH   2   3
ATOM      3  C   UNL A   1      33.014  27.315  25.957  1.00  0.00     0.361 C 
ATOM      4  O   UNL A   1      34.219  27.450  26.161  1.00  0.00    -0.244 OA
BRANCH   3   5
ATOM      5  C   UNL A   1      32.435  26.106  25.389  1.00  0.00     0.198 A 
ATOM      6  C   UNL A   1      33.066  25.000  24.831  1.00  0.00     0.102 A 
ATOM      7  N   UNL A   1      32.005  24.141  24.556  1.00  0.00    -0.213 N 
ATOM      8  N   UNL A   1      31.073  25.962  25.253  1.00  0.00    -0.122 NA
ATOM      9  N   UNL A   1      30.833  24.815  24.640  1.00  0.00    -0.061 NA
BRANCH   6  10
ATOM     10  C   UNL A   1      34.429  24.677  24.588  1.00  0.00     0.030 C 
ATOM     11  C   UNL A   1      34.857  23.337  26.729  1.00  0.00     0.039 C 
ATOM     12  C   UNL A   1      35.227  23.959  25.406  1.00  0.00    -0.074 C 
ATOM     13  C   UNL A   1      36.657  23.704  24.999  1.00  0.00     0.039 C 
ENDBRANCH   6  10
BRANCH   7  14
ATOM     14  C   UNL A   1      32.012  22.751  24.306  1.00  0.00     0.067 A 
ATOM     15  C   UNL A   1      32.000  22.287  22.988  1.00  0.00     0.029 A 
ATOM     16  C   UNL A   1      32.074  21.851  25.375  1.00  0.00     0.029 A 
ATOM     17  C   UNL A   1      32.155  20.920  22.746  1.00  0.00     0.006 A 
ATOM     18  C   UNL A   1      32.185  20.487  25.124  1.00  0.00     0.006 A 
ATOM     19  C   UNL A   1      32.258  20.007  23.809  1.00  0.00    -0.045 A 
BRANCH  19  20
ATOM     20  C   UNL A   1      32.510  18.528  23.581  1.00  0.00     0.013 C 
ATOM     21  C   UNL A   1      32.531  18.152  22.100  1.00  0.00     0.012 C 
ATOM     22  C   UNL A   1      33.802  18.100  24.281  1.00  0.00     0.012 C 
ENDBRANCH  19  20
ENDBRANCH   7  14
ENDBRANCH   3   5
ENDBRANCH   2   3
ENDBRANCH   1   2
BRANCH   1  23
ATOM     23  C   UNL A   1      32.927  30.441  27.011  1.00  0.00     0.275 C 
BRANCH  23  24
ATOM     24  O   UNL A   1      34.353  30.480  26.965  1.00  0.00    -0.458 OA
BRANCH  24  25
ATOM     25  C   UNL A   1      34.918  31.459  27.709  1.00  0.00     0.338 C 
ATOM     26  O   UNL A   1      34.723  32.659  27.612  1.00  0.00    -0.246 OA
BRANCH  25  27
ATOM     27  C   UNL A   1      36.006  30.893  28.512  1.00  0.00     0.060 A 
ATOM     28  C   UNL A   1      37.027  31.760  28.917  1.00  0.00     0.016 A 
ATOM     29  C   UNL A   1      36.150  29.500  28.573  1.00  0.00     0.016 A 
ATOM     30  C   UNL A   1      38.262  31.229  29.226  1.00  0.00     0.010 A 
ATOM     31  C   UNL A   1      37.386  28.974  28.857  1.00  0.00     0.010 A 
ATOM     32  C   UNL A   1      38.443  29.848  29.113  1.00  0.00    -0.014 A 
BRANCH  32  33
ATOM     33  C   UNL A   1      39.770  29.304  29.319  1.00  0.00     0.031 A 
ATOM     34  C   UNL A   1      40.168  29.174  30.741  1.00  0.00     0.074 A 
ATOM     35  C   UNL A   1      40.476  28.792  28.293  1.00  0.00     0.049 A 
ATOM     36  N   UNL A   1      41.226  29.628  31.326  1.00  0.00    -0.248 NA
ATOM     37  C   UNL A   1      39.208  28.525  31.651  1.00  0.00     0.031 C 
ATOM     38  C   UNL A   1      40.027  28.583  26.912  1.00  0.00     0.029 A 
ATOM     39  N   UNL A   1      41.712  28.227  28.306  1.00  0.00    -0.354 N 
ATOM     40  C   UNL A   1      41.145  29.187  32.645  1.00  0.00     0.074 A 
ATOM     41  C   UNL A   1      39.823  28.655  32.825  1.00  0.00     0.031 C 
ATOM     42  C   UNL A   1      40.886  27.744  26.292  1.00  0.00     0.029 A 
ATOM     43  C   UNL A   1      41.990  27.451  27.191  1.00  0.00     0.049 A 
ATOM     44  H   UNL A   1      42.353  28.356  29.041  1.00  0.00     0.167 HD
ATOM     45  C   UNL A   1      42.258  29.067  33.417  1.00  0.00     0.037 A 
ATOM     46  C   UNL A   1      43.004  26.560  27.068  1.00  0.00     0.037 A 
ATOM     47  C   UNL A   1      43.319  29.914  32.936  1.00  0.00     0.049 A 
ATOM     48  C   UNL A   1      44.002  26.866  28.125  1.00  0.00     0.074 A 
ATOM     49  C   UNL A   1      43.456  31.274  32.735  1.00  0.00     0.029 A 
ATOM     50  N   UNL A   1      44.361  29.338  32.252  1.00  0.00    -0.354 N 
ATOM     51  N   UNL A   1      44.748  27.935  28.147  1.00  0.00    -0.248 NA
ATOM     52  C   UNL A   1      43.872  26.172  29.399  1.00  0.00     0.031 C 
ATOM     53  C   UNL A   1      44.265  31.402  31.569  1.00  0.00     0.029 A 
ATOM     54  C   UNL A   1      44.602  30.114  31.150  1.00  0.00     0.049 A 
ATOM     55  H   UNL A   1      44.845  28.519  32.507  1.00  0.00     0.167 HD
ATOM     56  C   UNL A   1      44.831  28.282  29.487  1.00  0.00     0.074 A 
ATOM     57  C   UNL A   1      44.365  27.107  30.216  1.00  0.00     0.031 C 
ATOM     58  C   UNL A   1      44.998  29.582  29.868  1.00  0.00     0.037 A 
BRANCH  45  59
ATOM     59  C   UNL A   1      42.500  27.898  34.349  1.00  0.00     0.064 A 
ATOM     60  C   UNL A   1      43.030  26.706  33.813  1.00  0.00     0.173 A 
ATOM     61  C   UNL A   1      41.952  27.784  35.648  1.00  0.00     0.173 A 
ATOM     62  F   UNL A   1      43.580  26.690  32.590  1.00  0.00    -0.203 F 
ATOM     63  C   UNL A   1      42.906  25.480  34.473  1.00  0.00     0.198 A 
ATOM     64  C   UNL A   1      41.881  26.568  36.325  1.00  0.00     0.198 A 
ATOM     65  F   UNL A   1      41.363  28.806  36.276  1.00  0.00    -0.203 F 
ATOM     66  F   UNL A   1      43.288  24.355  33.856  1.00  0.00    -0.200 F 
ATOM     67  C   UNL A   1      42.318  25.411  35.722  1.00  0.00     0.200 A 
ATOM     68  F   UNL A   1      41.300  26.522  37.532  1.00  0.00    -0.200 F 
ATOM     69  F   UNL A   1      42.129  24.229  36.322  1.00  0.00    -0.200 F 
ENDBRANCH  45  59
BRANCH  46  70
ATOM     70  C   UNL A   1      43.010  25.287  26.310  1.00  0.00     0.064 A 
ATOM     71  C   UNL A   1      44.007  25.015  25.358  1.00  0.00     0.173 A 
ATOM     72  C   UNL A   1      42.191  24.201  26.681  1.00  0.00     0.173 A 
ATOM     73  F   UNL A   1      44.863  25.977  24.985  1.00  0.00    -0.203 F 
ATOM     74  C   UNL A   1      44.181  23.734  24.824  1.00  0.00     0.198 A 
ATOM     75  C   UNL A   1      42.356  22.928  26.137  1.00  0.00     0.198 A 
ATOM     76  F   UNL A   1      41.272  24.329  27.650  1.00  0.00    -0.203 F 
ATOM     77  F   UNL A   1      45.183  23.499  23.964  1.00  0.00    -0.200 F 
ATOM     78  C   UNL A   1      43.360  22.691  25.218  1.00  0.00     0.200 A 
ATOM     79  F   UNL A   1      41.577  21.920  26.555  1.00  0.00    -0.200 F 
ATOM     80  F   UNL A   1      43.561  21.452  24.747  1.00  0.00    -0.200 F 
ENDBRANCH  46  70
BRANCH  58  81
ATOM     81  C   UNL A   1      45.363  30.577  28.806  1.00  0.00     0.064 A 
ATOM     82  C   UNL A   1      44.419  31.257  28.017  1.00  0.00     0.173 A 
ATOM     83  C   UNL A   1      46.705  30.963  28.681  1.00  0.00     0.173 A 
ATOM     84  F   UNL A   1      43.109  31.021  28.156  1.00  0.00    -0.203 F 
ATOM     85  C   UNL A   1      44.807  32.240  27.110  1.00  0.00     0.198 A 
ATOM     86  C   UNL A   1      47.086  31.972  27.801  1.00  0.00     0.198 A 
ATOM     87  F   UNL A   1      47.643  30.391  29.452  1.00  0.00    -0.203 F 
ATOM     88  F   UNL A   1      43.887  32.863  26.358  1.00  0.00    -0.200 F 
ATOM     89  C   UNL A   1      46.139  32.602  27.008  1.00  0.00     0.200 A 
ATOM     90  F   UNL A   1      48.369  32.355  27.742  1.00  0.00    -0.200 F 
ATOM     91  F   UNL A   1      46.509  33.576  26.166  1.00  0.00    -0.200 F 
ENDBRANCH  58  81
ENDBRANCH  32  33
ENDBRANCH  25  27
ENDBRANCH  24  25
ENDBRANCH  23  24
ENDBRANCH   1  23
TORSDOF 14
ENDMDL
MODEL 2
REMARK VINA RESULT:     -12.7      3.169      8.398
REMARK SMILES CC(C)=Cc1c(C(=O)OCCOC(=O)c2ccc(-c3c4nc(c(-c5c(F)c(F)c(F)c(F)c5F)c5ccc([nH]5)c(-c5c(F)c(F)c(F)c(F)c5F)c5nc(c(-c6c(F)c(F)c(F)c(F)c6F)c6ccc3[nH]6)C=C5)C=C4)cc2)nnn1-c1ccc(C(C)C)cc1
REMARK SMILES IDX 10 1 9 2 7 3 8 4 6 5 5 6 80 7 78 8 79 9 4 10 1 11 2 12 3 13
REMARK SMILES IDX 81 14 82 15 89 16 83 17 88 18 84 19 85 20 86 21 87 22 11 23
REMARK SMILES IDX 12 24 13 25 14 26 15 27 16 28 77 29 17 30 76 31 18 32 19 33
REMARK SMILES IDX 20 34 70 35 21 36 75 37 69 38 71 39 22 40 74 41 68 42 67 43
REMARK SMILES IDX 23 45 55 46 35 47 54 48 36 49 39 50 53 51 72 52 37 53 38 54
REMARK SMILES IDX 52 56 73 57 40 58 24 59 25 60 33 61 26 62 27 63 31 64 34 65
REMARK SMILES IDX 28 66 29 67 32 68 30 69 56 70 57 71 65 72 58 73 59 74 63 75
REMARK SMILES IDX 66 76 60 77 61 78 64 79 62 80 41 81 42 82 50 83 43 84 44 85
REMARK SMILES IDX 48 86 51 87 45 88 46 89 49 90 47 91
REMARK H PARENT 71 44 39 55
REMARK Flexibility Score: inf
ROOT
ATOM      1  C   UNL A   1      35.997  21.980  25.455  1.00  0.00     0.275 C 
ENDROOT
BRANCH   1   2
ATOM      2  O   UNL A   1      35.842  23.336  25.006  1.00  0.00    -0.457 OA
BRANCH   2   3
ATOM      3  C   UNL A   1      35.450  23.494  23.703  1.00  0.00     0.361 C 
ATOM      4  O   UNL A   1      36.173  23.236  22.743  1.00  0.00    -0.244 OA
BRANCH   3   5
ATOM      5  C   UNL A   1      34.067  23.923  23.562  1.00  0.00     0.198 A 
ATOM      6  C   UNL A   1      33.460  25.106  23.969  1.00  0.00     0.102 A 
ATOM      7  N   UNL A   1      32.164  24.977  23.478  1.00  0.00    -0.213 N 
ATOM      8  N   UNL A   1      33.108  23.083  23.041  1.00  0.00    -0.122 NA
ATOM      9  N   UNL A   1      31.937  23.696  23.104  1.00  0.00    -0.061 NA
BRANCH   6  10
ATOM     10  C   UNL A   1      33.932  26.250  24.669  1.00  0.00     0.030 C 
ATOM     11  C   UNL A   1      32.249  26.195  26.601  1.00  0.00     0.039 C 
ATOM     12  C   UNL A   1      33.412  26.744  25.813  1.00  0.00    -0.074 C 
ATOM     13  C   UNL A   1      34.032  27.972  26.431  1.00  0.00     0.039 C 
ENDBRANCH   6  10
BRANCH   7  14
ATOM     14  C   UNL A   1      31.178  25.967  23.267  1.00  0.00     0.067 A 
ATOM     15  C   UNL A   1      29.922  25.829  23.864  1.00  0.00     0.029 A 
ATOM     16  C   UNL A   1      31.477  27.095  22.497  1.00  0.00     0.029 A 
ATOM     17  C   UNL A   1      29.005  26.879  23.772  1.00  0.00     0.006 A 
ATOM     18  C   UNL A   1      30.541  28.117  22.376  1.00  0.00     0.006 A 
ATOM     19  C   UNL A   1      29.307  28.036  23.036  1.00  0.00    -0.045 A 
BRANCH  19  20
ATOM     20  C   UNL A   1      28.368  29.227  22.984  1.00  0.00     0.013 C 
ATOM     21  C   UNL A   1      28.556  30.077  21.728  1.00  0.00     0.012 C 
ATOM     22  C   UNL A   1      26.917  28.762  23.127  1.00  0.00     0.012 C 
ENDBRANCH  19  20
ENDBRANCH   7  14
ENDBRANCH   3   5
ENDBRANCH   2   3
ENDBRANCH   1   2
BRANCH   1  23
ATOM     23  C   UNL A   1      37.422  21.481  25.243  1.00  0.00     0.275 C 
BRANCH  23  24
ATOM     24  O   UNL A   1      38.376  22.534  25.377  1.00  0.00    -0.458 OA
BRANCH  24  25
ATOM     25  C   UNL A   1      39.466  22.221  26.115  1.00  0.00     0.338 C 
ATOM     26  O   UNL A   1      40.109  21.185  26.070  1.00  0.00    -0.246 OA
BRANCH  25  27
ATOM     27  C   UNL A   1      39.640  23.219  27.173  1.00  0.00     0.060 A 
ATOM     28  C   UNL A   1      38.731  24.283  27.212  1.00  0.00     0.016 A 
ATOM     29  C   UNL A   1      40.849  23.253  27.882  1.00  0.00     0.016 A 
ATOM     30  C   UNL A   1      39.111  25.456  27.830  1.00  0.00     0.010 A 
ATOM     31  C   UNL A   1      41.236  24.429  28.476  1.00  0.00     0.010 A 
ATOM     32  C   UNL A   1      40.392  25.536  28.383  1.00  0.00    -0.014 A 
BRANCH  32  33
ATOM     33  C   UNL A   1      40.836  26.805  28.923  1.00  0.00     0.031 A 
ATOM     34  C   UNL A   1      42.069  27.341  28.299  1.00  0.00     0.074 A 
ATOM     35  C   UNL A   1      40.065  27.502  29.779  1.00  0.00     0.049 A 
ATOM     36  N   UNL A   1      43.162  27.721  28.874  1.00  0.00    -0.248 NA
ATOM     37  C   UNL A   1      42.121  27.371  26.827  1.00  0.00     0.031 C 
ATOM     38  C   UNL A   1      38.690  27.203  30.193  1.00  0.00     0.029 A 
ATOM     39  N   UNL A   1      40.309  28.706  30.360  1.00  0.00    -0.354 N 
ATOM     40  C   UNL A   1      43.983  28.188  27.849  1.00  0.00     0.074 A 
ATOM     41  C   UNL A   1      43.361  27.806  26.613  1.00  0.00     0.031 C 
ATOM     42  C   UNL A   1      38.155  28.302  30.771  1.00  0.00     0.029 A 
ATOM     43  C   UNL A   1      39.177  29.330  30.862  1.00  0.00     0.049 A 
ATOM     44  H   UNL A   1      41.208  29.100  30.420  1.00  0.00     0.167 HD
ATOM     45  C   UNL A   1      44.986  29.072  28.098  1.00  0.00     0.037 A 
ATOM     46  C   UNL A   1      39.077  30.631  31.230  1.00  0.00     0.037 A 
ATOM     47  C   UNL A   1      45.407  29.008  29.474  1.00  0.00     0.049 A 
ATOM     48  C   UNL A   1      40.455  31.152  31.420  1.00  0.00     0.074 A 
ATOM     49  C   UNL A   1      45.918  28.012  30.284  1.00  0.00     0.029 A 
ATOM     50  N   UNL A   1      45.013  30.008  30.329  1.00  0.00    -0.354 N 
ATOM     51  N   UNL A   1      41.253  30.788  32.385  1.00  0.00    -0.248 NA
ATOM     52  C   UNL A   1      41.107  31.778  30.278  1.00  0.00     0.031 C 
ATOM     53  C   UNL A   1      45.366  28.259  31.575  1.00  0.00     0.029 A 
ATOM     54  C   UNL A   1      44.581  29.409  31.482  1.00  0.00     0.049 A 
ATOM     55  H   UNL A   1      45.037  30.974  30.146  1.00  0.00     0.167 HD
ATOM     56  C   UNL A   1      42.514  30.749  31.807  1.00  0.00     0.074 A 
ATOM     57  C   UNL A   1      42.378  31.467  30.544  1.00  0.00     0.031 C 
ATOM     58  C   UNL A   1      43.474  29.896  32.269  1.00  0.00     0.037 A 
BRANCH  45  59
ATOM     59  C   UNL A   1      45.296  30.250  27.199  1.00  0.00     0.064 A 
ATOM     60  C   UNL A   1      46.645  30.603  26.990  1.00  0.00     0.173 A 
ATOM     61  C   UNL A   1      44.351  31.226  26.804  1.00  0.00     0.173 A 
ATOM     62  F   UNL A   1      47.633  29.758  27.322  1.00  0.00    -0.203 F 
ATOM     63  C   UNL A   1      47.016  31.872  26.538  1.00  0.00     0.198 A 
ATOM     64  C   UNL A   1      44.725  32.470  26.302  1.00  0.00     0.198 A 
ATOM     65  F   UNL A   1      43.035  31.071  26.983  1.00  0.00    -0.203 F 
ATOM     66  F   UNL A   1      48.312  32.208  26.500  1.00  0.00    -0.200 F 
ATOM     67  C   UNL A   1      46.056  32.809  26.208  1.00  0.00     0.200 A 
ATOM     68  F   UNL A   1      43.777  33.367  25.995  1.00  0.00    -0.200 F 
ATOM     69  F   UNL A   1      46.409  34.050  25.850  1.00  0.00    -0.200 F 
ENDBRANCH  45  59
BRANCH  46  70
ATOM     70  C   UNL A   1      37.897  31.521  31.118  1.00  0.00     0.064 A 
ATOM     71  C   UNL A   1      37.429  31.950  29.866  1.00  0.00     0.173 A 
ATOM     72  C   UNL A   1      37.049  31.765  32.217  1.00  0.00     0.173 A 
ATOM     73  F   UNL A   1      38.149  31.713  28.759  1.00  0.00    -0.203 F 
ATOM     74  C   UNL A   1      36.183  32.570  29.721  1.00  0.00     0.198 A 
ATOM     75  C   UNL A   1      35.814  32.397  32.075  1.00  0.00     0.198 A 
ATOM     76  F   UNL A   1      37.357  31.313  33.442  1.00  0.00    -0.203 F 
ATOM     77  F   UNL A   1      35.743  32.910  28.501  1.00  0.00    -0.200 F 
ATOM     78  C   UNL A   1      35.375  32.788  30.824  1.00  0.00     0.200 A 
ATOM     79  F   UNL A   1      35.027  32.568  33.147  1.00  0.00    -0.200 F 
ATOM     80  F   UNL A   1      34.159  33.333  30.680  1.00  0.00    -0.200 F 
ENDBRANCH  46  70
BRANCH  58  81
ATOM     81  C   UNL A   1      43.222  29.210  33.580  1.00  0.00     0.064 A 
ATOM     82  C   UNL A   1      43.523  29.781  34.829  1.00  0.00     0.173 A 
ATOM     83  C   UNL A   1      42.520  27.996  33.578  1.00  0.00     0.173 A 
ATOM     84  F   UNL A   1      44.095  30.987  34.914  1.00  0.00    -0.203 F 
ATOM     85  C   UNL A   1      43.182  29.140  36.018  1.00  0.00     0.198 A 
ATOM     86  C   UNL A   1      42.148  27.377  34.768  1.00  0.00     0.198 A 
ATOM     87  F   UNL A   1      42.153  27.434  32.416  1.00  0.00    -0.203 F 
ATOM     88  F   UNL A   1      43.495  29.700  37.196  1.00  0.00    -0.200 F 
ATOM     89  C   UNL A   1      42.488  27.943  35.986  1.00  0.00     0.200 A 
ATOM     90  F   UNL A   1      41.432  26.244  34.733  1.00  0.00    -0.200 F 
ATOM     91  F   UNL A   1      42.123  27.346  37.130  1.00  0.00    -0.200 F 
ENDBRANCH  58  81
ENDBRANCH  32  33
ENDBRANCH  25  27
ENDBRANCH  24  25
ENDBRANCH  23  24
ENDBRANCH   1  23
TORSDOF 14
ENDMDL
MODEL 3
REMARK VINA RESULT:     -12.6      3.316      8.599
REMARK SMILES CC(C)=Cc1c(C(=O)OCCOC(=O)c2ccc(-c3c4nc(c(-c5c(F)c(F)c(F)c(F)c5F)c5ccc([nH]5)c(-c5c(F)c(F)c(F)c(F)c5F)c5nc(c(-c6c(F)c(F)c(F)c(F)c6F)c6ccc3[nH]6)C=C5)C=C4)cc2)nnn1-c1ccc(C(C)C)cc1
REMARK SMILES IDX 10 1 9 2 7 3 8 4 6 5 5 6 80 7 78 8 79 9 4 10 1 11 2 12 3 13
REMARK SMILES IDX 81 14 82 15 89 16 83 17 88 18 84 19 85 20 86 21 87 22 11 23
REMARK SMILES IDX 12 24 13 25 14 26 15 27 16 28 77 29 17 30 76 31 18 32 19 33
REMARK SMILES IDX 20 34 70 35 21 36 75 37 69 38 71 39 22 40 74 41 68 42 67 43
REMARK SMILES IDX 23 45 55 46 35 47 54 48 36 49 39 50 53 51 72 52 37 53 38 54
REMARK SMILES IDX 52 56 73 57 40 58 24 59 25 60 33 61 26 62 27 63 31 64 34 65
REMARK SMILES IDX 28 66 29 67 32 68 30 69 56 70 57 71 65 72 58 73 59 74 63 75
REMARK SMILES IDX 66 76 60 77 61 78 64 79 62 80 41 81 42 82 50 83 43 84 44 85
REMARK SMILES IDX 48 86 51 87 45 88 46 89 49 90 47 91
REMARK H PARENT 71 44 39 55
REMARK Flexibility Score: inf
ROOT
ATOM      1  C   UNL A   1      36.064  22.195  25.689  1.00  0.00     0.275 C 
ENDROOT
BRANCH   1   2
ATOM      2  O   UNL A   1      35.834  23.483  25.094  1.00  0.00    -0.457 OA
BRANCH   2   3
ATOM      3  C   UNL A   1      35.428  23.474  23.786  1.00  0.00     0.361 C 
ATOM      4  O   UNL A   1      36.128  23.062  22.863  1.00  0.00    -0.244 OA
BRANCH   3   5
ATOM      5  C   UNL A   1      34.058  23.929  23.601  1.00  0.00     0.198 A 
ATOM      6  C   UNL A   1      33.469  25.135  23.962  1.00  0.00     0.102 A 
ATOM      7  N   UNL A   1      32.181  25.020  23.445  1.00  0.00    -0.213 N 
ATOM      8  N   UNL A   1      33.093  23.095  23.082  1.00  0.00    -0.122 NA
ATOM      9  N   UNL A   1      31.934  23.733  23.101  1.00  0.00    -0.061 NA
BRANCH   6  10
ATOM     10  C   UNL A   1      33.949  26.288  24.640  1.00  0.00     0.030 C 
ATOM     11  C   UNL A   1      32.293  26.257  26.595  1.00  0.00     0.039 C 
ATOM     12  C   UNL A   1      33.445  26.797  25.785  1.00  0.00    -0.074 C 
ATOM     13  C   UNL A   1      34.072  28.033  26.378  1.00  0.00     0.039 C 
ENDBRANCH   6  10
BRANCH   7  14
ATOM     14  C   UNL A   1      31.222  26.024  23.184  1.00  0.00     0.067 A 
ATOM     15  C   UNL A   1      30.001  26.006  23.864  1.00  0.00     0.029 A 
ATOM     16  C   UNL A   1      31.515  27.050  22.280  1.00  0.00     0.029 A 
ATOM     17  C   UNL A   1      29.120  27.079  23.711  1.00  0.00     0.006 A 
ATOM     18  C   UNL A   1      30.612  28.093  22.102  1.00  0.00     0.006 A 
ATOM     19  C   UNL A   1      29.419  28.137  22.836  1.00  0.00    -0.045 A 
BRANCH  19  20
ATOM     20  C   UNL A   1      28.524  29.356  22.710  1.00  0.00     0.013 C 
ATOM     21  C   UNL A   1      27.080  29.078  23.125  1.00  0.00     0.012 C 
ATOM     22  C   UNL A   1      29.113  30.527  23.500  1.00  0.00     0.012 C 
ENDBRANCH  19  20
ENDBRANCH   7  14
ENDBRANCH   3   5
ENDBRANCH   2   3
ENDBRANCH   1   2
BRANCH   1  23
ATOM     23  C   UNL A   1      37.549  21.850  25.716  1.00  0.00     0.275 C 
BRANCH  23  24
ATOM     24  O   UNL A   1      38.350  22.987  26.035  1.00  0.00    -0.458 OA
BRANCH  24  25
ATOM     25  C   UNL A   1      39.547  22.698  26.595  1.00  0.00     0.338 C 
ATOM     26  O   UNL A   1      39.928  21.610  26.992  1.00  0.00    -0.246 OA
BRANCH  25  27
ATOM     27  C   UNL A   1      40.259  23.945  26.890  1.00  0.00     0.060 A 
ATOM     28  C   UNL A   1      41.241  23.906  27.886  1.00  0.00     0.016 A 
ATOM     29  C   UNL A   1      39.734  25.155  26.415  1.00  0.00     0.016 A 
ATOM     30  C   UNL A   1      41.578  25.080  28.529  1.00  0.00     0.010 A 
ATOM     31  C   UNL A   1      40.052  26.318  27.071  1.00  0.00     0.010 A 
ATOM     32  C   UNL A   1      40.918  26.256  28.164  1.00  0.00    -0.014 A 
BRANCH  32  33
ATOM     33  C   UNL A   1      41.182  27.463  28.920  1.00  0.00     0.031 A 
ATOM     34  C   UNL A   1      42.418  28.178  28.524  1.00  0.00     0.074 A 
ATOM     35  C   UNL A   1      40.264  27.964  29.769  1.00  0.00     0.049 A 
ATOM     36  N   UNL A   1      43.404  28.555  29.268  1.00  0.00    -0.248 NA
ATOM     37  C   UNL A   1      42.620  28.428  27.086  1.00  0.00     0.031 C 
ATOM     38  C   UNL A   1      38.888  27.501  29.976  1.00  0.00     0.029 A 
ATOM     39  N   UNL A   1      40.333  29.085  30.535  1.00  0.00    -0.354 N 
ATOM     40  C   UNL A   1      44.280  29.229  28.420  1.00  0.00     0.074 A 
ATOM     41  C   UNL A   1      43.828  28.986  27.079  1.00  0.00     0.031 C 
ATOM     42  C   UNL A   1      38.196  28.458  30.633  1.00  0.00     0.029 A 
ATOM     43  C   UNL A   1      39.102  29.539  30.982  1.00  0.00     0.049 A 
ATOM     44  H   UNL A   1      41.181  29.534  30.752  1.00  0.00     0.167 HD
ATOM     45  C   UNL A   1      45.164  30.143  28.902  1.00  0.00     0.037 A 
ATOM     46  C   UNL A   1      38.842  30.760  31.511  1.00  0.00     0.037 A 
ATOM     47  C   UNL A   1      45.444  29.910  30.296  1.00  0.00     0.049 A 
ATOM     48  C   UNL A   1      40.139  31.353  31.930  1.00  0.00     0.074 A 
ATOM     49  C   UNL A   1      45.960  28.849  31.016  1.00  0.00     0.029 A 
ATOM     50  N   UNL A   1      44.872  30.740  31.228  1.00  0.00    -0.354 N 
ATOM     51  N   UNL A   1      40.863  30.915  32.922  1.00  0.00    -0.248 NA
ATOM     52  C   UNL A   1      40.843  32.189  30.967  1.00  0.00     0.031 C 
ATOM     53  C   UNL A   1      45.256  28.860  32.255  1.00  0.00     0.029 A 
ATOM     54  C   UNL A   1      44.381  29.946  32.230  1.00  0.00     0.049 A 
ATOM     55  H   UNL A   1      44.824  31.722  31.184  1.00  0.00     0.167 HD
ATOM     56  C   UNL A   1      42.174  31.059  32.494  1.00  0.00     0.074 A 
ATOM     57  C   UNL A   1      42.104  31.942  31.335  1.00  0.00     0.031 C 
ATOM     58  C   UNL A   1      43.157  30.225  32.943  1.00  0.00     0.037 A 
BRANCH  45  59
ATOM     59  C   UNL A   1      45.454  31.461  28.216  1.00  0.00     0.064 A 
ATOM     60  C   UNL A   1      44.370  32.288  27.858  1.00  0.00     0.173 A 
ATOM     61  C   UNL A   1      46.691  31.796  27.617  1.00  0.00     0.173 A 
ATOM     62  F   UNL A   1      43.147  32.071  28.364  1.00  0.00    -0.203 F 
ATOM     63  C   UNL A   1      44.491  33.287  26.888  1.00  0.00     0.198 A 
ATOM     64  C   UNL A   1      46.818  32.829  26.691  1.00  0.00     0.198 A 
ATOM     65  F   UNL A   1      47.804  31.081  27.810  1.00  0.00    -0.203 F 
ATOM     66  F   UNL A   1      43.400  33.942  26.473  1.00  0.00    -0.200 F 
ATOM     67  C   UNL A   1      45.712  33.546  26.295  1.00  0.00     0.200 A 
ATOM     68  F   UNL A   1      48.010  33.059  26.123  1.00  0.00    -0.200 F 
ATOM     69  F   UNL A   1      45.815  34.449  25.311  1.00  0.00    -0.200 F 
ENDBRANCH  45  59
BRANCH  46  70
ATOM     70  C   UNL A   1      37.603  31.562  31.386  1.00  0.00     0.064 A 
ATOM     71  C   UNL A   1      36.794  31.824  32.504  1.00  0.00     0.173 A 
ATOM     72  C   UNL A   1      37.316  32.303  30.222  1.00  0.00     0.173 A 
ATOM     73  F   UNL A   1      37.029  31.200  33.668  1.00  0.00    -0.203 F 
ATOM     74  C   UNL A   1      35.772  32.779  32.463  1.00  0.00     0.198 A 
ATOM     75  C   UNL A   1      36.288  33.245  30.177  1.00  0.00     0.198 A 
ATOM     76  F   UNL A   1      38.086  32.199  29.129  1.00  0.00    -0.203 F 
ATOM     77  F   UNL A   1      35.061  33.045  33.568  1.00  0.00    -0.200 F 
ATOM     78  C   UNL A   1      35.524  33.492  31.302  1.00  0.00     0.200 A 
ATOM     79  F   UNL A   1      36.083  33.953  29.057  1.00  0.00    -0.200 F 
ATOM     80  F   UNL A   1      34.582  34.444  31.277  1.00  0.00    -0.200 F 
ENDBRANCH  46  70
BRANCH  58  81
ATOM     81  C   UNL A   1      42.836  29.336  34.109  1.00  0.00     0.064 A 
ATOM     82  C   UNL A   1      42.092  28.148  34.002  1.00  0.00     0.173 A 
ATOM     83  C   UNL A   1      43.422  29.620  35.350  1.00  0.00     0.173 A 
ATOM     84  F   UNL A   1      41.592  27.753  32.825  1.00  0.00    -0.203 F 
ATOM     85  C   UNL A   1      41.903  27.311  35.099  1.00  0.00     0.198 A 
ATOM     86  C   UNL A   1      43.263  28.763  36.436  1.00  0.00     0.198 A 
ATOM     87  F   UNL A   1      44.193  30.710  35.496  1.00  0.00    -0.203 F 
ATOM     88  F   UNL A   1      41.177  26.191  34.973  1.00  0.00    -0.200 F 
ATOM     89  C   UNL A   1      42.495  27.616  36.313  1.00  0.00     0.200 A 
ATOM     90  F   UNL A   1      43.879  29.035  37.595  1.00  0.00    -0.200 F 
ATOM     91  F   UNL A   1      42.348  26.791  37.359  1.00  0.00    -0.200 F 
ENDBRANCH  58  81
ENDBRANCH  32  33
ENDBRANCH  25  27
ENDBRANCH  24  25
ENDBRANCH  23  24
ENDBRANCH   1  23
TORSDOF 14
ENDMDL
