MODEL 1
REMARK VINA RESULT:     -13.0      0.000      0.000
REMARK SMILES O=C(CSc1cc(-c2ccccc2)nc(-c2ccccc2F)n1)OCCOC(=O)c1ccc(-c2c3nc(c(-c4c(F)c(F)c(F)c(F)c4F)c4ccc([nH]4)c(-c4c(F)c(F)c(F)c(F)c4F)c4nc(c(-c5c(F)c(F)c(F)c(F)c5F)c5ccc2[nH]5)C=C4)C=C3)cc1
REMARK SMILES IDX 25 1 24 2 2 3 1 4 3 5 4 6 5 7 6 8 23 9 7 10 15 11 14 12 8 13
REMARK SMILES IDX 9 14 13 15 10 16 12 17 11 18 16 19 17 20 21 21 18 22 20 23
REMARK SMILES IDX 22 24 19 25 26 26 27 27 28 28 29 29 30 30 31 31 92 32 32 33
REMARK SMILES IDX 91 34 33 35 34 36 35 37 85 38 36 39 90 40 84 41 86 42 37 43
REMARK SMILES IDX 89 44 83 45 82 46 38 48 70 49 50 50 69 51 51 52 54 53 68 54
REMARK SMILES IDX 87 55 52 56 53 57 67 59 88 60 55 61 39 62 40 63 48 64 41 65
REMARK SMILES IDX 42 66 46 67 49 68 43 69 44 70 47 71 45 72 71 73 72 74 80 75
REMARK SMILES IDX 73 76 74 77 78 78 81 79 75 80 76 81 79 82 77 83 56 84 57 85
REMARK SMILES IDX 65 86 58 87 59 88 63 89 66 90 60 91 61 92 64 93 62 94
REMARK H PARENT 86 47 54 58
REMARK Flexibility Score: inf
ROOT
ATOM      1  C   UNL A   1      42.629  21.287  26.227  1.00  0.00     0.274 C 
ENDROOT
BRANCH   1   2
ATOM      2  O   UNL A   1      41.290  21.464  25.719  1.00  0.00    -0.461 OA
BRANCH   2   3
ATOM      3  C   UNL A   1      40.187  21.644  26.489  1.00  0.00     0.316 C 
ATOM      4  O   UNL A   1      40.269  21.526  27.712  1.00  0.00    -0.251 OA
BRANCH   3   5
ATOM      5  C   UNL A   1      38.857  21.908  25.820  1.00  0.00     0.199 C 
BRANCH   5   6
ATOM      6  S   UNL A   1      38.193  23.559  26.148  1.00  0.00    -0.094 SA
BRANCH   6   7
ATOM      7  C   UNL A   1      36.503  23.220  25.750  1.00  0.00     0.101 A 
ATOM      8  C   UNL A   1      36.108  21.930  25.532  1.00  0.00     0.064 A 
ATOM      9  N   UNL A   1      35.677  24.266  25.690  1.00  0.00    -0.222 NA
ATOM     10  C   UNL A   1      34.774  21.752  25.238  1.00  0.00     0.075 A 
ATOM     11  C   UNL A   1      34.384  24.003  25.438  1.00  0.00     0.163 A 
ATOM     12  N   UNL A   1      33.896  22.775  25.184  1.00  0.00    -0.228 NA
BRANCH  10  13
ATOM     13  C   UNL A   1      34.284  20.419  24.890  1.00  0.00     0.000 A 
ATOM     14  C   UNL A   1      32.950  20.244  24.492  1.00  0.00     0.010 A 
ATOM     15  C   UNL A   1      35.154  19.317  24.826  1.00  0.00     0.010 A 
ATOM     16  C   UNL A   1      32.507  19.013  24.004  1.00  0.00     0.001 A 
ATOM     17  C   UNL A   1      34.709  18.084  24.347  1.00  0.00     0.001 A 
ATOM     18  C   UNL A   1      33.389  17.936  23.925  1.00  0.00     0.000 A 
ENDBRANCH  10  13
BRANCH  11  19
ATOM     19  C   UNL A   1      33.485  25.157  25.401  1.00  0.00     0.055 A 
ATOM     20  C   UNL A   1      33.780  26.272  24.588  1.00  0.00     0.015 A 
ATOM     21  C   UNL A   1      32.336  25.229  26.194  1.00  0.00     0.134 A 
ATOM     22  C   UNL A   1      32.949  27.395  24.562  1.00  0.00     0.001 A 
ATOM     23  C   UNL A   1      31.504  26.351  26.180  1.00  0.00     0.040 A 
ATOM     24  F   UNL A   1      32.020  24.230  27.034  1.00  0.00    -0.206 F 
ATOM     25  C   UNL A   1      31.808  27.435  25.359  1.00  0.00     0.003 A 
ENDBRANCH  11  19
ENDBRANCH   6   7
ENDBRANCH   5   6
ENDBRANCH   3   5
ENDBRANCH   2   3
ENDBRANCH   1   2
BRANCH   1  26
ATOM     26  C   UNL A   1      43.676  21.913  25.303  1.00  0.00     0.275 C 
BRANCH  26  27
ATOM     27  O   UNL A   1      43.168  23.127  24.714  1.00  0.00    -0.458 OA
BRANCH  27  28
ATOM     28  C   UNL A   1      43.918  24.235  24.931  1.00  0.00     0.338 C 
ATOM     29  O   UNL A   1      44.973  24.517  24.390  1.00  0.00    -0.246 OA
BRANCH  28  30
ATOM     30  C   UNL A   1      43.190  25.165  25.827  1.00  0.00     0.060 A 
ATOM     31  C   UNL A   1      43.857  26.324  26.246  1.00  0.00     0.016 A 
ATOM     32  C   UNL A   1      41.892  24.903  26.277  1.00  0.00     0.016 A 
ATOM     33  C   UNL A   1      43.260  27.179  27.174  1.00  0.00     0.010 A 
ATOM     34  C   UNL A   1      41.292  25.766  27.204  1.00  0.00     0.010 A 
ATOM     35  C   UNL A   1      41.993  26.881  27.695  1.00  0.00    -0.014 A 
BRANCH  35  36
ATOM     36  C   UNL A   1      41.497  27.626  28.882  1.00  0.00     0.031 A 
ATOM     37  C   UNL A   1      42.247  27.497  30.183  1.00  0.00     0.074 A 
ATOM     38  C   UNL A   1      40.430  28.443  28.807  1.00  0.00     0.049 A 
ATOM     39  N   UNL A   1      42.043  28.103  31.327  1.00  0.00    -0.248 NA
ATOM     40  C   UNL A   1      43.377  26.555  30.196  1.00  0.00     0.031 C 
ATOM     41  C   UNL A   1      39.623  28.674  27.612  1.00  0.00     0.029 A 
ATOM     42  N   UNL A   1      39.848  29.235  29.766  1.00  0.00    -0.354 N 
ATOM     43  C   UNL A   1      43.021  27.621  32.188  1.00  0.00     0.074 A 
ATOM     44  C   UNL A   1      43.786  26.637  31.453  1.00  0.00     0.031 C 
ATOM     45  C   UNL A   1      38.654  29.557  27.907  1.00  0.00     0.029 A 
ATOM     46  C   UNL A   1      38.763  29.943  29.313  1.00  0.00     0.049 A 
ATOM     47  H   UNL A   1      40.180  29.291  30.692  1.00  0.00     0.167 HD
ATOM     48  C   UNL A   1      43.276  27.978  33.469  1.00  0.00     0.037 A 
ATOM     49  C   UNL A   1      37.956  30.809  29.960  1.00  0.00     0.037 A 
ATOM     50  C   UNL A   1      42.526  28.959  34.207  1.00  0.00     0.049 A 
ATOM     51  C   UNL A   1      38.229  31.149  31.404  1.00  0.00     0.074 A 
ATOM     52  C   UNL A   1      42.733  29.413  35.498  1.00  0.00     0.029 A 
ATOM     53  N   UNL A   1      41.415  29.631  33.721  1.00  0.00    -0.354 N 
ATOM     54  N   UNL A   1      39.195  30.740  32.188  1.00  0.00    -0.248 NA
ATOM     55  C   UNL A   1      37.298  32.089  32.049  1.00  0.00     0.031 C 
ATOM     56  C   UNL A   1      41.716  30.320  35.812  1.00  0.00     0.029 A 
ATOM     57  C   UNL A   1      40.909  30.475  34.698  1.00  0.00     0.049 A 
ATOM     58  H   UNL A   1      41.041  29.526  32.816  1.00  0.00     0.167 HD
ATOM     59  C   UNL A   1      39.018  31.404  33.397  1.00  0.00     0.074 A 
ATOM     60  C   UNL A   1      37.852  32.246  33.242  1.00  0.00     0.031 C 
ATOM     61  C   UNL A   1      39.759  31.326  34.530  1.00  0.00     0.037 A 
BRANCH  48  62
ATOM     62  C   UNL A   1      44.414  27.287  34.163  1.00  0.00     0.064 A 
ATOM     63  C   UNL A   1      45.712  27.816  34.155  1.00  0.00     0.173 A 
ATOM     64  C   UNL A   1      44.194  26.092  34.864  1.00  0.00     0.173 A 
ATOM     65  F   UNL A   1      45.976  28.949  33.487  1.00  0.00    -0.203 F 
ATOM     66  C   UNL A   1      46.757  27.159  34.799  1.00  0.00     0.198 A 
ATOM     67  C   UNL A   1      45.236  25.452  35.530  1.00  0.00     0.198 A 
ATOM     68  F   UNL A   1      42.969  25.545  34.905  1.00  0.00    -0.203 F 
ATOM     69  F   UNL A   1      48.000  27.655  34.735  1.00  0.00    -0.200 F 
ATOM     70  C   UNL A   1      46.517  25.981  35.492  1.00  0.00     0.200 A 
ATOM     71  F   UNL A   1      45.000  24.321  36.209  1.00  0.00    -0.200 F 
ATOM     72  F   UNL A   1      47.523  25.351  36.113  1.00  0.00    -0.200 F 
ENDBRANCH  48  62
BRANCH  49  73
ATOM     73  C   UNL A   1      36.819  31.445  29.244  1.00  0.00     0.064 A 
ATOM     74  C   UNL A   1      36.832  32.815  28.943  1.00  0.00     0.173 A 
ATOM     75  C   UNL A   1      35.681  30.709  28.887  1.00  0.00     0.173 A 
ATOM     76  F   UNL A   1      37.886  33.567  29.292  1.00  0.00    -0.203 F 
ATOM     77  C   UNL A   1      35.739  33.429  28.334  1.00  0.00     0.198 A 
ATOM     78  C   UNL A   1      34.600  31.319  28.254  1.00  0.00     0.198 A 
ATOM     79  F   UNL A   1      35.616  29.398  29.158  1.00  0.00    -0.203 F 
ATOM     80  F   UNL A   1      35.754  34.750  28.110  1.00  0.00    -0.200 F 
ATOM     81  C   UNL A   1      34.625  32.679  27.987  1.00  0.00     0.200 A 
ATOM     82  F   UNL A   1      33.528  30.590  27.912  1.00  0.00    -0.200 F 
ATOM     83  F   UNL A   1      33.571  33.270  27.407  1.00  0.00    -0.200 F 
ENDBRANCH  49  73
BRANCH  61  84
ATOM     84  C   UNL A   1      39.370  32.214  35.679  1.00  0.00     0.064 A 
ATOM     85  C   UNL A   1      39.872  33.517  35.813  1.00  0.00     0.173 A 
ATOM     86  C   UNL A   1      38.452  31.763  36.641  1.00  0.00     0.173 A 
ATOM     87  F   UNL A   1      40.761  33.992  34.927  1.00  0.00    -0.203 F 
ATOM     88  C   UNL A   1      39.494  34.324  36.884  1.00  0.00     0.198 A 
ATOM     89  C   UNL A   1      38.052  32.585  37.693  1.00  0.00     0.198 A 
ATOM     90  F   UNL A   1      37.933  30.530  36.556  1.00  0.00    -0.203 F 
ATOM     91  F   UNL A   1      40.028  35.546  37.020  1.00  0.00    -0.200 F 
ATOM     92  C   UNL A   1      38.581  33.860  37.818  1.00  0.00     0.200 A 
ATOM     93  F   UNL A   1      37.157  32.140  38.585  1.00  0.00    -0.200 F 
ATOM     94  F   UNL A   1      38.215  34.640  38.844  1.00  0.00    -0.200 F 
ENDBRANCH  61  84
ENDBRANCH  35  36
ENDBRANCH  28  30
ENDBRANCH  27  28
ENDBRANCH  26  27
ENDBRANCH   1  26
TORSDOF 15
ENDMDL
MODEL 2
REMARK VINA RESULT:     -12.8      4.616      7.465
REMARK SMILES O=C(CSc1cc(-c2ccccc2)nc(-c2ccccc2F)n1)OCCOC(=O)c1ccc(-c2c3nc(c(-c4c(F)c(F)c(F)c(F)c4F)c4ccc([nH]4)c(-c4c(F)c(F)c(F)c(F)c4F)c4nc(c(-c5c(F)c(F)c(F)c(F)c5F)c5ccc2[nH]5)C=C4)C=C3)cc1
REMARK SMILES IDX 25 1 24 2 2 3 1 4 3 5 4 6 5 7 6 8 23 9 7 10 15 11 14 12 8 13
REMARK SMILES IDX 9 14 13 15 10 16 12 17 11 18 16 19 17 20 21 21 18 22 20 23
REMARK SMILES IDX 22 24 19 25 26 26 27 27 28 28 29 29 30 30 31 31 92 32 32 33
REMARK SMILES IDX 91 34 33 35 34 36 35 37 85 38 36 39 90 40 84 41 86 42 37 43
REMARK SMILES IDX 89 44 83 45 82 46 38 48 70 49 50 50 69 51 51 52 54 53 68 54
REMARK SMILES IDX 87 55 52 56 53 57 67 59 88 60 55 61 39 62 40 63 48 64 41 65
REMARK SMILES IDX 42 66 46 67 49 68 43 69 44 70 47 71 45 72 71 73 72 74 80 75
REMARK SMILES IDX 73 76 74 77 78 78 81 79 75 80 76 81 79 82 77 83 56 84 57 85
REMARK SMILES IDX 65 86 58 87 59 88 63 89 66 90 60 91 61 92 64 93 62 94
REMARK H PARENT 86 47 54 58
REMARK Flexibility Score: inf
ROOT
ATOM      1  C   UNL A   1      36.655  22.765  23.688  1.00  0.00     0.274 C 
ENDROOT
BRANCH   1   2
ATOM      2  O   UNL A   1      35.436  23.303  24.240  1.00  0.00    -0.461 OA
BRANCH   2   3
ATOM      3  C   UNL A   1      34.547  24.066  23.555  1.00  0.00     0.316 C 
ATOM      4  O   UNL A   1      34.278  23.791  22.385  1.00  0.00    -0.251 OA
BRANCH   3   5
ATOM      5  C   UNL A   1      33.964  25.293  24.219  1.00  0.00     0.199 C 
BRANCH   5   6
ATOM      6  S   UNL A   1      32.154  25.310  24.254  1.00  0.00    -0.094 SA
BRANCH   6   7
ATOM      7  C   UNL A   1      31.937  27.045  24.518  1.00  0.00     0.101 A 
ATOM      8  C   UNL A   1      30.908  27.699  23.899  1.00  0.00     0.064 A 
ATOM      9  N   UNL A   1      32.806  27.643  25.336  1.00  0.00    -0.222 NA
ATOM     10  C   UNL A   1      30.805  29.046  24.166  1.00  0.00     0.075 A 
ATOM     11  C   UNL A   1      32.610  28.950  25.576  1.00  0.00     0.163 A 
ATOM     12  N   UNL A   1      31.646  29.691  25.000  1.00  0.00    -0.228 NA
BRANCH  10  13
ATOM     13  C   UNL A   1      29.798  29.844  23.468  1.00  0.00     0.000 A 
ATOM     14  C   UNL A   1      29.107  29.302  22.374  1.00  0.00     0.010 A 
ATOM     15  C   UNL A   1      29.412  31.108  23.946  1.00  0.00     0.010 A 
ATOM     16  C   UNL A   1      28.034  29.985  21.799  1.00  0.00     0.001 A 
ATOM     17  C   UNL A   1      28.346  31.795  23.365  1.00  0.00     0.001 A 
ATOM     18  C   UNL A   1      27.650  31.227  22.299  1.00  0.00     0.000 A 
ENDBRANCH  10  13
BRANCH  11  19
ATOM     19  C   UNL A   1      33.555  29.586  26.496  1.00  0.00     0.055 A 
ATOM     20  C   UNL A   1      34.765  28.947  26.839  1.00  0.00     0.015 A 
ATOM     21  C   UNL A   1      33.284  30.815  27.106  1.00  0.00     0.134 A 
ATOM     22  C   UNL A   1      35.665  29.525  27.738  1.00  0.00     0.001 A 
ATOM     23  C   UNL A   1      34.175  31.396  28.011  1.00  0.00     0.040 A 
ATOM     24  F   UNL A   1      32.127  31.456  26.871  1.00  0.00    -0.206 F 
ATOM     25  C   UNL A   1      35.370  30.752  28.325  1.00  0.00     0.003 A 
ENDBRANCH  11  19
ENDBRANCH   6   7
ENDBRANCH   5   6
ENDBRANCH   3   5
ENDBRANCH   2   3
ENDBRANCH   1   2
BRANCH   1  26
ATOM     26  C   UNL A   1      37.125  21.523  24.449  1.00  0.00     0.275 C 
BRANCH  26  27
ATOM     27  O   UNL A   1      37.498  21.869  25.798  1.00  0.00    -0.458 OA
BRANCH  27  28
ATOM     28  C   UNL A   1      38.814  21.723  26.092  1.00  0.00     0.338 C 
ATOM     29  O   UNL A   1      39.540  20.807  25.746  1.00  0.00    -0.246 OA
BRANCH  28  30
ATOM     30  C   UNL A   1      39.310  22.937  26.781  1.00  0.00     0.060 A 
ATOM     31  C   UNL A   1      38.665  24.151  26.512  1.00  0.00     0.016 A 
ATOM     32  C   UNL A   1      40.404  22.905  27.653  1.00  0.00     0.016 A 
ATOM     33  C   UNL A   1      39.158  25.342  27.050  1.00  0.00     0.010 A 
ATOM     34  C   UNL A   1      40.893  24.100  28.197  1.00  0.00     0.010 A 
ATOM     35  C   UNL A   1      40.304  25.330  27.857  1.00  0.00    -0.014 A 
BRANCH  35  36
ATOM     36  C   UNL A   1      40.983  26.612  28.180  1.00  0.00     0.031 A 
ATOM     37  C   UNL A   1      42.408  26.809  27.732  1.00  0.00     0.074 A 
ATOM     38  C   UNL A   1      40.342  27.609  28.817  1.00  0.00     0.049 A 
ATOM     39  N   UNL A   1      43.178  27.864  27.838  1.00  0.00    -0.248 NA
ATOM     40  C   UNL A   1      43.053  25.659  27.079  1.00  0.00     0.031 C 
ATOM     41  C   UNL A   1      38.962  27.562  29.292  1.00  0.00     0.029 A 
ATOM     42  N   UNL A   1      40.777  28.864  29.167  1.00  0.00    -0.354 N 
ATOM     43  C   UNL A   1      44.390  27.506  27.261  1.00  0.00     0.074 A 
ATOM     44  C   UNL A   1      44.272  26.123  26.851  1.00  0.00     0.031 C 
ATOM     45  C   UNL A   1      38.659  28.739  29.866  1.00  0.00     0.029 A 
ATOM     46  C   UNL A   1      39.827  29.617  29.811  1.00  0.00     0.049 A 
ATOM     47  H   UNL A   1      41.685  29.193  28.974  1.00  0.00     0.167 HD
ATOM     48  C   UNL A   1      45.496  28.263  27.068  1.00  0.00     0.037 A 
ATOM     49  C   UNL A   1      39.892  30.875  30.293  1.00  0.00     0.037 A 
ATOM     50  C   UNL A   1      45.621  29.640  27.466  1.00  0.00     0.049 A 
ATOM     51  C   UNL A   1      41.155  31.680  30.114  1.00  0.00     0.074 A 
ATOM     52  C   UNL A   1      46.690  30.499  27.279  1.00  0.00     0.029 A 
ATOM     53  N   UNL A   1      44.646  30.357  28.141  1.00  0.00    -0.354 N 
ATOM     54  N   UNL A   1      42.270  31.356  29.507  1.00  0.00    -0.248 NA
ATOM     55  C   UNL A   1      41.159  33.039  30.679  1.00  0.00     0.031 C 
ATOM     56  C   UNL A   1      46.383  31.719  27.889  1.00  0.00     0.029 A 
ATOM     57  C   UNL A   1      45.101  31.639  28.405  1.00  0.00     0.049 A 
ATOM     58  H   UNL A   1      43.761  30.007  28.396  1.00  0.00     0.167 HD
ATOM     59  C   UNL A   1      43.087  32.480  29.576  1.00  0.00     0.074 A 
ATOM     60  C   UNL A   1      42.337  33.497  30.281  1.00  0.00     0.031 C 
ATOM     61  C   UNL A   1      44.341  32.653  29.092  1.00  0.00     0.037 A 
BRANCH  48  62
ATOM     62  C   UNL A   1      46.672  27.608  26.404  1.00  0.00     0.064 A 
ATOM     63  C   UNL A   1      46.844  27.639  25.012  1.00  0.00     0.173 A 
ATOM     64  C   UNL A   1      47.650  26.962  27.173  1.00  0.00     0.173 A 
ATOM     65  F   UNL A   1      45.928  28.232  24.231  1.00  0.00    -0.203 F 
ATOM     66  C   UNL A   1      47.937  27.020  24.413  1.00  0.00     0.198 A 
ATOM     67  C   UNL A   1      48.757  26.369  26.572  1.00  0.00     0.198 A 
ATOM     68  F   UNL A   1      47.534  26.907  28.509  1.00  0.00    -0.203 F 
ATOM     69  F   UNL A   1      48.055  27.017  23.078  1.00  0.00    -0.200 F 
ATOM     70  C   UNL A   1      48.897  26.391  25.193  1.00  0.00     0.200 A 
ATOM     71  F   UNL A   1      49.689  25.773  27.329  1.00  0.00    -0.200 F 
ATOM     72  F   UNL A   1      49.950  25.799  24.615  1.00  0.00    -0.200 F 
ENDBRANCH  48  62
BRANCH  49  73
ATOM     73  C   UNL A   1      38.715  31.474  30.976  1.00  0.00     0.064 A 
ATOM     74  C   UNL A   1      37.833  32.319  30.285  1.00  0.00     0.173 A 
ATOM     75  C   UNL A   1      38.472  31.252  32.338  1.00  0.00     0.173 A 
ATOM     76  F   UNL A   1      38.042  32.586  28.987  1.00  0.00    -0.203 F 
ATOM     77  C   UNL A   1      36.769  32.938  30.938  1.00  0.00     0.198 A 
ATOM     78  C   UNL A   1      37.391  31.849  32.983  1.00  0.00     0.198 A 
ATOM     79  F   UNL A   1      39.288  30.457  33.045  1.00  0.00    -0.203 F 
ATOM     80  F   UNL A   1      35.976  33.785  30.267  1.00  0.00    -0.200 F 
ATOM     81  C   UNL A   1      36.547  32.699  32.285  1.00  0.00     0.200 A 
ATOM     82  F   UNL A   1      37.174  31.610  34.284  1.00  0.00    -0.200 F 
ATOM     83  F   UNL A   1      35.527  33.298  32.915  1.00  0.00    -0.200 F 
ENDBRANCH  49  73
BRANCH  61  84
ATOM     84  C   UNL A   1      44.970  34.009  29.256  1.00  0.00     0.064 A 
ATOM     85  C   UNL A   1      44.807  35.024  28.301  1.00  0.00     0.173 A 
ATOM     86  C   UNL A   1      45.717  34.307  30.407  1.00  0.00     0.173 A 
ATOM     87  F   UNL A   1      44.112  34.787  27.177  1.00  0.00    -0.203 F 
ATOM     88  C   UNL A   1      45.395  36.274  28.476  1.00  0.00     0.198 A 
ATOM     89  C   UNL A   1      46.276  35.569  30.593  1.00  0.00     0.198 A 
ATOM     90  F   UNL A   1      45.896  33.378  31.357  1.00  0.00    -0.203 F 
ATOM     91  F   UNL A   1      45.270  37.210  27.524  1.00  0.00    -0.200 F 
ATOM     92  C   UNL A   1      46.123  36.548  29.624  1.00  0.00     0.200 A 
ATOM     93  F   UNL A   1      46.966  35.836  31.711  1.00  0.00    -0.200 F 
ATOM     94  F   UNL A   1      46.683  37.753  29.792  1.00  0.00    -0.200 F 
ENDBRANCH  61  84
ENDBRANCH  35  36
ENDBRANCH  28  30
ENDBRANCH  27  28
ENDBRANCH  26  27
ENDBRANCH   1  26
TORSDOF 15
ENDMDL
MODEL 3
REMARK VINA RESULT:     -12.7      5.409     11.474
REMARK SMILES O=C(CSc1cc(-c2ccccc2)nc(-c2ccccc2F)n1)OCCOC(=O)c1ccc(-c2c3nc(c(-c4c(F)c(F)c(F)c(F)c4F)c4ccc([nH]4)c(-c4c(F)c(F)c(F)c(F)c4F)c4nc(c(-c5c(F)c(F)c(F)c(F)c5F)c5ccc2[nH]5)C=C4)C=C3)cc1
REMARK SMILES IDX 25 1 24 2 2 3 1 4 3 5 4 6 5 7 6 8 23 9 7 10 15 11 14 12 8 13
REMARK SMILES IDX 9 14 13 15 10 16 12 17 11 18 16 19 17 20 21 21 18 22 20 23
REMARK SMILES IDX 22 24 19 25 26 26 27 27 28 28 29 29 30 30 31 31 92 32 32 33
REMARK SMILES IDX 91 34 33 35 34 36 35 37 85 38 36 39 90 40 84 41 86 42 37 43
REMARK SMILES IDX 89 44 83 45 82 46 38 48 70 49 50 50 69 51 51 52 54 53 68 54
REMARK SMILES IDX 87 55 52 56 53 57 67 59 88 60 55 61 39 62 40 63 48 64 41 65
REMARK SMILES IDX 42 66 46 67 49 68 43 69 44 70 47 71 45 72 71 73 72 74 80 75
REMARK SMILES IDX 73 76 74 77 78 78 81 79 75 80 76 81 79 82 77 83 56 84 57 85
REMARK SMILES IDX 65 86 58 87 59 88 63 89 66 90 60 91 61 92 64 93 62 94
REMARK H PARENT 86 47 54 58
REMARK Flexibility Score: inf
ROOT
ATOM      1  C   UNL A   1      34.103  34.629  28.977  1.00  0.00     0.274 C 
ENDROOT
BRANCH   1   2
ATOM      2  O   UNL A   1      33.615  34.412  30.317  1.00  0.00    -0.461 OA
BRANCH   2   3
ATOM      3  C   UNL A   1      33.952  35.164  31.395  1.00  0.00     0.316 C 
ATOM      4  O   UNL A   1      33.407  36.253  31.577  1.00  0.00    -0.251 OA
BRANCH   3   5
ATOM      5  C   UNL A   1      35.055  34.683  32.312  1.00  0.00     0.199 C 
BRANCH   5   6
ATOM      6  S   UNL A   1      34.536  33.375  33.450  1.00  0.00    -0.094 SA
BRANCH   6   7
ATOM      7  C   UNL A   1      36.145  32.883  33.996  1.00  0.00     0.101 A 
ATOM      8  C   UNL A   1      36.686  31.715  33.535  1.00  0.00     0.064 A 
ATOM      9  N   UNL A   1      36.768  33.701  34.847  1.00  0.00    -0.222 NA
ATOM     10  C   UNL A   1      37.945  31.412  34.003  1.00  0.00     0.075 A 
ATOM     11  C   UNL A   1      38.010  33.353  35.222  1.00  0.00     0.163 A 
ATOM     12  N   UNL A   1      38.624  32.216  34.847  1.00  0.00    -0.228 NA
BRANCH  10  13
ATOM     13  C   UNL A   1      38.559  30.134  33.643  1.00  0.00     0.000 A 
ATOM     14  C   UNL A   1      37.810  29.162  32.963  1.00  0.00     0.010 A 
ATOM     15  C   UNL A   1      39.929  29.900  33.852  1.00  0.00     0.010 A 
ATOM     16  C   UNL A   1      38.420  28.007  32.471  1.00  0.00     0.001 A 
ATOM     17  C   UNL A   1      40.537  28.741  33.368  1.00  0.00     0.001 A 
ATOM     18  C   UNL A   1      39.784  27.801  32.667  1.00  0.00     0.000 A 
ENDBRANCH  10  13
BRANCH  11  19
ATOM     19  C   UNL A   1      38.691  34.273  36.133  1.00  0.00     0.055 A 
ATOM     20  C   UNL A   1      38.523  34.158  37.529  1.00  0.00     0.015 A 
ATOM     21  C   UNL A   1      39.490  35.323  35.669  1.00  0.00     0.134 A 
ATOM     22  C   UNL A   1      39.143  35.045  38.414  1.00  0.00     0.001 A 
ATOM     23  C   UNL A   1      40.106  36.218  36.546  1.00  0.00     0.040 A 
ATOM     24  F   UNL A   1      39.652  35.529  34.352  1.00  0.00    -0.206 F 
ATOM     25  C   UNL A   1      39.936  36.077  37.921  1.00  0.00     0.003 A 
ENDBRANCH  11  19
ENDBRANCH   6   7
ENDBRANCH   5   6
ENDBRANCH   3   5
ENDBRANCH   2   3
ENDBRANCH   1   2
BRANCH   1  26
ATOM     26  C   UNL A   1      33.980  33.370  28.115  1.00  0.00     0.275 C 
BRANCH  26  27
ATOM     27  O   UNL A   1      34.322  32.198  28.883  1.00  0.00    -0.458 OA
BRANCH  27  28
ATOM     28  C   UNL A   1      34.294  31.027  28.199  1.00  0.00     0.338 C 
ATOM     29  O   UNL A   1      33.386  30.617  27.497  1.00  0.00    -0.246 OA
BRANCH  28  30
ATOM     30  C   UNL A   1      35.612  30.358  28.296  1.00  0.00     0.060 A 
ATOM     31  C   UNL A   1      35.974  29.803  29.530  1.00  0.00     0.016 A 
ATOM     32  C   UNL A   1      36.498  30.296  27.215  1.00  0.00     0.016 A 
ATOM     33  C   UNL A   1      37.246  29.256  29.708  1.00  0.00     0.010 A 
ATOM     34  C   UNL A   1      37.772  29.741  27.393  1.00  0.00     0.010 A 
ATOM     35  C   UNL A   1      38.170  29.264  28.654  1.00  0.00    -0.014 A 
BRANCH  35  36
ATOM     36  C   UNL A   1      39.597  28.953  28.931  1.00  0.00     0.031 A 
ATOM     37  C   UNL A   1      40.401  29.920  29.761  1.00  0.00     0.074 A 
ATOM     38  C   UNL A   1      40.167  27.813  28.500  1.00  0.00     0.049 A 
ATOM     39  N   UNL A   1      41.637  29.826  30.188  1.00  0.00    -0.248 NA
ATOM     40  C   UNL A   1      39.721  31.162  30.160  1.00  0.00     0.031 C 
ATOM     41  C   UNL A   1      39.504  26.783  27.704  1.00  0.00     0.029 A 
ATOM     42  N   UNL A   1      41.441  27.331  28.682  1.00  0.00    -0.354 N 
ATOM     43  C   UNL A   1      41.875  30.990  30.909  1.00  0.00     0.074 A 
ATOM     44  C   UNL A   1      40.677  31.796  30.821  1.00  0.00     0.031 C 
ATOM     45  C   UNL A   1      40.375  25.786  27.471  1.00  0.00     0.029 A 
ATOM     46  C   UNL A   1      41.659  26.112  28.090  1.00  0.00     0.049 A 
ATOM     47  H   UNL A   1      42.131  27.815  29.190  1.00  0.00     0.167 HD
ATOM     48  C   UNL A   1      42.983  31.348  31.601  1.00  0.00     0.037 A 
ATOM     49  C   UNL A   1      42.769  25.345  28.060  1.00  0.00     0.037 A 
ATOM     50  C   UNL A   1      44.176  30.552  31.699  1.00  0.00     0.049 A 
ATOM     51  C   UNL A   1      44.008  25.793  28.793  1.00  0.00     0.074 A 
ATOM     52  C   UNL A   1      45.335  30.817  32.408  1.00  0.00     0.029 A 
ATOM     53  N   UNL A   1      44.368  29.336  31.061  1.00  0.00    -0.354 N 
ATOM     54  N   UNL A   1      44.201  26.861  29.527  1.00  0.00    -0.248 NA
ATOM     55  C   UNL A   1      45.184  24.913  28.703  1.00  0.00     0.031 C 
ATOM     56  C   UNL A   1      46.249  29.788  32.155  1.00  0.00     0.029 A 
ATOM     57  C   UNL A   1      45.638  28.854  31.336  1.00  0.00     0.049 A 
ATOM     58  H   UNL A   1      43.701  28.883  30.496  1.00  0.00     0.167 HD
ATOM     59  C   UNL A   1      45.497  26.759  30.022  1.00  0.00     0.074 A 
ATOM     60  C   UNL A   1      46.043  25.523  29.507  1.00  0.00     0.031 C 
ATOM     61  C   UNL A   1      46.169  27.612  30.835  1.00  0.00     0.037 A 
BRANCH  48  62
ATOM     62  C   UNL A   1      42.958  32.677  32.298  1.00  0.00     0.064 A 
ATOM     63  C   UNL A   1      43.153  33.879  31.602  1.00  0.00     0.173 A 
ATOM     64  C   UNL A   1      42.712  32.749  33.677  1.00  0.00     0.173 A 
ATOM     65  F   UNL A   1      43.406  33.863  30.285  1.00  0.00    -0.203 F 
ATOM     66  C   UNL A   1      43.133  35.102  32.266  1.00  0.00     0.198 A 
ATOM     67  C   UNL A   1      42.663  33.976  34.333  1.00  0.00     0.198 A 
ATOM     68  F   UNL A   1      42.515  31.628  34.390  1.00  0.00    -0.203 F 
ATOM     69  F   UNL A   1      43.373  36.235  31.591  1.00  0.00    -0.200 F 
ATOM     70  C   UNL A   1      42.881  35.151  33.630  1.00  0.00     0.200 A 
ATOM     71  F   UNL A   1      42.408  34.021  35.648  1.00  0.00    -0.200 F 
ATOM     72  F   UNL A   1      42.859  36.329  34.267  1.00  0.00    -0.200 F 
ENDBRANCH  48  62
BRANCH  49  73
ATOM     73  C   UNL A   1      42.761  24.052  27.327  1.00  0.00     0.064 A 
ATOM     74  C   UNL A   1      42.444  22.853  27.983  1.00  0.00     0.173 A 
ATOM     75  C   UNL A   1      43.111  23.980  25.972  1.00  0.00     0.173 A 
ATOM     76  F   UNL A   1      42.131  22.866  29.288  1.00  0.00    -0.203 F 
ATOM     77  C   UNL A   1      42.503  21.630  27.318  1.00  0.00     0.198 A 
ATOM     78  C   UNL A   1      43.142  22.760  25.300  1.00  0.00     0.198 A 
ATOM     79  F   UNL A   1      43.428  25.096  25.300  1.00  0.00    -0.203 F 
ATOM     80  F   UNL A   1      42.251  20.495  27.983  1.00  0.00    -0.200 F 
ATOM     81  C   UNL A   1      42.848  21.585  25.976  1.00  0.00     0.200 A 
ATOM     82  F   UNL A   1      43.469  22.721  24.001  1.00  0.00    -0.200 F 
ATOM     83  F   UNL A   1      42.911  20.409  25.337  1.00  0.00    -0.200 F 
ENDBRANCH  49  73
BRANCH  61  84
ATOM     84  C   UNL A   1      47.553  27.215  31.267  1.00  0.00     0.064 A 
ATOM     85  C   UNL A   1      47.775  26.380  32.372  1.00  0.00     0.173 A 
ATOM     86  C   UNL A   1      48.673  27.652  30.541  1.00  0.00     0.173 A 
ATOM     87  F   UNL A   1      46.740  25.944  33.107  1.00  0.00    -0.203 F 
ATOM     88  C   UNL A   1      49.066  26.022  32.753  1.00  0.00     0.198 A 
ATOM     89  C   UNL A   1      49.960  27.266  30.906  1.00  0.00     0.198 A 
ATOM     90  F   UNL A   1      48.518  28.444  29.470  1.00  0.00    -0.203 F 
ATOM     91  F   UNL A   1      49.256  25.265  33.843  1.00  0.00    -0.200 F 
ATOM     92  C   UNL A   1      50.156  26.459  32.016  1.00  0.00     0.200 A 
ATOM     93  F   UNL A   1      51.011  27.676  30.182  1.00  0.00    -0.200 F 
ATOM     94  F   UNL A   1      51.397  26.109  32.381  1.00  0.00    -0.200 F 
ENDBRANCH  61  84
ENDBRANCH  35  36
ENDBRANCH  28  30
ENDBRANCH  27  28
ENDBRANCH  26  27
ENDBRANCH   1  26
TORSDOF 15
ENDMDL
