MODEL 1
REMARK VINA RESULT:     -12.0      0.000      0.000
REMARK SMILES C[C@H]1SC[C@H](C(=O)OCCOC(=O)c2ccc(-c3c4nc(c(-c5c(F)c(F)c(F)c(F)c5F)c5ccc([nH]5)c(-c5c(F)c(F)c(F)c(F)c5F)c5nc(c(-c6c(F)c(F)c(F)c(F)c6F)c6ccc3[nH]6)C=C5)C=C4)cc2)N1C(=O)[C@@H]1CSc2ccccc21
REMARK SMILES IDX 9 1 8 2 6 3 7 4 5 5 1 6 2 7 3 8 77 9 4 10 78 11 79 12 80 13
REMARK SMILES IDX 81 14 88 15 82 16 83 17 87 18 84 19 86 20 85 21 10 22 11 23
REMARK SMILES IDX 12 24 13 25 14 26 15 27 76 28 16 29 75 30 17 31 18 32 19 33
REMARK SMILES IDX 69 34 20 35 74 36 68 37 70 38 21 39 73 40 67 41 66 42 22 44
REMARK SMILES IDX 54 45 34 46 53 47 35 48 38 49 52 50 71 51 36 52 37 53 51 55
REMARK SMILES IDX 72 56 39 57 23 58 24 59 32 60 25 61 26 62 30 63 33 64 27 65
REMARK SMILES IDX 28 66 31 67 29 68 55 69 56 70 64 71 57 72 58 73 62 74 65 75
REMARK SMILES IDX 59 76 60 77 63 78 61 79 40 80 41 81 49 82 42 83 43 84 47 85
REMARK SMILES IDX 50 86 44 87 45 88 48 89 46 90
REMARK H PARENT 70 43 38 54
REMARK Flexibility Score: inf
ROOT
ATOM      1  C   UNL A   1      31.753  28.917  27.260  1.00  0.00     0.274 C 
ENDROOT
BRANCH   1   2
ATOM      2  O   UNL A   1      32.478  27.989  26.430  1.00  0.00    -0.461 OA
BRANCH   2   3
ATOM      3  C   UNL A   1      31.724  27.229  25.592  1.00  0.00     0.329 C 
ATOM      4  O   UNL A   1      30.672  26.680  25.907  1.00  0.00    -0.250 OA
BRANCH   3   5
ATOM      5  C   UNL A   1      32.293  27.167  24.163  1.00  0.00     0.206 C 
ATOM      6  C   UNL A   1      32.596  25.938  21.312  1.00  0.00     0.043 C 
ATOM      7  C   UNL A   1      33.650  26.373  22.335  1.00  0.00     0.141 C 
ATOM      8  S   UNL A   1      33.833  28.179  22.208  1.00  0.00    -0.135 SA
ATOM      9  N   UNL A   1      33.238  26.129  23.713  1.00  0.00    -0.316 N 
ATOM     10  C   UNL A   1      32.812  28.521  23.670  1.00  0.00     0.109 C 
BRANCH   9  11
ATOM     11  C   UNL A   1      33.556  25.045  24.507  1.00  0.00     0.232 C 
ATOM     12  O   UNL A   1      34.020  25.212  25.640  1.00  0.00    -0.274 OA
BRANCH  11  13
ATOM     13  C   UNL A   1      33.432  23.601  24.011  1.00  0.00     0.120 C 
ATOM     14  C   UNL A   1      32.243  22.870  24.652  1.00  0.00     0.093 C 
ATOM     15  C   UNL A   1      34.675  22.765  24.147  1.00  0.00    -0.021 A 
ATOM     16  S   UNL A   1      32.819  21.255  25.280  1.00  0.00    -0.125 SA
ATOM     17  C   UNL A   1      34.497  21.557  24.821  1.00  0.00     0.011 A 
ATOM     18  C   UNL A   1      35.929  23.108  23.641  1.00  0.00     0.006 A 
ATOM     19  C   UNL A   1      35.573  20.725  25.088  1.00  0.00     0.015 A 
ATOM     20  C   UNL A   1      37.014  22.268  23.893  1.00  0.00     0.000 A 
ATOM     21  C   UNL A   1      36.841  21.091  24.630  1.00  0.00     0.001 A 
ENDBRANCH  11  13
ENDBRANCH   9  11
ENDBRANCH   3   5
ENDBRANCH   2   3
ENDBRANCH   1   2
BRANCH   1  22
ATOM     22  C   UNL A   1      31.783  30.338  26.683  1.00  0.00     0.275 C 
BRANCH  22  23
ATOM     23  O   UNL A   1      33.124  30.805  26.426  1.00  0.00    -0.458 OA
BRANCH  23  24
ATOM     24  C   UNL A   1      33.561  31.784  27.251  1.00  0.00     0.338 C 
ATOM     25  O   UNL A   1      32.958  32.795  27.571  1.00  0.00    -0.246 OA
BRANCH  24  26
ATOM     26  C   UNL A   1      34.839  31.407  27.877  1.00  0.00     0.060 A 
ATOM     27  C   UNL A   1      34.957  30.108  28.378  1.00  0.00     0.016 A 
ATOM     28  C   UNL A   1      35.871  32.327  28.061  1.00  0.00     0.016 A 
ATOM     29  C   UNL A   1      36.100  29.712  29.061  1.00  0.00     0.010 A 
ATOM     30  C   UNL A   1      37.021  31.933  28.757  1.00  0.00     0.010 A 
ATOM     31  C   UNL A   1      37.137  30.627  29.266  1.00  0.00    -0.014 A 
BRANCH  31  32
ATOM     32  C   UNL A   1      38.310  30.218  30.071  1.00  0.00     0.031 A 
ATOM     33  C   UNL A   1      39.328  29.288  29.480  1.00  0.00     0.074 A 
ATOM     34  C   UNL A   1      38.484  30.720  31.306  1.00  0.00     0.049 A 
ATOM     35  N   UNL A   1      40.377  28.743  30.041  1.00  0.00    -0.248 NA
ATOM     36  C   UNL A   1      39.140  28.925  28.067  1.00  0.00     0.031 C 
ATOM     37  C   UNL A   1      37.600  31.688  31.955  1.00  0.00     0.029 A 
ATOM     38  N   UNL A   1      39.465  30.483  32.236  1.00  0.00    -0.354 N 
ATOM     39  C   UNL A   1      40.962  27.956  29.059  1.00  0.00     0.074 A 
ATOM     40  C   UNL A   1      40.149  28.087  27.869  1.00  0.00     0.031 C 
ATOM     41  C   UNL A   1      38.077  31.959  33.181  1.00  0.00     0.029 A 
ATOM     42  C   UNL A   1      39.268  31.149  33.419  1.00  0.00     0.049 A 
ATOM     43  H   UNL A   1      40.235  29.893  32.069  1.00  0.00     0.167 HD
ATOM     44  C   UNL A   1      42.078  27.193  29.148  1.00  0.00     0.037 A 
ATOM     45  C   UNL A   1      39.955  31.086  34.576  1.00  0.00     0.037 A 
ATOM     46  C   UNL A   1      42.890  27.081  30.330  1.00  0.00     0.049 A 
ATOM     47  C   UNL A   1      41.151  30.176  34.669  1.00  0.00     0.074 A 
ATOM     48  C   UNL A   1      44.039  26.332  30.523  1.00  0.00     0.029 A 
ATOM     49  N   UNL A   1      42.637  27.739  31.526  1.00  0.00    -0.354 N 
ATOM     50  N   UNL A   1      41.685  29.415  33.746  1.00  0.00    -0.248 NA
ATOM     51  C   UNL A   1      41.835  30.114  35.969  1.00  0.00     0.031 C 
ATOM     52  C   UNL A   1      44.460  26.509  31.846  1.00  0.00     0.029 A 
ATOM     53  C   UNL A   1      43.597  27.400  32.465  1.00  0.00     0.049 A 
ATOM     54  H   UNL A   1      41.886  28.355  31.684  1.00  0.00     0.167 HD
ATOM     55  C   UNL A   1      42.774  28.796  34.345  1.00  0.00     0.074 A 
ATOM     56  C   UNL A   1      42.834  29.283  35.707  1.00  0.00     0.031 C 
ATOM     57  C   UNL A   1      43.644  27.902  33.814  1.00  0.00     0.037 A 
BRANCH  44  58
ATOM     58  C   UNL A   1      42.463  26.391  27.942  1.00  0.00     0.064 A 
ATOM     59  C   UNL A   1      43.397  26.861  27.009  1.00  0.00     0.173 A 
ATOM     60  C   UNL A   1      41.908  25.119  27.735  1.00  0.00     0.173 A 
ATOM     61  F   UNL A   1      43.943  28.078  27.155  1.00  0.00    -0.203 F 
ATOM     62  C   UNL A   1      43.746  26.095  25.899  1.00  0.00     0.198 A 
ATOM     63  C   UNL A   1      42.277  24.346  26.637  1.00  0.00     0.198 A 
ATOM     64  F   UNL A   1      41.010  24.623  28.601  1.00  0.00    -0.203 F 
ATOM     65  F   UNL A   1      44.611  26.580  24.998  1.00  0.00    -0.200 F 
ATOM     66  C   UNL A   1      43.192  24.837  25.718  1.00  0.00     0.200 A 
ATOM     67  F   UNL A   1      41.746  23.127  26.469  1.00  0.00    -0.200 F 
ATOM     68  F   UNL A   1      43.532  24.099  24.652  1.00  0.00    -0.200 F 
ENDBRANCH  44  58
BRANCH  45  69
ATOM     69  C   UNL A   1      39.508  31.881  35.747  1.00  0.00     0.064 A 
ATOM     70  C   UNL A   1      38.499  31.411  36.597  1.00  0.00     0.173 A 
ATOM     71  C   UNL A   1      40.079  33.130  36.036  1.00  0.00     0.173 A 
ATOM     72  F   UNL A   1      37.905  30.235  36.345  1.00  0.00    -0.203 F 
ATOM     73  C   UNL A   1      38.067  32.166  37.687  1.00  0.00     0.198 A 
ATOM     74  C   UNL A   1      39.666  33.872  37.141  1.00  0.00     0.198 A 
ATOM     75  F   UNL A   1      41.045  33.626  35.250  1.00  0.00    -0.203 F 
ATOM     76  F   UNL A   1      37.072  31.714  38.461  1.00  0.00    -0.200 F 
ATOM     77  C   UNL A   1      38.656  33.392  37.961  1.00  0.00     0.200 A 
ATOM     78  F   UNL A   1      40.243  35.051  37.408  1.00  0.00    -0.200 F 
ATOM     79  F   UNL A   1      38.243  34.116  39.011  1.00  0.00    -0.200 F 
ENDBRANCH  45  69
BRANCH  57  80
ATOM     80  C   UNL A   1      44.752  27.418  34.701  1.00  0.00     0.064 A 
ATOM     81  C   UNL A   1      45.966  28.113  34.803  1.00  0.00     0.173 A 
ATOM     82  C   UNL A   1      44.581  26.269  35.487  1.00  0.00     0.173 A 
ATOM     83  F   UNL A   1      46.181  29.208  34.059  1.00  0.00    -0.203 F 
ATOM     84  C   UNL A   1      46.979  27.661  35.645  1.00  0.00     0.198 A 
ATOM     85  C   UNL A   1      45.586  25.835  36.346  1.00  0.00     0.198 A 
ATOM     86  F   UNL A   1      43.435  25.573  35.429  1.00  0.00    -0.203 F 
ATOM     87  F   UNL A   1      48.147  28.316  35.696  1.00  0.00    -0.200 F 
ATOM     88  C   UNL A   1      46.785  26.526  36.420  1.00  0.00     0.200 A 
ATOM     89  F   UNL A   1      45.395  24.744  37.102  1.00  0.00    -0.200 F 
ATOM     90  F   UNL A   1      47.760  26.097  37.234  1.00  0.00    -0.200 F 
ENDBRANCH  57  80
ENDBRANCH  31  32
ENDBRANCH  24  26
ENDBRANCH  23  24
ENDBRANCH  22  23
ENDBRANCH   1  22
TORSDOF 13
ENDMDL
MODEL 2
REMARK VINA RESULT:     -11.8      4.227      9.818
REMARK SMILES C[C@H]1SC[C@H](C(=O)OCCOC(=O)c2ccc(-c3c4nc(c(-c5c(F)c(F)c(F)c(F)c5F)c5ccc([nH]5)c(-c5c(F)c(F)c(F)c(F)c5F)c5nc(c(-c6c(F)c(F)c(F)c(F)c6F)c6ccc3[nH]6)C=C5)C=C4)cc2)N1C(=O)[C@@H]1CSc2ccccc21
REMARK SMILES IDX 9 1 8 2 6 3 7 4 5 5 1 6 2 7 3 8 77 9 4 10 78 11 79 12 80 13
REMARK SMILES IDX 81 14 88 15 82 16 83 17 87 18 84 19 86 20 85 21 10 22 11 23
REMARK SMILES IDX 12 24 13 25 14 26 15 27 76 28 16 29 75 30 17 31 18 32 19 33
REMARK SMILES IDX 69 34 20 35 74 36 68 37 70 38 21 39 73 40 67 41 66 42 22 44
REMARK SMILES IDX 54 45 34 46 53 47 35 48 38 49 52 50 71 51 36 52 37 53 51 55
REMARK SMILES IDX 72 56 39 57 23 58 24 59 32 60 25 61 26 62 30 63 33 64 27 65
REMARK SMILES IDX 28 66 31 67 29 68 55 69 56 70 64 71 57 72 58 73 62 74 65 75
REMARK SMILES IDX 59 76 60 77 63 78 61 79 40 80 41 81 49 82 42 83 43 84 47 85
REMARK SMILES IDX 50 86 44 87 45 88 48 89 46 90
REMARK H PARENT 70 43 38 54
REMARK Flexibility Score: inf
ROOT
ATOM      1  C   UNL A   1      36.764  22.576  23.472  1.00  0.00     0.274 C 
ENDROOT
BRANCH   1   2
ATOM      2  O   UNL A   1      35.769  23.381  24.132  1.00  0.00    -0.461 OA
BRANCH   2   3
ATOM      3  C   UNL A   1      34.490  23.211  23.704  1.00  0.00     0.329 C 
ATOM      4  O   UNL A   1      34.157  23.117  22.526  1.00  0.00    -0.250 OA
BRANCH   3   5
ATOM      5  C   UNL A   1      33.482  23.088  24.861  1.00  0.00     0.206 C 
ATOM      6  C   UNL A   1      30.627  23.145  26.116  1.00  0.00     0.043 C 
ATOM      7  C   UNL A   1      31.930  23.819  26.555  1.00  0.00     0.141 C 
ATOM      8  S   UNL A   1      32.925  22.580  27.439  1.00  0.00    -0.135 SA
ATOM      9  N   UNL A   1      32.759  24.239  25.430  1.00  0.00    -0.316 N 
ATOM     10  C   UNL A   1      34.012  22.244  26.024  1.00  0.00     0.109 C 
BRANCH   9  11
ATOM     11  C   UNL A   1      32.822  25.492  24.853  1.00  0.00     0.232 C 
ATOM     12  O   UNL A   1      33.905  25.957  24.482  1.00  0.00    -0.274 OA
BRANCH  11  13
ATOM     13  C   UNL A   1      31.593  26.395  24.716  1.00  0.00     0.120 C 
ATOM     14  C   UNL A   1      31.272  26.717  23.248  1.00  0.00     0.093 C 
ATOM     15  C   UNL A   1      31.636  27.668  25.516  1.00  0.00    -0.021 A 
ATOM     16  S   UNL A   1      31.029  28.518  23.084  1.00  0.00    -0.125 SA
ATOM     17  C   UNL A   1      31.407  28.831  24.780  1.00  0.00     0.011 A 
ATOM     18  C   UNL A   1      31.862  27.741  26.891  1.00  0.00     0.006 A 
ATOM     19  C   UNL A   1      31.497  30.080  25.375  1.00  0.00     0.015 A 
ATOM     20  C   UNL A   1      31.939  28.994  27.500  1.00  0.00     0.000 A 
ATOM     21  C   UNL A   1      31.777  30.159  26.742  1.00  0.00     0.001 A 
ENDBRANCH  11  13
ENDBRANCH   9  11
ENDBRANCH   3   5
ENDBRANCH   2   3
ENDBRANCH   1   2
BRANCH   1  22
ATOM     22  C   UNL A   1      37.219  21.402  24.349  1.00  0.00     0.275 C 
BRANCH  22  23
ATOM     23  O   UNL A   1      37.515  21.803  25.703  1.00  0.00    -0.458 OA
BRANCH  23  24
ATOM     24  C   UNL A   1      38.769  21.521  26.126  1.00  0.00     0.338 C 
ATOM     25  O   UNL A   1      39.363  20.463  26.001  1.00  0.00    -0.246 OA
BRANCH  24  26
ATOM     26  C   UNL A   1      39.431  22.732  26.638  1.00  0.00     0.060 A 
ATOM     27  C   UNL A   1      39.012  23.965  26.129  1.00  0.00     0.016 A 
ATOM     28  C   UNL A   1      40.506  22.668  27.524  1.00  0.00     0.016 A 
ATOM     29  C   UNL A   1      39.652  25.140  26.498  1.00  0.00     0.010 A 
ATOM     30  C   UNL A   1      41.160  23.851  27.891  1.00  0.00     0.010 A 
ATOM     31  C   UNL A   1      40.741  25.090  27.374  1.00  0.00    -0.014 A 
BRANCH  31  32
ATOM     32  C   UNL A   1      41.469  26.340  27.691  1.00  0.00     0.031 A 
ATOM     33  C   UNL A   1      40.793  27.410  28.495  1.00  0.00     0.074 A 
ATOM     34  C   UNL A   1      42.747  26.489  27.299  1.00  0.00     0.049 A 
ATOM     35  N   UNL A   1      41.220  28.607  28.808  1.00  0.00    -0.248 NA
ATOM     36  C   UNL A   1      39.457  27.089  29.020  1.00  0.00     0.031 C 
ATOM     37  C   UNL A   1      43.530  25.486  26.577  1.00  0.00     0.029 A 
ATOM     38  N   UNL A   1      43.611  27.543  27.455  1.00  0.00    -0.354 N 
ATOM     39  C   UNL A   1      40.200  29.190  29.546  1.00  0.00     0.074 A 
ATOM     40  C   UNL A   1      39.128  28.220  29.629  1.00  0.00     0.031 C 
ATOM     41  C   UNL A   1      44.758  25.977  26.347  1.00  0.00     0.029 A 
ATOM     42  C   UNL A   1      44.832  27.341  26.862  1.00  0.00     0.049 A 
ATOM     43  H   UNL A   1      43.377  28.365  27.944  1.00  0.00     0.167 HD
ATOM     44  C   UNL A   1      40.164  30.424  30.102  1.00  0.00     0.037 A 
ATOM     45  C   UNL A   1      45.878  28.177  26.723  1.00  0.00     0.037 A 
ATOM     46  C   UNL A   1      41.240  31.377  30.028  1.00  0.00     0.049 A 
ATOM     47  C   UNL A   1      45.786  29.569  27.290  1.00  0.00     0.074 A 
ATOM     48  C   UNL A   1      41.301  32.655  30.556  1.00  0.00     0.029 A 
ATOM     49  N   UNL A   1      42.448  31.153  29.383  1.00  0.00    -0.354 N 
ATOM     50  N   UNL A   1      44.809  30.124  27.964  1.00  0.00    -0.248 NA
ATOM     51  C   UNL A   1      46.940  30.451  27.068  1.00  0.00     0.031 C 
ATOM     52  C   UNL A   1      42.531  33.218  30.199  1.00  0.00     0.029 A 
ATOM     53  C   UNL A   1      43.254  32.275  29.484  1.00  0.00     0.049 A 
ATOM     54  H   UNL A   1      42.696  30.320  28.921  1.00  0.00     0.167 HD
ATOM     55  C   UNL A   1      45.233  31.411  28.262  1.00  0.00     0.074 A 
ATOM     56  C   UNL A   1      46.564  31.550  27.709  1.00  0.00     0.031 C 
ATOM     57  C   UNL A   1      44.579  32.391  28.932  1.00  0.00     0.037 A 
BRANCH  44  58
ATOM     58  C   UNL A   1      38.904  30.828  30.807  1.00  0.00     0.064 A 
ATOM     59  C   UNL A   1      38.761  30.700  32.195  1.00  0.00     0.173 A 
ATOM     60  C   UNL A   1      37.835  31.377  30.082  1.00  0.00     0.173 A 
ATOM     61  F   UNL A   1      39.748  30.165  32.929  1.00  0.00    -0.203 F 
ATOM     62  C   UNL A   1      37.584  31.089  32.831  1.00  0.00     0.198 A 
ATOM     63  C   UNL A   1      36.670  31.787  30.724  1.00  0.00     0.198 A 
ATOM     64  F   UNL A   1      37.924  31.522  28.751  1.00  0.00    -0.203 F 
ATOM     65  F   UNL A   1      37.453  30.920  34.154  1.00  0.00    -0.200 F 
ATOM     66  C   UNL A   1      36.544  31.637  32.097  1.00  0.00     0.200 A 
ATOM     67  F   UNL A   1      35.669  32.324  30.013  1.00  0.00    -0.200 F 
ATOM     68  F   UNL A   1      35.413  32.014  32.711  1.00  0.00    -0.200 F 
ENDBRANCH  44  58
BRANCH  45  69
ATOM     69  C   UNL A   1      47.089  27.732  25.987  1.00  0.00     0.064 A 
ATOM     70  C   UNL A   1      47.141  27.775  24.589  1.00  0.00     0.173 A 
ATOM     71  C   UNL A   1      48.216  27.250  26.670  1.00  0.00     0.173 A 
ATOM     72  F   UNL A   1      46.078  28.203  23.891  1.00  0.00    -0.203 F 
ATOM     73  C   UNL A   1      48.272  27.340  23.898  1.00  0.00     0.198 A 
ATOM     74  C   UNL A   1      49.355  26.841  25.981  1.00  0.00     0.198 A 
ATOM     75  F   UNL A   1      48.213  27.184  28.010  1.00  0.00    -0.203 F 
ATOM     76  F   UNL A   1      48.281  27.353  22.558  1.00  0.00    -0.200 F 
ATOM     77  C   UNL A   1      49.380  26.881  24.595  1.00  0.00     0.200 A 
ATOM     78  F   UNL A   1      50.426  26.406  26.658  1.00  0.00    -0.200 F 
ATOM     79  F   UNL A   1      50.467  26.467  23.930  1.00  0.00    -0.200 F 
ENDBRANCH  45  69
BRANCH  57  80
ATOM     80  C   UNL A   1      45.306  33.688  29.128  1.00  0.00     0.064 A 
ATOM     81  C   UNL A   1      46.147  33.897  30.231  1.00  0.00     0.173 A 
ATOM     82  C   UNL A   1      45.191  34.716  28.182  1.00  0.00     0.173 A 
ATOM     83  F   UNL A   1      46.277  32.948  31.171  1.00  0.00    -0.203 F 
ATOM     84  C   UNL A   1      46.830  35.100  30.390  1.00  0.00     0.198 A 
ATOM     85  C   UNL A   1      45.895  35.907  28.331  1.00  0.00     0.198 A 
ATOM     86  F   UNL A   1      44.403  34.561  27.106  1.00  0.00    -0.203 F 
ATOM     87  F   UNL A   1      47.595  35.296  31.473  1.00  0.00    -0.200 F 
ATOM     88  C   UNL A   1      46.707  36.101  29.437  1.00  0.00     0.200 A 
ATOM     89  F   UNL A   1      45.784  36.870  27.404  1.00  0.00    -0.200 F 
ATOM     90  F   UNL A   1      47.371  37.256  29.590  1.00  0.00    -0.200 F 
ENDBRANCH  57  80
ENDBRANCH  31  32
ENDBRANCH  24  26
ENDBRANCH  23  24
ENDBRANCH  22  23
ENDBRANCH   1  22
TORSDOF 13
ENDMDL
MODEL 3
REMARK VINA RESULT:     -11.8      1.386      7.502
REMARK SMILES C[C@H]1SC[C@H](C(=O)OCCOC(=O)c2ccc(-c3c4nc(c(-c5c(F)c(F)c(F)c(F)c5F)c5ccc([nH]5)c(-c5c(F)c(F)c(F)c(F)c5F)c5nc(c(-c6c(F)c(F)c(F)c(F)c6F)c6ccc3[nH]6)C=C5)C=C4)cc2)N1C(=O)[C@@H]1CSc2ccccc21
REMARK SMILES IDX 9 1 8 2 6 3 7 4 5 5 1 6 2 7 3 8 77 9 4 10 78 11 79 12 80 13
REMARK SMILES IDX 81 14 88 15 82 16 83 17 87 18 84 19 86 20 85 21 10 22 11 23
REMARK SMILES IDX 12 24 13 25 14 26 15 27 76 28 16 29 75 30 17 31 18 32 19 33
REMARK SMILES IDX 69 34 20 35 74 36 68 37 70 38 21 39 73 40 67 41 66 42 22 44
REMARK SMILES IDX 54 45 34 46 53 47 35 48 38 49 52 50 71 51 36 52 37 53 51 55
REMARK SMILES IDX 72 56 39 57 23 58 24 59 32 60 25 61 26 62 30 63 33 64 27 65
REMARK SMILES IDX 28 66 31 67 29 68 55 69 56 70 64 71 57 72 58 73 62 74 65 75
REMARK SMILES IDX 59 76 60 77 63 78 61 79 40 80 41 81 49 82 42 83 43 84 47 85
REMARK SMILES IDX 50 86 44 87 45 88 48 89 46 90
REMARK H PARENT 70 43 38 54
REMARK Flexibility Score: inf
ROOT
ATOM      1  C   UNL A   1      31.024  31.636  25.872  1.00  0.00     0.274 C 
ENDROOT
BRANCH   1   2
ATOM      2  O   UNL A   1      31.407  30.315  26.300  1.00  0.00    -0.461 OA
BRANCH   2   3
ATOM      3  C   UNL A   1      32.176  29.609  25.429  1.00  0.00     0.329 C 
ATOM      4  O   UNL A   1      33.401  29.678  25.370  1.00  0.00    -0.250 OA
BRANCH   3   5
ATOM      5  C   UNL A   1      31.358  28.652  24.544  1.00  0.00     0.206 C 
ATOM      6  C   UNL A   1      28.893  26.861  23.877  1.00  0.00     0.043 C 
ATOM      7  C   UNL A   1      30.394  26.568  23.810  1.00  0.00     0.141 C 
ATOM      8  S   UNL A   1      31.030  27.277  22.260  1.00  0.00    -0.135 SA
ATOM      9  N   UNL A   1      31.150  27.230  24.868  1.00  0.00    -0.316 N 
ATOM     10  C   UNL A   1      31.731  28.748  23.062  1.00  0.00     0.109 C 
BRANCH   9  11
ATOM     11  C   UNL A   1      31.549  26.696  26.078  1.00  0.00     0.232 C 
ATOM     12  O   UNL A   1      31.029  27.076  27.132  1.00  0.00    -0.274 OA
BRANCH  11  13
ATOM     13  C   UNL A   1      32.692  25.683  26.190  1.00  0.00     0.120 C 
ATOM     14  C   UNL A   1      33.916  26.097  25.360  1.00  0.00     0.093 C 
ATOM     15  C   UNL A   1      32.324  24.259  25.875  1.00  0.00    -0.021 A 
ATOM     16  S   UNL A   1      34.453  24.669  24.357  1.00  0.00    -0.125 SA
ATOM     17  C   UNL A   1      33.127  23.645  24.914  1.00  0.00     0.011 A 
ATOM     18  C   UNL A   1      31.285  23.549  26.478  1.00  0.00     0.006 A 
ATOM     19  C   UNL A   1      32.851  22.361  24.469  1.00  0.00     0.015 A 
ATOM     20  C   UNL A   1      31.011  22.251  26.046  1.00  0.00     0.000 A 
ATOM     21  C   UNL A   1      31.778  21.666  25.032  1.00  0.00     0.001 A 
ENDBRANCH  11  13
ENDBRANCH   9  11
ENDBRANCH   3   5
ENDBRANCH   2   3
ENDBRANCH   1   2
BRANCH   1  22
ATOM     22  C   UNL A   1      31.701  32.725  26.714  1.00  0.00     0.275 C 
BRANCH  22  23
ATOM     23  O   UNL A   1      32.856  32.236  27.428  1.00  0.00    -0.458 OA
BRANCH  23  24
ATOM     24  C   UNL A   1      33.806  33.164  27.689  1.00  0.00     0.338 C 
ATOM     25  O   UNL A   1      33.684  34.375  27.626  1.00  0.00    -0.246 OA
BRANCH  24  26
ATOM     26  C   UNL A   1      35.017  32.529  28.237  1.00  0.00     0.060 A 
ATOM     27  C   UNL A   1      34.901  31.224  28.723  1.00  0.00     0.016 A 
ATOM     28  C   UNL A   1      36.220  33.222  28.366  1.00  0.00     0.016 A 
ATOM     29  C   UNL A   1      35.979  30.596  29.335  1.00  0.00     0.010 A 
ATOM     30  C   UNL A   1      37.305  32.595  28.991  1.00  0.00     0.010 A 
ATOM     31  C   UNL A   1      37.187  31.283  29.485  1.00  0.00    -0.014 A 
BRANCH  31  32
ATOM     32  C   UNL A   1      38.299  30.635  30.217  1.00  0.00     0.031 A 
ATOM     33  C   UNL A   1      38.535  30.976  31.659  1.00  0.00     0.074 A 
ATOM     34  C   UNL A   1      39.059  29.712  29.603  1.00  0.00     0.049 A 
ATOM     35  N   UNL A   1      39.499  30.589  32.454  1.00  0.00    -0.248 NA
ATOM     36  C   UNL A   1      37.552  31.869  32.291  1.00  0.00     0.031 C 
ATOM     37  C   UNL A   1      38.875  29.248  28.228  1.00  0.00     0.029 A 
ATOM     38  N   UNL A   1      40.139  28.999  30.058  1.00  0.00    -0.354 N 
ATOM     39  C   UNL A   1      39.254  31.207  33.672  1.00  0.00     0.074 A 
ATOM     40  C   UNL A   1      38.054  32.001  33.510  1.00  0.00     0.031 C 
ATOM     41  C   UNL A   1      39.815  28.331  27.949  1.00  0.00     0.029 A 
ATOM     42  C   UNL A   1      40.693  28.179  29.107  1.00  0.00     0.049 A 
ATOM     43  H   UNL A   1      40.483  29.069  30.978  1.00  0.00     0.167 HD
ATOM     44  C   UNL A   1      39.968  31.118  34.819  1.00  0.00     0.037 A 
ATOM     45  C   UNL A   1      41.803  27.419  29.156  1.00  0.00     0.037 A 
ATOM     46  C   UNL A   1      41.151  30.314  34.976  1.00  0.00     0.049 A 
ATOM     47  C   UNL A   1      42.618  27.392  30.421  1.00  0.00     0.074 A 
ATOM     48  C   UNL A   1      41.949  30.158  36.097  1.00  0.00     0.029 A 
ATOM     49  N   UNL A   1      41.708  29.527  33.977  1.00  0.00    -0.354 N 
ATOM     50  N   UNL A   1      42.395  27.999  31.561  1.00  0.00    -0.248 NA
ATOM     51  C   UNL A   1      43.842  26.579  30.402  1.00  0.00     0.031 C 
ATOM     52  C   UNL A   1      43.008  29.306  35.765  1.00  0.00     0.029 A 
ATOM     53  C   UNL A   1      42.848  28.898  34.450  1.00  0.00     0.049 A 
ATOM     54  H   UNL A   1      41.346  29.431  33.067  1.00  0.00     0.167 HD
ATOM     55  C   UNL A   1      43.439  27.631  32.399  1.00  0.00     0.074 A 
ATOM     56  C   UNL A   1      44.287  26.734  31.642  1.00  0.00     0.031 C 
ATOM     57  C   UNL A   1      43.675  28.004  33.681  1.00  0.00     0.037 A 
BRANCH  44  58
ATOM     58  C   UNL A   1      39.509  31.942  35.984  1.00  0.00     0.064 A 
ATOM     59  C   UNL A   1      40.077  33.189  36.277  1.00  0.00     0.173 A 
ATOM     60  C   UNL A   1      38.464  31.486  36.802  1.00  0.00     0.173 A 
ATOM     61  F   UNL A   1      41.090  33.661  35.535  1.00  0.00    -0.203 F 
ATOM     62  C   UNL A   1      39.629  33.942  37.360  1.00  0.00     0.198 A 
ATOM     63  C   UNL A   1      38.003  32.251  37.869  1.00  0.00     0.198 A 
ATOM     64  F   UNL A   1      37.886  30.298  36.561  1.00  0.00    -0.203 F 
ATOM     65  F   UNL A   1      40.213  35.113  37.647  1.00  0.00    -0.200 F 
ATOM     66  C   UNL A   1      38.589  33.475  38.150  1.00  0.00     0.200 A 
ATOM     67  F   UNL A   1      36.992  31.802  38.626  1.00  0.00    -0.200 F 
ATOM     68  F   UNL A   1      38.157  34.203  39.190  1.00  0.00    -0.200 F 
ENDBRANCH  44  58
BRANCH  45  69
ATOM     69  C   UNL A   1      42.225  26.647  27.960  1.00  0.00     0.064 A 
ATOM     70  C   UNL A   1      41.724  25.363  27.714  1.00  0.00     0.173 A 
ATOM     71  C   UNL A   1      43.143  27.178  27.041  1.00  0.00     0.173 A 
ATOM     72  F   UNL A   1      40.865  24.802  28.578  1.00  0.00    -0.203 F 
ATOM     73  C   UNL A   1      42.134  24.632  26.600  1.00  0.00     0.198 A 
ATOM     74  C   UNL A   1      43.532  26.458  25.914  1.00  0.00     0.198 A 
ATOM     75  F   UNL A   1      43.656  28.403  27.235  1.00  0.00    -0.203 F 
ATOM     76  F   UNL A   1      41.672  23.389  26.409  1.00  0.00    -0.200 F 
ATOM     77  C   UNL A   1      43.033  25.183  25.698  1.00  0.00     0.200 A 
ATOM     78  F   UNL A   1      44.393  26.998  25.041  1.00  0.00    -0.200 F 
ATOM     79  F   UNL A   1      43.424  24.481  24.626  1.00  0.00    -0.200 F 
ENDBRANCH  45  69
BRANCH  57  80
ATOM     80  C   UNL A   1      44.881  27.419  34.352  1.00  0.00     0.064 A 
ATOM     81  C   UNL A   1      46.120  28.078  34.338  1.00  0.00     0.173 A 
ATOM     82  C   UNL A   1      44.787  26.206  35.049  1.00  0.00     0.173 A 
ATOM     83  F   UNL A   1      46.262  29.233  33.671  1.00  0.00    -0.203 F 
ATOM     84  C   UNL A   1      47.227  27.531  34.981  1.00  0.00     0.198 A 
ATOM     85  C   UNL A   1      45.890  25.674  35.712  1.00  0.00     0.198 A 
ATOM     86  F   UNL A   1      43.623  25.541  35.096  1.00  0.00    -0.203 F 
ATOM     87  F   UNL A   1      48.411  28.155  34.920  1.00  0.00    -0.200 F 
ATOM     88  C   UNL A   1      47.109  26.333  35.672  1.00  0.00     0.200 A 
ATOM     89  F   UNL A   1      45.773  24.522  36.387  1.00  0.00    -0.200 F 
ATOM     90  F   UNL A   1      48.175  25.811  36.295  1.00  0.00    -0.200 F 
ENDBRANCH  57  80
ENDBRANCH  31  32
ENDBRANCH  24  26
ENDBRANCH  23  24
ENDBRANCH  22  23
ENDBRANCH   1  22
TORSDOF 13
ENDMDL
