MODEL 1
REMARK VINA RESULT:     -11.7      0.000      0.000
REMARK SMILES CCc1ccsc1CNC(=O)N[C@@H](CCO)C(=O)OCCOC(=O)c1ccc(-c2c3nc(c(-c4c(F)c(F)c(F)c(F)c4F)c4ccc([nH]4)c(-c4c(F)c(F)c(F)c(F)c4F)c4nc(c(-c5c(F)c(F)c(F)c(F)c5F)c5ccc2[nH]5)C=C4)C=C3)cc1
REMARK SMILES IDX 20 1 19 2 17 3 18 4 13 5 12 6 9 7 10 8 11 10 8 12 7 13 3 14
REMARK SMILES IDX 4 15 5 16 6 17 2 18 1 19 14 20 15 21 16 22 21 24 22 25 23 26
REMARK SMILES IDX 24 27 25 28 26 29 87 30 27 31 86 32 28 33 29 34 30 35 80 36
REMARK SMILES IDX 31 37 85 38 79 39 81 40 32 41 84 42 78 43 77 44 33 46 65 47
REMARK SMILES IDX 45 48 64 49 46 50 49 51 63 52 82 53 47 54 48 55 62 57 83 58
REMARK SMILES IDX 50 59 34 60 35 61 43 62 36 63 37 64 41 65 44 66 38 67 39 68
REMARK SMILES IDX 42 69 40 70 66 71 67 72 75 73 68 74 69 75 73 76 76 77 70 78
REMARK SMILES IDX 71 79 74 80 72 81 51 82 52 83 60 84 53 85 54 86 58 87 61 88
REMARK SMILES IDX 55 89 56 90 59 91 57 92
REMARK H PARENT 9 9 12 11 16 23 81 45 49 56
REMARK Flexibility Score: inf
ROOT
ATOM      1  C   UNL A   1      31.847  27.801  23.507  1.00  0.00     0.274 C 
ENDROOT
BRANCH   1   2
ATOM      2  O   UNL A   1      30.668  27.135  22.953  1.00  0.00    -0.461 OA
BRANCH   2   3
ATOM      3  C   UNL A   1      30.004  26.276  23.786  1.00  0.00     0.328 C 
ATOM      4  O   UNL A   1      28.861  26.484  24.188  1.00  0.00    -0.250 OA
BRANCH   3   5
ATOM      5  C   UNL A   1      30.851  25.084  24.332  1.00  0.00     0.196 C 
BRANCH   5   6
ATOM      6  N   UNL A   1      30.347  24.279  25.465  1.00  0.00    -0.324 N 
ATOM      7  N   UNL A   1      32.021  23.742  27.137  1.00  0.00    -0.333 N 
ATOM      8  C   UNL A   1      30.781  23.763  26.624  1.00  0.00     0.315 C 
ATOM      9  H   UNL A   1      32.013  23.790  28.120  1.00  0.00     0.165 HD
ATOM     10  O   UNL A   1      29.907  23.225  27.316  1.00  0.00    -0.249 OA
ATOM     11  H   UNL A   1      29.401  24.051  25.325  1.00  0.00     0.166 HD
BRANCH   7  12
ATOM     12  C   UNL A   1      33.371  23.666  26.611  1.00  0.00     0.165 C 
BRANCH  12  13
ATOM     13  C   UNL A   1      33.649  22.563  25.534  1.00  0.00     0.027 A 
ATOM     14  C   UNL A   1      35.255  22.074  25.248  1.00  0.00    -0.033 A 
ATOM     15  C   UNL A   1      35.468  20.081  24.973  1.00  0.00     0.016 A 
ATOM     16  C   UNL A   1      33.840  19.321  24.648  1.00  0.00     0.065 A 
ATOM     17  S   UNL A   1      32.146  20.985  25.039  1.00  0.00    -0.147 S 
BRANCH  14  18
ATOM     18  C   UNL A   1      36.018  23.406  24.782  1.00  0.00     0.033 C 
ATOM     19  C   UNL A   1      37.399  23.696  25.276  1.00  0.00     0.009 C 
ENDBRANCH  14  18
ENDBRANCH  12  13
ENDBRANCH   7  12
ENDBRANCH   5   6
BRANCH   5  20
ATOM     20  C   UNL A   1      31.117  24.192  23.095  1.00  0.00     0.065 C 
BRANCH  20  21
ATOM     21  C   UNL A   1      32.554  24.207  22.552  1.00  0.00     0.159 C 
BRANCH  21  22
ATOM     22  O   UNL A   1      32.817  23.129  21.664  1.00  0.00    -0.396 OA
ATOM     23  H   UNL A   1      32.194  22.407  21.841  1.00  0.00     0.210 HD
ENDBRANCH  21  22
ENDBRANCH  20  21
ENDBRANCH   5  20
ENDBRANCH   3   5
ENDBRANCH   2   3
ENDBRANCH   1   2
BRANCH   1  24
ATOM     24  C   UNL A   1      31.493  29.131  24.183  1.00  0.00     0.275 C 
BRANCH  24  25
ATOM     25  O   UNL A   1      32.634  29.565  24.925  1.00  0.00    -0.458 OA
BRANCH  25  26
ATOM     26  C   UNL A   1      32.250  30.409  25.893  1.00  0.00     0.338 C 
ATOM     27  O   UNL A   1      31.294  31.170  25.899  1.00  0.00    -0.246 OA
BRANCH  26  28
ATOM     28  C   UNL A   1      33.084  30.282  27.065  1.00  0.00     0.060 A 
ATOM     29  C   UNL A   1      33.594  31.429  27.650  1.00  0.00     0.016 A 
ATOM     30  C   UNL A   1      33.775  29.114  27.053  1.00  0.00     0.016 A 
ATOM     31  C   UNL A   1      34.943  31.515  28.031  1.00  0.00     0.010 A 
ATOM     32  C   UNL A   1      35.101  29.179  27.427  1.00  0.00     0.010 A 
ATOM     33  C   UNL A   1      36.014  30.407  27.983  1.00  0.00    -0.014 A 
BRANCH  33  34
ATOM     34  C   UNL A   1      37.965  30.251  28.976  1.00  0.00     0.031 A 
ATOM     35  C   UNL A   1      39.140  28.831  28.930  1.00  0.00     0.074 A 
ATOM     36  C   UNL A   1      38.442  30.752  30.386  1.00  0.00     0.049 A 
ATOM     37  N   UNL A   1      40.421  28.789  29.298  1.00  0.00    -0.248 NA
ATOM     38  C   UNL A   1      38.765  27.474  28.343  1.00  0.00     0.031 C 
ATOM     39  C   UNL A   1      37.655  31.747  31.286  1.00  0.00     0.029 A 
ATOM     40  N   UNL A   1      39.451  30.466  31.340  1.00  0.00    -0.354 N 
ATOM     41  C   UNL A   1      40.968  27.614  28.739  1.00  0.00     0.074 A 
ATOM     42  C   UNL A   1      39.923  26.930  28.036  1.00  0.00     0.031 C 
ATOM     43  C   UNL A   1      38.146  31.934  32.482  1.00  0.00     0.029 A 
ATOM     44  C   UNL A   1      39.285  31.094  32.604  1.00  0.00     0.049 A 
ATOM     45  H   UNL A   1      40.212  29.874  31.142  1.00  0.00     0.167 HD
ATOM     46  C   UNL A   1      42.177  27.001  28.839  1.00  0.00     0.037 A 
ATOM     47  C   UNL A   1      39.866  31.124  33.823  1.00  0.00     0.037 A 
ATOM     48  C   UNL A   1      43.070  27.172  29.943  1.00  0.00     0.049 A 
ATOM     49  C   UNL A   1      41.103  30.362  34.018  1.00  0.00     0.074 A 
ATOM     50  C   UNL A   1      44.268  26.521  30.187  1.00  0.00     0.029 A 
ATOM     51  N   UNL A   1      42.767  27.902  31.079  1.00  0.00    -0.354 N 
ATOM     52  N   UNL A   1      41.665  29.534  33.187  1.00  0.00    -0.248 NA
ATOM     53  C   UNL A   1      41.817  30.583  35.277  1.00  0.00     0.031 C 
ATOM     54  C   UNL A   1      44.636  26.778  31.511  1.00  0.00     0.029 A 
ATOM     55  C   UNL A   1      43.736  27.682  32.043  1.00  0.00     0.049 A 
ATOM     56  H   UNL A   1      41.982  28.488  31.185  1.00  0.00     0.167 HD
ATOM     57  C   UNL A   1      42.838  29.162  33.801  1.00  0.00     0.074 A 
ATOM     58  C   UNL A   1      42.907  29.865  35.066  1.00  0.00     0.031 C 
ATOM     59  C   UNL A   1      43.780  28.324  33.324  1.00  0.00     0.037 A 
BRANCH  46  60
ATOM     60  C   UNL A   1      42.504  25.956  27.785  1.00  0.00     0.064 A 
ATOM     61  C   UNL A   1      42.133  24.613  27.987  1.00  0.00     0.173 A 
ATOM     62  C   UNL A   1      43.214  26.258  26.612  1.00  0.00     0.173 A 
ATOM     63  F   UNL A   1      41.464  24.259  29.095  1.00  0.00    -0.203 F 
ATOM     64  C   UNL A   1      42.488  23.616  27.078  1.00  0.00     0.198 A 
ATOM     65  C   UNL A   1      43.545  25.260  25.691  1.00  0.00     0.198 A 
ATOM     66  F   UNL A   1      43.618  27.512  26.366  1.00  0.00    -0.203 F 
ATOM     67  F   UNL A   1      42.171  22.338  27.328  1.00  0.00    -0.200 F 
ATOM     68  C   UNL A   1      43.193  23.940  25.930  1.00  0.00     0.200 A 
ATOM     69  F   UNL A   1      44.229  25.574  24.582  1.00  0.00    -0.200 F 
ATOM     70  F   UNL A   1      43.548  22.980  25.065  1.00  0.00    -0.200 F 
ENDBRANCH  46  60
BRANCH  47  71
ATOM     71  C   UNL A   1      39.339  32.031  34.921  1.00  0.00     0.064 A 
ATOM     72  C   UNL A   1      38.572  31.498  35.973  1.00  0.00     0.173 A 
ATOM     73  C   UNL A   1      39.690  33.391  35.017  1.00  0.00     0.173 A 
ATOM     74  F   UNL A   1      38.227  30.203  35.955  1.00  0.00    -0.203 F 
ATOM     75  C   UNL A   1      38.156  32.287  37.048  1.00  0.00     0.198 A 
ATOM     76  C   UNL A   1      39.304  34.169  36.115  1.00  0.00     0.198 A 
ATOM     77  F   UNL A   1      40.479  33.948  34.086  1.00  0.00    -0.203 F 
ATOM     78  F   UNL A   1      37.402  31.749  38.017  1.00  0.00    -0.200 F 
ATOM     79  C   UNL A   1      38.528  33.619  37.123  1.00  0.00     0.200 A 
ATOM     80  F   UNL A   1      39.712  35.442  36.212  1.00  0.00    -0.200 F 
ATOM     81  F   UNL A   1      38.151  34.366  38.170  1.00  0.00    -0.200 F 
ENDBRANCH  47  71
BRANCH  59  82
ATOM     82  C   UNL A   1      44.981  28.137  34.177  1.00  0.00     0.064 A 
ATOM     83  C   UNL A   1      45.051  27.129  35.148  1.00  0.00     0.173 A 
ATOM     84  C   UNL A   1      46.076  28.994  34.019  1.00  0.00     0.173 A 
ATOM     85  F   UNL A   1      44.006  26.310  35.354  1.00  0.00    -0.203 F 
ATOM     86  C   UNL A   1      46.170  27.010  35.959  1.00  0.00     0.198 A 
ATOM     87  C   UNL A   1      47.213  28.839  34.795  1.00  0.00     0.198 A 
ATOM     88  F   UNL A   1      46.038  29.983  33.111  1.00  0.00    -0.203 F 
ATOM     89  F   UNL A   1      46.190  26.094  36.936  1.00  0.00    -0.200 F 
ATOM     90  C   UNL A   1      47.254  27.855  35.772  1.00  0.00     0.200 A 
ATOM     91  F   UNL A   1      48.265  29.646  34.604  1.00  0.00    -0.200 F 
ATOM     92  F   UNL A   1      48.340  27.730  36.546  1.00  0.00    -0.200 F 
ENDBRANCH  59  82
ENDBRANCH  33  34
ENDBRANCH  26  28
ENDBRANCH  25  26
ENDBRANCH  24  25
ENDBRANCH   1  24
TORSDOF 18
ENDMDL
MODEL 2
REMARK VINA RESULT:     -11.4      0.726      1.800
REMARK SMILES CCc1ccsc1CNC(=O)N[C@@H](CCO)C(=O)OCCOC(=O)c1ccc(-c2c3nc(c(-c4c(F)c(F)c(F)c(F)c4F)c4ccc([nH]4)c(-c4c(F)c(F)c(F)c(F)c4F)c4nc(c(-c5c(F)c(F)c(F)c(F)c5F)c5ccc2[nH]5)C=C4)C=C3)cc1
REMARK SMILES IDX 20 1 19 2 17 3 18 4 13 5 12 6 9 7 10 8 11 10 8 12 7 13 3 14
REMARK SMILES IDX 4 15 5 16 6 17 2 18 1 19 14 20 15 21 16 22 21 24 22 25 23 26
REMARK SMILES IDX 24 27 25 28 26 29 87 30 27 31 86 32 28 33 29 34 30 35 80 36
REMARK SMILES IDX 31 37 85 38 79 39 81 40 32 41 84 42 78 43 77 44 33 46 65 47
REMARK SMILES IDX 45 48 64 49 46 50 49 51 63 52 82 53 47 54 48 55 62 57 83 58
REMARK SMILES IDX 50 59 34 60 35 61 43 62 36 63 37 64 41 65 44 66 38 67 39 68
REMARK SMILES IDX 42 69 40 70 66 71 67 72 75 73 68 74 69 75 73 76 76 77 70 78
REMARK SMILES IDX 71 79 74 80 72 81 51 82 52 83 60 84 53 85 54 86 58 87 61 88
REMARK SMILES IDX 55 89 56 90 59 91 57 92
REMARK H PARENT 9 9 12 11 16 23 81 45 49 56
REMARK Flexibility Score: inf
ROOT
ATOM      1  C   UNL A   1      30.756  28.549  23.470  1.00  0.00     0.274 C 
ENDROOT
BRANCH   1   2
ATOM      2  O   UNL A   1      30.449  27.600  24.542  1.00  0.00    -0.461 OA
BRANCH   2   3
ATOM      3  C   UNL A   1      29.848  26.429  24.168  1.00  0.00     0.328 C 
ATOM      4  O   UNL A   1      28.660  26.357  23.860  1.00  0.00    -0.250 OA
BRANCH   3   5
ATOM      5  C   UNL A   1      30.727  25.148  24.313  1.00  0.00     0.196 C 
BRANCH   5   6
ATOM      6  N   UNL A   1      30.259  24.022  25.148  1.00  0.00    -0.324 N 
ATOM      7  N   UNL A   1      32.026  22.824  26.299  1.00  0.00    -0.333 N 
ATOM      8  C   UNL A   1      30.750  23.101  25.988  1.00  0.00     0.315 C 
ATOM      9  H   UNL A   1      32.118  22.517  27.230  1.00  0.00     0.165 HD
ATOM     10  O   UNL A   1      29.898  22.402  26.554  1.00  0.00    -0.249 OA
ATOM     11  H   UNL A   1      29.286  23.916  25.058  1.00  0.00     0.166 HD
BRANCH   7  12
ATOM     12  C   UNL A   1      33.304  22.862  25.614  1.00  0.00     0.165 C 
BRANCH  12  13
ATOM     13  C   UNL A   1      33.603  21.696  24.610  1.00  0.00     0.027 A 
ATOM     14  C   UNL A   1      34.600  20.410  25.111  1.00  0.00    -0.033 A 
ATOM     15  C   UNL A   1      33.966  18.593  24.489  1.00  0.00     0.016 A 
ATOM     16  C   UNL A   1      32.728  18.787  23.162  1.00  0.00     0.065 A 
ATOM     17  S   UNL A   1      32.162  21.120  23.001  1.00  0.00    -0.147 S 
BRANCH  14  18
ATOM     18  C   UNL A   1      36.001  21.093  25.488  1.00  0.00     0.033 C 
ATOM     19  C   UNL A   1      37.036  21.322  24.433  1.00  0.00     0.009 C 
ENDBRANCH  14  18
ENDBRANCH  12  13
ENDBRANCH   7  12
ENDBRANCH   5   6
BRANCH   5  20
ATOM     20  C   UNL A   1      30.991  24.687  22.859  1.00  0.00     0.065 C 
BRANCH  20  21
ATOM     21  C   UNL A   1      32.047  25.487  22.080  1.00  0.00     0.159 C 
BRANCH  21  22
ATOM     22  O   UNL A   1      31.489  26.236  21.010  1.00  0.00    -0.396 OA
ATOM     23  H   UNL A   1      31.895  25.957  20.174  1.00  0.00     0.210 HD
ENDBRANCH  21  22
ENDBRANCH  20  21
ENDBRANCH   5  20
ENDBRANCH   3   5
ENDBRANCH   2   3
ENDBRANCH   1   2
BRANCH   1  24
ATOM     24  C   UNL A   1      31.965  29.429  23.809  1.00  0.00     0.275 C 
BRANCH  24  25
ATOM     25  O   UNL A   1      32.360  29.136  25.151  1.00  0.00    -0.458 OA
BRANCH  25  26
ATOM     26  C   UNL A   1      32.180  30.216  25.922  1.00  0.00     0.338 C 
ATOM     27  O   UNL A   1      31.382  31.130  25.772  1.00  0.00    -0.246 OA
BRANCH  26  28
ATOM     28  C   UNL A   1      33.023  30.175  27.094  1.00  0.00     0.060 A 
ATOM     29  C   UNL A   1      33.572  31.357  27.563  1.00  0.00     0.016 A 
ATOM     30  C   UNL A   1      33.681  28.993  27.185  1.00  0.00     0.016 A 
ATOM     31  C   UNL A   1      34.928  31.440  27.922  1.00  0.00     0.010 A 
ATOM     32  C   UNL A   1      35.014  29.054  27.539  1.00  0.00     0.010 A 
ATOM     33  C   UNL A   1      35.966  30.302  27.968  1.00  0.00    -0.014 A 
BRANCH  33  34
ATOM     34  C   UNL A   1      37.924  30.184  28.953  1.00  0.00     0.031 A 
ATOM     35  C   UNL A   1      39.119  28.780  28.917  1.00  0.00     0.074 A 
ATOM     36  C   UNL A   1      38.401  30.707  30.356  1.00  0.00     0.049 A 
ATOM     37  N   UNL A   1      40.402  28.759  29.279  1.00  0.00    -0.248 NA
ATOM     38  C   UNL A   1      38.761  27.412  28.345  1.00  0.00     0.031 C 
ATOM     39  C   UNL A   1      37.604  31.699  31.249  1.00  0.00     0.029 A 
ATOM     40  N   UNL A   1      39.418  30.445  31.308  1.00  0.00    -0.354 N 
ATOM     41  C   UNL A   1      40.963  27.586  28.729  1.00  0.00     0.074 A 
ATOM     42  C   UNL A   1      39.924  26.881  28.039  1.00  0.00     0.031 C 
ATOM     43  C   UNL A   1      38.099  31.906  32.441  1.00  0.00     0.029 A 
ATOM     44  C   UNL A   1      39.249  31.084  32.566  1.00  0.00     0.049 A 
ATOM     45  H   UNL A   1      40.187  29.861  31.112  1.00  0.00     0.167 HD
ATOM     46  C   UNL A   1      42.180  26.991  28.830  1.00  0.00     0.037 A 
ATOM     47  C   UNL A   1      39.836  31.135  33.781  1.00  0.00     0.037 A 
ATOM     48  C   UNL A   1      43.077  27.187  29.928  1.00  0.00     0.049 A 
ATOM     49  C   UNL A   1      41.085  30.392  33.978  1.00  0.00     0.074 A 
ATOM     50  C   UNL A   1      44.285  26.555  30.172  1.00  0.00     0.029 A 
ATOM     51  N   UNL A   1      42.769  27.924  31.057  1.00  0.00    -0.354 N 
ATOM     52  N   UNL A   1      41.654  29.563  33.153  1.00  0.00    -0.248 NA
ATOM     53  C   UNL A   1      41.802  30.636  35.231  1.00  0.00     0.031 C 
ATOM     54  C   UNL A   1      44.655  26.831  31.492  1.00  0.00     0.029 A 
ATOM     55  C   UNL A   1      43.746  27.729  32.018  1.00  0.00     0.049 A 
ATOM     56  H   UNL A   1      41.977  28.500  31.161  1.00  0.00     0.167 HD
ATOM     57  C   UNL A   1      42.835  29.215  33.765  1.00  0.00     0.074 A 
ATOM     58  C   UNL A   1      42.900  29.931  35.023  1.00  0.00     0.031 C 
ATOM     59  C   UNL A   1      43.786  28.385  33.293  1.00  0.00     0.037 A 
BRANCH  46  60
ATOM     60  C   UNL A   1      42.517  25.941  27.785  1.00  0.00     0.064 A 
ATOM     61  C   UNL A   1      43.260  26.297  26.643  1.00  0.00     0.173 A 
ATOM     62  C   UNL A   1      42.078  24.610  27.877  1.00  0.00     0.173 A 
ATOM     63  F   UNL A   1      43.698  27.556  26.491  1.00  0.00    -0.203 F 
ATOM     64  C   UNL A   1      43.518  25.376  25.627  1.00  0.00     0.198 A 
ATOM     65  C   UNL A   1      42.360  23.684  26.869  1.00  0.00     0.198 A 
ATOM     66  F   UNL A   1      41.347  24.207  28.926  1.00  0.00    -0.203 F 
ATOM     67  F   UNL A   1      44.177  25.762  24.526  1.00  0.00    -0.200 F 
ATOM     68  C   UNL A   1      43.069  24.070  25.741  1.00  0.00     0.200 A 
ATOM     69  F   UNL A   1      41.923  22.422  26.978  1.00  0.00    -0.200 F 
ATOM     70  F   UNL A   1      43.302  23.191  24.757  1.00  0.00    -0.200 F 
ENDBRANCH  46  60
BRANCH  47  71
ATOM     71  C   UNL A   1      39.302  32.045  34.872  1.00  0.00     0.064 A 
ATOM     72  C   UNL A   1      38.531  31.516  35.923  1.00  0.00     0.173 A 
ATOM     73  C   UNL A   1      39.649  33.407  34.963  1.00  0.00     0.173 A 
ATOM     74  F   UNL A   1      38.189  30.220  35.909  1.00  0.00    -0.203 F 
ATOM     75  C   UNL A   1      38.108  32.309  36.992  1.00  0.00     0.198 A 
ATOM     76  C   UNL A   1      39.256  34.189  36.055  1.00  0.00     0.198 A 
ATOM     77  F   UNL A   1      40.441  33.961  34.033  1.00  0.00    -0.203 F 
ATOM     78  F   UNL A   1      37.350  31.774  37.960  1.00  0.00    -0.200 F 
ATOM     79  C   UNL A   1      38.476  33.643  37.062  1.00  0.00     0.200 A 
ATOM     80  F   UNL A   1      39.660  35.464  36.148  1.00  0.00    -0.200 F 
ATOM     81  F   UNL A   1      38.092  34.394  38.104  1.00  0.00    -0.200 F 
ENDBRANCH  47  71
BRANCH  59  82
ATOM     82  C   UNL A   1      44.994  28.223  34.142  1.00  0.00     0.064 A 
ATOM     83  C   UNL A   1      46.106  29.067  34.017  1.00  0.00     0.173 A 
ATOM     84  C   UNL A   1      45.035  27.193  35.088  1.00  0.00     0.173 A 
ATOM     85  F   UNL A   1      46.118  30.043  33.095  1.00  0.00    -0.203 F 
ATOM     86  C   UNL A   1      47.237  28.861  34.795  1.00  0.00     0.198 A 
ATOM     87  C   UNL A   1      46.146  27.022  35.899  1.00  0.00     0.198 A 
ATOM     88  F   UNL A   1      43.997  26.353  35.223  1.00  0.00    -0.203 F 
ATOM     89  F   UNL A   1      48.321  29.624  34.608  1.00  0.00    -0.200 F 
ATOM     90  C   UNL A   1      47.249  27.848  35.743  1.00  0.00     0.200 A 
ATOM     91  F   UNL A   1      46.152  26.054  36.824  1.00  0.00    -0.200 F 
ATOM     92  F   UNL A   1      48.336  27.658  36.502  1.00  0.00    -0.200 F 
ENDBRANCH  59  82
ENDBRANCH  33  34
ENDBRANCH  26  28
ENDBRANCH  25  26
ENDBRANCH  24  25
ENDBRANCH   1  24
TORSDOF 18
ENDMDL
MODEL 3
REMARK VINA RESULT:     -11.4      3.976      9.192
REMARK SMILES CCc1ccsc1CNC(=O)N[C@@H](CCO)C(=O)OCCOC(=O)c1ccc(-c2c3nc(c(-c4c(F)c(F)c(F)c(F)c4F)c4ccc([nH]4)c(-c4c(F)c(F)c(F)c(F)c4F)c4nc(c(-c5c(F)c(F)c(F)c(F)c5F)c5ccc2[nH]5)C=C4)C=C3)cc1
REMARK SMILES IDX 20 1 19 2 17 3 18 4 13 5 12 6 9 7 10 8 11 10 8 12 7 13 3 14
REMARK SMILES IDX 4 15 5 16 6 17 2 18 1 19 14 20 15 21 16 22 21 24 22 25 23 26
REMARK SMILES IDX 24 27 25 28 26 29 87 30 27 31 86 32 28 33 29 34 30 35 80 36
REMARK SMILES IDX 31 37 85 38 79 39 81 40 32 41 84 42 78 43 77 44 33 46 65 47
REMARK SMILES IDX 45 48 64 49 46 50 49 51 63 52 82 53 47 54 48 55 62 57 83 58
REMARK SMILES IDX 50 59 34 60 35 61 43 62 36 63 37 64 41 65 44 66 38 67 39 68
REMARK SMILES IDX 42 69 40 70 66 71 67 72 75 73 68 74 69 75 73 76 76 77 70 78
REMARK SMILES IDX 71 79 74 80 72 81 51 82 52 83 60 84 53 85 54 86 58 87 61 88
REMARK SMILES IDX 55 89 56 90 59 91 57 92
REMARK H PARENT 9 9 12 11 16 23 81 45 49 56
REMARK Flexibility Score: inf
ROOT
ATOM      1  C   UNL A   1      33.632  21.771  24.571  1.00  0.00     0.274 C 
ENDROOT
BRANCH   1   2
ATOM      2  O   UNL A   1      34.056  23.172  24.545  1.00  0.00    -0.461 OA
BRANCH   2   3
ATOM      3  C   UNL A   1      33.332  24.043  25.311  1.00  0.00     0.328 C 
ATOM      4  O   UNL A   1      33.238  23.939  26.533  1.00  0.00    -0.250 OA
BRANCH   3   5
ATOM      5  C   UNL A   1      32.491  25.093  24.520  1.00  0.00     0.196 C 
BRANCH   5   6
ATOM      6  N   UNL A   1      32.670  25.234  23.060  1.00  0.00    -0.324 N 
ATOM      7  N   UNL A   1      33.958  27.178  22.390  1.00  0.00    -0.333 N 
ATOM      8  C   UNL A   1      33.289  26.034  22.180  1.00  0.00     0.315 C 
ATOM      9  H   UNL A   1      34.699  27.292  21.753  1.00  0.00     0.165 HD
ATOM     10  O   UNL A   1      33.226  25.660  21.001  1.00  0.00    -0.249 OA
ATOM     11  H   UNL A   1      32.185  24.521  22.589  1.00  0.00     0.166 HD
BRANCH   7  12
ATOM     12  C   UNL A   1      33.867  28.289  23.318  1.00  0.00     0.165 C 
BRANCH  12  13
ATOM     13  C   UNL A   1      32.439  28.643  23.860  1.00  0.00     0.027 A 
ATOM     14  C   UNL A   1      32.300  29.469  25.343  1.00  0.00    -0.033 A 
ATOM     15  C   UNL A   1      30.868  30.896  25.353  1.00  0.00     0.016 A 
ATOM     16  C   UNL A   1      29.754  30.670  23.924  1.00  0.00     0.065 A 
ATOM     17  S   UNL A   1      30.705  28.986  22.493  1.00  0.00    -0.147 S 
BRANCH  14  18
ATOM     18  C   UNL A   1      33.001  28.509  26.420  1.00  0.00     0.033 C 
ATOM     19  C   UNL A   1      34.270  28.929  27.091  1.00  0.00     0.009 C 
ENDBRANCH  14  18
ENDBRANCH  12  13
ENDBRANCH   7  12
ENDBRANCH   5   6
BRANCH   5  20
ATOM     20  C   UNL A   1      31.019  24.759  24.867  1.00  0.00     0.065 C 
BRANCH  20  21
ATOM     21  C   UNL A   1      30.328  25.714  25.854  1.00  0.00     0.159 C 
BRANCH  21  22
ATOM     22  O   UNL A   1      29.220  25.114  26.512  1.00  0.00    -0.396 OA
ATOM     23  H   UNL A   1      28.412  25.285  26.003  1.00  0.00     0.210 HD
ENDBRANCH  21  22
ENDBRANCH  20  21
ENDBRANCH   5  20
ENDBRANCH   3   5
ENDBRANCH   2   3
ENDBRANCH   1   2
BRANCH   1  24
ATOM     24  C   UNL A   1      34.580  20.899  25.402  1.00  0.00     0.275 C 
BRANCH  24  25
ATOM     25  O   UNL A   1      35.678  21.714  25.817  1.00  0.00    -0.458 OA
BRANCH  25  26
ATOM     26  C   UNL A   1      36.828  21.181  25.383  1.00  0.00     0.338 C 
ATOM     27  O   UNL A   1      37.026  20.053  24.955  1.00  0.00    -0.246 OA
BRANCH  26  28
ATOM     28  C   UNL A   1      37.896  22.152  25.387  1.00  0.00     0.060 A 
ATOM     29  C   UNL A   1      39.092  21.827  26.004  1.00  0.00     0.016 A 
ATOM     30  C   UNL A   1      37.408  23.419  25.388  1.00  0.00     0.016 A 
ATOM     31  C   UNL A   1      39.733  22.726  26.874  1.00  0.00     0.010 A 
ATOM     32  C   UNL A   1      38.027  24.316  26.235  1.00  0.00     0.010 A 
ATOM     33  C   UNL A   1      39.326  24.176  27.204  1.00  0.00    -0.014 A 
BRANCH  33  34
ATOM     34  C   UNL A   1      40.465  25.812  28.122  1.00  0.00     0.031 A 
ATOM     35  C   UNL A   1      39.880  27.522  28.490  1.00  0.00     0.074 A 
ATOM     36  C   UNL A   1      41.969  26.236  27.957  1.00  0.00     0.049 A 
ATOM     37  N   UNL A   1      40.440  28.453  29.262  1.00  0.00    -0.248 NA
ATOM     38  C   UNL A   1      38.549  28.062  27.977  1.00  0.00     0.031 C 
ATOM     39  C   UNL A   1      43.065  25.366  27.280  1.00  0.00     0.029 A 
ATOM     40  N   UNL A   1      42.783  27.384  28.125  1.00  0.00    -0.354 N 
ATOM     41  C   UNL A   1      39.449  29.428  29.510  1.00  0.00     0.074 A 
ATOM     42  C   UNL A   1      38.262  29.042  28.807  1.00  0.00     0.031 C 
ATOM     43  C   UNL A   1      44.223  25.948  27.113  1.00  0.00     0.029 A 
ATOM     44  C   UNL A   1      44.096  27.278  27.593  1.00  0.00     0.049 A 
ATOM     45  H   UNL A   1      42.462  28.198  28.577  1.00  0.00     0.167 HD
ATOM     46  C   UNL A   1      39.453  30.631  30.142  1.00  0.00     0.037 A 
ATOM     47  C   UNL A   1      45.202  28.036  27.421  1.00  0.00     0.037 A 
ATOM     48  C   UNL A   1      40.623  31.435  30.324  1.00  0.00     0.049 A 
ATOM     49  C   UNL A   1      45.200  29.396  27.969  1.00  0.00     0.074 A 
ATOM     50  C   UNL A   1      40.715  32.709  30.859  1.00  0.00     0.029 A 
ATOM     51  N   UNL A   1      41.863  31.128  29.792  1.00  0.00    -0.354 N 
ATOM     52  N   UNL A   1      44.201  30.036  28.502  1.00  0.00    -0.248 NA
ATOM     53  C   UNL A   1      46.478  30.110  27.952  1.00  0.00     0.031 C 
ATOM     54  C   UNL A   1      41.984  33.212  30.559  1.00  0.00     0.029 A 
ATOM     55  C   UNL A   1      42.715  32.208  29.951  1.00  0.00     0.049 A 
ATOM     56  H   UNL A   1      42.103  30.273  29.367  1.00  0.00     0.167 HD
ATOM     57  C   UNL A   1      44.738  31.224  28.937  1.00  0.00     0.074 A 
ATOM     58  C   UNL A   1      46.150  31.207  28.613  1.00  0.00     0.031 C 
ATOM     59  C   UNL A   1      44.098  32.225  29.575  1.00  0.00     0.037 A 
BRANCH  46  60
ATOM     60  C   UNL A   1      38.101  31.206  30.527  1.00  0.00     0.064 A 
ATOM     61  C   UNL A   1      37.357  31.945  29.587  1.00  0.00     0.173 A 
ATOM     62  C   UNL A   1      37.559  31.076  31.816  1.00  0.00     0.173 A 
ATOM     63  F   UNL A   1      37.827  32.116  28.342  1.00  0.00    -0.203 F 
ATOM     64  C   UNL A   1      36.150  32.554  29.931  1.00  0.00     0.198 A 
ATOM     65  C   UNL A   1      36.337  31.666  32.150  1.00  0.00     0.198 A 
ATOM     66  F   UNL A   1      38.224  30.405  32.767  1.00  0.00    -0.203 F 
ATOM     67  F   UNL A   1      35.495  33.299  29.030  1.00  0.00    -0.200 F 
ATOM     68  C   UNL A   1      35.640  32.413  31.212  1.00  0.00     0.200 A 
ATOM     69  F   UNL A   1      35.845  31.532  33.390  1.00  0.00    -0.200 F 
ATOM     70  F   UNL A   1      34.489  33.012  31.547  1.00  0.00    -0.200 F 
ENDBRANCH  46  60
BRANCH  47  71
ATOM     71  C   UNL A   1      46.462  27.454  26.807  1.00  0.00     0.064 A 
ATOM     72  C   UNL A   1      47.362  26.717  27.598  1.00  0.00     0.173 A 
ATOM     73  C   UNL A   1      46.727  27.504  25.425  1.00  0.00     0.173 A 
ATOM     74  F   UNL A   1      47.152  26.609  28.918  1.00  0.00    -0.203 F 
ATOM     75  C   UNL A   1      48.479  26.087  27.044  1.00  0.00     0.198 A 
ATOM     76  C   UNL A   1      47.825  26.839  24.867  1.00  0.00     0.198 A 
ATOM     77  F   UNL A   1      45.873  28.130  24.601  1.00  0.00    -0.203 F 
ATOM     78  F   UNL A   1      49.328  25.418  27.836  1.00  0.00    -0.200 F 
ATOM     79  C   UNL A   1      48.706  26.142  25.679  1.00  0.00     0.200 A 
ATOM     80  F   UNL A   1      48.012  26.849  23.540  1.00  0.00    -0.200 F 
ATOM     81  F   UNL A   1      49.763  25.513  25.146  1.00  0.00    -0.200 F 
ENDBRANCH  47  71
BRANCH  59  82
ATOM     82  C   UNL A   1      44.935  33.383  29.981  1.00  0.00     0.064 A 
ATOM     83  C   UNL A   1      45.568  33.438  31.230  1.00  0.00     0.173 A 
ATOM     84  C   UNL A   1      45.093  34.459  29.099  1.00  0.00     0.173 A 
ATOM     85  F   UNL A   1      45.411  32.442  32.116  1.00  0.00    -0.203 F 
ATOM     86  C   UNL A   1      46.306  34.555  31.595  1.00  0.00     0.198 A 
ATOM     87  C   UNL A   1      45.873  35.549  29.447  1.00  0.00     0.198 A 
ATOM     88  F   UNL A   1      44.486  34.449  27.901  1.00  0.00    -0.203 F 
ATOM     89  F   UNL A   1      46.837  34.629  32.822  1.00  0.00    -0.200 F 
ATOM     90  C   UNL A   1      46.469  35.602  30.699  1.00  0.00     0.200 A 
ATOM     91  F   UNL A   1      46.041  36.552  28.576  1.00  0.00    -0.200 F 
ATOM     92  F   UNL A   1      47.192  36.673  31.048  1.00  0.00    -0.200 F 
ENDBRANCH  59  82
ENDBRANCH  33  34
ENDBRANCH  26  28
ENDBRANCH  25  26
ENDBRANCH  24  25
ENDBRANCH   1  24
TORSDOF 18
ENDMDL
