MODEL 1
REMARK VINA RESULT:     -11.2      0.000      0.000
REMARK SMILES CCCC[C@@H](C(=O)OCCOC(=O)c1ccc(-c2c3nc(c(-c4c(F)c(F)c(F)c(F)c4F)c4ccc([nH]4)c(-c4c(F)c(F)c(F)c(F)c4F)c4nc(c(-c5c(F)c(F)c(F)c(F)c5F)c5ccc2[nH]5)C=C4)C=C3)cc1)[C@H](O)c1ccc(OC)c(O)c1
REMARK SMILES IDX 9 1 8 2 6 3 7 4 5 5 4 6 3 7 2 8 1 9 77 10 79 11 80 12 87 13
REMARK SMILES IDX 81 14 85 15 82 16 86 17 83 19 84 20 78 21 10 23 11 24 12 25
REMARK SMILES IDX 13 26 14 27 15 28 76 29 16 30 75 31 17 32 18 33 19 34 69 35
REMARK SMILES IDX 20 36 74 37 68 38 70 39 21 40 73 41 67 42 66 43 22 45 54 46
REMARK SMILES IDX 34 47 53 48 35 49 38 50 52 51 71 52 36 53 37 54 51 56 72 57
REMARK SMILES IDX 39 58 23 59 24 60 32 61 25 62 26 63 30 64 33 65 27 66 28 67
REMARK SMILES IDX 31 68 29 69 55 70 56 71 64 72 57 73 58 74 62 75 65 76 59 77
REMARK SMILES IDX 60 78 63 79 61 80 40 81 41 82 49 83 42 84 43 85 47 86 50 87
REMARK SMILES IDX 44 88 45 89 48 90 46 91
REMARK H PARENT 86 18 78 22 70 44 38 55
REMARK Flexibility Score: inf
ROOT
ATOM      1  C   UNL A   1      35.625  22.244  25.718  1.00  0.00     0.274 C 
ENDROOT
BRANCH   1   2
ATOM      2  O   UNL A   1      34.805  21.891  26.851  1.00  0.00    -0.462 OA
BRANCH   2   3
ATOM      3  C   UNL A   1      33.538  22.384  26.895  1.00  0.00     0.312 C 
ATOM      4  O   UNL A   1      32.864  22.462  27.914  1.00  0.00    -0.252 OA
BRANCH   3   5
ATOM      5  C   UNL A   1      33.006  22.681  25.500  1.00  0.00     0.132 C 
BRANCH   5   6
ATOM      6  C   UNL A   1      32.493  24.119  25.282  1.00  0.00     0.018 C 
BRANCH   6   7
ATOM      7  C   UNL A   1      33.302  25.251  25.942  1.00  0.00     0.001 C 
BRANCH   7   8
ATOM      8  C   UNL A   1      34.067  26.190  25.010  1.00  0.00    -0.003 C 
ATOM      9  C   UNL A   1      33.219  26.771  23.892  1.00  0.00     0.004 C 
ENDBRANCH   7   8
ENDBRANCH   6   7
ENDBRANCH   5   6
BRANCH   5  10
ATOM     10  C   UNL A   1      32.034  21.566  25.019  1.00  0.00     0.159 C 
BRANCH  10  11
ATOM     11  C   UNL A   1      32.422  20.112  24.790  1.00  0.00    -0.015 A 
ATOM     12  C   UNL A   1      32.885  19.229  25.766  1.00  0.00     0.010 A 
ATOM     13  C   UNL A   1      32.183  19.576  23.504  1.00  0.00     0.056 A 
ATOM     14  C   UNL A   1      33.104  17.875  25.466  1.00  0.00     0.051 A 
ATOM     15  C   UNL A   1      32.400  18.222  23.205  1.00  0.00     0.158 A 
ATOM     16  C   UNL A   1      32.868  17.353  24.190  1.00  0.00     0.160 A 
BRANCH  15  17
ATOM     17  O   UNL A   1      32.136  17.787  21.936  1.00  0.00    -0.504 OA
ATOM     18  H   UNL A   1      32.003  16.874  21.772  1.00  0.00     0.293 HD
ENDBRANCH  15  17
BRANCH  16  19
ATOM     19  O   UNL A   1      33.149  16.019  24.097  1.00  0.00    -0.493 OA
ATOM     20  C   UNL A   1      32.883  15.190  25.221  1.00  0.00     0.278 C 
ENDBRANCH  16  19
ENDBRANCH  10  11
BRANCH  10  21
ATOM     21  O   UNL A   1      30.925  21.559  25.940  1.00  0.00    -0.388 OA
ATOM     22  H   UNL A   1      30.102  21.393  25.453  1.00  0.00     0.211 HD
ENDBRANCH  10  21
ENDBRANCH   5  10
ENDBRANCH   3   5
ENDBRANCH   2   3
ENDBRANCH   1   2
BRANCH   1  23
ATOM     23  C   UNL A   1      36.594  21.116  25.385  1.00  0.00     0.275 C 
BRANCH  23  24
ATOM     24  O   UNL A   1      37.863  21.682  25.018  1.00  0.00    -0.458 OA
BRANCH  24  25
ATOM     25  C   UNL A   1      38.917  21.319  25.778  1.00  0.00     0.338 C 
ATOM     26  O   UNL A   1      39.496  20.245  25.800  1.00  0.00    -0.246 OA
BRANCH  25  27
ATOM     27  C   UNL A   1      39.342  22.472  26.586  1.00  0.00     0.060 A 
ATOM     28  C   UNL A   1      38.763  23.710  26.336  1.00  0.00     0.016 A 
ATOM     29  C   UNL A   1      40.409  22.362  27.477  1.00  0.00     0.016 A 
ATOM     30  C   UNL A   1      39.321  24.856  26.890  1.00  0.00     0.010 A 
ATOM     31  C   UNL A   1      40.919  23.514  28.092  1.00  0.00     0.010 A 
ATOM     32  C   UNL A   1      40.423  24.785  27.755  1.00  0.00    -0.014 A 
BRANCH  32  33
ATOM     33  C   UNL A   1      41.106  26.049  28.169  1.00  0.00     0.031 A 
ATOM     34  C   UNL A   1      42.490  26.368  27.657  1.00  0.00     0.074 A 
ATOM     35  C   UNL A   1      40.446  26.986  28.881  1.00  0.00     0.049 A 
ATOM     36  N   UNL A   1      43.268  27.387  27.943  1.00  0.00    -0.248 NA
ATOM     37  C   UNL A   1      43.088  25.418  26.707  1.00  0.00     0.031 C 
ATOM     38  C   UNL A   1      39.072  26.866  29.372  1.00  0.00     0.029 A 
ATOM     39  N   UNL A   1      40.815  28.259  29.247  1.00  0.00    -0.354 N 
ATOM     40  C   UNL A   1      44.459  27.159  27.266  1.00  0.00     0.074 A 
ATOM     41  C   UNL A   1      44.307  25.912  26.548  1.00  0.00     0.031 C 
ATOM     42  C   UNL A   1      38.672  28.054  29.848  1.00  0.00     0.029 A 
ATOM     43  C   UNL A   1      39.785  28.995  29.783  1.00  0.00     0.049 A 
ATOM     44  H   UNL A   1      41.728  28.609  29.136  1.00  0.00     0.167 HD
ATOM     45  C   UNL A   1      45.580  27.921  27.239  1.00  0.00     0.037 A 
ATOM     46  C   UNL A   1      39.739  30.285  30.168  1.00  0.00     0.037 A 
ATOM     47  C   UNL A   1      45.707  29.212  27.860  1.00  0.00     0.049 A 
ATOM     48  C   UNL A   1      40.985  31.122  30.104  1.00  0.00     0.074 A 
ATOM     49  C   UNL A   1      46.818  30.034  27.933  1.00  0.00     0.029 A 
ATOM     50  N   UNL A   1      44.666  29.892  28.471  1.00  0.00    -0.354 N 
ATOM     51  N   UNL A   1      42.154  30.832  29.595  1.00  0.00    -0.248 NA
ATOM     52  C   UNL A   1      40.907  32.462  30.707  1.00  0.00     0.031 C 
ATOM     53  C   UNL A   1      46.451  31.214  28.591  1.00  0.00     0.029 A 
ATOM     54  C   UNL A   1      45.105  31.133  28.906  1.00  0.00     0.049 A 
ATOM     55  H   UNL A   1      43.751  29.546  28.579  1.00  0.00     0.167 HD
ATOM     56  C   UNL A   1      42.956  31.940  29.828  1.00  0.00     0.074 A 
ATOM     57  C   UNL A   1      42.126  32.931  30.479  1.00  0.00     0.031 C 
ATOM     58  C   UNL A   1      44.272  32.110  29.553  1.00  0.00     0.037 A 
BRANCH  45  59
ATOM     59  C   UNL A   1      46.782  27.361  26.541  1.00  0.00     0.064 A 
ATOM     60  C   UNL A   1      47.693  26.517  27.190  1.00  0.00     0.173 A 
ATOM     61  C   UNL A   1      46.995  27.641  25.182  1.00  0.00     0.173 A 
ATOM     62  F   UNL A   1      47.540  26.233  28.492  1.00  0.00    -0.203 F 
ATOM     63  C   UNL A   1      48.783  25.985  26.506  1.00  0.00     0.198 A 
ATOM     64  C   UNL A   1      48.073  27.089  24.496  1.00  0.00     0.198 A 
ATOM     65  F   UNL A   1      46.147  28.439  24.516  1.00  0.00    -0.203 F 
ATOM     66  F   UNL A   1      49.663  25.206  27.152  1.00  0.00    -0.200 F 
ATOM     67  C   UNL A   1      48.968  26.266  25.160  1.00  0.00     0.200 A 
ATOM     68  F   UNL A   1      48.242  27.352  23.193  1.00  0.00    -0.200 F 
ATOM     69  F   UNL A   1      50.013  25.743  24.501  1.00  0.00    -0.200 F 
ENDBRANCH  45  59
BRANCH  46  70
ATOM     70  C   UNL A   1      38.462  30.878  30.644  1.00  0.00     0.064 A 
ATOM     71  C   UNL A   1      38.170  30.927  32.014  1.00  0.00     0.173 A 
ATOM     72  C   UNL A   1      37.508  31.392  29.754  1.00  0.00     0.173 A 
ATOM     73  F   UNL A   1      39.039  30.423  32.904  1.00  0.00    -0.203 F 
ATOM     74  C   UNL A   1      36.970  31.462  32.477  1.00  0.00     0.198 A 
ATOM     75  C   UNL A   1      36.322  31.952  30.218  1.00  0.00     0.198 A 
ATOM     76  F   UNL A   1      37.737  31.361  28.433  1.00  0.00    -0.203 F 
ATOM     77  F   UNL A   1      36.699  31.462  33.789  1.00  0.00    -0.200 F 
ATOM     78  C   UNL A   1      36.050  31.981  31.578  1.00  0.00     0.200 A 
ATOM     79  F   UNL A   1      35.440  32.463  29.348  1.00  0.00    -0.200 F 
ATOM     80  F   UNL A   1      34.898  32.503  32.022  1.00  0.00    -0.200 F 
ENDBRANCH  46  70
BRANCH  58  81
ATOM     81  C   UNL A   1      44.893  33.411  29.960  1.00  0.00     0.064 A 
ATOM     82  C   UNL A   1      45.484  33.567  31.222  1.00  0.00     0.173 A 
ATOM     83  C   UNL A   1      44.918  34.502  29.079  1.00  0.00     0.173 A 
ATOM     84  F   UNL A   1      45.471  32.556  32.103  1.00  0.00    -0.203 F 
ATOM     85  C   UNL A   1      46.057  34.779  31.598  1.00  0.00     0.198 A 
ATOM     86  C   UNL A   1      45.511  35.706  29.450  1.00  0.00     0.198 A 
ATOM     87  F   UNL A   1      44.369  34.400  27.860  1.00  0.00    -0.203 F 
ATOM     88  F   UNL A   1      46.578  34.920  32.825  1.00  0.00    -0.200 F 
ATOM     89  C   UNL A   1      46.073  35.846  30.711  1.00  0.00     0.200 A 
ATOM     90  F   UNL A   1      45.531  36.734  28.592  1.00  0.00    -0.200 F 
ATOM     91  F   UNL A   1      46.622  37.012  31.076  1.00  0.00    -0.200 F 
ENDBRANCH  58  81
ENDBRANCH  32  33
ENDBRANCH  25  27
ENDBRANCH  24  25
ENDBRANCH  23  24
ENDBRANCH   1  23
TORSDOF 19
ENDMDL
MODEL 2
REMARK VINA RESULT:     -11.2      4.333      6.781
REMARK SMILES CCCC[C@@H](C(=O)OCCOC(=O)c1ccc(-c2c3nc(c(-c4c(F)c(F)c(F)c(F)c4F)c4ccc([nH]4)c(-c4c(F)c(F)c(F)c(F)c4F)c4nc(c(-c5c(F)c(F)c(F)c(F)c5F)c5ccc2[nH]5)C=C4)C=C3)cc1)[C@H](O)c1ccc(OC)c(O)c1
REMARK SMILES IDX 9 1 8 2 6 3 7 4 5 5 4 6 3 7 2 8 1 9 77 10 79 11 80 12 87 13
REMARK SMILES IDX 81 14 85 15 82 16 86 17 83 19 84 20 78 21 10 23 11 24 12 25
REMARK SMILES IDX 13 26 14 27 15 28 76 29 16 30 75 31 17 32 18 33 19 34 69 35
REMARK SMILES IDX 20 36 74 37 68 38 70 39 21 40 73 41 67 42 66 43 22 45 54 46
REMARK SMILES IDX 34 47 53 48 35 49 38 50 52 51 71 52 36 53 37 54 51 56 72 57
REMARK SMILES IDX 39 58 23 59 24 60 32 61 25 62 26 63 30 64 33 65 27 66 28 67
REMARK SMILES IDX 31 68 29 69 55 70 56 71 64 72 57 73 58 74 62 75 65 76 59 77
REMARK SMILES IDX 60 78 63 79 61 80 40 81 41 82 49 83 42 84 43 85 47 86 50 87
REMARK SMILES IDX 44 88 45 89 48 90 46 91
REMARK H PARENT 86 18 78 22 70 44 38 55
REMARK Flexibility Score: inf
ROOT
ATOM      1  C   UNL A   1      31.393  29.099  25.229  1.00  0.00     0.274 C 
ENDROOT
BRANCH   1   2
ATOM      2  O   UNL A   1      30.628  29.073  24.006  1.00  0.00    -0.462 OA
BRANCH   2   3
ATOM      3  C   UNL A   1      30.815  28.019  23.166  1.00  0.00     0.312 C 
ATOM      4  O   UNL A   1      30.430  27.990  22.003  1.00  0.00    -0.252 OA
BRANCH   3   5
ATOM      5  C   UNL A   1      31.420  26.826  23.891  1.00  0.00     0.132 C 
BRANCH   5   6
ATOM      6  C   UNL A   1      32.930  26.611  23.660  1.00  0.00     0.018 C 
BRANCH   6   7
ATOM      7  C   UNL A   1      33.810  26.479  24.916  1.00  0.00     0.001 C 
BRANCH   7   8
ATOM      8  C   UNL A   1      34.372  25.092  25.226  1.00  0.00    -0.003 C 
ATOM      9  C   UNL A   1      34.736  24.286  23.991  1.00  0.00     0.004 C 
ENDBRANCH   7   8
ENDBRANCH   6   7
ENDBRANCH   5   6
BRANCH   5  10
ATOM     10  C   UNL A   1      30.547  25.553  23.704  1.00  0.00     0.159 C 
BRANCH  10  11
ATOM     11  C   UNL A   1      30.926  24.158  24.184  1.00  0.00    -0.015 A 
ATOM     12  C   UNL A   1      31.412  23.125  23.382  1.00  0.00     0.010 A 
ATOM     13  C   UNL A   1      30.893  23.925  25.578  1.00  0.00     0.056 A 
ATOM     14  C   UNL A   1      31.839  21.914  23.949  1.00  0.00     0.051 A 
ATOM     15  C   UNL A   1      31.323  22.715  26.145  1.00  0.00     0.158 A 
ATOM     16  C   UNL A   1      31.801  21.690  25.330  1.00  0.00     0.160 A 
BRANCH  15  17
ATOM     17  O   UNL A   1      31.262  22.577  27.504  1.00  0.00    -0.504 OA
ATOM     18  H   UNL A   1      31.447  21.749  27.899  1.00  0.00     0.293 HD
ENDBRANCH  15  17
BRANCH  16  19
ATOM     19  O   UNL A   1      32.250  20.449  25.683  1.00  0.00    -0.493 OA
ATOM     20  C   UNL A   1      33.177  19.794  24.826  1.00  0.00     0.278 C 
ENDBRANCH  16  19
ENDBRANCH  10  11
BRANCH  10  21
ATOM     21  O   UNL A   1      29.256  25.849  24.271  1.00  0.00    -0.388 OA
ATOM     22  H   UNL A   1      29.083  25.248  25.013  1.00  0.00     0.211 HD
ENDBRANCH  10  21
ENDBRANCH   5  10
ENDBRANCH   3   5
ENDBRANCH   2   3
ENDBRANCH   1   2
BRANCH   1  23
ATOM     23  C   UNL A   1      31.663  30.536  25.661  1.00  0.00     0.275 C 
BRANCH  23  24
ATOM     24  O   UNL A   1      32.319  30.525  26.939  1.00  0.00    -0.458 OA
BRANCH  24  25
ATOM     25  C   UNL A   1      33.030  31.629  27.251  1.00  0.00     0.338 C 
ATOM     26  O   UNL A   1      32.661  32.792  27.237  1.00  0.00    -0.246 OA
BRANCH  25  27
ATOM     27  C   UNL A   1      34.374  31.223  27.689  1.00  0.00     0.060 A 
ATOM     28  C   UNL A   1      34.639  29.869  27.857  1.00  0.00     0.016 A 
ATOM     29  C   UNL A   1      35.314  32.176  28.078  1.00  0.00     0.016 A 
ATOM     30  C   UNL A   1      35.797  29.469  28.513  1.00  0.00     0.010 A 
ATOM     31  C   UNL A   1      36.515  31.762  28.673  1.00  0.00     0.010 A 
ATOM     32  C   UNL A   1      36.743  30.405  28.958  1.00  0.00    -0.014 A 
BRANCH  32  33
ATOM     33  C   UNL A   1      37.869  29.945  29.826  1.00  0.00     0.031 A 
ATOM     34  C   UNL A   1      39.037  29.200  29.225  1.00  0.00     0.074 A 
ATOM     35  C   UNL A   1      37.933  30.313  31.122  1.00  0.00     0.049 A 
ATOM     36  N   UNL A   1      40.082  28.674  29.820  1.00  0.00    -0.248 NA
ATOM     37  C   UNL A   1      39.030  29.009  27.766  1.00  0.00     0.031 C 
ATOM     38  C   UNL A   1      36.929  31.111  31.827  1.00  0.00     0.029 A 
ATOM     39  N   UNL A   1      38.924  30.132  32.058  1.00  0.00    -0.354 N 
ATOM     40  C   UNL A   1      40.810  28.038  28.822  1.00  0.00     0.074 A 
ATOM     41  C   UNL A   1      40.097  28.244  27.580  1.00  0.00     0.031 C 
ATOM     42  C   UNL A   1      37.412  31.463  33.028  1.00  0.00     0.029 A 
ATOM     43  C   UNL A   1      38.720  30.843  33.217  1.00  0.00     0.049 A 
ATOM     44  H   UNL A   1      39.705  29.551  31.912  1.00  0.00     0.167 HD
ATOM     45  C   UNL A   1      41.971  27.346  28.927  1.00  0.00     0.037 A 
ATOM     46  C   UNL A   1      39.500  30.987  34.305  1.00  0.00     0.037 A 
ATOM     47  C   UNL A   1      42.744  27.223  30.133  1.00  0.00     0.049 A 
ATOM     48  C   UNL A   1      40.798  30.235  34.390  1.00  0.00     0.074 A 
ATOM     49  C   UNL A   1      43.904  26.499  30.350  1.00  0.00     0.029 A 
ATOM     50  N   UNL A   1      42.461  27.887  31.315  1.00  0.00    -0.354 N 
ATOM     51  N   UNL A   1      41.398  29.509  33.482  1.00  0.00    -0.248 NA
ATOM     52  C   UNL A   1      41.510  30.297  35.676  1.00  0.00     0.031 C 
ATOM     53  C   UNL A   1      44.323  26.723  31.667  1.00  0.00     0.029 A 
ATOM     54  C   UNL A   1      43.436  27.605  32.260  1.00  0.00     0.049 A 
ATOM     55  H   UNL A   1      41.684  28.473  31.462  1.00  0.00     0.167 HD
ATOM     56  C   UNL A   1      42.545  29.015  34.087  1.00  0.00     0.074 A 
ATOM     57  C   UNL A   1      42.586  29.565  35.425  1.00  0.00     0.031 C 
ATOM     58  C   UNL A   1      43.467  28.157  33.587  1.00  0.00     0.037 A 
BRANCH  45  59
ATOM     59  C   UNL A   1      42.464  26.631  27.706  1.00  0.00     0.064 A 
ATOM     60  C   UNL A   1      43.379  27.216  26.820  1.00  0.00     0.173 A 
ATOM     61  C   UNL A   1      42.045  25.316  27.449  1.00  0.00     0.173 A 
ATOM     62  F   UNL A   1      43.797  28.475  27.015  1.00  0.00    -0.203 F 
ATOM     63  C   UNL A   1      43.845  26.514  25.711  1.00  0.00     0.198 A 
ATOM     64  C   UNL A   1      42.531  24.609  26.352  1.00  0.00     0.198 A 
ATOM     65  F   UNL A   1      41.174  24.711  28.271  1.00  0.00    -0.203 F 
ATOM     66  F   UNL A   1      44.696  27.101  24.856  1.00  0.00    -0.200 F 
ATOM     67  C   UNL A   1      43.427  25.210  25.482  1.00  0.00     0.200 A 
ATOM     68  F   UNL A   1      42.134  23.347  26.140  1.00  0.00    -0.200 F 
ATOM     69  F   UNL A   1      43.886  24.534  24.420  1.00  0.00    -0.200 F 
ENDBRANCH  45  59
BRANCH  46  70
ATOM     70  C   UNL A   1      39.086  31.892  35.408  1.00  0.00     0.064 A 
ATOM     71  C   UNL A   1      39.476  33.238  35.406  1.00  0.00     0.173 A 
ATOM     72  C   UNL A   1      38.310  31.438  36.484  1.00  0.00     0.173 A 
ATOM     73  F   UNL A   1      40.242  33.714  34.412  1.00  0.00    -0.203 F 
ATOM     74  C   UNL A   1      39.113  34.095  36.443  1.00  0.00     0.198 A 
ATOM     75  C   UNL A   1      37.923  32.302  37.505  1.00  0.00     0.198 A 
ATOM     76  F   UNL A   1      37.918  30.157  36.536  1.00  0.00    -0.203 F 
ATOM     77  F   UNL A   1      39.531  35.368  36.436  1.00  0.00    -0.200 F 
ATOM     78  C   UNL A   1      38.330  33.628  37.487  1.00  0.00     0.200 A 
ATOM     79  F   UNL A   1      37.157  31.849  38.507  1.00  0.00    -0.200 F 
ATOM     80  F   UNL A   1      37.973  34.454  38.481  1.00  0.00    -0.200 F 
ENDBRANCH  46  70
BRANCH  58  81
ATOM     81  C   UNL A   1      44.593  27.760  34.492  1.00  0.00     0.064 A 
ATOM     82  C   UNL A   1      44.480  26.650  35.342  1.00  0.00     0.173 A 
ATOM     83  C   UNL A   1      45.799  28.476  34.496  1.00  0.00     0.173 A 
ATOM     84  F   UNL A   1      43.341  25.944  35.383  1.00  0.00    -0.203 F 
ATOM     85  C   UNL A   1      45.527  26.286  36.185  1.00  0.00     0.198 A 
ATOM     86  C   UNL A   1      46.851  28.096  35.324  1.00  0.00     0.198 A 
ATOM     87  F   UNL A   1      45.955  29.541  33.697  1.00  0.00    -0.203 F 
ATOM     88  F   UNL A   1      45.383  25.249  37.021  1.00  0.00    -0.200 F 
ATOM     89  C   UNL A   1      46.712  27.007  36.172  1.00  0.00     0.200 A 
ATOM     90  F   UNL A   1      47.997  28.789  35.308  1.00  0.00    -0.200 F 
ATOM     91  F   UNL A   1      47.718  26.657  36.986  1.00  0.00    -0.200 F 
ENDBRANCH  58  81
ENDBRANCH  32  33
ENDBRANCH  25  27
ENDBRANCH  24  25
ENDBRANCH  23  24
ENDBRANCH   1  23
TORSDOF 19
ENDMDL
MODEL 3
REMARK VINA RESULT:     -11.2      4.916      7.800
REMARK SMILES CCCC[C@@H](C(=O)OCCOC(=O)c1ccc(-c2c3nc(c(-c4c(F)c(F)c(F)c(F)c4F)c4ccc([nH]4)c(-c4c(F)c(F)c(F)c(F)c4F)c4nc(c(-c5c(F)c(F)c(F)c(F)c5F)c5ccc2[nH]5)C=C4)C=C3)cc1)[C@H](O)c1ccc(OC)c(O)c1
REMARK SMILES IDX 9 1 8 2 6 3 7 4 5 5 4 6 3 7 2 8 1 9 77 10 79 11 80 12 87 13
REMARK SMILES IDX 81 14 85 15 82 16 86 17 83 19 84 20 78 21 10 23 11 24 12 25
REMARK SMILES IDX 13 26 14 27 15 28 76 29 16 30 75 31 17 32 18 33 19 34 69 35
REMARK SMILES IDX 20 36 74 37 68 38 70 39 21 40 73 41 67 42 66 43 22 45 54 46
REMARK SMILES IDX 34 47 53 48 35 49 38 50 52 51 71 52 36 53 37 54 51 56 72 57
REMARK SMILES IDX 39 58 23 59 24 60 32 61 25 62 26 63 30 64 33 65 27 66 28 67
REMARK SMILES IDX 31 68 29 69 55 70 56 71 64 72 57 73 58 74 62 75 65 76 59 77
REMARK SMILES IDX 60 78 63 79 61 80 40 81 41 82 49 83 42 84 43 85 47 86 50 87
REMARK SMILES IDX 44 88 45 89 48 90 46 91
REMARK H PARENT 86 18 78 22 70 44 38 55
REMARK Flexibility Score: inf
ROOT
ATOM      1  C   UNL A   1      31.759  28.949  26.895  1.00  0.00     0.274 C 
ENDROOT
BRANCH   1   2
ATOM      2  O   UNL A   1      31.868  28.186  25.675  1.00  0.00    -0.462 OA
BRANCH   2   3
ATOM      3  C   UNL A   1      31.313  26.944  25.653  1.00  0.00     0.312 C 
ATOM      4  O   UNL A   1      30.657  26.467  26.570  1.00  0.00    -0.252 OA
BRANCH   3   5
ATOM      5  C   UNL A   1      31.736  26.164  24.416  1.00  0.00     0.132 C 
BRANCH   5   6
ATOM      6  C   UNL A   1      33.217  26.317  24.016  1.00  0.00     0.018 C 
BRANCH   6   7
ATOM      7  C   UNL A   1      34.141  25.121  24.308  1.00  0.00     0.001 C 
BRANCH   7   8
ATOM      8  C   UNL A   1      34.384  24.137  23.164  1.00  0.00    -0.003 C 
ATOM      9  C   UNL A   1      35.378  23.037  23.500  1.00  0.00     0.004 C 
ENDBRANCH   7   8
ENDBRANCH   6   7
ENDBRANCH   5   6
BRANCH   5  10
ATOM     10  C   UNL A   1      30.725  26.365  23.252  1.00  0.00     0.159 C 
BRANCH  10  11
ATOM     11  C   UNL A   1      29.951  27.648  22.981  1.00  0.00    -0.015 A 
ATOM     12  C   UNL A   1      30.477  28.816  22.428  1.00  0.00     0.010 A 
ATOM     13  C   UNL A   1      28.555  27.616  23.201  1.00  0.00     0.056 A 
ATOM     14  C   UNL A   1      29.645  29.902  22.115  1.00  0.00     0.051 A 
ATOM     15  C   UNL A   1      27.723  28.702  22.886  1.00  0.00     0.158 A 
ATOM     16  C   UNL A   1      28.265  29.864  22.338  1.00  0.00     0.160 A 
BRANCH  15  17
ATOM     17  O   UNL A   1      26.382  28.584  23.125  1.00  0.00    -0.504 OA
ATOM     18  H   UNL A   1      25.915  27.836  22.810  1.00  0.00     0.293 HD
ENDBRANCH  15  17
BRANCH  16  19
ATOM     19  O   UNL A   1      27.633  31.021  21.977  1.00  0.00    -0.493 OA
ATOM     20  C   UNL A   1      28.215  31.821  20.956  1.00  0.00     0.278 C 
ENDBRANCH  16  19
ENDBRANCH  10  11
BRANCH  10  21
ATOM     21  O   UNL A   1      31.426  26.040  22.034  1.00  0.00    -0.388 OA
ATOM     22  H   UNL A   1      31.829  25.161  22.118  1.00  0.00     0.211 HD
ENDBRANCH  10  21
ENDBRANCH   5  10
ENDBRANCH   3   5
ENDBRANCH   2   3
ENDBRANCH   1   2
BRANCH   1  23
ATOM     23  C   UNL A   1      31.744  30.443  26.593  1.00  0.00     0.275 C 
BRANCH  23  24
ATOM     24  O   UNL A   1      33.091  30.886  26.358  1.00  0.00    -0.458 OA
BRANCH  24  25
ATOM     25  C   UNL A   1      33.588  31.771  27.247  1.00  0.00     0.338 C 
ATOM     26  O   UNL A   1      33.070  32.796  27.660  1.00  0.00    -0.246 OA
BRANCH  25  27
ATOM     27  C   UNL A   1      34.891  31.286  27.726  1.00  0.00     0.060 A 
ATOM     28  C   UNL A   1      35.049  29.926  27.965  1.00  0.00     0.016 A 
ATOM     29  C   UNL A   1      35.898  32.183  28.081  1.00  0.00     0.016 A 
ATOM     30  C   UNL A   1      36.164  29.473  28.659  1.00  0.00     0.010 A 
ATOM     31  C   UNL A   1      37.056  31.709  28.714  1.00  0.00     0.010 A 
ATOM     32  C   UNL A   1      37.175  30.355  29.070  1.00  0.00    -0.014 A 
BRANCH  32  33
ATOM     33  C   UNL A   1      38.252  29.855  29.978  1.00  0.00     0.031 A 
ATOM     34  C   UNL A   1      39.420  29.080  29.416  1.00  0.00     0.074 A 
ATOM     35  C   UNL A   1      38.276  30.211  31.279  1.00  0.00     0.049 A 
ATOM     36  N   UNL A   1      40.425  28.518  30.047  1.00  0.00    -0.248 NA
ATOM     37  C   UNL A   1      39.465  28.899  27.957  1.00  0.00     0.031 C 
ATOM     38  C   UNL A   1      37.269  31.034  31.950  1.00  0.00     0.029 A 
ATOM     39  N   UNL A   1      39.224  29.994  32.251  1.00  0.00    -0.354 N 
ATOM     40  C   UNL A   1      41.172  27.868  29.073  1.00  0.00     0.074 A 
ATOM     41  C   UNL A   1      40.515  28.105  27.806  1.00  0.00     0.031 C 
ATOM     42  C   UNL A   1      37.716  31.362  33.172  1.00  0.00     0.029 A 
ATOM     43  C   UNL A   1      38.996  30.702  33.407  1.00  0.00     0.049 A 
ATOM     44  H   UNL A   1      39.992  29.390  32.130  1.00  0.00     0.167 HD
ATOM     45  C   UNL A   1      42.307  27.141  29.217  1.00  0.00     0.037 A 
ATOM     46  C   UNL A   1      39.737  30.815  34.525  1.00  0.00     0.037 A 
ATOM     47  C   UNL A   1      43.029  26.986  30.451  1.00  0.00     0.049 A 
ATOM     48  C   UNL A   1      41.008  30.023  34.655  1.00  0.00     0.074 A 
ATOM     49  C   UNL A   1      44.157  26.226  30.707  1.00  0.00     0.029 A 
ATOM     50  N   UNL A   1      42.720  27.649  31.627  1.00  0.00    -0.354 N 
ATOM     51  N   UNL A   1      41.621  29.286  33.764  1.00  0.00    -0.248 NA
ATOM     52  C   UNL A   1      41.670  30.055  35.968  1.00  0.00     0.031 C 
ATOM     53  C   UNL A   1      44.531  26.428  32.041  1.00  0.00     0.029 A 
ATOM     54  C   UNL A   1      43.647  27.331  32.606  1.00  0.00     0.049 A 
ATOM     55  H   UNL A   1      41.955  28.258  31.749  1.00  0.00     0.167 HD
ATOM     56  C   UNL A   1      42.728  28.754  34.409  1.00  0.00     0.074 A 
ATOM     57  C   UNL A   1      42.733  29.293  35.752  1.00  0.00     0.031 C 
ATOM     58  C   UNL A   1      43.644  27.873  33.938  1.00  0.00     0.037 A 
BRANCH  45  59
ATOM     59  C   UNL A   1      42.826  26.420  28.010  1.00  0.00     0.064 A 
ATOM     60  C   UNL A   1      43.672  27.039  27.080  1.00  0.00     0.173 A 
ATOM     61  C   UNL A   1      42.504  25.068  27.811  1.00  0.00     0.173 A 
ATOM     62  F   UNL A   1      43.996  28.334  27.220  1.00  0.00    -0.203 F 
ATOM     63  C   UNL A   1      44.166  26.334  25.986  1.00  0.00     0.198 A 
ATOM     64  C   UNL A   1      43.018  24.360  26.728  1.00  0.00     0.198 A 
ATOM     65  F   UNL A   1      41.702  24.430  28.676  1.00  0.00    -0.203 F 
ATOM     66  F   UNL A   1      44.949  26.952  25.089  1.00  0.00    -0.200 F 
ATOM     67  C   UNL A   1      43.845  24.995  25.814  1.00  0.00     0.200 A 
ATOM     68  F   UNL A   1      42.716  23.065  26.571  1.00  0.00    -0.200 F 
ATOM     69  F   UNL A   1      44.331  24.316  24.766  1.00  0.00    -0.200 F 
ENDBRANCH  45  59
BRANCH  46  70
ATOM     70  C   UNL A   1      39.307  31.724  35.619  1.00  0.00     0.064 A 
ATOM     71  C   UNL A   1      39.822  33.025  35.705  1.00  0.00     0.173 A 
ATOM     72  C   UNL A   1      38.392  31.318  36.601  1.00  0.00     0.173 A 
ATOM     73  F   UNL A   1      40.721  33.451  34.805  1.00  0.00    -0.203 F 
ATOM     74  C   UNL A   1      39.444  33.883  36.735  1.00  0.00     0.198 A 
ATOM     75  C   UNL A   1      37.993  32.185  37.614  1.00  0.00     0.198 A 
ATOM     76  F   UNL A   1      37.877  30.080  36.568  1.00  0.00    -0.203 F 
ATOM     77  F   UNL A   1      39.980  35.108  36.815  1.00  0.00    -0.200 F 
ATOM     78  C   UNL A   1      38.524  33.465  37.684  1.00  0.00     0.200 A 
ATOM     79  F   UNL A   1      37.096  31.781  38.523  1.00  0.00    -0.200 F 
ATOM     80  F   UNL A   1      38.154  34.292  38.672  1.00  0.00    -0.200 F 
ENDBRANCH  46  70
BRANCH  58  81
ATOM     81  C   UNL A   1      44.720  27.435  34.883  1.00  0.00     0.064 A 
ATOM     82  C   UNL A   1      45.924  28.148  34.989  1.00  0.00     0.173 A 
ATOM     83  C   UNL A   1      44.544  26.312  35.703  1.00  0.00     0.173 A 
ATOM     84  F   UNL A   1      46.143  29.221  34.215  1.00  0.00    -0.203 F 
ATOM     85  C   UNL A   1      46.924  27.736  35.866  1.00  0.00     0.198 A 
ATOM     86  C   UNL A   1      45.538  25.914  36.594  1.00  0.00     0.198 A 
ATOM     87  F   UNL A   1      43.409  25.600  35.640  1.00  0.00    -0.203 F 
ATOM     88  F   UNL A   1      48.083  28.406  35.920  1.00  0.00    -0.200 F 
ATOM     89  C   UNL A   1      46.728  26.622  36.669  1.00  0.00     0.200 A 
ATOM     90  F   UNL A   1      45.346  24.843  37.373  1.00  0.00    -0.200 F 
ATOM     91  F   UNL A   1      47.693  26.225  37.510  1.00  0.00    -0.200 F 
ENDBRANCH  58  81
ENDBRANCH  32  33
ENDBRANCH  25  27
ENDBRANCH  24  25
ENDBRANCH  23  24
ENDBRANCH   1  23
TORSDOF 19
ENDMDL
