MODEL 1
REMARK VINA RESULT:     -12.1      0.000      0.000
REMARK SMILES C[C@H](NC(=O)[C@@H](C)Oc1ccc(Cl)cc1Br)C(=O)OCCOC(=O)c1ccc(-c2c3nc(c(-c4c(F)c(F)c(F)c(F)c4F)c4ccc([nH]4)c(-c4c(F)c(F)c(F)c(F)c4F)c4nc(c(-c5c(F)c(F)c(F)c(F)c5F)c5ccc2[nH]5)C=C4)C=C3)cc1
REMARK SMILES IDX 20 1 19 2 17 3 18 4 2 5 1 6 3 7 4 8 5 10 6 11 7 12 8 13 9 14
REMARK SMILES IDX 10 15 15 16 11 17 14 18 16 19 12 20 13 21 21 22 22 23 23 24
REMARK SMILES IDX 24 25 25 26 26 27 87 28 27 29 86 30 28 31 29 32 30 33 80 34
REMARK SMILES IDX 31 35 85 36 79 37 81 38 32 39 84 40 78 41 77 42 33 44 65 45
REMARK SMILES IDX 45 46 64 47 46 48 49 49 63 50 82 51 47 52 48 53 62 55 83 56
REMARK SMILES IDX 50 57 34 58 35 59 43 60 36 61 37 62 41 63 44 64 38 65 39 66
REMARK SMILES IDX 42 67 40 68 66 69 67 70 75 71 68 72 69 73 73 74 76 75 70 76
REMARK SMILES IDX 71 77 74 78 72 79 51 80 52 81 60 82 53 83 54 84 58 85 61 86
REMARK SMILES IDX 55 87 56 88 59 89 57 90
REMARK H PARENT 3 9 81 43 49 54
REMARK Flexibility Score: inf
ROOT
ATOM      1  C   UNL A   1      31.147  28.506  25.202  1.00  0.00     0.274 C 
ENDROOT
BRANCH   1   2
ATOM      2  O   UNL A   1      31.348  29.265  23.989  1.00  0.00    -0.461 OA
BRANCH   2   3
ATOM      3  C   UNL A   1      31.541  28.536  22.850  1.00  0.00     0.328 C 
ATOM      4  O   UNL A   1      30.696  28.360  21.980  1.00  0.00    -0.250 OA
BRANCH   3   5
ATOM      5  C   UNL A   1      32.902  27.805  22.857  1.00  0.00     0.189 C 
ATOM      6  C   UNL A   1      33.977  28.874  23.016  1.00  0.00     0.043 C 
BRANCH   5   7
ATOM      7  N   UNL A   1      33.073  26.965  21.667  1.00  0.00    -0.340 N 
ATOM      8  C   UNL A   1      33.010  25.630  21.424  1.00  0.00     0.261 C 
ATOM      9  H   UNL A   1      33.282  27.489  20.859  1.00  0.00     0.164 HD
ATOM     10  O   UNL A   1      32.857  25.323  20.233  1.00  0.00    -0.271 OA
BRANCH   8  11
ATOM     11  C   UNL A   1      33.143  24.496  22.488  1.00  0.00     0.258 C 
ATOM     12  C   UNL A   1      34.429  24.556  23.305  1.00  0.00     0.064 C 
BRANCH  11  13
ATOM     13  O   UNL A   1      32.056  23.989  23.261  1.00  0.00    -0.480 OA
BRANCH  13  14
ATOM     14  C   UNL A   1      32.146  22.677  23.605  1.00  0.00     0.134 A 
ATOM     15  C   UNL A   1      32.232  21.732  22.587  1.00  0.00     0.049 A 
ATOM     16  C   UNL A   1      32.272  22.276  24.941  1.00  0.00     0.061 A 
ATOM     17  C   UNL A   1      32.310  20.380  22.913  1.00  0.00     0.024 A 
ATOM     18  C   UNL A   1      32.315  20.920  25.266  1.00  0.00     0.040 A 
ATOM     19  Br  UNL A   1      32.436  23.527  26.358  1.00  0.00    -0.047 Br
ATOM     20  C   UNL A   1      32.308  19.974  24.247  1.00  0.00     0.042 A 
ATOM     21  Cl  UNL A   1      32.303  18.302  24.649  1.00  0.00    -0.084 Cl
ENDBRANCH  13  14
ENDBRANCH  11  13
ENDBRANCH   8  11
ENDBRANCH   5   7
ENDBRANCH   3   5
ENDBRANCH   2   3
ENDBRANCH   1   2
BRANCH   1  22
ATOM     22  C   UNL A   1      31.674  29.263  26.414  1.00  0.00     0.275 C 
BRANCH  22  23
ATOM     23  O   UNL A   1      32.686  30.189  25.987  1.00  0.00    -0.458 OA
BRANCH  23  24
ATOM     24  C   UNL A   1      33.044  31.125  26.891  1.00  0.00     0.338 C 
ATOM     25  O   UNL A   1      32.381  32.081  27.269  1.00  0.00    -0.246 OA
BRANCH  24  26
ATOM     26  C   UNL A   1      34.401  30.843  27.398  1.00  0.00     0.060 A 
ATOM     27  C   UNL A   1      34.819  29.532  27.612  1.00  0.00     0.016 A 
ATOM     28  C   UNL A   1      35.231  31.903  27.770  1.00  0.00     0.016 A 
ATOM     29  C   UNL A   1      36.022  29.299  28.281  1.00  0.00     0.010 A 
ATOM     30  C   UNL A   1      36.470  31.652  28.379  1.00  0.00     0.010 A 
ATOM     31  C   UNL A   1      36.862  30.343  28.701  1.00  0.00    -0.014 A 
BRANCH  31  32
ATOM     32  C   UNL A   1      38.061  30.065  29.561  1.00  0.00     0.031 A 
ATOM     33  C   UNL A   1      39.240  29.301  28.995  1.00  0.00     0.074 A 
ATOM     34  C   UNL A   1      38.180  30.553  30.815  1.00  0.00     0.049 A 
ATOM     35  N   UNL A   1      40.252  28.749  29.621  1.00  0.00    -0.248 NA
ATOM     36  C   UNL A   1      39.284  29.130  27.535  1.00  0.00     0.031 C 
ATOM     37  C   UNL A   1      37.203  31.396  31.501  1.00  0.00     0.029 A 
ATOM     38  N   UNL A   1      39.208  30.442  31.726  1.00  0.00    -0.354 N 
ATOM     39  C   UNL A   1      40.988  28.084  28.647  1.00  0.00     0.074 A 
ATOM     40  C   UNL A   1      40.329  28.329  27.382  1.00  0.00     0.031 C 
ATOM     41  C   UNL A   1      37.718  31.811  32.668  1.00  0.00     0.029 A 
ATOM     42  C   UNL A   1      38.999  31.148  32.886  1.00  0.00     0.049 A 
ATOM     43  H   UNL A   1      40.017  29.905  31.561  1.00  0.00     0.167 HD
ATOM     44  C   UNL A   1      42.099  27.324  28.798  1.00  0.00     0.037 A 
ATOM     45  C   UNL A   1      39.718  31.217  34.024  1.00  0.00     0.037 A 
ATOM     46  C   UNL A   1      42.821  27.163  30.034  1.00  0.00     0.049 A 
ATOM     47  C   UNL A   1      40.940  30.357  34.182  1.00  0.00     0.074 A 
ATOM     48  C   UNL A   1      43.934  26.379  30.293  1.00  0.00     0.029 A 
ATOM     49  N   UNL A   1      42.528  27.839  31.207  1.00  0.00    -0.354 N 
ATOM     50  N   UNL A   1      41.520  29.572  33.307  1.00  0.00    -0.248 NA
ATOM     51  C   UNL A   1      41.576  30.348  35.508  1.00  0.00     0.031 C 
ATOM     52  C   UNL A   1      44.306  26.572  31.629  1.00  0.00     0.029 A 
ATOM     53  C   UNL A   1      43.444  27.497  32.191  1.00  0.00     0.049 A 
ATOM     54  H   UNL A   1      41.782  28.469  31.326  1.00  0.00     0.167 HD
ATOM     55  C   UNL A   1      42.575  28.969  33.978  1.00  0.00     0.074 A 
ATOM     56  C   UNL A   1      42.582  29.505  35.323  1.00  0.00     0.031 C 
ATOM     57  C   UNL A   1      43.445  28.036  33.524  1.00  0.00     0.037 A 
BRANCH  44  58
ATOM     58  C   UNL A   1      42.582  26.553  27.605  1.00  0.00     0.064 A 
ATOM     59  C   UNL A   1      43.580  27.038  26.751  1.00  0.00     0.173 A 
ATOM     60  C   UNL A   1      42.057  25.276  27.346  1.00  0.00     0.173 A 
ATOM     61  F   UNL A   1      44.102  28.258  26.948  1.00  0.00    -0.203 F 
ATOM     62  C   UNL A   1      44.025  26.280  25.670  1.00  0.00     0.198 A 
ATOM     63  C   UNL A   1      42.521  24.511  26.280  1.00  0.00     0.198 A 
ATOM     64  F   UNL A   1      41.104  24.763  28.139  1.00  0.00    -0.203 F 
ATOM     65  F   UNL A   1      44.956  26.777  24.843  1.00  0.00    -0.200 F 
ATOM     66  C   UNL A   1      43.501  25.016  25.440  1.00  0.00     0.200 A 
ATOM     67  F   UNL A   1      42.020  23.286  26.067  1.00  0.00    -0.200 F 
ATOM     68  F   UNL A   1      43.937  24.285  24.403  1.00  0.00    -0.200 F 
ENDBRANCH  44  58
BRANCH  45  69
ATOM     69  C   UNL A   1      39.255  32.076  35.148  1.00  0.00     0.064 A 
ATOM     70  C   UNL A   1      38.494  31.541  36.196  1.00  0.00     0.173 A 
ATOM     71  C   UNL A   1      39.552  33.446  35.190  1.00  0.00     0.173 A 
ATOM     72  F   UNL A   1      38.149  30.245  36.180  1.00  0.00    -0.203 F 
ATOM     73  C   UNL A   1      38.048  32.345  37.244  1.00  0.00     0.198 A 
ATOM     74  C   UNL A   1      39.137  34.241  36.254  1.00  0.00     0.198 A 
ATOM     75  F   UNL A   1      40.264  34.010  34.204  1.00  0.00    -0.203 F 
ATOM     76  F   UNL A   1      37.286  31.820  38.212  1.00  0.00    -0.200 F 
ATOM     77  C   UNL A   1      38.380  33.692  37.278  1.00  0.00     0.200 A 
ATOM     78  F   UNL A   1      39.470  35.538  36.288  1.00  0.00    -0.200 F 
ATOM     79  F   UNL A   1      37.961  34.462  38.291  1.00  0.00    -0.200 F 
ENDBRANCH  45  69
BRANCH  57  80
ATOM     80  C   UNL A   1      44.483  27.542  34.484  1.00  0.00     0.064 A 
ATOM     81  C   UNL A   1      45.681  28.244  34.685  1.00  0.00     0.173 A 
ATOM     82  C   UNL A   1      44.270  26.374  35.230  1.00  0.00     0.173 A 
ATOM     83  F   UNL A   1      45.936  29.358  33.982  1.00  0.00    -0.203 F 
ATOM     84  C   UNL A   1      46.638  27.782  35.585  1.00  0.00     0.198 A 
ATOM     85  C   UNL A   1      45.221  25.926  36.143  1.00  0.00     0.198 A 
ATOM     86  F   UNL A   1      43.139  25.670  35.075  1.00  0.00    -0.203 F 
ATOM     87  F   UNL A   1      47.792  28.446  35.733  1.00  0.00    -0.200 F 
ATOM     88  C   UNL A   1      46.404  26.627  36.316  1.00  0.00     0.200 A 
ATOM     89  F   UNL A   1      44.992  24.813  36.854  1.00  0.00    -0.200 F 
ATOM     90  F   UNL A   1      47.327  26.183  37.182  1.00  0.00    -0.200 F 
ENDBRANCH  57  80
ENDBRANCH  31  32
ENDBRANCH  24  26
ENDBRANCH  23  24
ENDBRANCH  22  23
ENDBRANCH   1  22
TORSDOF 15
ENDMDL
MODEL 2
REMARK VINA RESULT:     -12.0      1.319      2.041
REMARK SMILES C[C@H](NC(=O)[C@@H](C)Oc1ccc(Cl)cc1Br)C(=O)OCCOC(=O)c1ccc(-c2c3nc(c(-c4c(F)c(F)c(F)c(F)c4F)c4ccc([nH]4)c(-c4c(F)c(F)c(F)c(F)c4F)c4nc(c(-c5c(F)c(F)c(F)c(F)c5F)c5ccc2[nH]5)C=C4)C=C3)cc1
REMARK SMILES IDX 20 1 19 2 17 3 18 4 2 5 1 6 3 7 4 8 5 10 6 11 7 12 8 13 9 14
REMARK SMILES IDX 10 15 15 16 11 17 14 18 16 19 12 20 13 21 21 22 22 23 23 24
REMARK SMILES IDX 24 25 25 26 26 27 87 28 27 29 86 30 28 31 29 32 30 33 80 34
REMARK SMILES IDX 31 35 85 36 79 37 81 38 32 39 84 40 78 41 77 42 33 44 65 45
REMARK SMILES IDX 45 46 64 47 46 48 49 49 63 50 82 51 47 52 48 53 62 55 83 56
REMARK SMILES IDX 50 57 34 58 35 59 43 60 36 61 37 62 41 63 44 64 38 65 39 66
REMARK SMILES IDX 42 67 40 68 66 69 67 70 75 71 68 72 69 73 73 74 76 75 70 76
REMARK SMILES IDX 71 77 74 78 72 79 51 80 52 81 60 82 53 83 54 84 58 85 61 86
REMARK SMILES IDX 55 87 56 88 59 89 57 90
REMARK H PARENT 3 9 81 43 49 54
REMARK Flexibility Score: inf
ROOT
ATOM      1  C   UNL A   1      31.272  29.165  24.377  1.00  0.00     0.274 C 
ENDROOT
BRANCH   1   2
ATOM      2  O   UNL A   1      31.665  27.774  24.350  1.00  0.00    -0.461 OA
BRANCH   2   3
ATOM      3  C   UNL A   1      30.780  26.890  24.897  1.00  0.00     0.328 C 
ATOM      4  O   UNL A   1      29.625  26.731  24.517  1.00  0.00    -0.250 OA
BRANCH   3   5
ATOM      5  C   UNL A   1      31.342  26.226  26.173  1.00  0.00     0.189 C 
ATOM      6  C   UNL A   1      32.838  26.035  25.949  1.00  0.00     0.043 C 
BRANCH   5   7
ATOM      7  N   UNL A   1      30.629  24.986  26.499  1.00  0.00    -0.340 N 
ATOM      8  C   UNL A   1      30.716  23.697  26.082  1.00  0.00     0.261 C 
ATOM      9  H   UNL A   1      29.926  25.119  27.177  1.00  0.00     0.164 HD
ATOM     10  O   UNL A   1      30.196  22.866  26.838  1.00  0.00    -0.271 OA
BRANCH   8  11
ATOM     11  C   UNL A   1      31.373  23.205  24.753  1.00  0.00     0.258 C 
ATOM     12  C   UNL A   1      30.687  23.717  23.492  1.00  0.00     0.064 C 
BRANCH  11  13
ATOM     13  O   UNL A   1      32.779  23.056  24.560  1.00  0.00    -0.480 OA
BRANCH  13  14
ATOM     14  C   UNL A   1      33.234  21.775  24.539  1.00  0.00     0.134 A 
ATOM     15  C   UNL A   1      32.401  20.787  24.024  1.00  0.00     0.049 A 
ATOM     16  C   UNL A   1      34.548  21.457  24.909  1.00  0.00     0.061 A 
ATOM     17  C   UNL A   1      32.838  19.464  24.007  1.00  0.00     0.024 A 
ATOM     18  C   UNL A   1      34.970  20.128  24.923  1.00  0.00     0.040 A 
ATOM     19  Br  UNL A   1      35.818  22.791  25.360  1.00  0.00    -0.047 Br
ATOM     20  C   UNL A   1      34.101  19.131  24.493  1.00  0.00     0.042 A 
ATOM     21  Cl  UNL A   1      34.603  17.488  24.564  1.00  0.00    -0.084 Cl
ENDBRANCH  13  14
ENDBRANCH  11  13
ENDBRANCH   8  11
ENDBRANCH   5   7
ENDBRANCH   3   5
ENDBRANCH   2   3
ENDBRANCH   1   2
BRANCH   1  22
ATOM     22  C   UNL A   1      31.516  29.775  25.752  1.00  0.00     0.275 C 
BRANCH  22  23
ATOM     23  O   UNL A   1      32.826  30.362  25.779  1.00  0.00    -0.458 OA
BRANCH  23  24
ATOM     24  C   UNL A   1      33.093  31.152  26.841  1.00  0.00     0.338 C 
ATOM     25  O   UNL A   1      32.358  31.995  27.339  1.00  0.00    -0.246 OA
BRANCH  24  26
ATOM     26  C   UNL A   1      34.444  30.864  27.359  1.00  0.00     0.060 A 
ATOM     27  C   UNL A   1      34.860  29.550  27.559  1.00  0.00     0.016 A 
ATOM     28  C   UNL A   1      35.270  31.919  27.754  1.00  0.00     0.016 A 
ATOM     29  C   UNL A   1      36.057  29.308  28.236  1.00  0.00     0.010 A 
ATOM     30  C   UNL A   1      36.503  31.659  28.371  1.00  0.00     0.010 A 
ATOM     31  C   UNL A   1      36.892  30.346  28.680  1.00  0.00    -0.014 A 
BRANCH  31  32
ATOM     32  C   UNL A   1      38.083  30.057  29.548  1.00  0.00     0.031 A 
ATOM     33  C   UNL A   1      39.259  29.286  28.989  1.00  0.00     0.074 A 
ATOM     34  C   UNL A   1      38.196  30.540  30.804  1.00  0.00     0.049 A 
ATOM     35  N   UNL A   1      40.263  28.724  29.621  1.00  0.00    -0.248 NA
ATOM     36  C   UNL A   1      39.313  29.118  27.528  1.00  0.00     0.031 C 
ATOM     37  C   UNL A   1      37.220  31.389  31.485  1.00  0.00     0.029 A 
ATOM     38  N   UNL A   1      39.215  30.419  31.722  1.00  0.00    -0.354 N 
ATOM     39  C   UNL A   1      41.001  28.056  28.651  1.00  0.00     0.074 A 
ATOM     40  C   UNL A   1      40.354  28.309  27.382  1.00  0.00     0.031 C 
ATOM     41  C   UNL A   1      37.729  31.797  32.657  1.00  0.00     0.029 A 
ATOM     42  C   UNL A   1      39.003  31.123  32.883  1.00  0.00     0.049 A 
ATOM     43  H   UNL A   1      40.022  29.877  31.562  1.00  0.00     0.167 HD
ATOM     44  C   UNL A   1      42.105  27.287  28.808  1.00  0.00     0.037 A 
ATOM     45  C   UNL A   1      39.714  31.184  34.027  1.00  0.00     0.037 A 
ATOM     46  C   UNL A   1      42.816  27.117  30.049  1.00  0.00     0.049 A 
ATOM     47  C   UNL A   1      40.928  30.314  34.191  1.00  0.00     0.074 A 
ATOM     48  C   UNL A   1      43.921  26.324  30.315  1.00  0.00     0.029 A 
ATOM     49  N   UNL A   1      42.520  27.792  31.222  1.00  0.00    -0.354 N 
ATOM     50  N   UNL A   1      41.508  29.527  33.319  1.00  0.00    -0.248 NA
ATOM     51  C   UNL A   1      41.553  30.297  35.523  1.00  0.00     0.031 C 
ATOM     52  C   UNL A   1      44.285  26.510  31.654  1.00  0.00     0.029 A 
ATOM     53  C   UNL A   1      43.425  27.440  32.211  1.00  0.00     0.049 A 
ATOM     54  H   UNL A   1      41.777  28.428  31.336  1.00  0.00     0.167 HD
ATOM     55  C   UNL A   1      42.553  28.914  33.996  1.00  0.00     0.074 A 
ATOM     56  C   UNL A   1      42.555  29.446  35.342  1.00  0.00     0.031 C 
ATOM     57  C   UNL A   1      43.420  27.975  33.546  1.00  0.00     0.037 A 
BRANCH  44  58
ATOM     58  C   UNL A   1      42.591  26.515  27.617  1.00  0.00     0.064 A 
ATOM     59  C   UNL A   1      43.583  27.006  26.759  1.00  0.00     0.173 A 
ATOM     60  C   UNL A   1      42.076  25.233  27.364  1.00  0.00     0.173 A 
ATOM     61  F   UNL A   1      44.096  28.230  26.950  1.00  0.00    -0.203 F 
ATOM     62  C   UNL A   1      44.031  26.247  25.679  1.00  0.00     0.198 A 
ATOM     63  C   UNL A   1      42.543  24.469  26.299  1.00  0.00     0.198 A 
ATOM     64  F   UNL A   1      41.129  24.716  28.160  1.00  0.00    -0.203 F 
ATOM     65  F   UNL A   1      44.956  26.748  24.848  1.00  0.00    -0.200 F 
ATOM     66  C   UNL A   1      43.517  24.978  25.455  1.00  0.00     0.200 A 
ATOM     67  F   UNL A   1      42.052  23.239  26.092  1.00  0.00    -0.200 F 
ATOM     68  F   UNL A   1      43.956  24.247  24.420  1.00  0.00    -0.200 F 
ENDBRANCH  44  58
BRANCH  45  69
ATOM     69  C   UNL A   1      39.249  32.043  35.149  1.00  0.00     0.064 A 
ATOM     70  C   UNL A   1      38.504  31.505  36.207  1.00  0.00     0.173 A 
ATOM     71  C   UNL A   1      39.528  33.417  35.181  1.00  0.00     0.173 A 
ATOM     72  F   UNL A   1      38.176  30.204  36.202  1.00  0.00    -0.203 F 
ATOM     73  C   UNL A   1      38.056  32.309  37.254  1.00  0.00     0.198 A 
ATOM     74  C   UNL A   1      39.111  34.213  36.244  1.00  0.00     0.198 A 
ATOM     75  F   UNL A   1      40.224  33.985  34.185  1.00  0.00    -0.203 F 
ATOM     76  F   UNL A   1      37.309  31.780  38.232  1.00  0.00    -0.200 F 
ATOM     77  C   UNL A   1      38.370  33.660  37.277  1.00  0.00     0.200 A 
ATOM     78  F   UNL A   1      39.427  35.515  36.267  1.00  0.00    -0.200 F 
ATOM     79  F   UNL A   1      37.949  34.431  38.289  1.00  0.00    -0.200 F 
ENDBRANCH  45  69
BRANCH  57  80
ATOM     80  C   UNL A   1      44.447  27.471  34.513  1.00  0.00     0.064 A 
ATOM     81  C   UNL A   1      44.217  26.324  35.288  1.00  0.00     0.173 A 
ATOM     82  C   UNL A   1      45.681  28.122  34.649  1.00  0.00     0.173 A 
ATOM     83  F   UNL A   1      43.045  25.678  35.204  1.00  0.00    -0.203 F 
ATOM     84  C   UNL A   1      45.181  25.859  36.179  1.00  0.00     0.198 A 
ATOM     85  C   UNL A   1      46.650  27.642  35.526  1.00  0.00     0.198 A 
ATOM     86  F   UNL A   1      45.949  29.221  33.928  1.00  0.00    -0.203 F 
ATOM     87  F   UNL A   1      44.926  24.784  36.937  1.00  0.00    -0.200 F 
ATOM     88  C   UNL A   1      46.397  26.515  36.293  1.00  0.00     0.200 A 
ATOM     89  F   UNL A   1      47.828  28.273  35.632  1.00  0.00    -0.200 F 
ATOM     90  F   UNL A   1      47.323  26.065  37.151  1.00  0.00    -0.200 F 
ENDBRANCH  57  80
ENDBRANCH  31  32
ENDBRANCH  24  26
ENDBRANCH  23  24
ENDBRANCH  22  23
ENDBRANCH   1  22
TORSDOF 15
ENDMDL
MODEL 3
REMARK VINA RESULT:     -11.9      1.500      2.456
REMARK SMILES C[C@H](NC(=O)[C@@H](C)Oc1ccc(Cl)cc1Br)C(=O)OCCOC(=O)c1ccc(-c2c3nc(c(-c4c(F)c(F)c(F)c(F)c4F)c4ccc([nH]4)c(-c4c(F)c(F)c(F)c(F)c4F)c4nc(c(-c5c(F)c(F)c(F)c(F)c5F)c5ccc2[nH]5)C=C4)C=C3)cc1
REMARK SMILES IDX 20 1 19 2 17 3 18 4 2 5 1 6 3 7 4 8 5 10 6 11 7 12 8 13 9 14
REMARK SMILES IDX 10 15 15 16 11 17 14 18 16 19 12 20 13 21 21 22 22 23 23 24
REMARK SMILES IDX 24 25 25 26 26 27 87 28 27 29 86 30 28 31 29 32 30 33 80 34
REMARK SMILES IDX 31 35 85 36 79 37 81 38 32 39 84 40 78 41 77 42 33 44 65 45
REMARK SMILES IDX 45 46 64 47 46 48 49 49 63 50 82 51 47 52 48 53 62 55 83 56
REMARK SMILES IDX 50 57 34 58 35 59 43 60 36 61 37 62 41 63 44 64 38 65 39 66
REMARK SMILES IDX 42 67 40 68 66 69 67 70 75 71 68 72 69 73 73 74 76 75 70 76
REMARK SMILES IDX 71 77 74 78 72 79 51 80 52 81 60 82 53 83 54 84 58 85 61 86
REMARK SMILES IDX 55 87 56 88 59 89 57 90
REMARK H PARENT 3 9 81 43 49 54
REMARK Flexibility Score: inf
ROOT
ATOM      1  C   UNL A   1      31.272  28.822  24.414  1.00  0.00     0.274 C 
ENDROOT
BRANCH   1   2
ATOM      2  O   UNL A   1      31.975  27.658  23.924  1.00  0.00    -0.461 OA
BRANCH   2   3
ATOM      3  C   UNL A   1      31.497  26.449  24.342  1.00  0.00     0.328 C 
ATOM      4  O   UNL A   1      30.328  26.221  24.633  1.00  0.00    -0.250 OA
BRANCH   3   5
ATOM      5  C   UNL A   1      32.633  25.429  24.575  1.00  0.00     0.189 C 
ATOM      6  C   UNL A   1      33.660  26.110  25.473  1.00  0.00     0.043 C 
BRANCH   5   7
ATOM      7  N   UNL A   1      33.188  24.934  23.310  1.00  0.00    -0.340 N 
ATOM      8  C   UNL A   1      33.180  23.738  22.668  1.00  0.00     0.261 C 
ATOM      9  H   UNL A   1      33.678  25.629  22.813  1.00  0.00     0.164 HD
ATOM     10  O   UNL A   1      33.443  23.792  21.459  1.00  0.00    -0.271 OA
BRANCH   8  11
ATOM     11  C   UNL A   1      32.905  22.347  23.322  1.00  0.00     0.258 C 
ATOM     12  C   UNL A   1      31.903  21.488  22.560  1.00  0.00     0.064 C 
BRANCH  11  13
ATOM     13  O   UNL A   1      33.901  21.548  23.959  1.00  0.00    -0.480 OA
BRANCH  13  14
ATOM     14  C   UNL A   1      34.906  22.238  24.561  1.00  0.00     0.134 A 
ATOM     15  C   UNL A   1      35.994  22.630  23.786  1.00  0.00     0.049 A 
ATOM     16  C   UNL A   1      34.811  22.659  25.894  1.00  0.00     0.061 A 
ATOM     17  C   UNL A   1      37.044  23.325  24.383  1.00  0.00     0.024 A 
ATOM     18  C   UNL A   1      35.879  23.324  26.498  1.00  0.00     0.040 A 
ATOM     19  Br  UNL A   1      33.241  22.395  26.925  1.00  0.00    -0.047 Br
ATOM     20  C   UNL A   1      37.005  23.633  25.742  1.00  0.00     0.042 A 
ATOM     21  Cl  UNL A   1      38.343  24.402  26.501  1.00  0.00    -0.084 Cl
ENDBRANCH  13  14
ENDBRANCH  11  13
ENDBRANCH   8  11
ENDBRANCH   5   7
ENDBRANCH   3   5
ENDBRANCH   2   3
ENDBRANCH   1   2
BRANCH   1  22
ATOM     22  C   UNL A   1      31.747  29.199  25.812  1.00  0.00     0.275 C 
BRANCH  22  23
ATOM     23  O   UNL A   1      32.899  30.050  25.702  1.00  0.00    -0.458 OA
BRANCH  23  24
ATOM     24  C   UNL A   1      33.134  30.857  26.759  1.00  0.00     0.338 C 
ATOM     25  O   UNL A   1      32.368  31.676  27.249  1.00  0.00    -0.246 OA
BRANCH  24  26
ATOM     26  C   UNL A   1      34.494  30.623  27.280  1.00  0.00     0.060 A 
ATOM     27  C   UNL A   1      35.001  29.330  27.381  1.00  0.00     0.016 A 
ATOM     28  C   UNL A   1      35.235  31.698  27.778  1.00  0.00     0.016 A 
ATOM     29  C   UNL A   1      36.201  29.118  28.063  1.00  0.00     0.010 A 
ATOM     30  C   UNL A   1      36.473  31.475  28.400  1.00  0.00     0.010 A 
ATOM     31  C   UNL A   1      36.951  30.172  28.608  1.00  0.00    -0.014 A 
BRANCH  31  32
ATOM     32  C   UNL A   1      38.146  29.896  29.476  1.00  0.00     0.031 A 
ATOM     33  C   UNL A   1      39.306  29.089  28.934  1.00  0.00     0.074 A 
ATOM     34  C   UNL A   1      38.277  30.422  30.713  1.00  0.00     0.049 A 
ATOM     35  N   UNL A   1      40.308  28.536  29.577  1.00  0.00    -0.248 NA
ATOM     36  C   UNL A   1      39.345  28.869  27.480  1.00  0.00     0.031 C 
ATOM     37  C   UNL A   1      37.320  31.309  31.372  1.00  0.00     0.029 A 
ATOM     38  N   UNL A   1      39.303  30.318  31.626  1.00  0.00    -0.354 N 
ATOM     39  C   UNL A   1      41.027  27.824  28.626  1.00  0.00     0.074 A 
ATOM     40  C   UNL A   1      40.373  28.041  27.354  1.00  0.00     0.031 C 
ATOM     41  C   UNL A   1      37.845  31.750  32.524  1.00  0.00     0.029 A 
ATOM     42  C   UNL A   1      39.111  31.067  32.763  1.00  0.00     0.049 A 
ATOM     43  H   UNL A   1      40.100  29.759  31.479  1.00  0.00     0.167 HD
ATOM     44  C   UNL A   1      42.122  27.044  28.800  1.00  0.00     0.037 A 
ATOM     45  C   UNL A   1      39.833  31.157  33.898  1.00  0.00     0.037 A 
ATOM     46  C   UNL A   1      42.841  26.908  30.041  1.00  0.00     0.049 A 
ATOM     47  C   UNL A   1      41.037  30.276  34.083  1.00  0.00     0.074 A 
ATOM     48  C   UNL A   1      43.937  26.109  30.325  1.00  0.00     0.029 A 
ATOM     49  N   UNL A   1      42.565  27.629  31.191  1.00  0.00    -0.354 N 
ATOM     50  N   UNL A   1      41.597  29.451  33.234  1.00  0.00    -0.248 NA
ATOM     51  C   UNL A   1      41.673  30.297  35.409  1.00  0.00     0.031 C 
ATOM     52  C   UNL A   1      44.316  26.337  31.654  1.00  0.00     0.029 A 
ATOM     53  C   UNL A   1      43.474  27.299  32.185  1.00  0.00     0.049 A 
ATOM     54  H   UNL A   1      41.833  28.278  31.289  1.00  0.00     0.167 HD
ATOM     55  C   UNL A   1      42.640  28.847  33.924  1.00  0.00     0.074 A 
ATOM     56  C   UNL A   1      42.661  29.426  35.250  1.00  0.00     0.031 C 
ATOM     57  C   UNL A   1      43.489  27.881  33.500  1.00  0.00     0.037 A 
BRANCH  44  58
ATOM     58  C   UNL A   1      42.586  26.224  27.634  1.00  0.00     0.064 A 
ATOM     59  C   UNL A   1      42.033  24.974  27.328  1.00  0.00     0.173 A 
ATOM     60  C   UNL A   1      43.578  26.732  26.779  1.00  0.00     0.173 A 
ATOM     61  F   UNL A   1      41.093  24.440  28.122  1.00  0.00    -0.203 F 
ATOM     62  C   UNL A   1      42.469  24.253  26.218  1.00  0.00     0.198 A 
ATOM     63  C   UNL A   1      43.993  26.020  25.657  1.00  0.00     0.198 A 
ATOM     64  F   UNL A   1      44.134  27.927  27.024  1.00  0.00    -0.203 F 
ATOM     65  F   UNL A   1      41.952  23.043  25.962  1.00  0.00    -0.200 F 
ATOM     66  C   UNL A   1      43.442  24.780  25.380  1.00  0.00     0.200 A 
ATOM     67  F   UNL A   1      44.925  26.537  24.844  1.00  0.00    -0.200 F 
ATOM     68  F   UNL A   1      43.852  24.087  24.308  1.00  0.00    -0.200 F 
ENDBRANCH  44  58
BRANCH  45  69
ATOM     69  C   UNL A   1      39.390  32.062  34.993  1.00  0.00     0.064 A 
ATOM     70  C   UNL A   1      38.597  31.585  36.045  1.00  0.00     0.173 A 
ATOM     71  C   UNL A   1      39.740  33.421  35.004  1.00  0.00     0.173 A 
ATOM     72  F   UNL A   1      38.202  30.303  36.058  1.00  0.00    -0.203 F 
ATOM     73  C   UNL A   1      38.170  32.432  37.067  1.00  0.00     0.198 A 
ATOM     74  C   UNL A   1      39.342  34.259  36.042  1.00  0.00     0.198 A 
ATOM     75  F   UNL A   1      40.484  33.931  34.012  1.00  0.00    -0.203 F 
ATOM     76  F   UNL A   1      37.377  31.962  38.038  1.00  0.00    -0.200 F 
ATOM     77  C   UNL A   1      38.553  33.765  37.070  1.00  0.00     0.200 A 
ATOM     78  F   UNL A   1      39.724  35.542  36.047  1.00  0.00    -0.200 F 
ATOM     79  F   UNL A   1      38.152  34.578  38.057  1.00  0.00    -0.200 F 
ENDBRANCH  45  69
BRANCH  57  80
ATOM     80  C   UNL A   1      44.518  27.396  34.475  1.00  0.00     0.064 A 
ATOM     81  C   UNL A   1      44.276  26.284  35.295  1.00  0.00     0.173 A 
ATOM     82  C   UNL A   1      45.764  28.031  34.573  1.00  0.00     0.173 A 
ATOM     83  F   UNL A   1      43.093  25.655  35.248  1.00  0.00    -0.203 F 
ATOM     84  C   UNL A   1      45.241  25.836  36.194  1.00  0.00     0.198 A 
ATOM     85  C   UNL A   1      46.734  27.568  35.459  1.00  0.00     0.198 A 
ATOM     86  F   UNL A   1      46.042  29.096  33.808  1.00  0.00    -0.203 F 
ATOM     87  F   UNL A   1      44.976  24.796  36.996  1.00  0.00    -0.200 F 
ATOM     88  C   UNL A   1      46.470  26.475  36.271  1.00  0.00     0.200 A 
ATOM     89  F   UNL A   1      47.923  28.182  35.529  1.00  0.00    -0.200 F 
ATOM     90  F   UNL A   1      47.397  26.043  37.137  1.00  0.00    -0.200 F 
ENDBRANCH  57  80
ENDBRANCH  31  32
ENDBRANCH  24  26
ENDBRANCH  23  24
ENDBRANCH  22  23
ENDBRANCH   1  22
TORSDOF 15
ENDMDL
