MODEL 1
REMARK VINA RESULT:     -10.8      0.000      0.000
REMARK SMILES C[C@@H](O)[C@@H](NC(=O)CN(C)C(=O)c1cccs1)C(=O)OCCOC(=O)c1ccc(-c2c3nc(c(-c4c(F)c(F)c(F)c(F)c4F)c4ccc([nH]4)c(-c4c(F)c(F)c(F)c(F)c4F)c4nc(c(-c5c(F)c(F)c(F)c(F)c5F)c5ccc2[nH]5)C=C4)C=C3)cc1
REMARK SMILES IDX 20 1 18 2 19 3 4 4 2 5 1 6 3 7 5 9 6 10 7 12 8 13 9 14 10 15
REMARK SMILES IDX 11 16 12 17 13 18 14 19 17 20 15 21 16 22 21 23 22 24 23 25
REMARK SMILES IDX 24 26 25 27 26 28 27 29 88 30 28 31 87 32 29 33 30 34 31 35
REMARK SMILES IDX 81 36 32 37 86 38 80 39 82 40 33 41 85 42 79 43 78 44 34 46
REMARK SMILES IDX 66 47 46 48 65 49 47 50 50 51 64 52 83 53 48 54 49 55 63 57
REMARK SMILES IDX 84 58 51 59 35 60 36 61 44 62 37 63 38 64 42 65 45 66 39 67
REMARK SMILES IDX 40 68 43 69 41 70 67 71 68 72 76 73 69 74 70 75 74 76 77 77
REMARK SMILES IDX 71 78 72 79 75 80 73 81 52 82 53 83 61 84 54 85 55 86 59 87
REMARK SMILES IDX 62 88 56 89 57 90 60 91 58 92
REMARK H PARENT 3 8 5 11 82 45 50 56
REMARK Flexibility Score: inf
ROOT
ATOM      1  O   UNL A   1      35.379  21.644  25.933  1.00  0.00    -0.460 OA
ENDROOT
BRANCH   1   2
ATOM      2  C   UNL A   1      34.138  21.350  26.394  1.00  0.00     0.331 C 
ATOM      3  O   UNL A   1      33.856  21.355  27.591  1.00  0.00    -0.250 OA
BRANCH   2   4
ATOM      4  C   UNL A   1      33.140  20.843  25.325  1.00  0.00     0.221 C 
BRANCH   4   5
ATOM      5  C   UNL A   1      32.600  19.392  25.279  1.00  0.00     0.145 C 
ATOM      6  C   UNL A   1      33.189  18.617  24.096  1.00  0.00     0.041 C 
BRANCH   5   7
ATOM      7  O   UNL A   1      32.913  18.648  26.440  1.00  0.00    -0.391 OA
ATOM      8  H   UNL A   1      32.902  19.235  27.213  1.00  0.00     0.211 HD
ENDBRANCH   5   7
ENDBRANCH   4   5
BRANCH   4   9
ATOM      9  N   UNL A   1      32.017  21.789  25.193  1.00  0.00    -0.339 N 
ATOM     10  C   UNL A   1      31.903  22.904  24.408  1.00  0.00     0.240 C 
ATOM     11  H   UNL A   1      31.232  21.588  25.752  1.00  0.00     0.164 HD
ATOM     12  O   UNL A   1      31.154  23.789  24.823  1.00  0.00    -0.273 OA
BRANCH  10  13
ATOM     13  C   UNL A   1      32.662  23.033  23.071  1.00  0.00     0.219 C 
BRANCH  13  14
ATOM     14  N   UNL A   1      33.849  23.893  23.023  1.00  0.00    -0.332 N 
ATOM     15  C   UNL A   1      35.166  23.272  23.085  1.00  0.00     0.147 C 
BRANCH  14  16
ATOM     16  C   UNL A   1      33.683  25.248  22.693  1.00  0.00     0.264 C 
ATOM     17  O   UNL A   1      33.556  25.623  21.531  1.00  0.00    -0.268 OA
BRANCH  16  18
ATOM     18  C   UNL A   1      33.734  26.176  23.809  1.00  0.00     0.092 A 
ATOM     19  C   UNL A   1      33.959  25.898  25.145  1.00  0.00     0.025 A 
ATOM     20  S   UNL A   1      33.394  27.829  23.550  1.00  0.00    -0.139 S 
ATOM     21  C   UNL A   1      33.733  27.034  25.973  1.00  0.00     0.012 A 
ATOM     22  C   UNL A   1      33.406  28.149  25.234  1.00  0.00     0.065 A 
ENDBRANCH  16  18
ENDBRANCH  14  16
ENDBRANCH  13  14
ENDBRANCH  10  13
ENDBRANCH   4   9
ENDBRANCH   2   4
ENDBRANCH   1   2
BRANCH   1  23
ATOM     23  C   UNL A   1      36.072  20.558  25.275  1.00  0.00     0.274 C 
BRANCH  23  24
ATOM     24  C   UNL A   1      37.450  21.019  24.787  1.00  0.00     0.275 C 
BRANCH  24  25
ATOM     25  O   UNL A   1      38.013  21.890  25.777  1.00  0.00    -0.458 OA
BRANCH  25  26
ATOM     26  C   UNL A   1      39.175  21.439  26.313  1.00  0.00     0.338 C 
ATOM     27  O   UNL A   1      39.626  20.314  26.264  1.00  0.00    -0.246 OA
BRANCH  26  28
ATOM     28  C   UNL A   1      39.930  22.648  26.688  1.00  0.00     0.060 A 
ATOM     29  C   UNL A   1      39.531  23.856  26.113  1.00  0.00     0.016 A 
ATOM     30  C   UNL A   1      40.935  22.618  27.654  1.00  0.00     0.016 A 
ATOM     31  C   UNL A   1      40.133  25.047  26.483  1.00  0.00     0.010 A 
ATOM     32  C   UNL A   1      41.547  23.814  28.028  1.00  0.00     0.010 A 
ATOM     33  C   UNL A   1      41.151  25.026  27.437  1.00  0.00    -0.014 A 
BRANCH  33  34
ATOM     34  C   UNL A   1      41.872  26.274  27.738  1.00  0.00     0.031 A 
ATOM     35  C   UNL A   1      41.177  27.318  28.551  1.00  0.00     0.074 A 
ATOM     36  C   UNL A   1      43.134  26.440  27.311  1.00  0.00     0.049 A 
ATOM     37  N   UNL A   1      41.564  28.530  28.848  1.00  0.00    -0.248 NA
ATOM     38  C   UNL A   1      39.865  26.945  29.106  1.00  0.00     0.031 C 
ATOM     39  C   UNL A   1      43.917  25.445  26.578  1.00  0.00     0.029 A 
ATOM     40  N   UNL A   1      43.976  27.513  27.430  1.00  0.00    -0.354 N 
ATOM     41  C   UNL A   1      40.536  29.071  29.606  1.00  0.00     0.074 A 
ATOM     42  C   UNL A   1      39.507  28.062  29.720  1.00  0.00     0.031 C 
ATOM     43  C   UNL A   1      45.125  25.964  26.298  1.00  0.00     0.029 A 
ATOM     44  C   UNL A   1      45.180  27.334  26.797  1.00  0.00     0.049 A 
ATOM     45  H   UNL A   1      43.740  28.334  27.921  1.00  0.00     0.167 HD
ATOM     46  C   UNL A   1      40.465  30.307  30.151  1.00  0.00     0.037 A 
ATOM     47  C   UNL A   1      46.193  28.201  26.620  1.00  0.00     0.037 A 
ATOM     48  C   UNL A   1      41.496  31.299  30.020  1.00  0.00     0.049 A 
ATOM     49  C   UNL A   1      46.064  29.589  27.188  1.00  0.00     0.074 A 
ATOM     50  C   UNL A   1      41.516  32.597  30.494  1.00  0.00     0.029 A 
ATOM     51  N   UNL A   1      42.700  31.092  29.360  1.00  0.00    -0.354 N 
ATOM     52  N   UNL A   1      45.074  30.115  27.870  1.00  0.00    -0.248 NA
ATOM     53  C   UNL A   1      47.189  30.504  26.958  1.00  0.00     0.031 C 
ATOM     54  C   UNL A   1      42.724  33.185  30.097  1.00  0.00     0.029 A 
ATOM     55  C   UNL A   1      43.469  32.240  29.408  1.00  0.00     0.049 A 
ATOM     56  H   UNL A   1      42.966  30.251  28.922  1.00  0.00     0.167 HD
ATOM     57  C   UNL A   1      45.462  31.414  28.165  1.00  0.00     0.074 A 
ATOM     58  C   UNL A   1      46.785  31.591  27.600  1.00  0.00     0.031 C 
ATOM     59  C   UNL A   1      44.786  32.378  28.839  1.00  0.00     0.037 A 
BRANCH  46  60
ATOM     60  C   UNL A   1      39.209  30.651  30.889  1.00  0.00     0.064 A 
ATOM     61  C   UNL A   1      38.108  31.228  30.238  1.00  0.00     0.173 A 
ATOM     62  C   UNL A   1      39.113  30.421  32.269  1.00  0.00     0.173 A 
ATOM     63  F   UNL A   1      38.164  31.492  28.924  1.00  0.00    -0.203 F 
ATOM     64  C   UNL A   1      36.965  31.584  30.948  1.00  0.00     0.198 A 
ATOM     65  C   UNL A   1      37.960  30.759  32.972  1.00  0.00     0.198 A 
ATOM     66  F   UNL A   1      40.143  29.882  32.938  1.00  0.00    -0.203 F 
ATOM     67  F   UNL A   1      35.944  32.180  30.317  1.00  0.00    -0.200 F 
ATOM     68  C   UNL A   1      36.890  31.346  32.313  1.00  0.00     0.200 A 
ATOM     69  F   UNL A   1      37.890  30.530  34.291  1.00  0.00    -0.200 F 
ATOM     70  F   UNL A   1      35.792  31.696  32.996  1.00  0.00    -0.200 F 
ENDBRANCH  46  60
BRANCH  47  71
ATOM     71  C   UNL A   1      47.398  27.789  25.859  1.00  0.00     0.064 A 
ATOM     72  C   UNL A   1      47.398  27.776  24.459  1.00  0.00     0.173 A 
ATOM     73  C   UNL A   1      48.575  27.398  26.517  1.00  0.00     0.173 A 
ATOM     74  F   UNL A   1      46.289  28.118  23.786  1.00  0.00    -0.203 F 
ATOM     75  C   UNL A   1      48.525  27.376  23.743  1.00  0.00     0.198 A 
ATOM     76  C   UNL A   1      49.708  27.021  25.801  1.00  0.00     0.198 A 
ATOM     77  F   UNL A   1      48.624  27.392  27.857  1.00  0.00    -0.203 F 
ATOM     78  F   UNL A   1      48.486  27.337  22.404  1.00  0.00    -0.200 F 
ATOM     79  C   UNL A   1      49.681  27.004  24.415  1.00  0.00     0.200 A 
ATOM     80  F   UNL A   1      50.825  26.670  26.454  1.00  0.00    -0.200 F 
ATOM     81  F   UNL A   1      50.764  26.622  23.726  1.00  0.00    -0.200 F 
ENDBRANCH  47  71
BRANCH  59  82
ATOM     82  C   UNL A   1      45.484  33.690  29.020  1.00  0.00     0.064 A 
ATOM     83  C   UNL A   1      46.321  33.927  30.119  1.00  0.00     0.173 A 
ATOM     84  C   UNL A   1      45.337  34.707  28.066  1.00  0.00     0.173 A 
ATOM     85  F   UNL A   1      46.478  32.987  31.063  1.00  0.00    -0.203 F 
ATOM     86  C   UNL A   1      46.970  35.149  30.268  1.00  0.00     0.198 A 
ATOM     87  C   UNL A   1      46.006  35.919  28.207  1.00  0.00     0.198 A 
ATOM     88  F   UNL A   1      44.550  34.521  26.996  1.00  0.00    -0.203 F 
ATOM     89  F   UNL A   1      47.733  35.372  31.346  1.00  0.00    -0.200 F 
ATOM     90  C   UNL A   1      46.817  36.141  29.311  1.00  0.00     0.200 A 
ATOM     91  F   UNL A   1      45.863  36.874  27.278  1.00  0.00    -0.200 F 
ATOM     92  F   UNL A   1      47.443  37.316  29.456  1.00  0.00    -0.200 F 
ENDBRANCH  59  82
ENDBRANCH  33  34
ENDBRANCH  26  28
ENDBRANCH  25  26
ENDBRANCH  24  25
ENDBRANCH  23  24
ENDBRANCH   1  23
TORSDOF 18
ENDMDL
MODEL 2
REMARK VINA RESULT:     -10.6      4.364      9.672
REMARK SMILES C[C@@H](O)[C@@H](NC(=O)CN(C)C(=O)c1cccs1)C(=O)OCCOC(=O)c1ccc(-c2c3nc(c(-c4c(F)c(F)c(F)c(F)c4F)c4ccc([nH]4)c(-c4c(F)c(F)c(F)c(F)c4F)c4nc(c(-c5c(F)c(F)c(F)c(F)c5F)c5ccc2[nH]5)C=C4)C=C3)cc1
REMARK SMILES IDX 20 1 18 2 19 3 4 4 2 5 1 6 3 7 5 9 6 10 7 12 8 13 9 14 10 15
REMARK SMILES IDX 11 16 12 17 13 18 14 19 17 20 15 21 16 22 21 23 22 24 23 25
REMARK SMILES IDX 24 26 25 27 26 28 27 29 88 30 28 31 87 32 29 33 30 34 31 35
REMARK SMILES IDX 81 36 32 37 86 38 80 39 82 40 33 41 85 42 79 43 78 44 34 46
REMARK SMILES IDX 66 47 46 48 65 49 47 50 50 51 64 52 83 53 48 54 49 55 63 57
REMARK SMILES IDX 84 58 51 59 35 60 36 61 44 62 37 63 38 64 42 65 45 66 39 67
REMARK SMILES IDX 40 68 43 69 41 70 67 71 68 72 76 73 69 74 70 75 74 76 77 77
REMARK SMILES IDX 71 78 72 79 75 80 73 81 52 82 53 83 61 84 54 85 55 86 59 87
REMARK SMILES IDX 62 88 56 89 57 90 60 91 58 92
REMARK H PARENT 3 8 5 11 82 45 50 56
REMARK Flexibility Score: inf
ROOT
ATOM      1  O   UNL A   1      32.141  28.544  24.014  1.00  0.00    -0.460 OA
ENDROOT
BRANCH   1   2
ATOM      2  C   UNL A   1      31.464  27.850  23.066  1.00  0.00     0.331 C 
ATOM      3  O   UNL A   1      30.815  28.400  22.178  1.00  0.00    -0.250 OA
BRANCH   2   4
ATOM      4  C   UNL A   1      31.425  26.317  23.273  1.00  0.00     0.221 C 
BRANCH   4   5
ATOM      5  C   UNL A   1      30.267  25.581  23.993  1.00  0.00     0.145 C 
ATOM      6  C   UNL A   1      28.970  26.394  23.936  1.00  0.00     0.041 C 
BRANCH   5   7
ATOM      7  O   UNL A   1      29.975  24.320  23.424  1.00  0.00    -0.391 OA
ATOM      8  H   UNL A   1      29.483  24.444  22.596  1.00  0.00     0.211 HD
ENDBRANCH   5   7
ENDBRANCH   4   5
BRANCH   4   9
ATOM      9  N   UNL A   1      31.733  25.628  22.007  1.00  0.00    -0.339 N 
ATOM     10  C   UNL A   1      32.870  24.969  21.627  1.00  0.00     0.240 C 
ATOM     11  H   UNL A   1      31.013  25.643  21.335  1.00  0.00     0.164 HD
ATOM     12  O   UNL A   1      33.105  24.939  20.418  1.00  0.00    -0.273 OA
BRANCH  10  13
ATOM     13  C   UNL A   1      33.795  24.291  22.658  1.00  0.00     0.219 C 
BRANCH  13  14
ATOM     14  N   UNL A   1      33.251  23.199  23.472  1.00  0.00    -0.332 N 
ATOM     15  C   UNL A   1      32.623  22.070  22.797  1.00  0.00     0.147 C 
BRANCH  14  16
ATOM     16  C   UNL A   1      33.553  23.168  24.842  1.00  0.00     0.264 C 
ATOM     17  O   UNL A   1      32.688  23.302  25.703  1.00  0.00    -0.268 OA
BRANCH  16  18
ATOM     18  C   UNL A   1      34.962  23.032  25.170  1.00  0.00     0.092 A 
ATOM     19  C   UNL A   1      35.856  24.022  25.536  1.00  0.00     0.025 A 
ATOM     20  S   UNL A   1      35.721  21.509  25.023  1.00  0.00    -0.139 S 
ATOM     21  C   UNL A   1      37.196  23.542  25.579  1.00  0.00     0.012 A 
ATOM     22  C   UNL A   1      37.267  22.194  25.308  1.00  0.00     0.065 A 
ENDBRANCH  16  18
ENDBRANCH  14  16
ENDBRANCH  13  14
ENDBRANCH  10  13
ENDBRANCH   4   9
ENDBRANCH   2   4
ENDBRANCH   1   2
BRANCH   1  23
ATOM     23  C   UNL A   1      31.385  29.581  24.684  1.00  0.00     0.274 C 
BRANCH  23  24
ATOM     24  C   UNL A   1      31.810  29.690  26.153  1.00  0.00     0.275 C 
BRANCH  24  25
ATOM     25  O   UNL A   1      33.167  30.149  26.199  1.00  0.00    -0.458 OA
BRANCH  25  26
ATOM     26  C   UNL A   1      33.342  31.281  26.926  1.00  0.00     0.338 C 
ATOM     27  O   UNL A   1      32.542  32.172  27.114  1.00  0.00    -0.246 OA
BRANCH  26  28
ATOM     28  C   UNL A   1      34.577  31.063  27.701  1.00  0.00     0.060 A 
ATOM     29  C   UNL A   1      34.838  29.762  28.137  1.00  0.00     0.016 A 
ATOM     30  C   UNL A   1      35.506  32.081  27.909  1.00  0.00     0.016 A 
ATOM     31  C   UNL A   1      36.019  29.460  28.794  1.00  0.00     0.010 A 
ATOM     32  C   UNL A   1      36.696  31.784  28.573  1.00  0.00     0.010 A 
ATOM     33  C   UNL A   1      36.948  30.476  29.021  1.00  0.00    -0.014 A 
BRANCH  33  34
ATOM     34  C   UNL A   1      38.145  30.181  29.826  1.00  0.00     0.031 A 
ATOM     35  C   UNL A   1      39.187  29.278  29.245  1.00  0.00     0.074 A 
ATOM     36  C   UNL A   1      38.296  30.741  31.036  1.00  0.00     0.049 A 
ATOM     37  N   UNL A   1      40.263  28.791  29.802  1.00  0.00    -0.248 NA
ATOM     38  C   UNL A   1      38.987  28.870  27.845  1.00  0.00     0.031 C 
ATOM     39  C   UNL A   1      37.370  31.693  31.649  1.00  0.00     0.029 A 
ATOM     40  N   UNL A   1      39.287  30.584  31.968  1.00  0.00    -0.354 N 
ATOM     41  C   UNL A   1      40.858  28.002  28.828  1.00  0.00     0.074 A 
ATOM     42  C   UNL A   1      40.024  28.070  27.649  1.00  0.00     0.031 C 
ATOM     43  C   UNL A   1      37.830  32.023  32.868  1.00  0.00     0.029 A 
ATOM     44  C   UNL A   1      39.058  31.278  33.129  1.00  0.00     0.049 A 
ATOM     45  H   UNL A   1      40.086  30.027  31.819  1.00  0.00     0.167 HD
ATOM     46  C   UNL A   1      41.999  27.283  28.922  1.00  0.00     0.037 A 
ATOM     47  C   UNL A   1      39.753  31.277  34.280  1.00  0.00     0.037 A 
ATOM     48  C   UNL A   1      42.811  27.222  30.106  1.00  0.00     0.049 A 
ATOM     49  C   UNL A   1      40.989  30.423  34.377  1.00  0.00     0.074 A 
ATOM     50  C   UNL A   1      43.965  26.496  30.331  1.00  0.00     0.029 A 
ATOM     51  N   UNL A   1      42.544  27.926  31.273  1.00  0.00    -0.354 N 
ATOM     52  N   UNL A   1      41.530  29.645  33.470  1.00  0.00    -0.248 NA
ATOM     53  C   UNL A   1      41.707  30.444  35.658  1.00  0.00     0.031 C 
ATOM     54  C   UNL A   1      44.383  26.741  31.645  1.00  0.00     0.029 A 
ATOM     55  C   UNL A   1      43.509  27.647  32.224  1.00  0.00     0.049 A 
ATOM     56  H   UNL A   1      41.781  28.534  31.403  1.00  0.00     0.167 HD
ATOM     57  C   UNL A   1      42.659  29.097  34.062  1.00  0.00     0.074 A 
ATOM     58  C   UNL A   1      42.733  29.644  35.402  1.00  0.00     0.031 C 
ATOM     59  C   UNL A   1      43.553  28.217  33.547  1.00  0.00     0.037 A 
BRANCH  46  60
ATOM     60  C   UNL A   1      42.393  26.476  27.724  1.00  0.00     0.064 A 
ATOM     61  C   UNL A   1      41.867  25.196  27.494  1.00  0.00     0.173 A 
ATOM     62  C   UNL A   1      43.325  26.981  26.805  1.00  0.00     0.173 A 
ATOM     63  F   UNL A   1      40.994  24.660  28.360  1.00  0.00    -0.203 F 
ATOM     64  C   UNL A   1      42.279  24.441  26.399  1.00  0.00     0.198 A 
ATOM     65  C   UNL A   1      43.718  26.232  25.700  1.00  0.00     0.198 A 
ATOM     66  F   UNL A   1      43.864  28.196  26.988  1.00  0.00    -0.203 F 
ATOM     67  F   UNL A   1      41.802  23.200  26.225  1.00  0.00    -0.200 F 
ATOM     68  C   UNL A   1      43.200  24.960  25.502  1.00  0.00     0.200 A 
ATOM     69  F   UNL A   1      44.609  26.734  24.835  1.00  0.00    -0.200 F 
ATOM     70  F   UNL A   1      43.601  24.229  24.453  1.00  0.00    -0.200 F 
ENDBRANCH  46  60
BRANCH  47  71
ATOM     71  C   UNL A   1      39.286  32.090  35.430  1.00  0.00     0.064 A 
ATOM     72  C   UNL A   1      39.656  33.435  35.560  1.00  0.00     0.173 A 
ATOM     73  C   UNL A   1      38.463  31.539  36.424  1.00  0.00     0.173 A 
ATOM     74  F   UNL A   1      40.461  33.998  34.648  1.00  0.00    -0.203 F 
ATOM     75  C   UNL A   1      39.230  34.196  36.647  1.00  0.00     0.198 A 
ATOM     76  C   UNL A   1      38.018  32.308  37.497  1.00  0.00     0.198 A 
ATOM     77  F   UNL A   1      38.083  30.256  36.346  1.00  0.00    -0.203 F 
ATOM     78  F   UNL A   1      39.628  35.470  36.766  1.00  0.00    -0.200 F 
ATOM     79  C   UNL A   1      38.407  33.633  37.612  1.00  0.00     0.200 A 
ATOM     80  F   UNL A   1      37.217  31.761  38.423  1.00  0.00    -0.200 F 
ATOM     81  F   UNL A   1      37.996  34.367  38.655  1.00  0.00    -0.200 F 
ENDBRANCH  47  71
BRANCH  59  82
ATOM     82  C   UNL A   1      44.696  27.822  34.432  1.00  0.00     0.064 A 
ATOM     83  C   UNL A   1      44.595  26.740  35.316  1.00  0.00     0.173 A 
ATOM     84  C   UNL A   1      45.912  28.517  34.368  1.00  0.00     0.173 A 
ATOM     85  F   UNL A   1      43.445  26.057  35.420  1.00  0.00    -0.203 F 
ATOM     86  C   UNL A   1      45.670  26.380  36.125  1.00  0.00     0.198 A 
ATOM     87  C   UNL A   1      46.991  28.140  35.162  1.00  0.00     0.198 A 
ATOM     88  F   UNL A   1      46.054  29.556  33.532  1.00  0.00    -0.203 F 
ATOM     89  F   UNL A   1      45.541  25.369  36.994  1.00  0.00    -0.200 F 
ATOM     90  C   UNL A   1      46.867  27.076  36.044  1.00  0.00     0.200 A 
ATOM     91  F   UNL A   1      48.149  28.809  35.077  1.00  0.00    -0.200 F 
ATOM     92  F   UNL A   1      47.899  26.728  36.823  1.00  0.00    -0.200 F 
ENDBRANCH  59  82
ENDBRANCH  33  34
ENDBRANCH  26  28
ENDBRANCH  25  26
ENDBRANCH  24  25
ENDBRANCH  23  24
ENDBRANCH   1  23
TORSDOF 18
ENDMDL
MODEL 3
REMARK VINA RESULT:     -10.5      4.436      7.340
REMARK SMILES C[C@@H](O)[C@@H](NC(=O)CN(C)C(=O)c1cccs1)C(=O)OCCOC(=O)c1ccc(-c2c3nc(c(-c4c(F)c(F)c(F)c(F)c4F)c4ccc([nH]4)c(-c4c(F)c(F)c(F)c(F)c4F)c4nc(c(-c5c(F)c(F)c(F)c(F)c5F)c5ccc2[nH]5)C=C4)C=C3)cc1
REMARK SMILES IDX 20 1 18 2 19 3 4 4 2 5 1 6 3 7 5 9 6 10 7 12 8 13 9 14 10 15
REMARK SMILES IDX 11 16 12 17 13 18 14 19 17 20 15 21 16 22 21 23 22 24 23 25
REMARK SMILES IDX 24 26 25 27 26 28 27 29 88 30 28 31 87 32 29 33 30 34 31 35
REMARK SMILES IDX 81 36 32 37 86 38 80 39 82 40 33 41 85 42 79 43 78 44 34 46
REMARK SMILES IDX 66 47 46 48 65 49 47 50 50 51 64 52 83 53 48 54 49 55 63 57
REMARK SMILES IDX 84 58 51 59 35 60 36 61 44 62 37 63 38 64 42 65 45 66 39 67
REMARK SMILES IDX 40 68 43 69 41 70 67 71 68 72 76 73 69 74 70 75 74 76 77 77
REMARK SMILES IDX 71 78 72 79 75 80 73 81 52 82 53 83 61 84 54 85 55 86 59 87
REMARK SMILES IDX 62 88 56 89 57 90 60 91 58 92
REMARK H PARENT 3 8 5 11 82 45 50 56
REMARK Flexibility Score: inf
ROOT
ATOM      1  O   UNL A   1      31.614  28.700  24.950  1.00  0.00    -0.460 OA
ENDROOT
BRANCH   1   2
ATOM      2  C   UNL A   1      32.077  28.546  23.685  1.00  0.00     0.331 C 
ATOM      3  O   UNL A   1      33.187  28.941  23.333  1.00  0.00    -0.250 OA
BRANCH   2   4
ATOM      4  C   UNL A   1      31.052  27.987  22.670  1.00  0.00     0.221 C 
BRANCH   4   5
ATOM      5  C   UNL A   1      29.950  28.851  22.005  1.00  0.00     0.145 C 
ATOM      6  C   UNL A   1      28.862  29.236  23.012  1.00  0.00     0.041 C 
BRANCH   5   7
ATOM      7  O   UNL A   1      30.446  30.062  21.469  1.00  0.00    -0.391 OA
ATOM      8  H   UNL A   1      29.892  30.800  21.769  1.00  0.00     0.211 HD
ENDBRANCH   5   7
ENDBRANCH   4   5
BRANCH   4   9
ATOM      9  N   UNL A   1      31.742  27.193  21.638  1.00  0.00    -0.339 N 
ATOM     10  C   UNL A   1      32.365  25.980  21.743  1.00  0.00     0.240 C 
ATOM     11  H   UNL A   1      31.757  27.595  20.740  1.00  0.00     0.164 HD
ATOM     12  O   UNL A   1      33.280  25.765  20.947  1.00  0.00    -0.273 OA
BRANCH  10  13
ATOM     13  C   UNL A   1      31.932  24.936  22.793  1.00  0.00     0.219 C 
BRANCH  13  14
ATOM     14  N   UNL A   1      32.950  24.394  23.700  1.00  0.00    -0.332 N 
ATOM     15  C   UNL A   1      33.495  25.260  24.737  1.00  0.00     0.147 C 
BRANCH  14  16
ATOM     16  C   UNL A   1      33.194  23.011  23.684  1.00  0.00     0.264 C 
ATOM     17  O   UNL A   1      32.314  22.198  23.416  1.00  0.00    -0.268 OA
BRANCH  16  18
ATOM     18  C   UNL A   1      34.536  22.607  24.066  1.00  0.00     0.092 A 
ATOM     19  C   UNL A   1      35.738  22.981  23.492  1.00  0.00     0.025 A 
ATOM     20  S   UNL A   1      34.752  21.457  25.309  1.00  0.00    -0.139 S 
ATOM     21  C   UNL A   1      36.831  22.224  24.003  1.00  0.00     0.012 A 
ATOM     22  C   UNL A   1      36.432  21.349  24.989  1.00  0.00     0.065 A 
ENDBRANCH  16  18
ENDBRANCH  14  16
ENDBRANCH  13  14
ENDBRANCH  10  13
ENDBRANCH   4   9
ENDBRANCH   2   4
ENDBRANCH   1   2
BRANCH   1  23
ATOM     23  C   UNL A   1      31.422  30.068  25.380  1.00  0.00     0.274 C 
BRANCH  23  24
ATOM     24  C   UNL A   1      32.039  30.286  26.767  1.00  0.00     0.275 C 
BRANCH  24  25
ATOM     25  O   UNL A   1      33.435  30.561  26.603  1.00  0.00    -0.458 OA
BRANCH  25  26
ATOM     26  C   UNL A   1      33.864  31.660  27.273  1.00  0.00     0.338 C 
ATOM     27  O   UNL A   1      33.260  32.694  27.463  1.00  0.00    -0.246 OA
BRANCH  26  28
ATOM     28  C   UNL A   1      35.076  31.232  27.994  1.00  0.00     0.060 A 
ATOM     29  C   UNL A   1      35.133  29.904  28.419  1.00  0.00     0.016 A 
ATOM     30  C   UNL A   1      36.172  32.079  28.161  1.00  0.00     0.016 A 
ATOM     31  C   UNL A   1      36.274  29.404  29.024  1.00  0.00     0.010 A 
ATOM     32  C   UNL A   1      37.322  31.582  28.772  1.00  0.00     0.010 A 
ATOM     33  C   UNL A   1      37.370  30.247  29.210  1.00  0.00    -0.014 A 
BRANCH  33  34
ATOM     34  C   UNL A   1      38.534  29.749  29.962  1.00  0.00     0.031 A 
ATOM     35  C   UNL A   1      38.751  30.256  31.352  1.00  0.00     0.074 A 
ATOM     36  C   UNL A   1      39.351  28.839  29.410  1.00  0.00     0.049 A 
ATOM     37  N   UNL A   1      39.755  30.049  32.161  1.00  0.00    -0.248 NA
ATOM     38  C   UNL A   1      37.690  31.114  31.906  1.00  0.00     0.031 C 
ATOM     39  C   UNL A   1      39.173  28.232  28.091  1.00  0.00     0.029 A 
ATOM     40  N   UNL A   1      40.500  28.272  29.892  1.00  0.00    -0.354 N 
ATOM     41  C   UNL A   1      39.459  30.766  33.310  1.00  0.00     0.074 A 
ATOM     42  C   UNL A   1      38.186  31.419  33.095  1.00  0.00     0.031 C 
ATOM     43  C   UNL A   1      40.191  27.385  27.862  1.00  0.00     0.029 A 
ATOM     44  C   UNL A   1      41.105  27.424  29.000  1.00  0.00     0.049 A 
ATOM     45  H   UNL A   1      40.857  28.455  30.791  1.00  0.00     0.167 HD
ATOM     46  C   UNL A   1      40.194  30.869  34.441  1.00  0.00     0.037 A 
ATOM     47  C   UNL A   1      42.283  26.781  29.090  1.00  0.00     0.037 A 
ATOM     48  C   UNL A   1      41.460  30.219  34.633  1.00  0.00     0.049 A 
ATOM     49  C   UNL A   1      43.109  26.958  30.336  1.00  0.00     0.074 A 
ATOM     50  C   UNL A   1      42.314  30.283  35.719  1.00  0.00     0.029 A 
ATOM     51  N   UNL A   1      42.055  29.376  33.703  1.00  0.00    -0.354 N 
ATOM     52  N   UNL A   1      42.848  27.670  31.407  1.00  0.00    -0.248 NA
ATOM     53  C   UNL A   1      44.394  26.248  30.384  1.00  0.00     0.031 C 
ATOM     54  C   UNL A   1      43.438  29.498  35.434  1.00  0.00     0.029 A 
ATOM     55  C   UNL A   1      43.267  28.918  34.187  1.00  0.00     0.049 A 
ATOM     56  H   UNL A   1      41.669  29.140  32.828  1.00  0.00     0.167 HD
ATOM     57  C   UNL A   1      43.924  27.482  32.262  1.00  0.00     0.074 A 
ATOM     58  C   UNL A   1      44.835  26.576  31.590  1.00  0.00     0.031 C 
ATOM     59  C   UNL A   1      44.144  28.011  33.491  1.00  0.00     0.037 A 
BRANCH  46  60
ATOM     60  C   UNL A   1      39.656  31.755  35.521  1.00  0.00     0.064 A 
ATOM     61  C   UNL A   1      38.670  31.310  36.415  1.00  0.00     0.173 A 
ATOM     62  C   UNL A   1      40.116  33.074  35.650  1.00  0.00     0.173 A 
ATOM     63  F   UNL A   1      38.179  30.067  36.311  1.00  0.00    -0.203 F 
ATOM     64  C   UNL A   1      38.148  32.162  37.384  1.00  0.00     0.198 A 
ATOM     65  C   UNL A   1      39.608  33.916  36.634  1.00  0.00     0.198 A 
ATOM     66  F   UNL A   1      41.050  33.548  34.812  1.00  0.00    -0.203 F 
ATOM     67  F   UNL A   1      37.171  31.733  38.195  1.00  0.00    -0.200 F 
ATOM     68  C   UNL A   1      38.619  33.462  37.496  1.00  0.00     0.200 A 
ATOM     69  F   UNL A   1      40.063  35.172  36.741  1.00  0.00    -0.200 F 
ATOM     70  F   UNL A   1      38.110  34.283  38.424  1.00  0.00    -0.200 F 
ENDBRANCH  46  60
BRANCH  47  71
ATOM     71  C   UNL A   1      42.756  25.935  27.967  1.00  0.00     0.064 A 
ATOM     72  C   UNL A   1      42.335  24.605  27.838  1.00  0.00     0.173 A 
ATOM     73  C   UNL A   1      43.640  26.438  26.999  1.00  0.00     0.173 A 
ATOM     74  F   UNL A   1      41.509  24.074  28.752  1.00  0.00    -0.203 F 
ATOM     75  C   UNL A   1      42.789  23.805  26.792  1.00  0.00     0.198 A 
ATOM     76  C   UNL A   1      44.073  25.644  25.941  1.00  0.00     0.198 A 
ATOM     77  F   UNL A   1      44.073  27.704  27.079  1.00  0.00    -0.203 F 
ATOM     78  F   UNL A   1      42.399  22.525  26.714  1.00  0.00    -0.200 F 
ATOM     79  C   UNL A   1      43.653  24.327  25.840  1.00  0.00     0.200 A 
ATOM     80  F   UNL A   1      44.903  26.154  25.019  1.00  0.00    -0.200 F 
ATOM     81  F   UNL A   1      44.087  23.557  24.833  1.00  0.00    -0.200 F 
ENDBRANCH  47  71
BRANCH  59  82
ATOM     82  C   UNL A   1      45.404  27.596  34.188  1.00  0.00     0.064 A 
ATOM     83  C   UNL A   1      45.439  26.471  35.023  1.00  0.00     0.173 A 
ATOM     84  C   UNL A   1      46.591  28.315  33.991  1.00  0.00     0.173 A 
ATOM     85  F   UNL A   1      44.323  25.763  35.251  1.00  0.00    -0.203 F 
ATOM     86  C   UNL A   1      46.620  26.093  35.656  1.00  0.00     0.198 A 
ATOM     87  C   UNL A   1      47.774  27.921  34.608  1.00  0.00     0.198 A 
ATOM     88  F   UNL A   1      46.603  29.395  33.196  1.00  0.00    -0.203 F 
ATOM     89  F   UNL A   1      46.626  25.039  36.484  1.00  0.00    -0.200 F 
ATOM     90  C   UNL A   1      47.786  26.814  35.445  1.00  0.00     0.200 A 
ATOM     91  F   UNL A   1      48.901  28.614  34.397  1.00  0.00    -0.200 F 
ATOM     92  F   UNL A   1      48.921  26.449  36.055  1.00  0.00    -0.200 F 
ENDBRANCH  59  82
ENDBRANCH  33  34
ENDBRANCH  26  28
ENDBRANCH  25  26
ENDBRANCH  24  25
ENDBRANCH  23  24
ENDBRANCH   1  23
TORSDOF 18
ENDMDL
