MODEL 1
REMARK VINA RESULT:     -10.0      0.000      0.000
REMARK SMILES CCCC[C@H](C(=O)OCCOC(=O)c1ccc(-c2c3nc(c(-c4c(F)c(F)c(F)c(F)c4F)c4ccc([nH]4)c(-c4c(F)c(F)c(F)c(F)c4F)c4nc(c(-c5c(F)c(F)c(F)c(F)c5F)c5ccc2[nH]5)C=C4)C=C3)cc1)[C@H](C)O
REMARK SMILES IDX 9 1 8 2 6 3 7 4 5 5 4 6 3 7 2 8 1 9 77 10 78 11 79 12 10 14
REMARK SMILES IDX 11 15 12 16 13 17 14 18 15 19 76 20 16 21 75 22 17 23 18 24
REMARK SMILES IDX 19 25 69 26 20 27 74 28 68 29 70 30 21 31 73 32 67 33 66 34
REMARK SMILES IDX 22 36 54 37 34 38 53 39 35 40 38 41 52 42 71 43 36 44 37 45
REMARK SMILES IDX 51 47 72 48 39 49 23 50 24 51 32 52 25 53 26 54 30 55 33 56
REMARK SMILES IDX 27 57 28 58 31 59 29 60 55 61 56 62 64 63 57 64 58 65 62 66
REMARK SMILES IDX 65 67 59 68 60 69 63 70 61 71 40 72 41 73 49 74 42 75 43 76
REMARK SMILES IDX 47 77 50 78 44 79 45 80 48 81 46 82
REMARK H PARENT 79 13 70 35 38 46
REMARK Flexibility Score: inf
ROOT
ATOM      1  C   UNL A   1      32.873  29.353  24.930  1.00  0.00     0.274 C 
ENDROOT
BRANCH   1   2
ATOM      2  O   UNL A   1      32.549  29.327  23.526  1.00  0.00    -0.462 OA
BRANCH   2   3
ATOM      3  C   UNL A   1      32.037  28.151  23.082  1.00  0.00     0.311 C 
ATOM      4  O   UNL A   1      32.682  27.120  22.912  1.00  0.00    -0.252 OA
BRANCH   3   5
ATOM      5  C   UNL A   1      30.543  28.206  22.817  1.00  0.00     0.127 C 
BRANCH   5   6
ATOM      6  C   UNL A   1      29.748  27.414  23.874  1.00  0.00     0.018 C 
BRANCH   6   7
ATOM      7  C   UNL A   1      29.891  25.889  23.929  1.00  0.00     0.001 C 
BRANCH   7   8
ATOM      8  C   UNL A   1      30.204  25.282  25.302  1.00  0.00    -0.003 C 
ATOM      9  C   UNL A   1      31.200  26.081  26.133  1.00  0.00     0.004 C 
ENDBRANCH   7   8
ENDBRANCH   6   7
ENDBRANCH   5   6
BRANCH   5  10
ATOM     10  C   UNL A   1      30.078  29.627  22.487  1.00  0.00     0.125 C 
ATOM     11  C   UNL A   1      28.564  29.703  22.307  1.00  0.00     0.039 C 
BRANCH  10  12
ATOM     12  O   UNL A   1      30.656  30.076  21.255  1.00  0.00    -0.393 OA
ATOM     13  H   UNL A   1      31.486  29.600  21.094  1.00  0.00     0.210 HD
ENDBRANCH  10  12
ENDBRANCH   5  10
ENDBRANCH   3   5
ENDBRANCH   2   3
ENDBRANCH   1   2
BRANCH   1  14
ATOM     14  C   UNL A   1      31.967  30.312  25.696  1.00  0.00     0.275 C 
BRANCH  14  15
ATOM     15  O   UNL A   1      32.415  30.447  27.056  1.00  0.00    -0.458 OA
BRANCH  15  16
ATOM     16  C   UNL A   1      33.133  31.558  27.320  1.00  0.00     0.338 C 
ATOM     17  O   UNL A   1      32.794  32.722  27.173  1.00  0.00    -0.246 OA
BRANCH  16  18
ATOM     18  C   UNL A   1      34.459  31.191  27.836  1.00  0.00     0.060 A 
ATOM     19  C   UNL A   1      34.748  29.860  28.131  1.00  0.00     0.016 A 
ATOM     20  C   UNL A   1      35.358  32.202  28.176  1.00  0.00     0.016 A 
ATOM     21  C   UNL A   1      35.888  29.545  28.865  1.00  0.00     0.010 A 
ATOM     22  C   UNL A   1      36.550  31.872  28.825  1.00  0.00     0.010 A 
ATOM     23  C   UNL A   1      36.805  30.546  29.213  1.00  0.00    -0.014 A 
BRANCH  23  24
ATOM     24  C   UNL A   1      38.018  30.215  30.006  1.00  0.00     0.031 A 
ATOM     25  C   UNL A   1      39.090  29.340  29.417  1.00  0.00     0.074 A 
ATOM     26  C   UNL A   1      38.159  30.700  31.254  1.00  0.00     0.049 A 
ATOM     27  N   UNL A   1      40.130  28.799  30.001  1.00  0.00    -0.248 NA
ATOM     28  C   UNL A   1      38.973  29.022  27.986  1.00  0.00     0.031 C 
ATOM     29  C   UNL A   1      37.213  31.591  31.927  1.00  0.00     0.029 A 
ATOM     30  N   UNL A   1      39.154  30.512  32.179  1.00  0.00    -0.354 N 
ATOM     31  C   UNL A   1      40.759  28.037  29.024  1.00  0.00     0.074 A 
ATOM     32  C   UNL A   1      39.988  28.187  27.809  1.00  0.00     0.031 C 
ATOM     33  C   UNL A   1      37.685  31.893  33.145  1.00  0.00     0.029 A 
ATOM     34  C   UNL A   1      38.926  31.159  33.368  1.00  0.00     0.049 A 
ATOM     35  H   UNL A   1      39.955  29.964  32.007  1.00  0.00     0.167 HD
ATOM     36  C   UNL A   1      41.874  27.276  29.138  1.00  0.00     0.037 A 
ATOM     37  C   UNL A   1      39.616  31.134  34.522  1.00  0.00     0.037 A 
ATOM     38  C   UNL A   1      42.666  27.169  30.335  1.00  0.00     0.049 A 
ATOM     39  C   UNL A   1      40.844  30.277  34.626  1.00  0.00     0.074 A 
ATOM     40  C   UNL A   1      43.821  26.435  30.545  1.00  0.00     0.029 A 
ATOM     41  N   UNL A   1      42.392  27.832  31.521  1.00  0.00    -0.354 N 
ATOM     42  N   UNL A   1      41.397  29.514  33.714  1.00  0.00    -0.248 NA
ATOM     43  C   UNL A   1      41.532  30.261  35.924  1.00  0.00     0.031 C 
ATOM     44  C   UNL A   1      44.234  26.638  31.868  1.00  0.00     0.029 A 
ATOM     45  C   UNL A   1      43.352  27.520  32.470  1.00  0.00     0.049 A 
ATOM     46  H   UNL A   1      41.628  28.435  31.668  1.00  0.00     0.167 HD
ATOM     47  C   UNL A   1      42.495  28.928  34.325  1.00  0.00     0.074 A 
ATOM     48  C   UNL A   1      42.545  29.441  35.680  1.00  0.00     0.031 C 
ATOM     49  C   UNL A   1      43.380  28.039  33.812  1.00  0.00     0.037 A 
BRANCH  36  50
ATOM     50  C   UNL A   1      42.289  26.473  27.943  1.00  0.00     0.064 A 
ATOM     51  C   UNL A   1      41.760  25.200  27.687  1.00  0.00     0.173 A 
ATOM     52  C   UNL A   1      43.201  27.006  27.019  1.00  0.00     0.173 A 
ATOM     53  F   UNL A   1      40.896  24.642  28.549  1.00  0.00    -0.203 F 
ATOM     54  C   UNL A   1      42.145  24.481  26.557  1.00  0.00     0.198 A 
ATOM     55  C   UNL A   1      43.567  26.293  25.880  1.00  0.00     0.198 A 
ATOM     56  F   UNL A   1      43.732  28.221  27.218  1.00  0.00    -0.203 F 
ATOM     57  F   UNL A   1      41.653  23.251  26.349  1.00  0.00    -0.200 F 
ATOM     58  C   UNL A   1      43.041  25.029  25.653  1.00  0.00     0.200 A 
ATOM     59  F   UNL A   1      44.428  26.828  25.004  1.00  0.00    -0.200 F 
ATOM     60  F   UNL A   1      43.405  24.338  24.564  1.00  0.00    -0.200 F 
ENDBRANCH  36  50
BRANCH  37  61
ATOM     61  C   UNL A   1      39.132  31.924  35.681  1.00  0.00     0.064 A 
ATOM     62  C   UNL A   1      38.272  31.355  36.629  1.00  0.00     0.173 A 
ATOM     63  C   UNL A   1      39.541  33.251  35.878  1.00  0.00     0.173 A 
ATOM     64  F   UNL A   1      37.837  30.097  36.468  1.00  0.00    -0.203 F 
ATOM     65  C   UNL A   1      37.838  32.086  37.732  1.00  0.00     0.198 A 
ATOM     66  C   UNL A   1      39.125  33.972  36.994  1.00  0.00     0.198 A 
ATOM     67  F   UNL A   1      40.366  33.837  34.997  1.00  0.00    -0.203 F 
ATOM     68  F   UNL A   1      36.994  31.529  38.611  1.00  0.00    -0.200 F 
ATOM     69  C   UNL A   1      38.271  33.391  37.917  1.00  0.00     0.200 A 
ATOM     70  F   UNL A   1      39.556  35.227  37.175  1.00  0.00    -0.200 F 
ATOM     71  F   UNL A   1      37.862  34.088  38.986  1.00  0.00    -0.200 F 
ENDBRANCH  37  61
BRANCH  49  72
ATOM     72  C   UNL A   1      44.479  27.577  34.717  1.00  0.00     0.064 A 
ATOM     73  C   UNL A   1      44.337  26.425  35.504  1.00  0.00     0.173 A 
ATOM     74  C   UNL A   1      45.693  28.275  34.776  1.00  0.00     0.173 A 
ATOM     75  F   UNL A   1      43.185  25.737  35.491  1.00  0.00    -0.203 F 
ATOM     76  C   UNL A   1      45.370  25.997  36.332  1.00  0.00     0.198 A 
ATOM     77  C   UNL A   1      46.730  27.834  35.593  1.00  0.00     0.198 A 
ATOM     78  F   UNL A   1      45.874  29.382  34.040  1.00  0.00    -0.203 F 
ATOM     79  F   UNL A   1      45.202  24.914  37.103  1.00  0.00    -0.200 F 
ATOM     80  C   UNL A   1      46.566  26.699  36.373  1.00  0.00     0.200 A 
ATOM     81  F   UNL A   1      47.887  28.509  35.629  1.00  0.00    -0.200 F 
ATOM     82  F   UNL A   1      47.559  26.285  37.172  1.00  0.00    -0.200 F 
ENDBRANCH  49  72
ENDBRANCH  23  24
ENDBRANCH  16  18
ENDBRANCH  15  16
ENDBRANCH  14  15
ENDBRANCH   1  14
TORSDOF 16
ENDMDL
MODEL 2
REMARK VINA RESULT:      -9.9      5.389     10.449
REMARK SMILES CCCC[C@H](C(=O)OCCOC(=O)c1ccc(-c2c3nc(c(-c4c(F)c(F)c(F)c(F)c4F)c4ccc([nH]4)c(-c4c(F)c(F)c(F)c(F)c4F)c4nc(c(-c5c(F)c(F)c(F)c(F)c5F)c5ccc2[nH]5)C=C4)C=C3)cc1)[C@H](C)O
REMARK SMILES IDX 9 1 8 2 6 3 7 4 5 5 4 6 3 7 2 8 1 9 77 10 78 11 79 12 10 14
REMARK SMILES IDX 11 15 12 16 13 17 14 18 15 19 76 20 16 21 75 22 17 23 18 24
REMARK SMILES IDX 19 25 69 26 20 27 74 28 68 29 70 30 21 31 73 32 67 33 66 34
REMARK SMILES IDX 22 36 54 37 34 38 53 39 35 40 38 41 52 42 71 43 36 44 37 45
REMARK SMILES IDX 51 47 72 48 39 49 23 50 24 51 32 52 25 53 26 54 30 55 33 56
REMARK SMILES IDX 27 57 28 58 31 59 29 60 55 61 56 62 64 63 57 64 58 65 62 66
REMARK SMILES IDX 65 67 59 68 60 69 63 70 61 71 40 72 41 73 49 74 42 75 43 76
REMARK SMILES IDX 47 77 50 78 44 79 45 80 48 81 46 82
REMARK H PARENT 79 13 70 35 38 46
REMARK Flexibility Score: inf
ROOT
ATOM      1  C   UNL A   1      36.165  19.935  25.005  1.00  0.00     0.274 C 
ENDROOT
BRANCH   1   2
ATOM      2  O   UNL A   1      35.399  21.123  25.286  1.00  0.00    -0.462 OA
BRANCH   2   3
ATOM      3  C   UNL A   1      34.237  20.908  25.953  1.00  0.00     0.311 C 
ATOM      4  O   UNL A   1      34.003  21.278  27.099  1.00  0.00    -0.252 OA
BRANCH   3   5
ATOM      5  C   UNL A   1      33.201  20.160  25.133  1.00  0.00     0.127 C 
BRANCH   5   6
ATOM      6  C   UNL A   1      32.895  18.772  25.730  1.00  0.00     0.018 C 
BRANCH   6   7
ATOM      7  C   UNL A   1      32.608  17.599  24.787  1.00  0.00     0.001 C 
BRANCH   7   8
ATOM      8  C   UNL A   1      33.812  16.744  24.375  1.00  0.00    -0.003 C 
ATOM      9  C   UNL A   1      34.131  16.779  22.885  1.00  0.00     0.004 C 
ENDBRANCH   7   8
ENDBRANCH   6   7
ENDBRANCH   5   6
BRANCH   5  10
ATOM     10  C   UNL A   1      32.018  21.057  24.760  1.00  0.00     0.125 C 
ATOM     11  C   UNL A   1      32.475  22.380  24.151  1.00  0.00     0.039 C 
BRANCH  10  12
ATOM     12  O   UNL A   1      31.248  21.390  25.921  1.00  0.00    -0.393 OA
ATOM     13  H   UNL A   1      31.687  22.107  26.406  1.00  0.00     0.210 HD
ENDBRANCH  10  12
ENDBRANCH   5  10
ENDBRANCH   3   5
ENDBRANCH   2   3
ENDBRANCH   1   2
BRANCH   1  14
ATOM     14  C   UNL A   1      37.640  20.257  24.785  1.00  0.00     0.275 C 
BRANCH  14  15
ATOM     15  O   UNL A   1      38.068  21.288  25.692  1.00  0.00    -0.458 OA
BRANCH  15  16
ATOM     16  C   UNL A   1      39.313  21.139  26.189  1.00  0.00     0.338 C 
ATOM     17  O   UNL A   1      39.995  20.126  26.213  1.00  0.00    -0.246 OA
BRANCH  16  18
ATOM     18  C   UNL A   1      39.792  22.414  26.741  1.00  0.00     0.060 A 
ATOM     19  C   UNL A   1      39.310  23.618  26.232  1.00  0.00     0.016 A 
ATOM     20  C   UNL A   1      40.843  22.405  27.658  1.00  0.00     0.016 A 
ATOM     21  C   UNL A   1      39.949  24.812  26.554  1.00  0.00     0.010 A 
ATOM     22  C   UNL A   1      41.419  23.613  28.056  1.00  0.00     0.010 A 
ATOM     23  C   UNL A   1      41.005  24.824  27.476  1.00  0.00    -0.014 A 
BRANCH  23  24
ATOM     24  C   UNL A   1      41.697  26.095  27.814  1.00  0.00     0.031 A 
ATOM     25  C   UNL A   1      40.989  27.150  28.619  1.00  0.00     0.074 A 
ATOM     26  C   UNL A   1      42.961  26.303  27.401  1.00  0.00     0.049 A 
ATOM     27  N   UNL A   1      41.352  28.383  28.868  1.00  0.00    -0.248 NA
ATOM     28  C   UNL A   1      39.698  26.772  29.214  1.00  0.00     0.031 C 
ATOM     29  C   UNL A   1      43.774  25.347  26.648  1.00  0.00     0.029 A 
ATOM     30  N   UNL A   1      43.785  27.389  27.555  1.00  0.00    -0.354 N 
ATOM     31  C   UNL A   1      40.312  28.943  29.601  1.00  0.00     0.074 A 
ATOM     32  C   UNL A   1      39.306  27.915  29.761  1.00  0.00     0.031 C 
ATOM     33  C   UNL A   1      44.986  25.876  26.430  1.00  0.00     0.029 A 
ATOM     34  C   UNL A   1      45.012  27.235  26.960  1.00  0.00     0.049 A 
ATOM     35  H   UNL A   1      43.521  28.201  28.046  1.00  0.00     0.167 HD
ATOM     36  C   UNL A   1      40.209  30.203  30.087  1.00  0.00     0.037 A 
ATOM     37  C   UNL A   1      46.030  28.103  26.820  1.00  0.00     0.037 A 
ATOM     38  C   UNL A   1      41.233  31.206  29.970  1.00  0.00     0.049 A 
ATOM     39  C   UNL A   1      45.887  29.496  27.361  1.00  0.00     0.074 A 
ATOM     40  C   UNL A   1      41.228  32.508  30.442  1.00  0.00     0.029 A 
ATOM     41  N   UNL A   1      42.457  31.012  29.347  1.00  0.00    -0.354 N 
ATOM     42  N   UNL A   1      44.877  30.033  28.000  1.00  0.00    -0.248 NA
ATOM     43  C   UNL A   1      47.017  30.410  27.143  1.00  0.00     0.031 C 
ATOM     44  C   UNL A   1      42.442  33.108  30.086  1.00  0.00     0.029 A 
ATOM     45  C   UNL A   1      43.212  32.171  29.418  1.00  0.00     0.049 A 
ATOM     46  H   UNL A   1      42.746  30.174  28.919  1.00  0.00     0.167 HD
ATOM     47  C   UNL A   1      45.247  31.344  28.262  1.00  0.00     0.074 A 
ATOM     48  C   UNL A   1      46.584  31.516  27.731  1.00  0.00     0.031 C 
ATOM     49  C   UNL A   1      44.539  32.320  28.880  1.00  0.00     0.037 A 
BRANCH  36  50
ATOM     50  C   UNL A   1      38.928  30.578  30.768  1.00  0.00     0.064 A 
ATOM     51  C   UNL A   1      38.794  30.546  32.163  1.00  0.00     0.173 A 
ATOM     52  C   UNL A   1      37.830  31.016  30.011  1.00  0.00     0.173 A 
ATOM     53  F   UNL A   1      39.811  30.121  32.929  1.00  0.00    -0.203 F 
ATOM     54  C   UNL A   1      37.600  30.921  32.775  1.00  0.00     0.198 A 
ATOM     55  C   UNL A   1      36.645  31.409  30.627  1.00  0.00     0.198 A 
ATOM     56  F   UNL A   1      37.910  31.067  28.673  1.00  0.00    -0.203 F 
ATOM     57  F   UNL A   1      37.482  30.851  34.109  1.00  0.00    -0.200 F 
ATOM     58  C   UNL A   1      36.531  31.357  32.009  1.00  0.00     0.200 A 
ATOM     59  F   UNL A   1      35.615  31.838  29.885  1.00  0.00    -0.200 F 
ATOM     60  F   UNL A   1      35.385  31.724  32.600  1.00  0.00    -0.200 F 
ENDBRANCH  36  50
BRANCH  37  61
ATOM     61  C   UNL A   1      47.258  27.681  26.103  1.00  0.00     0.064 A 
ATOM     62  C   UNL A   1      48.371  27.200  26.807  1.00  0.00     0.173 A 
ATOM     63  C   UNL A   1      47.333  27.721  24.704  1.00  0.00     0.173 A 
ATOM     64  F   UNL A   1      48.352  27.166  28.147  1.00  0.00    -0.203 F 
ATOM     65  C   UNL A   1      49.515  26.778  26.134  1.00  0.00     0.198 A 
ATOM     66  C   UNL A   1      48.469  27.275  24.032  1.00  0.00     0.198 A 
ATOM     67  F   UNL A   1      46.292  28.172  23.988  1.00  0.00    -0.203 F 
ATOM     68  F   UNL A   1      50.576  26.348  26.830  1.00  0.00    -0.200 F 
ATOM     69  C   UNL A   1      49.560  26.808  24.748  1.00  0.00     0.200 A 
ATOM     70  F   UNL A   1      48.503  27.295  22.694  1.00  0.00    -0.200 F 
ATOM     71  F   UNL A   1      50.657  26.390  24.103  1.00  0.00    -0.200 F 
ENDBRANCH  37  61
BRANCH  49  72
ATOM     72  C   UNL A   1      45.205  33.653  29.023  1.00  0.00     0.064 A 
ATOM     73  C   UNL A   1      46.017  33.946  30.128  1.00  0.00     0.173 A 
ATOM     74  C   UNL A   1      45.053  34.634  28.033  1.00  0.00     0.173 A 
ATOM     75  F   UNL A   1      46.175  33.042  31.107  1.00  0.00    -0.203 F 
ATOM     76  C   UNL A   1      46.641  35.184  30.244  1.00  0.00     0.198 A 
ATOM     77  C   UNL A   1      45.694  35.865  28.144  1.00  0.00     0.198 A 
ATOM     78  F   UNL A   1      44.287  34.398  26.957  1.00  0.00    -0.203 F 
ATOM     79  F   UNL A   1      47.385  35.457  31.325  1.00  0.00    -0.200 F 
ATOM     80  C   UNL A   1      46.483  36.140  29.251  1.00  0.00     0.200 A 
ATOM     81  F   UNL A   1      45.544  36.787  27.183  1.00  0.00    -0.200 F 
ATOM     82  F   UNL A   1      47.085  37.332  29.366  1.00  0.00    -0.200 F 
ENDBRANCH  49  72
ENDBRANCH  23  24
ENDBRANCH  16  18
ENDBRANCH  15  16
ENDBRANCH  14  15
ENDBRANCH   1  14
TORSDOF 16
ENDMDL
MODEL 3
REMARK VINA RESULT:      -9.9      1.180      2.457
REMARK SMILES CCCC[C@H](C(=O)OCCOC(=O)c1ccc(-c2c3nc(c(-c4c(F)c(F)c(F)c(F)c4F)c4ccc([nH]4)c(-c4c(F)c(F)c(F)c(F)c4F)c4nc(c(-c5c(F)c(F)c(F)c(F)c5F)c5ccc2[nH]5)C=C4)C=C3)cc1)[C@H](C)O
REMARK SMILES IDX 9 1 8 2 6 3 7 4 5 5 4 6 3 7 2 8 1 9 77 10 78 11 79 12 10 14
REMARK SMILES IDX 11 15 12 16 13 17 14 18 15 19 76 20 16 21 75 22 17 23 18 24
REMARK SMILES IDX 19 25 69 26 20 27 74 28 68 29 70 30 21 31 73 32 67 33 66 34
REMARK SMILES IDX 22 36 54 37 34 38 53 39 35 40 38 41 52 42 71 43 36 44 37 45
REMARK SMILES IDX 51 47 72 48 39 49 23 50 24 51 32 52 25 53 26 54 30 55 33 56
REMARK SMILES IDX 27 57 28 58 31 59 29 60 55 61 56 62 64 63 57 64 58 65 62 66
REMARK SMILES IDX 65 67 59 68 60 69 63 70 61 71 40 72 41 73 49 74 42 75 43 76
REMARK SMILES IDX 47 77 50 78 44 79 45 80 48 81 46 82
REMARK H PARENT 79 13 70 35 38 46
REMARK Flexibility Score: inf
ROOT
ATOM      1  C   UNL A   1      32.251  29.104  25.114  1.00  0.00     0.274 C 
ENDROOT
BRANCH   1   2
ATOM      2  O   UNL A   1      31.211  28.107  25.149  1.00  0.00    -0.462 OA
BRANCH   2   3
ATOM      3  C   UNL A   1      31.418  27.100  26.035  1.00  0.00     0.311 C 
ATOM      4  O   UNL A   1      31.233  27.176  27.246  1.00  0.00    -0.252 OA
BRANCH   3   5
ATOM      5  C   UNL A   1      31.897  25.815  25.384  1.00  0.00     0.127 C 
BRANCH   5   6
ATOM      6  C   UNL A   1      33.107  25.215  26.129  1.00  0.00     0.018 C 
BRANCH   6   7
ATOM      7  C   UNL A   1      33.672  23.866  25.672  1.00  0.00     0.001 C 
BRANCH   7   8
ATOM      8  C   UNL A   1      34.976  23.909  24.867  1.00  0.00    -0.003 C 
ATOM      9  C   UNL A   1      36.241  23.967  25.715  1.00  0.00     0.004 C 
ENDBRANCH   7   8
ENDBRANCH   6   7
ENDBRANCH   5   6
BRANCH   5  10
ATOM     10  C   UNL A   1      30.732  24.882  25.043  1.00  0.00     0.125 C 
ATOM     11  C   UNL A   1      30.660  24.582  23.549  1.00  0.00     0.039 C 
BRANCH  10  12
ATOM     12  O   UNL A   1      29.481  25.484  25.396  1.00  0.00    -0.393 OA
ATOM     13  H   UNL A   1      29.016  24.918  26.032  1.00  0.00     0.210 HD
ENDBRANCH  10  12
ENDBRANCH   5  10
ENDBRANCH   3   5
ENDBRANCH   2   3
ENDBRANCH   1   2
BRANCH   1  14
ATOM     14  C   UNL A   1      31.794  30.413  25.752  1.00  0.00     0.275 C 
BRANCH  14  15
ATOM     15  O   UNL A   1      32.357  30.553  27.068  1.00  0.00    -0.458 OA
BRANCH  15  16
ATOM     16  C   UNL A   1      33.110  31.655  27.259  1.00  0.00     0.338 C 
ATOM     17  O   UNL A   1      32.801  32.820  27.057  1.00  0.00    -0.246 OA
BRANCH  16  18
ATOM     18  C   UNL A   1      34.435  31.278  27.770  1.00  0.00     0.060 A 
ATOM     19  C   UNL A   1      34.721  29.943  28.047  1.00  0.00     0.016 A 
ATOM     20  C   UNL A   1      35.337  32.282  28.124  1.00  0.00     0.016 A 
ATOM     21  C   UNL A   1      35.860  29.614  28.776  1.00  0.00     0.010 A 
ATOM     22  C   UNL A   1      36.528  31.941  28.769  1.00  0.00     0.010 A 
ATOM     23  C   UNL A   1      36.780  30.609  29.139  1.00  0.00    -0.014 A 
BRANCH  23  24
ATOM     24  C   UNL A   1      37.992  30.263  29.927  1.00  0.00     0.031 A 
ATOM     25  C   UNL A   1      39.058  29.387  29.329  1.00  0.00     0.074 A 
ATOM     26  C   UNL A   1      38.137  30.737  31.179  1.00  0.00     0.049 A 
ATOM     27  N   UNL A   1      40.095  28.836  29.907  1.00  0.00    -0.248 NA
ATOM     28  C   UNL A   1      38.937  29.082  27.896  1.00  0.00     0.031 C 
ATOM     29  C   UNL A   1      37.197  31.628  31.861  1.00  0.00     0.029 A 
ATOM     30  N   UNL A   1      39.132  30.535  32.101  1.00  0.00    -0.354 N 
ATOM     31  C   UNL A   1      40.718  28.078  28.923  1.00  0.00     0.074 A 
ATOM     32  C   UNL A   1      39.947  28.243  27.710  1.00  0.00     0.031 C 
ATOM     33  C   UNL A   1      37.672  31.916  33.081  1.00  0.00     0.029 A 
ATOM     34  C   UNL A   1      38.909  31.174  33.296  1.00  0.00     0.049 A 
ATOM     35  H   UNL A   1      39.929  29.985  31.923  1.00  0.00     0.167 HD
ATOM     36  C   UNL A   1      41.829  27.310  29.029  1.00  0.00     0.037 A 
ATOM     37  C   UNL A   1      39.601  31.135  34.449  1.00  0.00     0.037 A 
ATOM     38  C   UNL A   1      42.622  27.188  30.224  1.00  0.00     0.049 A 
ATOM     39  C   UNL A   1      40.824  30.269  34.543  1.00  0.00     0.074 A 
ATOM     40  C   UNL A   1      43.773  26.445  30.427  1.00  0.00     0.029 A 
ATOM     41  N   UNL A   1      42.353  27.842  31.417  1.00  0.00    -0.354 N 
ATOM     42  N   UNL A   1      41.370  29.511  33.625  1.00  0.00    -0.248 NA
ATOM     43  C   UNL A   1      41.513  30.238  35.841  1.00  0.00     0.031 C 
ATOM     44  C   UNL A   1      44.188  26.635  31.750  1.00  0.00     0.029 A 
ATOM     45  C   UNL A   1      43.313  27.516  32.361  1.00  0.00     0.049 A 
ATOM     46  H   UNL A   1      41.594  28.449  31.569  1.00  0.00     0.167 HD
ATOM     47  C   UNL A   1      42.467  28.914  34.229  1.00  0.00     0.074 A 
ATOM     48  C   UNL A   1      42.521  29.414  35.588  1.00  0.00     0.031 C 
ATOM     49  C   UNL A   1      43.345  28.024  33.708  1.00  0.00     0.037 A 
BRANCH  36  50
ATOM     50  C   UNL A   1      42.238  26.515  27.827  1.00  0.00     0.064 A 
ATOM     51  C   UNL A   1      43.229  26.965  26.944  1.00  0.00     0.173 A 
ATOM     52  C   UNL A   1      41.653  25.263  27.579  1.00  0.00     0.173 A 
ATOM     53  F   UNL A   1      43.807  28.161  27.131  1.00  0.00    -0.203 F 
ATOM     54  C   UNL A   1      43.609  26.198  25.845  1.00  0.00     0.198 A 
ATOM     55  C   UNL A   1      42.049  24.490  26.490  1.00  0.00     0.198 A 
ATOM     56  F   UNL A   1      40.702  24.787  28.397  1.00  0.00    -0.203 F 
ATOM     57  F   UNL A   1      44.535  26.661  24.994  1.00  0.00    -0.200 F 
ATOM     58  C   UNL A   1      43.024  24.960  25.623  1.00  0.00     0.200 A 
ATOM     59  F   UNL A   1      41.489  23.291  26.282  1.00  0.00    -0.200 F 
ATOM     60  F   UNL A   1      43.395  24.221  24.567  1.00  0.00    -0.200 F 
ENDBRANCH  36  50
BRANCH  37  61
ATOM     61  C   UNL A   1      39.123  31.917  35.615  1.00  0.00     0.064 A 
ATOM     62  C   UNL A   1      38.269  31.342  36.566  1.00  0.00     0.173 A 
ATOM     63  C   UNL A   1      39.530  33.244  35.816  1.00  0.00     0.173 A 
ATOM     64  F   UNL A   1      37.836  30.084  36.401  1.00  0.00    -0.203 F 
ATOM     65  C   UNL A   1      37.841  32.066  37.675  1.00  0.00     0.198 A 
ATOM     66  C   UNL A   1      39.120  33.959  36.939  1.00  0.00     0.198 A 
ATOM     67  F   UNL A   1      40.348  33.837  34.934  1.00  0.00    -0.203 F 
ATOM     68  F   UNL A   1      37.004  31.503  38.557  1.00  0.00    -0.200 F 
ATOM     69  C   UNL A   1      38.273  33.371  37.865  1.00  0.00     0.200 A 
ATOM     70  F   UNL A   1      39.550  35.213  37.124  1.00  0.00    -0.200 F 
ATOM     71  F   UNL A   1      37.869  34.061  38.939  1.00  0.00    -0.200 F 
ENDBRANCH  37  61
BRANCH  49  72
ATOM     72  C   UNL A   1      44.442  27.548  34.607  1.00  0.00     0.064 A 
ATOM     73  C   UNL A   1      45.655  28.245  34.707  1.00  0.00     0.173 A 
ATOM     74  C   UNL A   1      44.269  26.403  35.397  1.00  0.00     0.173 A 
ATOM     75  F   UNL A   1      45.870  29.336  33.956  1.00  0.00    -0.203 F 
ATOM     76  C   UNL A   1      46.664  27.801  35.556  1.00  0.00     0.198 A 
ATOM     77  C   UNL A   1      45.274  25.972  36.259  1.00  0.00     0.198 A 
ATOM     78  F   UNL A   1      43.125  25.705  35.335  1.00  0.00    -0.203 F 
ATOM     79  F   UNL A   1      47.829  28.460  35.611  1.00  0.00    -0.200 F 
ATOM     80  C   UNL A   1      46.471  26.668  36.334  1.00  0.00     0.200 A 
ATOM     81  F   UNL A   1      45.085  24.881  37.013  1.00  0.00    -0.200 F 
ATOM     82  F   UNL A   1      47.444  26.242  37.151  1.00  0.00    -0.200 F 
ENDBRANCH  49  72
ENDBRANCH  23  24
ENDBRANCH  16  18
ENDBRANCH  15  16
ENDBRANCH  14  15
ENDBRANCH   1  14
TORSDOF 16
ENDMDL
