MODEL 1
REMARK VINA RESULT:     -12.9      0.000      0.000
REMARK SMILES O=C(OCCOC(=O)[C@]1([NH2+]C2CC2)CCC[C@H](SC2CCCCC2)C1)c1ccc(-c2c3nc(c(-c4c(F)c(F)c(F)c(F)c4F)c4ccc([nH]4)c(-c4c(F)c(F)c(F)c(F)c4F)c4nc(c(-c5c(F)c(F)c(F)c(F)c5F)c5ccc2[nH]5)C=C4)C=C3)cc1
REMARK SMILES IDX 4 1 3 2 2 3 1 4 26 5 27 6 88 7 28 8 87 9 29 10 30 11 31 12
REMARK SMILES IDX 81 13 32 14 86 15 80 16 82 17 33 18 85 19 79 20 78 21 34 23
REMARK SMILES IDX 66 24 46 25 65 26 47 27 50 28 64 29 83 30 48 31 49 32 63 34
REMARK SMILES IDX 84 35 51 36 35 37 36 38 44 39 37 40 38 41 42 42 45 43 39 44
REMARK SMILES IDX 40 45 43 46 41 47 67 48 68 49 76 50 69 51 70 52 74 53 77 54
REMARK SMILES IDX 71 55 72 56 75 57 73 58 52 59 53 60 61 61 54 62 55 63 59 64
REMARK SMILES IDX 62 65 56 66 57 67 60 68 58 69 5 70 6 71 7 72 8 73 9 74 14 75
REMARK SMILES IDX 25 76 15 77 17 78 16 79 10 80 11 83 12 84 13 85 18 86 19 87
REMARK SMILES IDX 20 88 24 89 21 90 23 91 22 92
REMARK H PARENT 82 22 50 33 10 81 10 82
REMARK Flexibility Score: inf
ROOT
ATOM      1  C   UNL A   1      31.613  30.343  26.251  1.00  0.00     0.275 C 
ENDROOT
BRANCH   1   2
ATOM      2  O   UNL A   1      31.703  31.780  26.328  1.00  0.00    -0.458 OA
BRANCH   2   3
ATOM      3  C   UNL A   1      32.488  32.531  27.133  1.00  0.00     0.338 C 
ATOM      4  O   UNL A   1      32.139  33.654  27.484  1.00  0.00    -0.246 OA
BRANCH   3   5
ATOM      5  C   UNL A   1      33.825  32.073  27.595  1.00  0.00     0.060 A 
ATOM      6  C   UNL A   1      34.213  30.383  28.181  1.00  0.00     0.016 A 
ATOM      7  C   UNL A   1      35.097  33.392  27.884  1.00  0.00     0.016 A 
ATOM      8  C   UNL A   1      35.802  29.998  28.937  1.00  0.00     0.010 A 
ATOM      9  C   UNL A   1      36.672  32.977  28.712  1.00  0.00     0.010 A 
ATOM     10  C   UNL A   1      37.011  31.275  29.266  1.00  0.00    -0.014 A 
BRANCH  10  11
ATOM     11  C   UNL A   1      38.281  30.790  29.950  1.00  0.00     0.031 A 
ATOM     12  C   UNL A   1      38.573  31.040  31.417  1.00  0.00     0.074 A 
ATOM     13  C   UNL A   1      39.098  29.916  29.327  1.00  0.00     0.049 A 
ATOM     14  N   UNL A   1      39.694  31.083  32.097  1.00  0.00    -0.248 NA
ATOM     15  C   UNL A   1      37.432  31.323  32.269  1.00  0.00     0.031 C 
ATOM     16  C   UNL A   1      38.926  29.402  27.971  1.00  0.00     0.029 A 
ATOM     17  N   UNL A   1      40.222  29.262  29.780  1.00  0.00    -0.354 N 
ATOM     18  C   UNL A   1      39.336  31.580  33.357  1.00  0.00     0.074 A 
ATOM     19  C   UNL A   1      37.961  31.977  33.282  1.00  0.00     0.031 C 
ATOM     20  C   UNL A   1      39.897  28.515  27.700  1.00  0.00     0.029 A 
ATOM     21  C   UNL A   1      40.786  28.416  28.852  1.00  0.00     0.049 A 
ATOM     22  H   UNL A   1      40.589  29.388  30.684  1.00  0.00     0.167 HD
ATOM     23  C   UNL A   1      39.979  31.526  34.548  1.00  0.00     0.037 A 
ATOM     24  C   UNL A   1      41.904  27.664  28.932  1.00  0.00     0.037 A 
ATOM     25  C   UNL A   1      41.179  30.774  34.735  1.00  0.00     0.049 A 
ATOM     26  C   UNL A   1      42.673  27.672  30.233  1.00  0.00     0.074 A 
ATOM     27  C   UNL A   1      41.937  30.614  35.877  1.00  0.00     0.029 A 
ATOM     28  N   UNL A   1      41.726  29.960  33.754  1.00  0.00    -0.354 N 
ATOM     29  N   UNL A   1      42.402  28.297  31.357  1.00  0.00    -0.248 NA
ATOM     30  C   UNL A   1      43.903  26.870  30.282  1.00  0.00     0.031 C 
ATOM     31  C   UNL A   1      42.960  29.708  35.580  1.00  0.00     0.029 A 
ATOM     32  C   UNL A   1      42.815  29.287  34.264  1.00  0.00     0.049 A 
ATOM     33  H   UNL A   1      41.388  29.876  32.834  1.00  0.00     0.167 HD
ATOM     34  C   UNL A   1      43.410  27.947  32.247  1.00  0.00     0.074 A 
ATOM     35  C   UNL A   1      44.281  27.029  31.541  1.00  0.00     0.031 C 
ATOM     36  C   UNL A   1      43.620  28.352  33.524  1.00  0.00     0.037 A 
BRANCH  23  37
ATOM     37  C   UNL A   1      39.352  32.228  35.729  1.00  0.00     0.064 A 
ATOM     38  C   UNL A   1      39.656  33.555  36.083  1.00  0.00     0.173 A 
ATOM     39  C   UNL A   1      38.467  31.526  36.560  1.00  0.00     0.173 A 
ATOM     40  F   UNL A   1      40.512  34.273  35.339  1.00  0.00    -0.203 F 
ATOM     41  C   UNL A   1      39.164  34.120  37.259  1.00  0.00     0.198 A 
ATOM     42  C   UNL A   1      37.939  32.110  37.710  1.00  0.00     0.198 A 
ATOM     43  F   UNL A   1      38.126  30.263  36.266  1.00  0.00    -0.203 F 
ATOM     44  F   UNL A   1      39.558  35.348  37.627  1.00  0.00    -0.200 F 
ATOM     45  C   UNL A   1      38.303  33.398  38.069  1.00  0.00     0.200 A 
ATOM     46  F   UNL A   1      37.095  31.416  38.486  1.00  0.00    -0.200 F 
ATOM     47  F   UNL A   1      37.839  33.938  39.206  1.00  0.00    -0.200 F 
ENDBRANCH  23  37
BRANCH  24  48
ATOM     48  C   UNL A   1      42.384  26.881  27.754  1.00  0.00     0.064 A 
ATOM     49  C   UNL A   1      41.994  25.552  27.535  1.00  0.00     0.173 A 
ATOM     50  C   UNL A   1      43.294  27.440  26.839  1.00  0.00     0.173 A 
ATOM     51  F   UNL A   1      41.146  24.953  28.384  1.00  0.00    -0.203 F 
ATOM     52  C   UNL A   1      42.515  24.806  26.474  1.00  0.00     0.198 A 
ATOM     53  C   UNL A   1      43.783  26.707  25.758  1.00  0.00     0.198 A 
ATOM     54  F   UNL A   1      43.710  28.705  26.994  1.00  0.00    -0.203 F 
ATOM     55  F   UNL A   1      42.172  23.518  26.330  1.00  0.00    -0.200 F 
ATOM     56  C   UNL A   1      43.405  25.386  25.584  1.00  0.00     0.200 A 
ATOM     57  F   UNL A   1      44.631  27.280  24.894  1.00  0.00    -0.200 F 
ATOM     58  F   UNL A   1      43.905  24.670  24.568  1.00  0.00    -0.200 F 
ENDBRANCH  24  48
BRANCH  36  59
ATOM     59  C   UNL A   1      44.804  27.777  34.236  1.00  0.00     0.064 A 
ATOM     60  C   UNL A   1      46.039  28.438  34.237  1.00  0.00     0.173 A 
ATOM     61  C   UNL A   1      44.680  26.593  34.979  1.00  0.00     0.173 A 
ATOM     62  F   UNL A   1      46.200  29.569  33.534  1.00  0.00    -0.203 F 
ATOM     63  C   UNL A   1      47.122  27.917  34.936  1.00  0.00     0.198 A 
ATOM     64  C   UNL A   1      45.755  26.095  35.706  1.00  0.00     0.198 A 
ATOM     65  F   UNL A   1      43.510  25.939  35.021  1.00  0.00    -0.203 F 
ATOM     66  F   UNL A   1      48.308  28.537  34.886  1.00  0.00    -0.200 F 
ATOM     67  C   UNL A   1      46.976  26.752  35.677  1.00  0.00     0.200 A 
ATOM     68  F   UNL A   1      45.608  24.984  36.439  1.00  0.00    -0.200 F 
ATOM     69  F   UNL A   1      48.019  26.260  36.359  1.00  0.00    -0.200 F 
ENDBRANCH  36  59
ENDBRANCH  10  11
ENDBRANCH   3   5
ENDBRANCH   2   3
ENDBRANCH   1   2
BRANCH   1  70
ATOM     70  C   UNL A   1      32.525  29.665  25.203  1.00  0.00     0.274 C 
BRANCH  70  71
ATOM     71  O   UNL A   1      31.817  29.013  24.131  1.00  0.00    -0.457 OA
BRANCH  71  72
ATOM     72  C   UNL A   1      31.243  27.821  24.458  1.00  0.00     0.368 C 
ATOM     73  O   UNL A   1      31.500  27.229  25.501  1.00  0.00    -0.245 OA
BRANCH  72  74
ATOM     74  C   UNL A   1      30.153  27.340  23.436  1.00  0.00     0.195 C 
ATOM     75  C   UNL A   1      29.407  26.068  23.977  1.00  0.00     0.081 C 
ATOM     76  C   UNL A   1      30.970  26.814  22.194  1.00  0.00     0.095 C 
ATOM     77  C   UNL A   1      30.258  24.832  24.241  1.00  0.00     0.008 C 
ATOM     78  C   UNL A   1      31.946  25.615  22.485  1.00  0.00     0.053 C 
ATOM     79  C   UNL A   1      31.167  24.451  23.086  1.00  0.00     0.015 C 
BRANCH  74  80
ATOM     80  N   UNL A   1      29.047  28.523  22.855  1.00  0.00    -0.330 N 
ATOM     81  H   UNL A   1      28.162  28.166  23.215  1.00  0.00     0.347 HD
ATOM     82  H   UNL A   1      29.515  28.583  21.951  1.00  0.00     0.347 HD
BRANCH  80  83
ATOM     83  C   UNL A   1      28.720  30.630  22.938  1.00  0.00     0.183 C 
ATOM     84  C   UNL A   1      27.592  31.563  23.503  1.00  0.00     0.071 C 
ATOM     85  C   UNL A   1      29.032  31.835  23.867  1.00  0.00     0.071 C 
ENDBRANCH  80  83
ENDBRANCH  74  80
BRANCH  78  86
ATOM     86  S   UNL A   1      33.517  26.263  23.236  1.00  0.00    -0.155 SA
BRANCH  86  87
ATOM     87  C   UNL A   1      34.405  24.976  24.228  1.00  0.00     0.047 C 
ATOM     88  C   UNL A   1      33.895  24.559  25.609  1.00  0.00     0.014 C 
ATOM     89  C   UNL A   1      34.761  23.781  23.341  1.00  0.00     0.014 C 
ATOM     90  C   UNL A   1      34.796  23.537  26.302  1.00  0.00     0.001 C 
ATOM     91  C   UNL A   1      35.671  22.794  24.079  1.00  0.00     0.001 C 
ATOM     92  C   UNL A   1      35.050  22.342  25.394  1.00  0.00     0.000 C 
ENDBRANCH  86  87
ENDBRANCH  78  86
ENDBRANCH  72  74
ENDBRANCH  71  72
ENDBRANCH  70  71
ENDBRANCH   1  70
TORSDOF 15
ENDMDL
MODEL 2
REMARK VINA RESULT:     -12.8      0.621      1.815
REMARK SMILES O=C(OCCOC(=O)[C@]1([NH2+]C2CC2)CCC[C@H](SC2CCCCC2)C1)c1ccc(-c2c3nc(c(-c4c(F)c(F)c(F)c(F)c4F)c4ccc([nH]4)c(-c4c(F)c(F)c(F)c(F)c4F)c4nc(c(-c5c(F)c(F)c(F)c(F)c5F)c5ccc2[nH]5)C=C4)C=C3)cc1
REMARK SMILES IDX 4 1 3 2 2 3 1 4 26 5 27 6 88 7 28 8 87 9 29 10 30 11 31 12
REMARK SMILES IDX 81 13 32 14 86 15 80 16 82 17 33 18 85 19 79 20 78 21 34 23
REMARK SMILES IDX 66 24 46 25 65 26 47 27 50 28 64 29 83 30 48 31 49 32 63 34
REMARK SMILES IDX 84 35 51 36 35 37 36 38 44 39 37 40 38 41 42 42 45 43 39 44
REMARK SMILES IDX 40 45 43 46 41 47 67 48 68 49 76 50 69 51 70 52 74 53 77 54
REMARK SMILES IDX 71 55 72 56 75 57 73 58 52 59 53 60 61 61 54 62 55 63 59 64
REMARK SMILES IDX 62 65 56 66 57 67 60 68 58 69 5 70 6 71 7 72 8 73 9 74 14 75
REMARK SMILES IDX 25 76 15 77 17 78 16 79 10 80 11 83 12 84 13 85 18 86 19 87
REMARK SMILES IDX 20 88 24 89 21 90 23 91 22 92
REMARK H PARENT 82 22 50 33 10 81 10 82
REMARK Flexibility Score: inf
ROOT
ATOM      1  C   UNL A   1      31.760  29.956  25.792  1.00  0.00     0.275 C 
ENDROOT
BRANCH   1   2
ATOM      2  O   UNL A   1      31.789  31.381  26.006  1.00  0.00    -0.458 OA
BRANCH   2   3
ATOM      3  C   UNL A   1      32.455  32.075  26.956  1.00  0.00     0.338 C 
ATOM      4  O   UNL A   1      31.987  33.106  27.428  1.00  0.00    -0.246 OA
BRANCH   3   5
ATOM      5  C   UNL A   1      33.799  31.668  27.444  1.00  0.00     0.060 A 
ATOM      6  C   UNL A   1      34.255  29.980  27.983  1.00  0.00     0.016 A 
ATOM      7  C   UNL A   1      34.993  33.037  27.818  1.00  0.00     0.016 A 
ATOM      8  C   UNL A   1      35.838  29.648  28.776  1.00  0.00     0.010 A 
ATOM      9  C   UNL A   1      36.562  32.672  28.681  1.00  0.00     0.010 A 
ATOM     10  C   UNL A   1      36.970  30.970  29.187  1.00  0.00    -0.014 A 
BRANCH  10  11
ATOM     11  C   UNL A   1      38.243  30.525  29.894  1.00  0.00     0.031 A 
ATOM     12  C   UNL A   1      38.522  30.826  31.354  1.00  0.00     0.074 A 
ATOM     13  C   UNL A   1      39.075  29.642  29.304  1.00  0.00     0.049 A 
ATOM     14  N   UNL A   1      39.638  30.907  32.038  1.00  0.00    -0.248 NA
ATOM     15  C   UNL A   1      37.371  31.121  32.189  1.00  0.00     0.031 C 
ATOM     16  C   UNL A   1      38.918  29.083  27.964  1.00  0.00     0.029 A 
ATOM     17  N   UNL A   1      40.205  29.019  29.784  1.00  0.00    -0.354 N 
ATOM     18  C   UNL A   1      39.265  31.439  33.279  1.00  0.00     0.074 A 
ATOM     19  C   UNL A   1      37.885  31.815  33.183  1.00  0.00     0.031 C 
ATOM     20  C   UNL A   1      39.903  28.201  27.728  1.00  0.00     0.029 A 
ATOM     21  C   UNL A   1      40.786  28.151  28.888  1.00  0.00     0.049 A 
ATOM     22  H   UNL A   1      40.564  29.179  30.686  1.00  0.00     0.167 HD
ATOM     23  C   UNL A   1      39.901  31.433  34.475  1.00  0.00     0.037 A 
ATOM     24  C   UNL A   1      41.913  27.418  28.999  1.00  0.00     0.037 A 
ATOM     25  C   UNL A   1      41.110  30.703  34.693  1.00  0.00     0.049 A 
ATOM     26  C   UNL A   1      42.674  27.478  30.303  1.00  0.00     0.074 A 
ATOM     27  C   UNL A   1      41.863  30.590  35.844  1.00  0.00     0.029 A 
ATOM     28  N   UNL A   1      41.675  29.866  33.743  1.00  0.00    -0.354 N 
ATOM     29  N   UNL A   1      42.387  28.135  31.404  1.00  0.00    -0.248 NA
ATOM     30  C   UNL A   1      43.914  26.695  30.385  1.00  0.00     0.031 C 
ATOM     31  C   UNL A   1      42.900  29.690  35.583  1.00  0.00     0.029 A 
ATOM     32  C   UNL A   1      42.769  29.224  34.281  1.00  0.00     0.049 A 
ATOM     33  H   UNL A   1      41.343  29.747  32.824  1.00  0.00     0.167 HD
ATOM     34  C   UNL A   1      43.394  27.828  32.311  1.00  0.00     0.074 A 
ATOM     35  C   UNL A   1      44.282  26.900  31.641  1.00  0.00     0.031 C 
ATOM     36  C   UNL A   1      43.591  28.276  33.576  1.00  0.00     0.037 A 
BRANCH  23  37
ATOM     37  C   UNL A   1      39.257  32.164  35.629  1.00  0.00     0.064 A 
ATOM     38  C   UNL A   1      39.499  33.522  35.907  1.00  0.00     0.173 A 
ATOM     39  C   UNL A   1      38.423  31.463  36.512  1.00  0.00     0.173 A 
ATOM     40  F   UNL A   1      40.305  34.241  35.111  1.00  0.00    -0.203 F 
ATOM     41  C   UNL A   1      38.996  34.122  37.061  1.00  0.00     0.198 A 
ATOM     42  C   UNL A   1      37.884  32.080  37.639  1.00  0.00     0.198 A 
ATOM     43  F   UNL A   1      38.143  30.170  36.291  1.00  0.00    -0.203 F 
ATOM     44  F   UNL A   1      39.332  35.386  37.357  1.00  0.00    -0.200 F 
ATOM     45  C   UNL A   1      38.187  33.402  37.924  1.00  0.00     0.200 A 
ATOM     46  F   UNL A   1      37.089  31.386  38.465  1.00  0.00    -0.200 F 
ATOM     47  F   UNL A   1      37.713  33.977  39.038  1.00  0.00    -0.200 F 
ENDBRANCH  23  37
BRANCH  24  48
ATOM     48  C   UNL A   1      42.412  26.604  27.849  1.00  0.00     0.064 A 
ATOM     49  C   UNL A   1      43.316  27.120  26.910  1.00  0.00     0.173 A 
ATOM     50  C   UNL A   1      41.949  25.293  27.639  1.00  0.00     0.173 A 
ATOM     51  F   UNL A   1      43.779  28.372  27.041  1.00  0.00    -0.203 F 
ATOM     52  C   UNL A   1      43.711  26.376  25.795  1.00  0.00     0.198 A 
ATOM     53  C   UNL A   1      42.374  24.537  26.546  1.00  0.00     0.198 A 
ATOM     54  F   UNL A   1      41.080  24.742  28.498  1.00  0.00    -0.203 F 
ATOM     55  F   UNL A   1      44.525  26.921  24.880  1.00  0.00    -0.200 F 
ATOM     56  C   UNL A   1      43.243  25.083  25.617  1.00  0.00     0.200 A 
ATOM     57  F   UNL A   1      41.928  23.283  26.391  1.00  0.00    -0.200 F 
ATOM     58  F   UNL A   1      43.620  24.370  24.547  1.00  0.00    -0.200 F 
ENDBRANCH  24  48
BRANCH  36  59
ATOM     59  C   UNL A   1      44.778  27.741  34.313  1.00  0.00     0.064 A 
ATOM     60  C   UNL A   1      44.701  26.545  35.039  1.00  0.00     0.173 A 
ATOM     61  C   UNL A   1      46.017  28.393  34.232  1.00  0.00     0.173 A 
ATOM     62  F   UNL A   1      43.532  25.895  35.146  1.00  0.00    -0.203 F 
ATOM     63  C   UNL A   1      45.820  26.035  35.685  1.00  0.00     0.198 A 
ATOM     64  C   UNL A   1      47.142  27.860  34.850  1.00  0.00     0.198 A 
ATOM     65  F   UNL A   1      46.140  29.530  33.530  1.00  0.00    -0.203 F 
ATOM     66  F   UNL A   1      45.716  24.916  36.416  1.00  0.00    -0.200 F 
ATOM     67  C   UNL A   1      47.041  26.687  35.583  1.00  0.00     0.200 A 
ATOM     68  F   UNL A   1      48.325  28.477  34.731  1.00  0.00    -0.200 F 
ATOM     69  F   UNL A   1      48.120  26.185  36.197  1.00  0.00    -0.200 F 
ENDBRANCH  36  59
ENDBRANCH  10  11
ENDBRANCH   3   5
ENDBRANCH   2   3
ENDBRANCH   1   2
BRANCH   1  70
ATOM     70  C   UNL A   1      32.725  29.416  24.712  1.00  0.00     0.274 C 
BRANCH  70  71
ATOM     71  O   UNL A   1      32.209  28.305  23.955  1.00  0.00    -0.457 OA
BRANCH  71  72
ATOM     72  C   UNL A   1      31.827  27.226  24.696  1.00  0.00     0.368 C 
ATOM     73  O   UNL A   1      32.464  26.838  25.670  1.00  0.00    -0.245 OA
BRANCH  72  74
ATOM     74  C   UNL A   1      30.455  26.606  24.255  1.00  0.00     0.195 C 
ATOM     75  C   UNL A   1      29.910  25.625  25.355  1.00  0.00     0.081 C 
ATOM     76  C   UNL A   1      30.809  25.668  23.038  1.00  0.00     0.095 C 
ATOM     77  C   UNL A   1      30.782  24.424  25.698  1.00  0.00     0.008 C 
ATOM     78  C   UNL A   1      31.809  24.496  23.356  1.00  0.00     0.053 C 
ATOM     79  C   UNL A   1      31.253  23.639  24.488  1.00  0.00     0.015 C 
BRANCH  74  80
ATOM     80  N   UNL A   1      29.237  27.697  23.721  1.00  0.00    -0.330 N 
ATOM     81  H   UNL A   1      28.579  27.662  24.499  1.00  0.00     0.347 HD
ATOM     82  H   UNL A   1      29.281  27.349  22.763  1.00  0.00     0.347 HD
BRANCH  80  83
ATOM     83  C   UNL A   1      29.029  29.722  23.080  1.00  0.00     0.183 C 
ATOM     84  C   UNL A   1      27.824  30.691  22.816  1.00  0.00     0.071 C 
ATOM     85  C   UNL A   1      28.967  31.150  23.689  1.00  0.00     0.071 C 
ENDBRANCH  80  83
ENDBRANCH  74  80
BRANCH  78  86
ATOM     86  S   UNL A   1      33.549  25.147  23.353  1.00  0.00    -0.155 SA
BRANCH  86  87
ATOM     87  C   UNL A   1      34.752  23.939  24.076  1.00  0.00     0.047 C 
ATOM     88  C   UNL A   1      35.816  23.273  23.201  1.00  0.00     0.014 C 
ATOM     89  C   UNL A   1      35.319  24.483  25.389  1.00  0.00     0.014 C 
ATOM     90  C   UNL A   1      36.671  22.257  23.959  1.00  0.00     0.001 C 
ATOM     91  C   UNL A   1      36.158  23.424  26.111  1.00  0.00     0.001 C 
ATOM     92  C   UNL A   1      37.263  22.882  25.214  1.00  0.00     0.000 C 
ENDBRANCH  86  87
ENDBRANCH  78  86
ENDBRANCH  72  74
ENDBRANCH  71  72
ENDBRANCH  70  71
ENDBRANCH   1  70
TORSDOF 15
ENDMDL
MODEL 3
REMARK VINA RESULT:     -12.6      4.355      9.916
REMARK SMILES O=C(OCCOC(=O)[C@]1([NH2+]C2CC2)CCC[C@H](SC2CCCCC2)C1)c1ccc(-c2c3nc(c(-c4c(F)c(F)c(F)c(F)c4F)c4ccc([nH]4)c(-c4c(F)c(F)c(F)c(F)c4F)c4nc(c(-c5c(F)c(F)c(F)c(F)c5F)c5ccc2[nH]5)C=C4)C=C3)cc1
REMARK SMILES IDX 4 1 3 2 2 3 1 4 26 5 27 6 88 7 28 8 87 9 29 10 30 11 31 12
REMARK SMILES IDX 81 13 32 14 86 15 80 16 82 17 33 18 85 19 79 20 78 21 34 23
REMARK SMILES IDX 66 24 46 25 65 26 47 27 50 28 64 29 83 30 48 31 49 32 63 34
REMARK SMILES IDX 84 35 51 36 35 37 36 38 44 39 37 40 38 41 42 42 45 43 39 44
REMARK SMILES IDX 40 45 43 46 41 47 67 48 68 49 76 50 69 51 70 52 74 53 77 54
REMARK SMILES IDX 71 55 72 56 75 57 73 58 52 59 53 60 61 61 54 62 55 63 59 64
REMARK SMILES IDX 62 65 56 66 57 67 60 68 58 69 5 70 6 71 7 72 8 73 9 74 14 75
REMARK SMILES IDX 25 76 15 77 17 78 16 79 10 80 11 83 12 84 13 85 18 86 19 87
REMARK SMILES IDX 20 88 24 89 21 90 23 91 22 92
REMARK H PARENT 82 22 50 33 10 81 10 82
REMARK Flexibility Score: inf
ROOT
ATOM      1  C   UNL A   1      35.653  21.292  24.957  1.00  0.00     0.275 C 
ENDROOT
BRANCH   1   2
ATOM      2  O   UNL A   1      36.692  20.383  25.373  1.00  0.00    -0.458 OA
BRANCH   2   3
ATOM      3  C   UNL A   1      38.026  20.599  25.428  1.00  0.00     0.338 C 
ATOM      4  O   UNL A   1      38.817  19.779  24.971  1.00  0.00    -0.246 OA
BRANCH   3   5
ATOM      5  C   UNL A   1      38.612  21.800  26.079  1.00  0.00     0.060 A 
ATOM      6  C   UNL A   1      38.087  23.525  25.772  1.00  0.00     0.016 A 
ATOM      7  C   UNL A   1      40.184  21.540  27.030  1.00  0.00     0.016 A 
ATOM      8  C   UNL A   1      39.018  24.918  26.435  1.00  0.00     0.010 A 
ATOM      9  C   UNL A   1      41.136  22.979  27.633  1.00  0.00     0.010 A 
ATOM     10  C   UNL A   1      40.561  24.677  27.306  1.00  0.00    -0.014 A 
BRANCH  10  11
ATOM     11  C   UNL A   1      41.244  25.959  27.762  1.00  0.00     0.031 A 
ATOM     12  C   UNL A   1      42.633  26.359  27.303  1.00  0.00     0.074 A 
ATOM     13  C   UNL A   1      40.543  26.906  28.418  1.00  0.00     0.049 A 
ATOM     14  N   UNL A   1      43.541  27.145  27.830  1.00  0.00    -0.248 NA
ATOM     15  C   UNL A   1      43.109  25.760  26.069  1.00  0.00     0.031 C 
ATOM     16  C   UNL A   1      39.143  26.810  28.819  1.00  0.00     0.029 A 
ATOM     17  N   UNL A   1      40.909  28.170  28.823  1.00  0.00    -0.354 N 
ATOM     18  C   UNL A   1      44.694  26.934  27.063  1.00  0.00     0.074 A 
ATOM     19  C   UNL A   1      44.419  25.842  26.175  1.00  0.00     0.031 C 
ATOM     20  C   UNL A   1      38.763  27.958  29.405  1.00  0.00     0.029 A 
ATOM     21  C   UNL A   1      39.903  28.867  29.453  1.00  0.00     0.049 A 
ATOM     22  H   UNL A   1      41.808  28.542  28.676  1.00  0.00     0.167 HD
ATOM     23  C   UNL A   1      45.813  27.683  26.916  1.00  0.00     0.037 A 
ATOM     24  C   UNL A   1      39.919  30.094  30.015  1.00  0.00     0.037 A 
ATOM     25  C   UNL A   1      45.939  28.987  27.486  1.00  0.00     0.049 A 
ATOM     26  C   UNL A   1      41.196  30.897  29.930  1.00  0.00     0.074 A 
ATOM     27  C   UNL A   1      46.998  29.868  27.416  1.00  0.00     0.029 A 
ATOM     28  N   UNL A   1      44.902  29.633  28.142  1.00  0.00    -0.354 N 
ATOM     29  N   UNL A   1      42.333  30.593  29.346  1.00  0.00    -0.248 NA
ATOM     30  C   UNL A   1      41.195  32.216  30.578  1.00  0.00     0.031 C 
ATOM     31  C   UNL A   1      46.605  31.051  28.050  1.00  0.00     0.029 A 
ATOM     32  C   UNL A   1      45.293  30.910  28.483  1.00  0.00     0.049 A 
ATOM     33  H   UNL A   1      44.021  29.240  28.334  1.00  0.00     0.167 HD
ATOM     34  C   UNL A   1      43.170  31.685  29.537  1.00  0.00     0.074 A 
ATOM     35  C   UNL A   1      42.398  32.673  30.264  1.00  0.00     0.031 C 
ATOM     36  C   UNL A   1      44.463  31.864  29.169  1.00  0.00     0.037 A 
BRANCH  23  37
ATOM     37  C   UNL A   1      46.927  27.139  26.053  1.00  0.00     0.064 A 
ATOM     38  C   UNL A   1      47.958  26.324  26.556  1.00  0.00     0.173 A 
ATOM     39  C   UNL A   1      46.990  27.497  24.699  1.00  0.00     0.173 A 
ATOM     40  F   UNL A   1      47.965  25.964  27.849  1.00  0.00    -0.203 F 
ATOM     41  C   UNL A   1      49.043  25.959  25.759  1.00  0.00     0.198 A 
ATOM     42  C   UNL A   1      48.052  27.091  23.893  1.00  0.00     0.198 A 
ATOM     43  F   UNL A   1      46.028  28.259  24.159  1.00  0.00    -0.203 F 
ATOM     44  F   UNL A   1      50.065  25.275  26.293  1.00  0.00    -0.200 F 
ATOM     45  C   UNL A   1      49.086  26.339  24.428  1.00  0.00     0.200 A 
ATOM     46  F   UNL A   1      48.085  27.447  22.601  1.00  0.00    -0.200 F 
ATOM     47  F   UNL A   1      50.135  25.997  23.665  1.00  0.00    -0.200 F 
ENDBRANCH  23  37
BRANCH  24  48
ATOM     48  C   UNL A   1      38.720  30.620  30.734  1.00  0.00     0.064 A 
ATOM     49  C   UNL A   1      37.699  31.314  30.069  1.00  0.00     0.173 A 
ATOM     50  C   UNL A   1      38.595  30.480  32.127  1.00  0.00     0.173 A 
ATOM     51  F   UNL A   1      37.769  31.502  28.743  1.00  0.00    -0.203 F 
ATOM     52  C   UNL A   1      36.624  31.871  30.766  1.00  0.00     0.198 A 
ATOM     53  C   UNL A   1      37.502  31.003  32.818  1.00  0.00     0.198 A 
ATOM     54  F   UNL A   1      39.539  29.830  32.824  1.00  0.00    -0.203 F 
ATOM     55  F   UNL A   1      35.698  32.586  30.110  1.00  0.00    -0.200 F 
ATOM     56  C   UNL A   1      36.524  31.711  32.140  1.00  0.00     0.200 A 
ATOM     57  F   UNL A   1      37.406  30.830  34.143  1.00  0.00    -0.200 F 
ATOM     58  F   UNL A   1      35.494  32.247  32.808  1.00  0.00    -0.200 F 
ENDBRANCH  24  48
BRANCH  36  59
ATOM     59  C   UNL A   1      45.095  33.177  29.512  1.00  0.00     0.064 A 
ATOM     60  C   UNL A   1      44.995  34.276  28.649  1.00  0.00     0.173 A 
ATOM     61  C   UNL A   1      45.742  33.352  30.744  1.00  0.00     0.173 A 
ATOM     62  F   UNL A   1      44.389  34.147  27.459  1.00  0.00    -0.203 F 
ATOM     63  C   UNL A   1      45.549  35.502  28.996  1.00  0.00     0.198 A 
ATOM     64  C   UNL A   1      46.264  34.590  31.102  1.00  0.00     0.198 A 
ATOM     65  F   UNL A   1      45.843  32.331  31.608  1.00  0.00    -0.203 F 
ATOM     66  F   UNL A   1      45.487  36.528  28.137  1.00  0.00    -0.200 F 
ATOM     67  C   UNL A   1      46.175  35.661  30.225  1.00  0.00     0.200 A 
ATOM     68  F   UNL A   1      46.846  34.749  32.298  1.00  0.00    -0.200 F 
ATOM     69  F   UNL A   1      46.697  36.848  30.560  1.00  0.00    -0.200 F 
ENDBRANCH  36  59
ENDBRANCH  10  11
ENDBRANCH   3   5
ENDBRANCH   2   3
ENDBRANCH   1   2
BRANCH   1  70
ATOM     70  C   UNL A   1      34.717  21.804  26.076  1.00  0.00     0.274 C 
BRANCH  70  71
ATOM     71  O   UNL A   1      33.488  22.386  25.602  1.00  0.00    -0.457 OA
BRANCH  71  72
ATOM     72  C   UNL A   1      33.621  23.242  24.549  1.00  0.00     0.368 C 
ATOM     73  O   UNL A   1      34.450  24.146  24.536  1.00  0.00    -0.245 OA
BRANCH  72  74
ATOM     74  C   UNL A   1      32.700  22.894  23.328  1.00  0.00     0.195 C 
ATOM     75  C   UNL A   1      33.018  23.830  22.107  1.00  0.00     0.081 C 
ATOM     76  C   UNL A   1      31.251  23.323  23.780  1.00  0.00     0.095 C 
ATOM     77  C   UNL A   1      32.825  25.326  22.319  1.00  0.00     0.008 C 
ATOM     78  C   UNL A   1      31.074  24.848  24.122  1.00  0.00     0.053 C 
ATOM     79  C   UNL A   1      31.482  25.695  22.922  1.00  0.00     0.015 C 
BRANCH  74  80
ATOM     80  N   UNL A   1      32.617  21.242  22.854  1.00  0.00    -0.330 N 
ATOM     81  H   UNL A   1      33.417  21.172  22.225  1.00  0.00     0.347 HD
ATOM     82  H   UNL A   1      31.601  21.269  22.771  1.00  0.00     0.347 HD
BRANCH  80  83
ATOM     83  C   UNL A   1      32.592  19.294  23.726  1.00  0.00     0.183 C 
ATOM     84  C   UNL A   1      32.610  17.825  23.177  1.00  0.00     0.071 C 
ATOM     85  C   UNL A   1      33.590  18.227  24.254  1.00  0.00     0.071 C 
ENDBRANCH  80  83
ENDBRANCH  74  80
BRANCH  78  86
ATOM     86  S   UNL A   1      31.701  25.176  25.840  1.00  0.00    -0.155 SA
BRANCH  86  87
ATOM     87  C   UNL A   1      32.138  26.957  26.100  1.00  0.00     0.047 C 
ATOM     88  C   UNL A   1      31.508  27.761  27.240  1.00  0.00     0.014 C 
ATOM     89  C   UNL A   1      33.653  27.146  26.008  1.00  0.00     0.014 C 
ATOM     90  C   UNL A   1      31.938  29.227  27.253  1.00  0.00     0.001 C 
ATOM     91  C   UNL A   1      34.029  28.631  26.015  1.00  0.00     0.001 C 
ATOM     92  C   UNL A   1      33.456  29.344  27.233  1.00  0.00     0.000 C 
ENDBRANCH  86  87
ENDBRANCH  78  86
ENDBRANCH  72  74
ENDBRANCH  71  72
ENDBRANCH  70  71
ENDBRANCH   1  70
TORSDOF 15
ENDMDL
