MODEL 1
REMARK VINA RESULT:      -9.7      0.000      0.000
REMARK SMILES COC(=O)/C=C(/CC(C)C)C(=O)OCCOC(=O)c1ccc(-c2c3nc(c(-c4c(F)c(F)c(F)c(F)c4F)c4ccc([nH]4)c(-c4c(F)c(F)c(F)c(F)c4F)c4nc(c(-c5c(F)c(F)c(F)c(F)c5F)c5ccc2[nH]5)C=C4)C=C3)cc1
REMARK SMILES IDX 14 1 13 2 11 3 12 4 6 5 5 6 3 7 4 8 2 9 1 10 7 11 8 12 9 13
REMARK SMILES IDX 10 14 15 15 16 16 17 17 18 18 19 19 20 20 81 21 21 22 80 23
REMARK SMILES IDX 22 24 23 25 24 26 74 27 25 28 79 29 73 30 75 31 26 32 78 33
REMARK SMILES IDX 72 34 71 35 27 37 59 38 39 39 58 40 40 41 43 42 57 43 76 44
REMARK SMILES IDX 41 45 42 46 56 48 77 49 44 50 28 51 29 52 37 53 30 54 31 55
REMARK SMILES IDX 35 56 38 57 32 58 33 59 36 60 34 61 60 62 61 63 69 64 62 65
REMARK SMILES IDX 63 66 67 67 70 68 64 69 65 70 68 71 66 72 45 73 46 74 54 75
REMARK SMILES IDX 47 76 48 77 52 78 55 79 49 80 50 81 53 82 51 83
REMARK H PARENT 75 36 43 47
REMARK Flexibility Score: inf
ROOT
ATOM      1  C   UNL A   1      33.560  34.016  28.020  1.00  0.00     0.275 C 
ENDROOT
BRANCH   1   2
ATOM      2  O   UNL A   1      33.175  34.089  29.396  1.00  0.00    -0.459 OA
BRANCH   2   3
ATOM      3  C   UNL A   1      33.557  35.166  30.099  1.00  0.00     0.334 C 
ATOM      4  O   UNL A   1      33.530  36.334  29.754  1.00  0.00    -0.247 OA
BRANCH   3   5
ATOM      5  C   UNL A   1      33.947  34.685  31.442  1.00  0.00     0.045 C 
ATOM      6  C   UNL A   1      33.471  35.326  32.528  1.00  0.00     0.104 C 
BRANCH   6   7
ATOM      7  C   UNL A   1      32.503  36.450  32.587  1.00  0.00     0.331 C 
ATOM      8  O   UNL A   1      32.864  37.596  32.811  1.00  0.00    -0.247 OA
BRANCH   7   9
ATOM      9  O   UNL A   1      31.226  36.032  32.455  1.00  0.00    -0.466 OA
ATOM     10  C   UNL A   1      30.296  36.551  33.406  1.00  0.00     0.282 C 
ENDBRANCH   7   9
ENDBRANCH   6   7
BRANCH   5  11
ATOM     11  C   UNL A   1      35.007  33.614  31.505  1.00  0.00     0.046 C 
BRANCH  11  12
ATOM     12  C   UNL A   1      36.491  34.046  31.631  1.00  0.00    -0.013 C 
ATOM     13  C   UNL A   1      37.247  33.383  32.786  1.00  0.00     0.008 C 
ATOM     14  C   UNL A   1      37.221  33.696  30.326  1.00  0.00     0.008 C 
ENDBRANCH  11  12
ENDBRANCH   5  11
ENDBRANCH   3   5
ENDBRANCH   2   3
ENDBRANCH   1   2
BRANCH   1  15
ATOM     15  C   UNL A   1      34.641  32.938  27.915  1.00  0.00     0.275 C 
BRANCH  15  16
ATOM     16  O   UNL A   1      34.211  31.744  28.606  1.00  0.00    -0.458 OA
BRANCH  16  17
ATOM     17  C   UNL A   1      34.491  30.566  27.994  1.00  0.00     0.338 C 
ATOM     18  O   UNL A   1      33.794  29.958  27.197  1.00  0.00    -0.246 OA
BRANCH  17  19
ATOM     19  C   UNL A   1      35.873  30.151  28.332  1.00  0.00     0.060 A 
ATOM     20  C   UNL A   1      36.135  29.706  29.634  1.00  0.00     0.016 A 
ATOM     21  C   UNL A   1      36.894  30.166  27.379  1.00  0.00     0.016 A 
ATOM     22  C   UNL A   1      37.400  29.216  29.968  1.00  0.00     0.010 A 
ATOM     23  C   UNL A   1      38.169  29.706  27.722  1.00  0.00     0.010 A 
ATOM     24  C   UNL A   1      38.426  29.216  29.015  1.00  0.00    -0.014 A 
BRANCH  24  25
ATOM     25  C   UNL A   1      39.801  28.804  29.385  1.00  0.00     0.031 A 
ATOM     26  C   UNL A   1      40.642  29.738  30.202  1.00  0.00     0.074 A 
ATOM     27  C   UNL A   1      40.307  27.624  28.984  1.00  0.00     0.049 A 
ATOM     28  N   UNL A   1      41.873  29.593  30.621  1.00  0.00    -0.248 NA
ATOM     29  C   UNL A   1      40.004  30.997  30.616  1.00  0.00     0.031 C 
ATOM     30  C   UNL A   1      39.575  26.598  28.249  1.00  0.00     0.029 A 
ATOM     31  N   UNL A   1      41.567  27.098  29.125  1.00  0.00    -0.354 N 
ATOM     32  C   UNL A   1      42.143  30.721  31.378  1.00  0.00     0.074 A 
ATOM     33  C   UNL A   1      40.969  31.566  31.323  1.00  0.00     0.031 C 
ATOM     34  C   UNL A   1      40.410  25.588  27.950  1.00  0.00     0.029 A 
ATOM     35  C   UNL A   1      41.736  25.897  28.477  1.00  0.00     0.049 A 
ATOM     36  H   UNL A   1      42.282  27.537  29.640  1.00  0.00     0.167 HD
ATOM     37  C   UNL A   1      43.267  31.018  32.072  1.00  0.00     0.037 A 
ATOM     38  C   UNL A   1      42.839  25.139  28.321  1.00  0.00     0.037 A 
ATOM     39  C   UNL A   1      44.453  30.204  32.087  1.00  0.00     0.049 A 
ATOM     40  C   UNL A   1      44.122  25.563  28.988  1.00  0.00     0.074 A 
ATOM     41  C   UNL A   1      45.646  30.428  32.753  1.00  0.00     0.029 A 
ATOM     42  N   UNL A   1      44.606  29.019  31.382  1.00  0.00    -0.354 N 
ATOM     43  N   UNL A   1      44.354  26.602  29.751  1.00  0.00    -0.248 NA
ATOM     44  C   UNL A   1      45.291  24.695  28.786  1.00  0.00     0.031 C 
ATOM     45  C   UNL A   1      46.538  29.407  32.405  1.00  0.00     0.029 A 
ATOM     46  C   UNL A   1      45.884  28.519  31.567  1.00  0.00     0.049 A 
ATOM     47  H   UNL A   1      43.908  28.596  30.831  1.00  0.00     0.167 HD
ATOM     48  C   UNL A   1      45.676  26.488  30.161  1.00  0.00     0.074 A 
ATOM     49  C   UNL A   1      46.197  25.279  29.558  1.00  0.00     0.031 C 
ATOM     50  C   UNL A   1      46.388  27.308  30.972  1.00  0.00     0.037 A 
BRANCH  37  51
ATOM     51  C   UNL A   1      43.265  32.297  32.851  1.00  0.00     0.064 A 
ATOM     52  C   UNL A   1      43.672  33.507  32.268  1.00  0.00     0.173 A 
ATOM     53  C   UNL A   1      42.848  32.316  34.188  1.00  0.00     0.173 A 
ATOM     54  F   UNL A   1      44.096  33.535  30.995  1.00  0.00    -0.203 F 
ATOM     55  C   UNL A   1      43.686  34.687  33.007  1.00  0.00     0.198 A 
ATOM     56  C   UNL A   1      42.841  33.502  34.918  1.00  0.00     0.198 A 
ATOM     57  F   UNL A   1      42.452  31.185  34.790  1.00  0.00    -0.203 F 
ATOM     58  F   UNL A   1      44.124  35.822  32.445  1.00  0.00    -0.200 F 
ATOM     59  C   UNL A   1      43.267  34.684  34.329  1.00  0.00     0.200 A 
ATOM     60  F   UNL A   1      42.431  33.500  36.193  1.00  0.00    -0.200 F 
ATOM     61  F   UNL A   1      43.284  35.819  35.039  1.00  0.00    -0.200 F 
ENDBRANCH  37  51
BRANCH  38  62
ATOM     62  C   UNL A   1      42.785  23.899  27.504  1.00  0.00     0.064 A 
ATOM     63  C   UNL A   1      42.459  22.664  28.080  1.00  0.00     0.173 A 
ATOM     64  C   UNL A   1      43.103  23.919  26.137  1.00  0.00     0.173 A 
ATOM     65  F   UNL A   1      42.176  22.590  29.389  1.00  0.00    -0.203 F 
ATOM     66  C   UNL A   1      42.478  21.491  27.327  1.00  0.00     0.198 A 
ATOM     67  C   UNL A   1      43.097  22.749  25.380  1.00  0.00     0.198 A 
ATOM     68  F   UNL A   1      43.428  25.074  25.539  1.00  0.00    -0.203 F 
ATOM     69  F   UNL A   1      42.218  20.316  27.916  1.00  0.00    -0.200 F 
ATOM     70  C   UNL A   1      42.794  21.535  25.977  1.00  0.00     0.200 A 
ATOM     71  F   UNL A   1      43.400  22.796  24.076  1.00  0.00    -0.200 F 
ATOM     72  F   UNL A   1      42.823  20.405  25.257  1.00  0.00    -0.200 F 
ENDBRANCH  38  62
BRANCH  50  73
ATOM     73  C   UNL A   1      47.799  26.904  31.296  1.00  0.00     0.064 A 
ATOM     74  C   UNL A   1      48.089  26.001  32.329  1.00  0.00     0.173 A 
ATOM     75  C   UNL A   1      48.868  27.396  30.532  1.00  0.00     0.173 A 
ATOM     76  F   UNL A   1      47.104  25.515  33.098  1.00  0.00    -0.203 F 
ATOM     77  C   UNL A   1      49.402  25.622  32.597  1.00  0.00     0.198 A 
ATOM     78  C   UNL A   1      50.176  26.991  30.784  1.00  0.00     0.198 A 
ATOM     79  F   UNL A   1      48.643  28.259  29.529  1.00  0.00    -0.203 F 
ATOM     80  F   UNL A   1      49.661  24.790  33.617  1.00  0.00    -0.200 F 
ATOM     81  C   UNL A   1      50.442  26.109  31.820  1.00  0.00     0.200 A 
ATOM     82  F   UNL A   1      51.178  27.452  30.023  1.00  0.00    -0.200 F 
ATOM     83  F   UNL A   1      51.703  25.733  32.074  1.00  0.00    -0.200 F 
ENDBRANCH  50  73
ENDBRANCH  24  25
ENDBRANCH  17  19
ENDBRANCH  16  17
ENDBRANCH  15  16
ENDBRANCH   1  15
TORSDOF 15
ENDMDL
MODEL 2
REMARK VINA RESULT:      -9.5      2.837      4.824
REMARK SMILES COC(=O)/C=C(/CC(C)C)C(=O)OCCOC(=O)c1ccc(-c2c3nc(c(-c4c(F)c(F)c(F)c(F)c4F)c4ccc([nH]4)c(-c4c(F)c(F)c(F)c(F)c4F)c4nc(c(-c5c(F)c(F)c(F)c(F)c5F)c5ccc2[nH]5)C=C4)C=C3)cc1
REMARK SMILES IDX 14 1 13 2 11 3 12 4 6 5 5 6 3 7 4 8 2 9 1 10 7 11 8 12 9 13
REMARK SMILES IDX 10 14 15 15 16 16 17 17 18 18 19 19 20 20 81 21 21 22 80 23
REMARK SMILES IDX 22 24 23 25 24 26 74 27 25 28 79 29 73 30 75 31 26 32 78 33
REMARK SMILES IDX 72 34 71 35 27 37 59 38 39 39 58 40 40 41 43 42 57 43 76 44
REMARK SMILES IDX 41 45 42 46 56 48 77 49 44 50 28 51 29 52 37 53 30 54 31 55
REMARK SMILES IDX 35 56 38 57 32 58 33 59 36 60 34 61 60 62 61 63 69 64 62 65
REMARK SMILES IDX 63 66 67 67 70 68 64 69 65 70 68 71 66 72 45 73 46 74 54 75
REMARK SMILES IDX 47 76 48 77 52 78 55 79 49 80 50 81 53 82 51 83
REMARK H PARENT 75 36 43 47
REMARK Flexibility Score: inf
ROOT
ATOM      1  C   UNL A   1      32.743  28.306  25.517  1.00  0.00     0.275 C 
ENDROOT
BRANCH   1   2
ATOM      2  O   UNL A   1      31.559  28.630  24.783  1.00  0.00    -0.459 OA
BRANCH   2   3
ATOM      3  C   UNL A   1      31.368  28.027  23.599  1.00  0.00     0.334 C 
ATOM      4  O   UNL A   1      32.200  27.764  22.751  1.00  0.00    -0.247 OA
BRANCH   3   5
ATOM      5  C   UNL A   1      29.941  27.643  23.539  1.00  0.00     0.045 C 
ATOM      6  C   UNL A   1      29.051  28.518  23.028  1.00  0.00     0.104 C 
BRANCH   6   7
ATOM      7  C   UNL A   1      29.308  29.844  22.413  1.00  0.00     0.331 C 
ATOM      8  O   UNL A   1      29.723  29.951  21.268  1.00  0.00    -0.247 OA
BRANCH   7   9
ATOM      9  O   UNL A   1      29.112  30.858  23.284  1.00  0.00    -0.466 OA
ATOM     10  C   UNL A   1      28.564  32.057  22.735  1.00  0.00     0.282 C 
ENDBRANCH   7   9
ENDBRANCH   6   7
BRANCH   5  11
ATOM     11  C   UNL A   1      29.546  26.361  24.228  1.00  0.00     0.046 C 
BRANCH  11  12
ATOM     12  C   UNL A   1      30.650  25.317  24.540  1.00  0.00    -0.013 C 
ATOM     13  C   UNL A   1      30.541  24.676  25.926  1.00  0.00     0.008 C 
ATOM     14  C   UNL A   1      30.579  24.194  23.494  1.00  0.00     0.008 C 
ENDBRANCH  11  12
ENDBRANCH   5  11
ENDBRANCH   3   5
ENDBRANCH   2   3
ENDBRANCH   1   2
BRANCH   1  15
ATOM     15  C   UNL A   1      33.300  29.619  26.068  1.00  0.00     0.275 C 
BRANCH  15  16
ATOM     16  O   UNL A   1      33.879  29.399  27.373  1.00  0.00    -0.458 OA
BRANCH  16  17
ATOM     17  C   UNL A   1      34.535  30.452  27.923  1.00  0.00     0.338 C 
ATOM     18  O   UNL A   1      34.073  31.542  28.219  1.00  0.00    -0.246 OA
BRANCH  17  19
ATOM     19  C   UNL A   1      35.922  30.051  28.253  1.00  0.00     0.060 A 
ATOM     20  C   UNL A   1      36.180  29.536  29.530  1.00  0.00     0.016 A 
ATOM     21  C   UNL A   1      36.953  30.145  27.316  1.00  0.00     0.016 A 
ATOM     22  C   UNL A   1      37.453  29.058  29.851  1.00  0.00     0.010 A 
ATOM     23  C   UNL A   1      38.234  29.696  27.647  1.00  0.00     0.010 A 
ATOM     24  C   UNL A   1      38.489  29.138  28.913  1.00  0.00    -0.014 A 
BRANCH  24  25
ATOM     25  C   UNL A   1      39.869  28.737  29.276  1.00  0.00     0.031 A 
ATOM     26  C   UNL A   1      40.713  29.685  30.074  1.00  0.00     0.074 A 
ATOM     27  C   UNL A   1      40.377  27.555  28.884  1.00  0.00     0.049 A 
ATOM     28  N   UNL A   1      41.948  29.551  30.483  1.00  0.00    -0.248 NA
ATOM     29  C   UNL A   1      40.072  30.946  30.478  1.00  0.00     0.031 C 
ATOM     30  C   UNL A   1      39.644  26.517  28.168  1.00  0.00     0.029 A 
ATOM     31  N   UNL A   1      41.642  27.036  29.020  1.00  0.00    -0.354 N 
ATOM     32  C   UNL A   1      42.220  30.690  31.225  1.00  0.00     0.074 A 
ATOM     33  C   UNL A   1      41.040  31.528  31.170  1.00  0.00     0.031 C 
ATOM     34  C   UNL A   1      40.482  25.507  27.874  1.00  0.00     0.029 A 
ATOM     35  C   UNL A   1      41.811  25.829  28.386  1.00  0.00     0.049 A 
ATOM     36  H   UNL A   1      42.359  27.485  29.524  1.00  0.00     0.167 HD
ATOM     37  C   UNL A   1      43.348  31.000  31.905  1.00  0.00     0.037 A 
ATOM     38  C   UNL A   1      42.916  25.075  28.229  1.00  0.00     0.037 A 
ATOM     39  C   UNL A   1      44.538  30.192  31.919  1.00  0.00     0.049 A 
ATOM     40  C   UNL A   1      44.203  25.512  28.879  1.00  0.00     0.074 A 
ATOM     41  C   UNL A   1      45.735  30.430  32.572  1.00  0.00     0.029 A 
ATOM     42  N   UNL A   1      44.690  29.000  31.227  1.00  0.00    -0.354 N 
ATOM     43  N   UNL A   1      44.437  26.562  29.628  1.00  0.00    -0.248 NA
ATOM     44  C   UNL A   1      45.375  24.648  28.677  1.00  0.00     0.031 C 
ATOM     45  C   UNL A   1      46.630  29.410  32.228  1.00  0.00     0.029 A 
ATOM     46  C   UNL A   1      45.973  28.508  31.406  1.00  0.00     0.049 A 
ATOM     47  H   UNL A   1      43.990  28.567  30.687  1.00  0.00     0.167 HD
ATOM     48  C   UNL A   1      45.763  26.459  30.027  1.00  0.00     0.074 A 
ATOM     49  C   UNL A   1      46.285  25.246  29.434  1.00  0.00     0.031 C 
ATOM     50  C   UNL A   1      46.478  27.292  30.822  1.00  0.00     0.037 A 
BRANCH  37  51
ATOM     51  C   UNL A   1      43.346  32.289  32.668  1.00  0.00     0.064 A 
ATOM     52  C   UNL A   1      43.739  33.494  32.066  1.00  0.00     0.173 A 
ATOM     53  C   UNL A   1      42.944  32.321  34.010  1.00  0.00     0.173 A 
ATOM     54  F   UNL A   1      44.149  33.510  30.789  1.00  0.00    -0.203 F 
ATOM     55  C   UNL A   1      43.754  34.683  32.791  1.00  0.00     0.198 A 
ATOM     56  C   UNL A   1      42.938  33.516  34.725  1.00  0.00     0.198 A 
ATOM     57  F   UNL A   1      42.562  31.195  34.630  1.00  0.00    -0.203 F 
ATOM     58  F   UNL A   1      44.178  35.814  32.210  1.00  0.00    -0.200 F 
ATOM     59  C   UNL A   1      43.349  34.693  34.118  1.00  0.00     0.200 A 
ATOM     60  F   UNL A   1      42.541  33.526  36.005  1.00  0.00    -0.200 F 
ATOM     61  F   UNL A   1      43.366  35.837  34.814  1.00  0.00    -0.200 F 
ENDBRANCH  37  51
BRANCH  38  62
ATOM     62  C   UNL A   1      42.862  23.824  27.427  1.00  0.00     0.064 A 
ATOM     63  C   UNL A   1      42.460  22.611  28.002  1.00  0.00     0.173 A 
ATOM     64  C   UNL A   1      43.254  23.812  26.080  1.00  0.00     0.173 A 
ATOM     65  F   UNL A   1      42.104  22.568  29.294  1.00  0.00    -0.203 F 
ATOM     66  C   UNL A   1      42.477  21.426  27.267  1.00  0.00     0.198 A 
ATOM     67  C   UNL A   1      43.246  22.631  25.340  1.00  0.00     0.198 A 
ATOM     68  F   UNL A   1      43.653  24.945  25.484  1.00  0.00    -0.203 F 
ATOM     69  F   UNL A   1      42.142  20.271  27.856  1.00  0.00    -0.200 F 
ATOM     70  C   UNL A   1      42.867  21.438  25.936  1.00  0.00     0.200 A 
ATOM     71  F   UNL A   1      43.621  22.646  24.053  1.00  0.00    -0.200 F 
ATOM     72  F   UNL A   1      42.894  20.297  25.234  1.00  0.00    -0.200 F 
ENDBRANCH  38  62
BRANCH  50  73
ATOM     73  C   UNL A   1      47.893  26.900  31.138  1.00  0.00     0.064 A 
ATOM     74  C   UNL A   1      48.198  26.013  32.181  1.00  0.00     0.173 A 
ATOM     75  C   UNL A   1      48.953  27.385  30.357  1.00  0.00     0.173 A 
ATOM     76  F   UNL A   1      47.222  25.534  32.967  1.00  0.00    -0.203 F 
ATOM     77  C   UNL A   1      49.515  25.644  32.443  1.00  0.00     0.198 A 
ATOM     78  C   UNL A   1      50.265  26.990  30.603  1.00  0.00     0.198 A 
ATOM     79  F   UNL A   1      48.715  28.232  29.344  1.00  0.00    -0.203 F 
ATOM     80  F   UNL A   1      49.787  24.828  33.471  1.00  0.00    -0.200 F 
ATOM     81  C   UNL A   1      50.545  26.124  31.649  1.00  0.00     0.200 A 
ATOM     82  F   UNL A   1      51.257  27.444  29.825  1.00  0.00    -0.200 F 
ATOM     83  F   UNL A   1      51.810  25.758  31.896  1.00  0.00    -0.200 F 
ENDBRANCH  50  73
ENDBRANCH  24  25
ENDBRANCH  17  19
ENDBRANCH  16  17
ENDBRANCH  15  16
ENDBRANCH   1  15
TORSDOF 15
ENDMDL
MODEL 3
REMARK VINA RESULT:      -9.3      4.737     11.228
REMARK SMILES COC(=O)/C=C(/CC(C)C)C(=O)OCCOC(=O)c1ccc(-c2c3nc(c(-c4c(F)c(F)c(F)c(F)c4F)c4ccc([nH]4)c(-c4c(F)c(F)c(F)c(F)c4F)c4nc(c(-c5c(F)c(F)c(F)c(F)c5F)c5ccc2[nH]5)C=C4)C=C3)cc1
REMARK SMILES IDX 14 1 13 2 11 3 12 4 6 5 5 6 3 7 4 8 2 9 1 10 7 11 8 12 9 13
REMARK SMILES IDX 10 14 15 15 16 16 17 17 18 18 19 19 20 20 81 21 21 22 80 23
REMARK SMILES IDX 22 24 23 25 24 26 74 27 25 28 79 29 73 30 75 31 26 32 78 33
REMARK SMILES IDX 72 34 71 35 27 37 59 38 39 39 58 40 40 41 43 42 57 43 76 44
REMARK SMILES IDX 41 45 42 46 56 48 77 49 44 50 28 51 29 52 37 53 30 54 31 55
REMARK SMILES IDX 35 56 38 57 32 58 33 59 36 60 34 61 60 62 61 63 69 64 62 65
REMARK SMILES IDX 63 66 67 67 70 68 64 69 65 70 68 71 66 72 45 73 46 74 54 75
REMARK SMILES IDX 47 76 48 77 52 78 55 79 49 80 50 81 53 82 51 83
REMARK H PARENT 75 36 43 47
REMARK Flexibility Score: inf
ROOT
ATOM      1  C   UNL A   1      41.563  21.513  26.104  1.00  0.00     0.275 C 
ENDROOT
BRANCH   1   2
ATOM      2  O   UNL A   1      42.360  22.591  25.603  1.00  0.00    -0.459 OA
BRANCH   2   3
ATOM      3  C   UNL A   1      43.505  22.875  26.242  1.00  0.00     0.334 C 
ATOM      4  O   UNL A   1      43.854  22.512  27.351  1.00  0.00    -0.247 OA
BRANCH   3   5
ATOM      5  C   UNL A   1      44.338  23.656  25.302  1.00  0.00     0.045 C 
ATOM      6  C   UNL A   1      45.168  23.001  24.466  1.00  0.00     0.104 C 
BRANCH   6   7
ATOM      7  C   UNL A   1      45.326  21.537  24.280  1.00  0.00     0.331 C 
ATOM      8  O   UNL A   1      44.521  20.881  23.635  1.00  0.00    -0.247 OA
BRANCH   7   9
ATOM      9  O   UNL A   1      46.382  21.046  24.965  1.00  0.00    -0.466 OA
ATOM     10  C   UNL A   1      46.399  19.632  25.159  1.00  0.00     0.282 C 
ENDBRANCH   7   9
ENDBRANCH   6   7
BRANCH   5  11
ATOM     11  C   UNL A   1      44.338  25.156  25.470  1.00  0.00     0.046 C 
BRANCH  11  12
ATOM     12  C   UNL A   1      45.675  25.921  25.296  1.00  0.00    -0.013 C 
ATOM     13  C   UNL A   1      45.515  27.418  25.015  1.00  0.00     0.008 C 
ATOM     14  C   UNL A   1      46.503  25.768  26.580  1.00  0.00     0.008 C 
ENDBRANCH  11  12
ENDBRANCH   5  11
ENDBRANCH   3   5
ENDBRANCH   2   3
ENDBRANCH   1   2
BRANCH   1  15
ATOM     15  C   UNL A   1      40.684  22.087  27.216  1.00  0.00     0.275 C 
BRANCH  15  16
ATOM     16  O   UNL A   1      39.290  21.955  26.858  1.00  0.00    -0.458 OA
BRANCH  16  17
ATOM     17  C   UNL A   1      38.757  22.977  26.141  1.00  0.00     0.338 C 
ATOM     18  O   UNL A   1      37.925  22.906  25.251  1.00  0.00    -0.246 OA
BRANCH  17  19
ATOM     19  C   UNL A   1      39.240  24.266  26.689  1.00  0.00     0.060 A 
ATOM     20  C   UNL A   1      38.913  24.593  28.011  1.00  0.00     0.016 A 
ATOM     21  C   UNL A   1      40.031  25.132  25.930  1.00  0.00     0.016 A 
ATOM     22  C   UNL A   1      39.426  25.753  28.596  1.00  0.00     0.010 A 
ATOM     23  C   UNL A   1      40.519  26.309  26.505  1.00  0.00     0.010 A 
ATOM     24  C   UNL A   1      40.230  26.620  27.846  1.00  0.00    -0.014 A 
BRANCH  24  25
ATOM     25  C   UNL A   1      40.690  27.907  28.418  1.00  0.00     0.031 A 
ATOM     26  C   UNL A   1      42.136  28.064  28.779  1.00  0.00     0.074 A 
ATOM     27  C   UNL A   1      39.831  28.919  28.636  1.00  0.00     0.049 A 
ATOM     28  N   UNL A   1      42.752  29.090  29.309  1.00  0.00    -0.248 NA
ATOM     29  C   UNL A   1      43.009  26.916  28.488  1.00  0.00     0.031 C 
ATOM     30  C   UNL A   1      38.420  28.923  28.267  1.00  0.00     0.029 A 
ATOM     31  N   UNL A   1      40.021  30.138  29.240  1.00  0.00    -0.354 N 
ATOM     32  C   UNL A   1      44.087  28.727  29.380  1.00  0.00     0.074 A 
ATOM     33  C   UNL A   1      44.189  27.371  28.885  1.00  0.00     0.031 C 
ATOM     34  C   UNL A   1      37.853  30.062  28.702  1.00  0.00     0.029 A 
ATOM     35  C   UNL A   1      38.865  30.869  29.378  1.00  0.00     0.049 A 
ATOM     36  H   UNL A   1      40.901  30.459  29.545  1.00  0.00     0.167 HD
ATOM     37  C   UNL A   1      45.137  29.468  29.804  1.00  0.00     0.037 A 
ATOM     38  C   UNL A   1      38.648  32.050  29.988  1.00  0.00     0.037 A 
ATOM     39  C   UNL A   1      45.031  30.798  30.343  1.00  0.00     0.049 A 
ATOM     40  C   UNL A   1      39.815  32.795  30.582  1.00  0.00     0.074 A 
ATOM     41  C   UNL A   1      46.040  31.623  30.809  1.00  0.00     0.029 A 
ATOM     42  N   UNL A   1      43.840  31.487  30.512  1.00  0.00    -0.354 N 
ATOM     43  N   UNL A   1      41.085  32.472  30.592  1.00  0.00    -0.248 NA
ATOM     44  C   UNL A   1      39.519  34.081  31.231  1.00  0.00     0.031 C 
ATOM     45  C   UNL A   1      45.451  32.789  31.311  1.00  0.00     0.029 A 
ATOM     46  C   UNL A   1      44.083  32.713  31.108  1.00  0.00     0.049 A 
ATOM     47  H   UNL A   1      42.952  31.154  30.247  1.00  0.00     0.167 HD
ATOM     48  C   UNL A   1      41.744  33.531  31.201  1.00  0.00     0.074 A 
ATOM     49  C   UNL A   1      40.733  34.507  31.550  1.00  0.00     0.031 C 
ATOM     50  C   UNL A   1      43.070  33.683  31.440  1.00  0.00     0.037 A 
BRANCH  37  51
ATOM     51  C   UNL A   1      46.491  28.832  29.722  1.00  0.00     0.064 A 
ATOM     52  C   UNL A   1      47.051  28.163  30.822  1.00  0.00     0.173 A 
ATOM     53  C   UNL A   1      47.234  28.889  28.536  1.00  0.00     0.173 A 
ATOM     54  F   UNL A   1      46.384  28.098  31.985  1.00  0.00    -0.203 F 
ATOM     55  C   UNL A   1      48.319  27.594  30.741  1.00  0.00     0.198 A 
ATOM     56  C   UNL A   1      48.493  28.299  28.452  1.00  0.00     0.198 A 
ATOM     57  F   UNL A   1      46.743  29.520  27.459  1.00  0.00    -0.203 F 
ATOM     58  F   UNL A   1      48.854  27.000  31.818  1.00  0.00    -0.200 F 
ATOM     59  C   UNL A   1      49.036  27.659  29.557  1.00  0.00     0.200 A 
ATOM     60  F   UNL A   1      49.183  28.357  27.305  1.00  0.00    -0.200 F 
ATOM     61  F   UNL A   1      50.257  27.113  29.482  1.00  0.00    -0.200 F 
ENDBRANCH  37  51
BRANCH  38  62
ATOM     62  C   UNL A   1      37.274  32.609  30.069  1.00  0.00     0.064 A 
ATOM     63  C   UNL A   1      36.409  32.260  31.115  1.00  0.00     0.173 A 
ATOM     64  C   UNL A   1      36.785  33.472  29.077  1.00  0.00     0.173 A 
ATOM     65  F   UNL A   1      36.822  31.415  32.071  1.00  0.00    -0.203 F 
ATOM     66  C   UNL A   1      35.097  32.730  31.152  1.00  0.00     0.198 A 
ATOM     67  C   UNL A   1      35.481  33.962  29.128  1.00  0.00     0.198 A 
ATOM     68  F   UNL A   1      37.569  33.833  28.051  1.00  0.00    -0.203 F 
ATOM     69  F   UNL A   1      34.273  32.335  32.131  1.00  0.00    -0.200 F 
ATOM     70  C   UNL A   1      34.635  33.583  30.159  1.00  0.00     0.200 A 
ATOM     71  F   UNL A   1      35.038  34.787  28.170  1.00  0.00    -0.200 F 
ATOM     72  F   UNL A   1      33.370  34.025  30.190  1.00  0.00    -0.200 F 
ENDBRANCH  38  62
BRANCH  50  73
ATOM     73  C   UNL A   1      43.516  34.972  32.069  1.00  0.00     0.064 A 
ATOM     74  C   UNL A   1      43.709  35.090  33.454  1.00  0.00     0.173 A 
ATOM     75  C   UNL A   1      43.797  36.090  31.269  1.00  0.00     0.173 A 
ATOM     76  F   UNL A   1      43.439  34.056  34.263  1.00  0.00    -0.203 F 
ATOM     77  C   UNL A   1      44.146  36.287  34.014  1.00  0.00     0.198 A 
ATOM     78  C   UNL A   1      44.263  37.276  31.830  1.00  0.00     0.198 A 
ATOM     79  F   UNL A   1      43.634  36.028  29.938  1.00  0.00    -0.203 F 
ATOM     80  F   UNL A   1      44.282  36.391  35.344  1.00  0.00    -0.200 F 
ATOM     81  C   UNL A   1      44.431  37.375  33.203  1.00  0.00     0.200 A 
ATOM     82  F   UNL A   1      44.551  38.321  31.043  1.00  0.00    -0.200 F 
ATOM     83  F   UNL A   1      44.862  38.522  33.744  1.00  0.00    -0.200 F 
ENDBRANCH  50  73
ENDBRANCH  24  25
ENDBRANCH  17  19
ENDBRANCH  16  17
ENDBRANCH  15  16
ENDBRANCH   1  15
TORSDOF 15
ENDMDL
