MODEL 1
REMARK VINA RESULT:     -12.2      0.000      0.000
REMARK SMILES O=C(OCCOC(=O)[C@@]1([NH2+]C2CC2)CCC[C@H]1CCn1ccnc1)c1ccc(-c2c3nc(c(-c4c(F)c(F)c(F)c(F)c4F)c4ccc([nH]4)c(-c4c(F)c(F)c(F)c(F)c4F)c4nc(c(-c5c(F)c(F)c(F)c(F)c5F)c5ccc2[nH]5)C=C4)C=C3)cc1
REMARK SMILES IDX 5 1 4 2 3 3 2 4 1 5 25 6 26 7 87 8 27 9 86 10 28 11 29 12
REMARK SMILES IDX 30 13 80 14 31 15 85 16 79 17 81 18 32 19 84 20 78 21 77 22
REMARK SMILES IDX 33 24 65 25 45 26 64 27 46 28 49 29 63 30 82 31 47 32 48 33
REMARK SMILES IDX 62 35 83 36 50 37 34 38 35 39 43 40 36 41 37 42 41 43 44 44
REMARK SMILES IDX 38 45 39 46 42 47 40 48 66 49 67 50 75 51 68 52 69 53 73 54
REMARK SMILES IDX 76 55 70 56 71 57 74 58 72 59 51 60 52 61 60 62 53 63 54 64
REMARK SMILES IDX 58 65 61 66 55 67 56 68 59 69 57 70 6 71 7 72 8 73 9 74
REMARK SMILES IDX 14 75 17 76 15 77 16 78 10 79 11 82 12 83 13 84 18 85 19 86
REMARK SMILES IDX 20 87 21 88 24 89 22 90 23 91
REMARK H PARENT 81 23 49 34 10 80 10 81
REMARK Flexibility Score: inf
ROOT
ATOM      1  C   UNL A   1      32.145  30.287  26.758  1.00  0.00     0.274 C 
ENDROOT
BRANCH   1   2
ATOM      2  C   UNL A   1      33.178  31.324  27.242  1.00  0.00     0.275 C 
BRANCH   2   3
ATOM      3  O   UNL A   1      34.508  30.866  27.490  1.00  0.00    -0.458 OA
BRANCH   3   4
ATOM      4  C   UNL A   1      35.418  31.797  27.820  1.00  0.00     0.338 C 
ATOM      5  O   UNL A   1      35.351  32.989  27.607  1.00  0.00    -0.246 OA
BRANCH   4   6
ATOM      6  C   UNL A   1      36.600  31.091  28.345  1.00  0.00     0.060 A 
ATOM      7  C   UNL A   1      37.675  31.711  28.974  1.00  0.00     0.016 A 
ATOM      8  C   UNL A   1      36.588  29.716  28.195  1.00  0.00     0.016 A 
ATOM      9  C   UNL A   1      38.797  30.955  29.267  1.00  0.00     0.010 A 
ATOM     10  C   UNL A   1      37.694  28.951  28.453  1.00  0.00     0.010 A 
ATOM     11  C   UNL A   1      38.817  29.599  28.918  1.00  0.00    -0.014 A 
BRANCH  11  12
ATOM     12  C   UNL A   1      39.988  28.798  29.160  1.00  0.00     0.031 A 
ATOM     13  C   UNL A   1      40.272  28.615  30.597  1.00  0.00     0.074 A 
ATOM     14  C   UNL A   1      40.657  28.170  28.177  1.00  0.00     0.049 A 
ATOM     15  N   UNL A   1      41.130  29.271  31.301  1.00  0.00    -0.248 NA
ATOM     16  C   UNL A   1      39.370  27.767  31.389  1.00  0.00     0.031 C 
ATOM     17  C   UNL A   1      40.302  27.984  26.770  1.00  0.00     0.029 A 
ATOM     18  N   UNL A   1      41.847  27.526  28.281  1.00  0.00    -0.354 N 
ATOM     19  C   UNL A   1      41.037  28.758  32.588  1.00  0.00     0.074 A 
ATOM     20  C   UNL A   1      39.810  28.008  32.626  1.00  0.00     0.031 C 
ATOM     21  C   UNL A   1      41.173  27.117  26.197  1.00  0.00     0.029 A 
ATOM     22  C   UNL A   1      42.224  26.813  27.151  1.00  0.00     0.049 A 
ATOM     23  H   UNL A   1      42.402  27.563  29.095  1.00  0.00     0.167 HD
ATOM     24  C   UNL A   1      42.125  28.783  33.409  1.00  0.00     0.037 A 
ATOM     25  C   UNL A   1      43.312  26.005  27.066  1.00  0.00     0.037 A 
ATOM     26  C   UNL A   1      43.121  29.701  32.896  1.00  0.00     0.049 A 
ATOM     27  C   UNL A   1      44.253  26.433  28.143  1.00  0.00     0.074 A 
ATOM     28  C   UNL A   1      43.145  31.058  32.634  1.00  0.00     0.029 A 
ATOM     29  N   UNL A   1      44.164  29.170  32.174  1.00  0.00    -0.354 N 
ATOM     30  N   UNL A   1      44.849  27.596  28.149  1.00  0.00    -0.248 NA
ATOM     31  C   UNL A   1      44.110  25.797  29.446  1.00  0.00     0.031 C 
ATOM     32  C   UNL A   1      43.860  31.183  31.404  1.00  0.00     0.029 A 
ATOM     33  C   UNL A   1      44.303  29.913  31.031  1.00  0.00     0.049 A 
ATOM     34  H   UNL A   1      44.713  28.394  32.433  1.00  0.00     0.167 HD
ATOM     35  C   UNL A   1      44.772  28.029  29.467  1.00  0.00     0.074 A 
ATOM     36  C   UNL A   1      44.350  26.855  30.230  1.00  0.00     0.031 C 
ATOM     37  C   UNL A   1      44.758  29.362  29.775  1.00  0.00     0.037 A 
BRANCH  24  38
ATOM     38  C   UNL A   1      42.485  27.692  34.395  1.00  0.00     0.064 A 
ATOM     39  C   UNL A   1      43.077  26.514  33.893  1.00  0.00     0.173 A 
ATOM     40  C   UNL A   1      41.993  27.604  35.715  1.00  0.00     0.173 A 
ATOM     41  F   UNL A   1      43.608  26.485  32.662  1.00  0.00    -0.203 F 
ATOM     42  C   UNL A   1      43.042  25.310  34.601  1.00  0.00     0.198 A 
ATOM     43  C   UNL A   1      42.000  26.411  36.435  1.00  0.00     0.198 A 
ATOM     44  F   UNL A   1      41.394  28.625  36.335  1.00  0.00    -0.203 F 
ATOM     45  F   UNL A   1      43.481  24.187  34.018  1.00  0.00    -0.200 F 
ATOM     46  C   UNL A   1      42.483  25.255  35.862  1.00  0.00     0.200 A 
ATOM     47  F   UNL A   1      41.452  26.379  37.658  1.00  0.00    -0.200 F 
ATOM     48  F   UNL A   1      42.373  24.089  36.509  1.00  0.00    -0.200 F 
ENDBRANCH  24  38
BRANCH  25  49
ATOM     49  C   UNL A   1      43.396  24.680  26.406  1.00  0.00     0.064 A 
ATOM     50  C   UNL A   1      44.298  24.438  25.357  1.00  0.00     0.173 A 
ATOM     51  C   UNL A   1      42.792  23.545  26.984  1.00  0.00     0.173 A 
ATOM     52  F   UNL A   1      44.960  25.456  24.789  1.00  0.00    -0.203 F 
ATOM     53  C   UNL A   1      44.586  23.138  24.921  1.00  0.00     0.198 A 
ATOM     54  C   UNL A   1      43.078  22.251  26.548  1.00  0.00     0.198 A 
ATOM     55  F   UNL A   1      41.988  23.665  28.049  1.00  0.00    -0.203 F 
ATOM     56  F   UNL A   1      45.493  22.941  23.954  1.00  0.00    -0.200 F 
ATOM     57  C   UNL A   1      43.983  22.046  25.524  1.00  0.00     0.200 A 
ATOM     58  F   UNL A   1      42.523  21.201  27.172  1.00  0.00    -0.200 F 
ATOM     59  F   UNL A   1      44.304  20.799  25.149  1.00  0.00    -0.200 F 
ENDBRANCH  25  49
BRANCH  37  60
ATOM     60  C   UNL A   1      45.034  30.339  28.664  1.00  0.00     0.064 A 
ATOM     61  C   UNL A   1      44.046  30.865  27.813  1.00  0.00     0.173 A 
ATOM     62  C   UNL A   1      46.322  30.877  28.556  1.00  0.00     0.173 A 
ATOM     63  F   UNL A   1      42.770  30.482  27.922  1.00  0.00    -0.203 F 
ATOM     64  C   UNL A   1      44.345  31.850  26.870  1.00  0.00     0.198 A 
ATOM     65  C   UNL A   1      46.612  31.883  27.638  1.00  0.00     0.198 A 
ATOM     66  F   UNL A   1      47.294  30.460  29.383  1.00  0.00    -0.203 F 
ATOM     67  F   UNL A   1      43.383  32.329  26.068  1.00  0.00    -0.200 F 
ATOM     68  C   UNL A   1      45.627  32.361  26.789  1.00  0.00     0.200 A 
ATOM     69  F   UNL A   1      47.842  32.412  27.599  1.00  0.00    -0.200 F 
ATOM     70  F   UNL A   1      45.909  33.336  25.912  1.00  0.00    -0.200 F 
ENDBRANCH  37  60
ENDBRANCH  11  12
ENDBRANCH   4   6
ENDBRANCH   3   4
ENDBRANCH   2   3
ENDBRANCH   1   2
BRANCH   1  71
ATOM     71  O   UNL A   1      32.778  29.078  26.289  1.00  0.00    -0.457 OA
BRANCH  71  72
ATOM     72  C   UNL A   1      32.811  28.870  24.938  1.00  0.00     0.368 C 
ATOM     73  O   UNL A   1      33.448  29.579  24.161  1.00  0.00    -0.245 OA
BRANCH  72  74
ATOM     74  C   UNL A   1      31.902  27.705  24.449  1.00  0.00     0.197 C 
ATOM     75  C   UNL A   1      31.074  27.164  25.632  1.00  0.00     0.081 C 
ATOM     76  C   UNL A   1      30.728  28.125  23.453  1.00  0.00     0.064 C 
ATOM     77  C   UNL A   1      29.983  26.315  25.002  1.00  0.00     0.008 C 
ATOM     78  C   UNL A   1      29.671  26.988  23.669  1.00  0.00     0.011 C 
BRANCH  74  79
ATOM     79  N   UNL A   1      32.650  26.599  23.773  1.00  0.00    -0.329 N 
ATOM     80  H   UNL A   1      32.889  26.954  22.848  1.00  0.00     0.347 HD
ATOM     81  H   UNL A   1      31.993  25.828  23.889  1.00  0.00     0.347 HD
BRANCH  79  82
ATOM     82  C   UNL A   1      33.880  25.994  24.295  1.00  0.00     0.183 C 
ATOM     83  C   UNL A   1      34.110  25.468  25.681  1.00  0.00     0.071 C 
ATOM     84  C   UNL A   1      33.957  24.509  24.541  1.00  0.00     0.071 C 
ENDBRANCH  79  82
ENDBRANCH  74  79
BRANCH  76  85
ATOM     85  C   UNL A   1      29.977  29.487  23.606  1.00  0.00     0.032 C 
BRANCH  85  86
ATOM     86  C   UNL A   1      28.654  29.773  22.854  1.00  0.00     0.123 C 
BRANCH  86  87
ATOM     87  N   UNL A   1      28.454  31.053  22.195  1.00  0.00    -0.337 N 
ATOM     88  C   UNL A   1      28.115  31.197  20.868  1.00  0.00     0.107 A 
ATOM     89  C   UNL A   1      28.462  32.308  22.734  1.00  0.00     0.199 A 
ATOM     90  C   UNL A   1      27.784  32.523  20.715  1.00  0.00     0.130 A 
ATOM     91  N   UNL A   1      28.024  33.209  21.878  1.00  0.00    -0.245 NA
ENDBRANCH  86  87
ENDBRANCH  85  86
ENDBRANCH  76  85
ENDBRANCH  72  74
ENDBRANCH  71  72
ENDBRANCH   1  71
TORSDOF 16
ENDMDL
MODEL 2
REMARK VINA RESULT:     -12.1      4.134      9.550
REMARK SMILES O=C(OCCOC(=O)[C@@]1([NH2+]C2CC2)CCC[C@H]1CCn1ccnc1)c1ccc(-c2c3nc(c(-c4c(F)c(F)c(F)c(F)c4F)c4ccc([nH]4)c(-c4c(F)c(F)c(F)c(F)c4F)c4nc(c(-c5c(F)c(F)c(F)c(F)c5F)c5ccc2[nH]5)C=C4)C=C3)cc1
REMARK SMILES IDX 5 1 4 2 3 3 2 4 1 5 25 6 26 7 87 8 27 9 86 10 28 11 29 12
REMARK SMILES IDX 30 13 80 14 31 15 85 16 79 17 81 18 32 19 84 20 78 21 77 22
REMARK SMILES IDX 33 24 65 25 45 26 64 27 46 28 49 29 63 30 82 31 47 32 48 33
REMARK SMILES IDX 62 35 83 36 50 37 34 38 35 39 43 40 36 41 37 42 41 43 44 44
REMARK SMILES IDX 38 45 39 46 42 47 40 48 66 49 67 50 75 51 68 52 69 53 73 54
REMARK SMILES IDX 76 55 70 56 71 57 74 58 72 59 51 60 52 61 60 62 53 63 54 64
REMARK SMILES IDX 58 65 61 66 55 67 56 68 59 69 57 70 6 71 7 72 8 73 9 74
REMARK SMILES IDX 14 75 17 76 15 77 16 78 10 79 11 82 12 83 13 84 18 85 19 86
REMARK SMILES IDX 20 87 21 88 24 89 22 90 23 91
REMARK H PARENT 81 23 49 34 10 80 10 81
REMARK Flexibility Score: inf
ROOT
ATOM      1  C   UNL A   1      37.063  21.319  25.522  1.00  0.00     0.274 C 
ENDROOT
BRANCH   1   2
ATOM      2  C   UNL A   1      38.554  21.669  25.693  1.00  0.00     0.275 C 
BRANCH   2   3
ATOM      3  O   UNL A   1      38.877  22.822  26.471  1.00  0.00    -0.458 OA
BRANCH   3   4
ATOM      4  C   UNL A   1      40.004  22.765  27.200  1.00  0.00     0.338 C 
ATOM      5  O   UNL A   1      40.546  21.768  27.627  1.00  0.00    -0.246 OA
BRANCH   4   6
ATOM      6  C   UNL A   1      40.383  24.149  27.535  1.00  0.00     0.060 A 
ATOM      7  C   UNL A   1      41.463  24.499  28.339  1.00  0.00     0.016 A 
ATOM      8  C   UNL A   1      39.591  25.136  26.974  1.00  0.00     0.016 A 
ATOM      9  C   UNL A   1      41.607  25.824  28.714  1.00  0.00     0.010 A 
ATOM     10  C   UNL A   1      39.698  26.448  27.350  1.00  0.00     0.010 A 
ATOM     11  C   UNL A   1      40.664  26.764  28.279  1.00  0.00    -0.014 A 
BRANCH  11  12
ATOM     12  C   UNL A   1      40.755  28.139  28.695  1.00  0.00     0.031 A 
ATOM     13  C   UNL A   1      41.927  28.834  28.126  1.00  0.00     0.074 A 
ATOM     14  C   UNL A   1      39.792  28.750  29.407  1.00  0.00     0.049 A 
ATOM     15  N   UNL A   1      43.052  29.054  28.716  1.00  0.00    -0.248 NA
ATOM     16  C   UNL A   1      41.935  29.134  26.687  1.00  0.00     0.031 C 
ATOM     17  C   UNL A   1      38.443  28.295  29.746  1.00  0.00     0.029 A 
ATOM     18  N   UNL A   1      39.852  29.982  29.973  1.00  0.00    -0.354 N 
ATOM     19  C   UNL A   1      43.840  29.728  27.792  1.00  0.00     0.074 A 
ATOM     20  C   UNL A   1      43.192  29.554  26.519  1.00  0.00     0.031 C 
ATOM     21  C   UNL A   1      37.750  29.318  30.305  1.00  0.00     0.029 A 
ATOM     22  C   UNL A   1      38.651  30.440  30.498  1.00  0.00     0.049 A 
ATOM     23  H   UNL A   1      40.683  30.511  30.009  1.00  0.00     0.167 HD
ATOM     24  C   UNL A   1      44.803  30.590  28.223  1.00  0.00     0.037 A 
ATOM     25  C   UNL A   1      38.447  31.682  31.009  1.00  0.00     0.037 A 
ATOM     26  C   UNL A   1      45.084  30.370  29.626  1.00  0.00     0.049 A 
ATOM     27  C   UNL A   1      39.787  32.223  31.378  1.00  0.00     0.074 A 
ATOM     28  C   UNL A   1      45.552  29.300  30.366  1.00  0.00     0.029 A 
ATOM     29  N   UNL A   1      44.479  31.207  30.535  1.00  0.00    -0.354 N 
ATOM     30  N   UNL A   1      40.523  31.717  32.334  1.00  0.00    -0.248 NA
ATOM     31  C   UNL A   1      40.516  32.962  30.356  1.00  0.00     0.031 C 
ATOM     32  C   UNL A   1      44.771  29.310  31.562  1.00  0.00     0.029 A 
ATOM     33  C   UNL A   1      43.936  30.428  31.524  1.00  0.00     0.049 A 
ATOM     34  H   UNL A   1      44.442  32.189  30.484  1.00  0.00     0.167 HD
ATOM     35  C   UNL A   1      41.813  31.700  31.820  1.00  0.00     0.074 A 
ATOM     36  C   UNL A   1      41.754  32.528  30.615  1.00  0.00     0.031 C 
ATOM     37  C   UNL A   1      42.732  30.778  32.241  1.00  0.00     0.037 A 
BRANCH  24  38
ATOM     38  C   UNL A   1      45.166  31.889  27.535  1.00  0.00     0.064 A 
ATOM     39  C   UNL A   1      46.435  31.985  26.926  1.00  0.00     0.173 A 
ATOM     40  C   UNL A   1      44.494  33.116  27.723  1.00  0.00     0.173 A 
ATOM     41  F   UNL A   1      47.155  30.884  26.666  1.00  0.00    -0.203 F 
ATOM     42  C   UNL A   1      47.040  33.217  26.666  1.00  0.00     0.198 A 
ATOM     43  C   UNL A   1      45.084  34.342  27.422  1.00  0.00     0.198 A 
ATOM     44  F   UNL A   1      43.290  33.203  28.295  1.00  0.00    -0.203 F 
ATOM     45  F   UNL A   1      48.305  33.255  26.229  1.00  0.00    -0.200 F 
ATOM     46  C   UNL A   1      46.371  34.395  26.936  1.00  0.00     0.200 A 
ATOM     47  F   UNL A   1      44.418  35.474  27.692  1.00  0.00    -0.200 F 
ATOM     48  F   UNL A   1      46.977  35.576  26.767  1.00  0.00    -0.200 F 
ENDBRANCH  24  38
BRANCH  25  49
ATOM     49  C   UNL A   1      37.258  32.546  30.816  1.00  0.00     0.064 A 
ATOM     50  C   UNL A   1      36.942  33.091  29.560  1.00  0.00     0.173 A 
ATOM     51  C   UNL A   1      36.251  32.623  31.800  1.00  0.00     0.173 A 
ATOM     52  F   UNL A   1      37.821  33.010  28.551  1.00  0.00    -0.203 F 
ATOM     53  C   UNL A   1      35.691  33.665  29.302  1.00  0.00     0.198 A 
ATOM     54  C   UNL A   1      35.005  33.196  31.543  1.00  0.00     0.198 A 
ATOM     55  F   UNL A   1      36.423  32.051  33.000  1.00  0.00    -0.203 F 
ATOM     56  F   UNL A   1      35.404  34.125  28.076  1.00  0.00    -0.200 F 
ATOM     57  C   UNL A   1      34.720  33.708  30.291  1.00  0.00     0.200 A 
ATOM     58  F   UNL A   1      34.060  33.188  32.494  1.00  0.00    -0.200 F 
ATOM     59  F   UNL A   1      33.502  34.200  30.026  1.00  0.00    -0.200 F 
ENDBRANCH  25  49
BRANCH  37  60
ATOM     60  C   UNL A   1      42.368  29.916  33.420  1.00  0.00     0.064 A 
ATOM     61  C   UNL A   1      41.803  28.633  33.314  1.00  0.00     0.173 A 
ATOM     62  C   UNL A   1      42.744  30.344  34.699  1.00  0.00     0.173 A 
ATOM     63  F   UNL A   1      41.512  28.107  32.120  1.00  0.00    -0.203 F 
ATOM     64  C   UNL A   1      41.586  27.836  34.439  1.00  0.00     0.198 A 
ATOM     65  C   UNL A   1      42.558  29.536  35.817  1.00  0.00     0.198 A 
ATOM     66  F   UNL A   1      43.344  31.534  34.857  1.00  0.00    -0.203 F 
ATOM     67  F   UNL A   1      41.041  26.618  34.307  1.00  0.00    -0.200 F 
ATOM     68  C   UNL A   1      41.969  28.288  35.689  1.00  0.00     0.200 A 
ATOM     69  F   UNL A   1      42.979  29.955  37.017  1.00  0.00    -0.200 F 
ATOM     70  F   UNL A   1      41.799  27.510  36.767  1.00  0.00    -0.200 F 
ENDBRANCH  37  60
ENDBRANCH  11  12
ENDBRANCH   4   6
ENDBRANCH   3   4
ENDBRANCH   2   3
ENDBRANCH   1   2
BRANCH   1  71
ATOM     71  O   UNL A   1      36.247  22.501  25.380  1.00  0.00    -0.457 OA
BRANCH  71  72
ATOM     72  C   UNL A   1      34.975  22.449  25.879  1.00  0.00     0.368 C 
ATOM     73  O   UNL A   1      34.713  22.088  27.024  1.00  0.00    -0.245 OA
BRANCH  72  74
ATOM     74  C   UNL A   1      33.868  22.805  24.843  1.00  0.00     0.197 C 
ATOM     75  C   UNL A   1      34.521  23.165  23.493  1.00  0.00     0.081 C 
ATOM     76  C   UNL A   1      32.938  21.591  24.391  1.00  0.00     0.064 C 
ATOM     77  C   UNL A   1      33.389  23.133  22.481  1.00  0.00     0.008 C 
ATOM     78  C   UNL A   1      32.437  22.050  22.978  1.00  0.00     0.011 C 
BRANCH  74  79
ATOM     79  N   UNL A   1      32.947  23.895  25.296  1.00  0.00    -0.329 N 
ATOM     80  H   UNL A   1      32.348  23.471  26.004  1.00  0.00     0.347 HD
ATOM     81  H   UNL A   1      32.569  24.207  24.402  1.00  0.00     0.347 HD
BRANCH  79  82
ATOM     82  C   UNL A   1      33.393  25.170  25.867  1.00  0.00     0.183 C 
ATOM     83  C   UNL A   1      33.779  26.410  25.115  1.00  0.00     0.071 C 
ATOM     84  C   UNL A   1      32.481  26.370  25.862  1.00  0.00     0.071 C 
ENDBRANCH  79  82
ENDBRANCH  74  79
BRANCH  76  85
ATOM     85  C   UNL A   1      33.505  20.144  24.230  1.00  0.00     0.032 C 
BRANCH  85  86
ATOM     86  C   UNL A   1      32.574  18.926  24.013  1.00  0.00     0.123 C 
BRANCH  86  87
ATOM     87  N   UNL A   1      33.004  17.599  24.426  1.00  0.00    -0.337 N 
ATOM     88  C   UNL A   1      32.489  16.920  25.508  1.00  0.00     0.107 A 
ATOM     89  C   UNL A   1      33.884  16.752  23.816  1.00  0.00     0.199 A 
ATOM     90  C   UNL A   1      32.974  15.638  25.400  1.00  0.00     0.130 A 
ATOM     91  N   UNL A   1      33.858  15.551  24.355  1.00  0.00    -0.245 NA
ENDBRANCH  86  87
ENDBRANCH  85  86
ENDBRANCH  76  85
ENDBRANCH  72  74
ENDBRANCH  71  72
ENDBRANCH   1  71
TORSDOF 16
ENDMDL
MODEL 3
REMARK VINA RESULT:     -11.8      3.727      8.771
REMARK SMILES O=C(OCCOC(=O)[C@@]1([NH2+]C2CC2)CCC[C@H]1CCn1ccnc1)c1ccc(-c2c3nc(c(-c4c(F)c(F)c(F)c(F)c4F)c4ccc([nH]4)c(-c4c(F)c(F)c(F)c(F)c4F)c4nc(c(-c5c(F)c(F)c(F)c(F)c5F)c5ccc2[nH]5)C=C4)C=C3)cc1
REMARK SMILES IDX 5 1 4 2 3 3 2 4 1 5 25 6 26 7 87 8 27 9 86 10 28 11 29 12
REMARK SMILES IDX 30 13 80 14 31 15 85 16 79 17 81 18 32 19 84 20 78 21 77 22
REMARK SMILES IDX 33 24 65 25 45 26 64 27 46 28 49 29 63 30 82 31 47 32 48 33
REMARK SMILES IDX 62 35 83 36 50 37 34 38 35 39 43 40 36 41 37 42 41 43 44 44
REMARK SMILES IDX 38 45 39 46 42 47 40 48 66 49 67 50 75 51 68 52 69 53 73 54
REMARK SMILES IDX 76 55 70 56 71 57 74 58 72 59 51 60 52 61 60 62 53 63 54 64
REMARK SMILES IDX 58 65 61 66 55 67 56 68 59 69 57 70 6 71 7 72 8 73 9 74
REMARK SMILES IDX 14 75 17 76 15 77 16 78 10 79 11 82 12 83 13 84 18 85 19 86
REMARK SMILES IDX 20 87 21 88 24 89 22 90 23 91
REMARK H PARENT 81 23 49 34 10 80 10 81
REMARK Flexibility Score: inf
ROOT
ATOM      1  C   UNL A   1      37.336  21.320  25.123  1.00  0.00     0.274 C 
ENDROOT
BRANCH   1   2
ATOM      2  C   UNL A   1      38.758  21.526  25.681  1.00  0.00     0.275 C 
BRANCH   2   3
ATOM      3  O   UNL A   1      38.986  22.673  26.500  1.00  0.00    -0.458 OA
BRANCH   3   4
ATOM      4  C   UNL A   1      40.051  22.632  27.317  1.00  0.00     0.338 C 
ATOM      5  O   UNL A   1      40.543  21.647  27.824  1.00  0.00    -0.246 OA
BRANCH   4   6
ATOM      6  C   UNL A   1      40.422  24.024  27.628  1.00  0.00     0.060 A 
ATOM      7  C   UNL A   1      41.528  24.396  28.385  1.00  0.00     0.016 A 
ATOM      8  C   UNL A   1      39.594  24.995  27.093  1.00  0.00     0.016 A 
ATOM      9  C   UNL A   1      41.667  25.725  28.746  1.00  0.00     0.010 A 
ATOM     10  C   UNL A   1      39.696  26.311  27.456  1.00  0.00     0.010 A 
ATOM     11  C   UNL A   1      40.694  26.648  28.344  1.00  0.00    -0.014 A 
BRANCH  11  12
ATOM     12  C   UNL A   1      40.780  28.027  28.746  1.00  0.00     0.031 A 
ATOM     13  C   UNL A   1      41.941  28.725  28.158  1.00  0.00     0.074 A 
ATOM     14  C   UNL A   1      39.822  28.638  29.465  1.00  0.00     0.049 A 
ATOM     15  N   UNL A   1      43.072  28.957  28.732  1.00  0.00    -0.248 NA
ATOM     16  C   UNL A   1      41.930  29.012  26.716  1.00  0.00     0.031 C 
ATOM     17  C   UNL A   1      38.481  28.177  29.823  1.00  0.00     0.029 A 
ATOM     18  N   UNL A   1      39.882  29.875  30.019  1.00  0.00    -0.354 N 
ATOM     19  C   UNL A   1      43.844  29.627  27.793  1.00  0.00     0.074 A 
ATOM     20  C   UNL A   1      43.182  29.438  26.530  1.00  0.00     0.031 C 
ATOM     21  C   UNL A   1      37.788  29.201  30.382  1.00  0.00     0.029 A 
ATOM     22  C   UNL A   1      38.684  30.330  30.556  1.00  0.00     0.049 A 
ATOM     23  H   UNL A   1      40.709  30.409  30.041  1.00  0.00     0.167 HD
ATOM     24  C   UNL A   1      44.807  30.499  28.204  1.00  0.00     0.037 A 
ATOM     25  C   UNL A   1      38.478  31.575  31.058  1.00  0.00     0.037 A 
ATOM     26  C   UNL A   1      45.106  30.294  29.606  1.00  0.00     0.049 A 
ATOM     27  C   UNL A   1      39.819  32.127  31.406  1.00  0.00     0.074 A 
ATOM     28  C   UNL A   1      45.590  29.233  30.349  1.00  0.00     0.029 A 
ATOM     29  N   UNL A   1      44.507  31.134  30.515  1.00  0.00    -0.354 N 
ATOM     30  N   UNL A   1      40.569  31.635  32.357  1.00  0.00    -0.248 NA
ATOM     31  C   UNL A   1      40.531  32.863  30.369  1.00  0.00     0.031 C 
ATOM     32  C   UNL A   1      44.823  29.248  31.554  1.00  0.00     0.029 A 
ATOM     33  C   UNL A   1      43.981  30.360  31.517  1.00  0.00     0.049 A 
ATOM     34  H   UNL A   1      44.462  32.116  30.456  1.00  0.00     0.167 HD
ATOM     35  C   UNL A   1      41.853  31.621  31.828  1.00  0.00     0.074 A 
ATOM     36  C   UNL A   1      41.775  32.438  30.617  1.00  0.00     0.031 C 
ATOM     37  C   UNL A   1      42.783  30.709  32.245  1.00  0.00     0.037 A 
BRANCH  24  38
ATOM     38  C   UNL A   1      45.153  31.795  27.501  1.00  0.00     0.064 A 
ATOM     39  C   UNL A   1      46.422  31.901  26.895  1.00  0.00     0.173 A 
ATOM     40  C   UNL A   1      44.463  33.014  27.672  1.00  0.00     0.173 A 
ATOM     41  F   UNL A   1      47.160  30.808  26.652  1.00  0.00    -0.203 F 
ATOM     42  C   UNL A   1      47.010  33.139  26.622  1.00  0.00     0.198 A 
ATOM     43  C   UNL A   1      45.035  34.245  27.357  1.00  0.00     0.198 A 
ATOM     44  F   UNL A   1      43.256  33.090  28.239  1.00  0.00    -0.203 F 
ATOM     45  F   UNL A   1      48.276  33.190  26.188  1.00  0.00    -0.200 F 
ATOM     46  C   UNL A   1      46.324  34.310  26.874  1.00  0.00     0.200 A 
ATOM     47  F   UNL A   1      44.353  35.370  27.610  1.00  0.00    -0.200 F 
ATOM     48  F   UNL A   1      46.913  35.498  26.692  1.00  0.00    -0.200 F 
ENDBRANCH  24  38
BRANCH  25  49
ATOM     49  C   UNL A   1      37.281  32.430  30.872  1.00  0.00     0.064 A 
ATOM     50  C   UNL A   1      36.987  33.022  29.632  1.00  0.00     0.173 A 
ATOM     51  C   UNL A   1      36.250  32.451  31.833  1.00  0.00     0.173 A 
ATOM     52  F   UNL A   1      37.891  32.995  28.642  1.00  0.00    -0.203 F 
ATOM     53  C   UNL A   1      35.734  33.589  29.368  1.00  0.00     0.198 A 
ATOM     54  C   UNL A   1      35.003  33.018  31.570  1.00  0.00     0.198 A 
ATOM     55  F   UNL A   1      36.402  31.833  33.012  1.00  0.00    -0.203 F 
ATOM     56  F   UNL A   1      35.470  34.096  28.155  1.00  0.00    -0.200 F 
ATOM     57  C   UNL A   1      34.740  33.577  30.333  1.00  0.00     0.200 A 
ATOM     58  F   UNL A   1      34.035  32.957  32.497  1.00  0.00    -0.200 F 
ATOM     59  F   UNL A   1      33.521  34.064  30.060  1.00  0.00    -0.200 F 
ENDBRANCH  25  49
BRANCH  37  60
ATOM     60  C   UNL A   1      42.439  29.855  33.436  1.00  0.00     0.064 A 
ATOM     61  C   UNL A   1      41.856  28.578  33.348  1.00  0.00     0.173 A 
ATOM     62  C   UNL A   1      42.853  30.282  34.704  1.00  0.00     0.173 A 
ATOM     63  F   UNL A   1      41.527  28.053  32.164  1.00  0.00    -0.203 F 
ATOM     64  C   UNL A   1      41.657  27.788  34.481  1.00  0.00     0.198 A 
ATOM     65  C   UNL A   1      42.686  29.479  35.829  1.00  0.00     0.198 A 
ATOM     66  F   UNL A   1      43.472  31.465  34.843  1.00  0.00    -0.203 F 
ATOM     67  F   UNL A   1      41.094  26.576  34.367  1.00  0.00    -0.200 F 
ATOM     68  C   UNL A   1      42.079  28.238  35.719  1.00  0.00     0.200 A 
ATOM     69  F   UNL A   1      43.142  29.897  37.017  1.00  0.00    -0.200 F 
ATOM     70  F   UNL A   1      41.927  27.465  36.804  1.00  0.00    -0.200 F 
ENDBRANCH  37  60
ENDBRANCH  11  12
ENDBRANCH   4   6
ENDBRANCH   3   4
ENDBRANCH   2   3
ENDBRANCH   1   2
BRANCH   1  71
ATOM     71  O   UNL A   1      36.415  22.316  25.616  1.00  0.00    -0.457 OA
BRANCH  71  72
ATOM     72  C   UNL A   1      35.370  22.662  24.805  1.00  0.00     0.368 C 
ATOM     73  O   UNL A   1      35.516  23.082  23.659  1.00  0.00    -0.245 OA
BRANCH  72  74
ATOM     74  C   UNL A   1      33.974  22.558  25.484  1.00  0.00     0.197 C 
ATOM     75  C   UNL A   1      34.152  22.362  27.004  1.00  0.00     0.081 C 
ATOM     76  C   UNL A   1      33.107  23.898  25.474  1.00  0.00     0.064 C 
ATOM     77  C   UNL A   1      32.785  22.641  27.605  1.00  0.00     0.008 C 
ATOM     78  C   UNL A   1      32.161  23.705  26.708  1.00  0.00     0.011 C 
BRANCH  74  79
ATOM     79  N   UNL A   1      33.100  21.488  24.908  1.00  0.00    -0.329 N 
ATOM     80  H   UNL A   1      32.874  21.797  23.963  1.00  0.00     0.347 HD
ATOM     81  H   UNL A   1      32.381  21.423  25.628  1.00  0.00     0.347 HD
BRANCH  79  82
ATOM     82  C   UNL A   1      33.492  20.081  24.782  1.00  0.00     0.183 C 
ATOM     83  C   UNL A   1      32.902  18.910  25.512  1.00  0.00     0.071 C 
ATOM     84  C   UNL A   1      32.605  19.102  24.057  1.00  0.00     0.071 C 
ENDBRANCH  79  82
ENDBRANCH  74  79
BRANCH  76  85
ATOM     85  C   UNL A   1      33.775  25.303  25.620  1.00  0.00     0.032 C 
BRANCH  85  86
ATOM     86  C   UNL A   1      33.211  26.550  24.895  1.00  0.00     0.123 C 
BRANCH  86  87
ATOM     87  N   UNL A   1      32.819  26.463  23.498  1.00  0.00    -0.337 N 
ATOM     88  C   UNL A   1      33.593  25.900  22.508  1.00  0.00     0.107 A 
ATOM     89  C   UNL A   1      31.633  26.810  22.916  1.00  0.00     0.199 A 
ATOM     90  C   UNL A   1      32.770  25.796  21.412  1.00  0.00     0.130 A 
ATOM     91  N   UNL A   1      31.559  26.384  21.671  1.00  0.00    -0.245 NA
ENDBRANCH  86  87
ENDBRANCH  85  86
ENDBRANCH  76  85
ENDBRANCH  72  74
ENDBRANCH  71  72
ENDBRANCH   1  71
TORSDOF 16
ENDMDL
