MODEL 1
REMARK VINA RESULT:     -11.5      0.000      0.000
REMARK SMILES CC(C)[C@H](NC(=O)CCNC(=O)c1ccoc1)C(=O)OCCOC(=O)c1ccc(-c2c3nc(c(-c4c(F)c(F)c(F)c(F)c4F)c4ccc([nH]4)c(-c4c(F)c(F)c(F)c(F)c4F)c4nc(c(-c5c(F)c(F)c(F)c(F)c5F)c5ccc2[nH]5)C=C4)C=C3)cc1
REMARK SMILES IDX 20 1 18 2 19 3 4 4 2 5 1 6 3 7 5 8 6 9 7 11 8 12 9 13 10 14
REMARK SMILES IDX 11 15 12 17 13 18 14 19 17 20 15 21 16 22 21 23 22 24 23 25
REMARK SMILES IDX 24 26 25 27 26 28 27 29 88 30 28 31 87 32 29 33 30 34 31 35
REMARK SMILES IDX 81 36 32 37 86 38 80 39 82 40 33 41 85 42 79 43 78 44 34 46
REMARK SMILES IDX 66 47 46 48 65 49 47 50 50 51 64 52 83 53 48 54 49 55 63 57
REMARK SMILES IDX 84 58 51 59 35 60 36 61 44 62 37 63 38 64 42 65 45 66 39 67
REMARK SMILES IDX 40 68 43 69 41 70 67 71 68 72 76 73 69 74 70 75 74 76 77 77
REMARK SMILES IDX 71 78 72 79 75 80 73 81 52 82 53 83 61 84 54 85 55 86 59 87
REMARK SMILES IDX 62 88 56 89 57 90 60 91 58 92
REMARK H PARENT 5 10 10 16 82 45 50 56
REMARK Flexibility Score: inf
ROOT
ATOM      1  O   UNL A   1      32.206  26.749  25.313  1.00  0.00    -0.461 OA
ENDROOT
BRANCH   1   2
ATOM      2  C   UNL A   1      32.297  25.395  25.480  1.00  0.00     0.329 C 
ATOM      3  O   UNL A   1      31.864  24.806  26.462  1.00  0.00    -0.250 OA
BRANCH   2   4
ATOM      4  C   UNL A   1      32.736  24.695  24.173  1.00  0.00     0.194 C 
BRANCH   4   5
ATOM      5  C   UNL A   1      33.462  23.336  24.265  1.00  0.00     0.017 C 
ATOM      6  C   UNL A   1      32.593  22.173  23.790  1.00  0.00     0.010 C 
ATOM      7  C   UNL A   1      34.827  23.310  23.582  1.00  0.00     0.010 C 
ENDBRANCH   4   5
BRANCH   4   8
ATOM      8  N   UNL A   1      33.422  25.539  23.188  1.00  0.00    -0.342 N 
ATOM      9  C   UNL A   1      32.895  26.136  22.089  1.00  0.00     0.222 C 
ATOM     10  H   UNL A   1      34.382  25.690  23.344  1.00  0.00     0.164 HD
ATOM     11  O   UNL A   1      33.638  26.580  21.218  1.00  0.00    -0.275 OA
BRANCH   9  12
ATOM     12  C   UNL A   1      31.404  26.337  22.051  1.00  0.00     0.121 C 
BRANCH  12  13
ATOM     13  C   UNL A   1      30.866  27.739  22.333  1.00  0.00     0.126 C 
BRANCH  13  14
ATOM     14  N   UNL A   1      29.482  28.046  22.797  1.00  0.00    -0.351 N 
ATOM     15  C   UNL A   1      28.452  28.962  22.859  1.00  0.00     0.254 C 
ATOM     16  H   UNL A   1      29.164  27.241  23.266  1.00  0.00     0.163 HD
ATOM     17  O   UNL A   1      27.365  28.444  23.133  1.00  0.00    -0.269 OA
BRANCH  15  18
ATOM     18  C   UNL A   1      28.495  30.418  22.738  1.00  0.00     0.077 A 
ATOM     19  C   UNL A   1      28.820  31.273  21.631  1.00  0.00     0.056 A 
ATOM     20  C   UNL A   1      27.757  31.263  23.552  1.00  0.00     0.208 A 
ATOM     21  C   UNL A   1      28.405  32.549  21.923  1.00  0.00     0.195 A 
ATOM     22  O   UNL A   1      27.752  32.547  23.103  1.00  0.00    -0.472 OA
ENDBRANCH  15  18
ENDBRANCH  13  14
ENDBRANCH  12  13
ENDBRANCH   9  12
ENDBRANCH   4   8
ENDBRANCH   2   4
ENDBRANCH   1   2
BRANCH   1  23
ATOM     23  C   UNL A   1      32.709  27.531  26.420  1.00  0.00     0.274 C 
BRANCH  23  24
ATOM     24  C   UNL A   1      32.109  28.939  26.379  1.00  0.00     0.275 C 
BRANCH  24  25
ATOM     25  O   UNL A   1      33.140  29.896  26.057  1.00  0.00    -0.458 OA
BRANCH  25  26
ATOM     26  C   UNL A   1      33.261  30.952  26.908  1.00  0.00     0.338 C 
ATOM     27  O   UNL A   1      32.444  31.835  27.087  1.00  0.00    -0.246 OA
BRANCH  26  28
ATOM     28  C   UNL A   1      34.557  30.867  27.638  1.00  0.00     0.060 A 
ATOM     29  C   UNL A   1      34.927  29.664  28.217  1.00  0.00     0.016 A 
ATOM     30  C   UNL A   1      35.413  31.947  27.802  1.00  0.00     0.016 A 
ATOM     31  C   UNL A   1      36.082  29.508  28.979  1.00  0.00     0.010 A 
ATOM     32  C   UNL A   1      36.642  31.769  28.478  1.00  0.00     0.010 A 
ATOM     33  C   UNL A   1      36.995  30.535  29.070  1.00  0.00    -0.014 A 
BRANCH  33  34
ATOM     34  C   UNL A   1      38.257  30.331  29.834  1.00  0.00     0.031 A 
ATOM     35  C   UNL A   1      39.260  29.376  29.281  1.00  0.00     0.074 A 
ATOM     36  C   UNL A   1      38.617  31.031  30.935  1.00  0.00     0.049 A 
ATOM     37  N   UNL A   1      40.293  28.829  29.860  1.00  0.00    -0.248 NA
ATOM     38  C   UNL A   1      39.115  29.058  27.852  1.00  0.00     0.031 C 
ATOM     39  C   UNL A   1      38.027  32.269  31.426  1.00  0.00     0.029 A 
ATOM     40  N   UNL A   1      39.567  30.751  31.893  1.00  0.00    -0.354 N 
ATOM     41  C   UNL A   1      40.929  28.106  28.868  1.00  0.00     0.074 A 
ATOM     42  C   UNL A   1      40.150  28.258  27.655  1.00  0.00     0.031 C 
ATOM     43  C   UNL A   1      38.452  32.526  32.671  1.00  0.00     0.029 A 
ATOM     44  C   UNL A   1      39.400  31.492  33.044  1.00  0.00     0.049 A 
ATOM     45  H   UNL A   1      40.287  30.092  31.769  1.00  0.00     0.167 HD
ATOM     46  C   UNL A   1      42.074  27.395  28.961  1.00  0.00     0.037 A 
ATOM     47  C   UNL A   1      39.926  31.342  34.273  1.00  0.00     0.037 A 
ATOM     48  C   UNL A   1      42.840  27.253  30.167  1.00  0.00     0.049 A 
ATOM     49  C   UNL A   1      41.000  30.316  34.461  1.00  0.00     0.074 A 
ATOM     50  C   UNL A   1      43.968  26.484  30.389  1.00  0.00     0.029 A 
ATOM     51  N   UNL A   1      42.555  27.899  31.362  1.00  0.00    -0.354 N 
ATOM     52  N   UNL A   1      41.541  29.532  33.566  1.00  0.00    -0.248 NA
ATOM     53  C   UNL A   1      41.568  30.183  35.808  1.00  0.00     0.031 C 
ATOM     54  C   UNL A   1      44.335  26.626  31.733  1.00  0.00     0.029 A 
ATOM     55  C   UNL A   1      43.463  27.518  32.336  1.00  0.00     0.049 A 
ATOM     56  H   UNL A   1      41.815  28.534  31.498  1.00  0.00     0.167 HD
ATOM     57  C   UNL A   1      42.565  28.865  34.216  1.00  0.00     0.074 A 
ATOM     58  C   UNL A   1      42.549  29.317  35.593  1.00  0.00     0.031 C 
ATOM     59  C   UNL A   1      43.453  27.981  33.701  1.00  0.00     0.037 A 
BRANCH  46  60
ATOM     60  C   UNL A   1      42.494  26.662  27.730  1.00  0.00     0.064 A 
ATOM     61  C   UNL A   1      42.063  25.354  27.462  1.00  0.00     0.173 A 
ATOM     62  C   UNL A   1      43.400  27.257  26.842  1.00  0.00     0.173 A 
ATOM     63  F   UNL A   1      41.227  24.732  28.308  1.00  0.00    -0.203 F 
ATOM     64  C   UNL A   1      42.553  24.656  26.362  1.00  0.00     0.198 A 
ATOM     65  C   UNL A   1      43.868  26.565  25.730  1.00  0.00     0.198 A 
ATOM     66  F   UNL A   1      43.851  28.500  27.069  1.00  0.00    -0.203 F 
ATOM     67  F   UNL A   1      42.183  23.384  26.159  1.00  0.00    -0.200 F 
ATOM     68  C   UNL A   1      43.452  25.262  25.497  1.00  0.00     0.200 A 
ATOM     69  F   UNL A   1      44.741  27.150  24.900  1.00  0.00    -0.200 F 
ATOM     70  F   UNL A   1      43.937  24.583  24.449  1.00  0.00    -0.200 F 
ENDBRANCH  46  60
BRANCH  47  71
ATOM     71  C   UNL A   1      39.428  32.154  35.413  1.00  0.00     0.064 A 
ATOM     72  C   UNL A   1      39.928  33.435  35.677  1.00  0.00     0.173 A 
ATOM     73  C   UNL A   1      38.476  31.629  36.302  1.00  0.00     0.173 A 
ATOM     74  F   UNL A   1      40.854  33.970  34.868  1.00  0.00    -0.203 F 
ATOM     75  C   UNL A   1      39.518  34.150  36.802  1.00  0.00     0.198 A 
ATOM     76  C   UNL A   1      38.054  32.351  37.417  1.00  0.00     0.198 A 
ATOM     77  F   UNL A   1      37.972  30.402  36.099  1.00  0.00    -0.203 F 
ATOM     78  F   UNL A   1      40.051  35.352  37.060  1.00  0.00    -0.200 F 
ATOM     79  C   UNL A   1      38.582  33.607  37.672  1.00  0.00     0.200 A 
ATOM     80  F   UNL A   1      37.153  31.821  38.255  1.00  0.00    -0.200 F 
ATOM     81  F   UNL A   1      38.206  34.286  38.764  1.00  0.00    -0.200 F 
ENDBRANCH  47  71
BRANCH  59  82
ATOM     82  C   UNL A   1      44.528  27.486  34.617  1.00  0.00     0.064 A 
ATOM     83  C   UNL A   1      45.727  28.187  34.794  1.00  0.00     0.173 A 
ATOM     84  C   UNL A   1      44.335  26.307  35.354  1.00  0.00     0.173 A 
ATOM     85  F   UNL A   1      45.967  29.304  34.091  1.00  0.00    -0.203 F 
ATOM     86  C   UNL A   1      46.704  27.719  35.668  1.00  0.00     0.198 A 
ATOM     87  C   UNL A   1      45.301  25.859  36.249  1.00  0.00     0.198 A 
ATOM     88  F   UNL A   1      43.204  25.600  35.215  1.00  0.00    -0.203 F 
ATOM     89  F   UNL A   1      47.862  28.382  35.791  1.00  0.00    -0.200 F 
ATOM     90  C   UNL A   1      46.486  26.562  36.401  1.00  0.00     0.200 A 
ATOM     91  F   UNL A   1      45.084  24.746  36.964  1.00  0.00    -0.200 F 
ATOM     92  F   UNL A   1      47.423  26.120  37.252  1.00  0.00    -0.200 F 
ENDBRANCH  59  82
ENDBRANCH  33  34
ENDBRANCH  26  28
ENDBRANCH  25  26
ENDBRANCH  24  25
ENDBRANCH  23  24
ENDBRANCH   1  23
TORSDOF 17
ENDMDL
MODEL 2
REMARK VINA RESULT:     -11.5      1.601      3.848
REMARK SMILES CC(C)[C@H](NC(=O)CCNC(=O)c1ccoc1)C(=O)OCCOC(=O)c1ccc(-c2c3nc(c(-c4c(F)c(F)c(F)c(F)c4F)c4ccc([nH]4)c(-c4c(F)c(F)c(F)c(F)c4F)c4nc(c(-c5c(F)c(F)c(F)c(F)c5F)c5ccc2[nH]5)C=C4)C=C3)cc1
REMARK SMILES IDX 20 1 18 2 19 3 4 4 2 5 1 6 3 7 5 8 6 9 7 11 8 12 9 13 10 14
REMARK SMILES IDX 11 15 12 17 13 18 14 19 17 20 15 21 16 22 21 23 22 24 23 25
REMARK SMILES IDX 24 26 25 27 26 28 27 29 88 30 28 31 87 32 29 33 30 34 31 35
REMARK SMILES IDX 81 36 32 37 86 38 80 39 82 40 33 41 85 42 79 43 78 44 34 46
REMARK SMILES IDX 66 47 46 48 65 49 47 50 50 51 64 52 83 53 48 54 49 55 63 57
REMARK SMILES IDX 84 58 51 59 35 60 36 61 44 62 37 63 38 64 42 65 45 66 39 67
REMARK SMILES IDX 40 68 43 69 41 70 67 71 68 72 76 73 69 74 70 75 74 76 77 77
REMARK SMILES IDX 71 78 72 79 75 80 73 81 52 82 53 83 61 84 54 85 55 86 59 87
REMARK SMILES IDX 62 88 56 89 57 90 60 91 58 92
REMARK H PARENT 5 10 10 16 82 45 50 56
REMARK Flexibility Score: inf
ROOT
ATOM      1  O   UNL A   1      31.020  27.786  24.340  1.00  0.00    -0.461 OA
ENDROOT
BRANCH   1   2
ATOM      2  C   UNL A   1      31.222  26.775  23.441  1.00  0.00     0.329 C 
ATOM      3  O   UNL A   1      30.982  26.877  22.245  1.00  0.00    -0.250 OA
BRANCH   2   4
ATOM      4  C   UNL A   1      32.049  25.626  24.064  1.00  0.00     0.194 C 
BRANCH   4   5
ATOM      5  C   UNL A   1      32.464  25.730  25.547  1.00  0.00     0.017 C 
ATOM      6  C   UNL A   1      32.052  24.506  26.361  1.00  0.00     0.010 C 
ATOM      7  C   UNL A   1      33.943  26.052  25.758  1.00  0.00     0.010 C 
ENDBRANCH   4   5
BRANCH   4   8
ATOM      8  N   UNL A   1      33.192  25.153  23.278  1.00  0.00    -0.342 N 
ATOM      9  C   UNL A   1      33.491  23.876  22.922  1.00  0.00     0.222 C 
ATOM     10  H   UNL A   1      33.821  25.845  22.969  1.00  0.00     0.164 HD
ATOM     11  O   UNL A   1      34.613  23.604  22.503  1.00  0.00    -0.275 OA
BRANCH   9  12
ATOM     12  C   UNL A   1      32.376  22.866  22.946  1.00  0.00     0.121 C 
BRANCH  12  13
ATOM     13  C   UNL A   1      32.663  21.502  23.571  1.00  0.00     0.126 C 
BRANCH  13  14
ATOM     14  N   UNL A   1      33.250  21.288  24.925  1.00  0.00    -0.351 N 
ATOM     15  C   UNL A   1      34.287  21.545  25.799  1.00  0.00     0.254 C 
ATOM     16  H   UNL A   1      32.620  20.706  25.410  1.00  0.00     0.163 HD
ATOM     17  O   UNL A   1      33.994  21.307  26.975  1.00  0.00    -0.269 OA
BRANCH  15  18
ATOM     18  C   UNL A   1      35.660  21.958  25.515  1.00  0.00     0.077 A 
ATOM     19  C   UNL A   1      36.364  23.179  25.788  1.00  0.00     0.056 A 
ATOM     20  C   UNL A   1      36.698  21.054  25.346  1.00  0.00     0.208 A 
ATOM     21  C   UNL A   1      37.709  22.960  25.618  1.00  0.00     0.195 A 
ATOM     22  O   UNL A   1      37.918  21.656  25.345  1.00  0.00    -0.472 OA
ENDBRANCH  15  18
ENDBRANCH  13  14
ENDBRANCH  12  13
ENDBRANCH   9  12
ENDBRANCH   4   8
ENDBRANCH   2   4
ENDBRANCH   1   2
BRANCH   1  23
ATOM     23  C   UNL A   1      31.926  28.905  24.205  1.00  0.00     0.274 C 
BRANCH  23  24
ATOM     24  C   UNL A   1      31.839  29.798  25.446  1.00  0.00     0.275 C 
BRANCH  24  25
ATOM     25  O   UNL A   1      33.167  30.058  25.949  1.00  0.00    -0.458 OA
BRANCH  25  26
ATOM     26  C   UNL A   1      33.275  31.078  26.845  1.00  0.00     0.338 C 
ATOM     27  O   UNL A   1      32.456  31.953  27.050  1.00  0.00    -0.246 OA
BRANCH  26  28
ATOM     28  C   UNL A   1      34.562  30.962  27.588  1.00  0.00     0.060 A 
ATOM     29  C   UNL A   1      34.946  29.727  28.083  1.00  0.00     0.016 A 
ATOM     30  C   UNL A   1      35.395  32.043  27.844  1.00  0.00     0.016 A 
ATOM     31  C   UNL A   1      36.092  29.536  28.851  1.00  0.00     0.010 A 
ATOM     32  C   UNL A   1      36.617  31.838  28.526  1.00  0.00     0.010 A 
ATOM     33  C   UNL A   1      36.984  30.570  29.032  1.00  0.00    -0.014 A 
BRANCH  33  34
ATOM     34  C   UNL A   1      38.238  30.334  29.799  1.00  0.00     0.031 A 
ATOM     35  C   UNL A   1      39.222  29.359  29.244  1.00  0.00     0.074 A 
ATOM     36  C   UNL A   1      38.609  31.018  30.906  1.00  0.00     0.049 A 
ATOM     37  N   UNL A   1      40.240  28.786  29.824  1.00  0.00    -0.248 NA
ATOM     38  C   UNL A   1      39.075  29.054  27.813  1.00  0.00     0.031 C 
ATOM     39  C   UNL A   1      38.045  32.266  31.403  1.00  0.00     0.029 A 
ATOM     40  N   UNL A   1      39.549  30.711  31.866  1.00  0.00    -0.354 N 
ATOM     41  C   UNL A   1      40.863  28.055  28.829  1.00  0.00     0.074 A 
ATOM     42  C   UNL A   1      40.093  28.232  27.615  1.00  0.00     0.031 C 
ATOM     43  C   UNL A   1      38.471  32.506  32.651  1.00  0.00     0.029 A 
ATOM     44  C   UNL A   1      39.394  31.449  33.020  1.00  0.00     0.049 A 
ATOM     45  H   UNL A   1      40.255  30.037  31.740  1.00  0.00     0.167 HD
ATOM     46  C   UNL A   1      41.992  27.318  28.923  1.00  0.00     0.037 A 
ATOM     47  C   UNL A   1      39.911  31.279  34.251  1.00  0.00     0.037 A 
ATOM     48  C   UNL A   1      42.750  27.151  30.130  1.00  0.00     0.049 A 
ATOM     49  C   UNL A   1      40.961  30.228  34.437  1.00  0.00     0.074 A 
ATOM     50  C   UNL A   1      43.860  26.356  30.352  1.00  0.00     0.029 A 
ATOM     51  N   UNL A   1      42.475  27.796  31.329  1.00  0.00    -0.354 N 
ATOM     52  N   UNL A   1      41.489  29.437  33.538  1.00  0.00    -0.248 NA
ATOM     53  C   UNL A   1      41.521  30.074  35.785  1.00  0.00     0.031 C 
ATOM     54  C   UNL A   1      44.224  26.481  31.698  1.00  0.00     0.029 A 
ATOM     55  C   UNL A   1      43.370  27.389  32.304  1.00  0.00     0.049 A 
ATOM     56  H   UNL A   1      41.748  28.447  31.465  1.00  0.00     0.167 HD
ATOM     57  C   UNL A   1      42.495  28.744  34.188  1.00  0.00     0.074 A 
ATOM     58  C   UNL A   1      42.483  29.187  35.568  1.00  0.00     0.031 C 
ATOM     59  C   UNL A   1      43.365  27.844  33.671  1.00  0.00     0.037 A 
BRANCH  46  60
ATOM     60  C   UNL A   1      42.400  26.583  27.688  1.00  0.00     0.064 A 
ATOM     61  C   UNL A   1      41.935  25.290  27.407  1.00  0.00     0.173 A 
ATOM     62  C   UNL A   1      43.329  27.160  26.812  1.00  0.00     0.173 A 
ATOM     63  F   UNL A   1      41.076  24.685  28.241  1.00  0.00    -0.203 F 
ATOM     64  C   UNL A   1      42.413  24.588  26.304  1.00  0.00     0.198 A 
ATOM     65  C   UNL A   1      43.786  26.465  25.698  1.00  0.00     0.198 A 
ATOM     66  F   UNL A   1      43.813  28.388  27.053  1.00  0.00    -0.203 F 
ATOM     67  F   UNL A   1      42.009  23.328  26.089  1.00  0.00    -0.200 F 
ATOM     68  C   UNL A   1      43.336  25.175  25.451  1.00  0.00     0.200 A 
ATOM     69  F   UNL A   1      44.681  27.031  24.878  1.00  0.00    -0.200 F 
ATOM     70  F   UNL A   1      43.809  24.492  24.401  1.00  0.00    -0.200 F 
ENDBRANCH  46  60
BRANCH  47  71
ATOM     71  C   UNL A   1      39.428  32.095  35.394  1.00  0.00     0.064 A 
ATOM     72  C   UNL A   1      39.937  33.372  35.654  1.00  0.00     0.173 A 
ATOM     73  C   UNL A   1      38.478  31.576  36.290  1.00  0.00     0.173 A 
ATOM     74  F   UNL A   1      40.862  33.900  34.839  1.00  0.00    -0.203 F 
ATOM     75  C   UNL A   1      39.540  34.090  36.782  1.00  0.00     0.198 A 
ATOM     76  C   UNL A   1      38.068  32.302  37.408  1.00  0.00     0.198 A 
ATOM     77  F   UNL A   1      37.963  30.353  36.091  1.00  0.00    -0.203 F 
ATOM     78  F   UNL A   1      40.084  35.288  37.036  1.00  0.00    -0.200 F 
ATOM     79  C   UNL A   1      38.607  33.554  37.659  1.00  0.00     0.200 A 
ATOM     80  F   UNL A   1      37.169  31.778  38.252  1.00  0.00    -0.200 F 
ATOM     81  F   UNL A   1      38.244  34.236  38.753  1.00  0.00    -0.200 F 
ENDBRANCH  47  71
BRANCH  59  82
ATOM     82  C   UNL A   1      44.425  27.318  34.588  1.00  0.00     0.064 A 
ATOM     83  C   UNL A   1      45.626  28.008  34.799  1.00  0.00     0.173 A 
ATOM     84  C   UNL A   1      44.215  26.123  35.292  1.00  0.00     0.173 A 
ATOM     85  F   UNL A   1      45.881  29.142  34.128  1.00  0.00    -0.203 F 
ATOM     86  C   UNL A   1      46.587  27.512  35.673  1.00  0.00     0.198 A 
ATOM     87  C   UNL A   1      45.167  25.646  36.187  1.00  0.00     0.198 A 
ATOM     88  F   UNL A   1      43.082  25.426  35.120  1.00  0.00    -0.203 F 
ATOM     89  F   UNL A   1      47.748  28.165  35.829  1.00  0.00    -0.200 F 
ATOM     90  C   UNL A   1      46.354  26.337  36.374  1.00  0.00     0.200 A 
ATOM     91  F   UNL A   1      44.934  24.516  36.871  1.00  0.00    -0.200 F 
ATOM     92  F   UNL A   1      47.276  25.869  37.225  1.00  0.00    -0.200 F 
ENDBRANCH  59  82
ENDBRANCH  33  34
ENDBRANCH  26  28
ENDBRANCH  25  26
ENDBRANCH  24  25
ENDBRANCH  23  24
ENDBRANCH   1  23
TORSDOF 17
ENDMDL
MODEL 3
REMARK VINA RESULT:     -11.3      4.735     10.442
REMARK SMILES CC(C)[C@H](NC(=O)CCNC(=O)c1ccoc1)C(=O)OCCOC(=O)c1ccc(-c2c3nc(c(-c4c(F)c(F)c(F)c(F)c4F)c4ccc([nH]4)c(-c4c(F)c(F)c(F)c(F)c4F)c4nc(c(-c5c(F)c(F)c(F)c(F)c5F)c5ccc2[nH]5)C=C4)C=C3)cc1
REMARK SMILES IDX 20 1 18 2 19 3 4 4 2 5 1 6 3 7 5 8 6 9 7 11 8 12 9 13 10 14
REMARK SMILES IDX 11 15 12 17 13 18 14 19 17 20 15 21 16 22 21 23 22 24 23 25
REMARK SMILES IDX 24 26 25 27 26 28 27 29 88 30 28 31 87 32 29 33 30 34 31 35
REMARK SMILES IDX 81 36 32 37 86 38 80 39 82 40 33 41 85 42 79 43 78 44 34 46
REMARK SMILES IDX 66 47 46 48 65 49 47 50 50 51 64 52 83 53 48 54 49 55 63 57
REMARK SMILES IDX 84 58 51 59 35 60 36 61 44 62 37 63 38 64 42 65 45 66 39 67
REMARK SMILES IDX 40 68 43 69 41 70 67 71 68 72 76 73 69 74 70 75 74 76 77 77
REMARK SMILES IDX 71 78 72 79 75 80 73 81 52 82 53 83 61 84 54 85 55 86 59 87
REMARK SMILES IDX 62 88 56 89 57 90 60 91 58 92
REMARK H PARENT 5 10 10 16 82 45 50 56
REMARK Flexibility Score: inf
ROOT
ATOM      1  O   UNL A   1      35.218  23.612  24.265  1.00  0.00    -0.461 OA
ENDROOT
BRANCH   1   2
ATOM      2  C   UNL A   1      34.109  23.987  23.559  1.00  0.00     0.329 C 
ATOM      3  O   UNL A   1      34.009  23.866  22.345  1.00  0.00    -0.250 OA
BRANCH   2   4
ATOM      4  C   UNL A   1      32.922  24.297  24.500  1.00  0.00     0.194 C 
BRANCH   4   5
ATOM      5  C   UNL A   1      32.469  25.763  24.666  1.00  0.00     0.017 C 
ATOM      6  C   UNL A   1      33.553  26.762  24.267  1.00  0.00     0.010 C 
ATOM      7  C   UNL A   1      31.147  26.089  23.973  1.00  0.00     0.010 C 
ENDBRANCH   4   5
BRANCH   4   8
ATOM      8  N   UNL A   1      32.958  23.654  25.818  1.00  0.00    -0.342 N 
ATOM      9  C   UNL A   1      32.330  22.516  26.210  1.00  0.00     0.222 C 
ATOM     10  H   UNL A   1      33.506  24.103  26.502  1.00  0.00     0.164 HD
ATOM     11  O   UNL A   1      32.233  22.251  27.405  1.00  0.00    -0.275 OA
BRANCH   9  12
ATOM     12  C   UNL A   1      31.885  21.560  25.137  1.00  0.00     0.121 C 
BRANCH  12  13
ATOM     13  C   UNL A   1      32.480  20.152  25.145  1.00  0.00     0.126 C 
BRANCH  13  14
ATOM     14  N   UNL A   1      32.568  19.255  23.957  1.00  0.00    -0.351 N 
ATOM     15  C   UNL A   1      32.858  17.997  23.468  1.00  0.00     0.254 C 
ATOM     16  H   UNL A   1      32.305  19.799  23.180  1.00  0.00     0.163 HD
ATOM     17  O   UNL A   1      32.391  17.802  22.341  1.00  0.00    -0.269 OA
BRANCH  15  18
ATOM     18  C   UNL A   1      33.688  16.943  24.047  1.00  0.00     0.077 A 
ATOM     19  C   UNL A   1      35.025  16.961  24.569  1.00  0.00     0.056 A 
ATOM     20  C   UNL A   1      33.157  15.810  24.645  1.00  0.00     0.208 A 
ATOM     21  C   UNL A   1      35.235  15.808  25.285  1.00  0.00     0.195 A 
ATOM     22  O   UNL A   1      34.090  15.098  25.332  1.00  0.00    -0.472 OA
ENDBRANCH  15  18
ENDBRANCH  13  14
ENDBRANCH  12  13
ENDBRANCH   9  12
ENDBRANCH   4   8
ENDBRANCH   2   4
ENDBRANCH   1   2
BRANCH   1  23
ATOM     23  C   UNL A   1      35.521  22.199  24.210  1.00  0.00     0.274 C 
BRANCH  23  24
ATOM     24  C   UNL A   1      37.031  21.984  24.348  1.00  0.00     0.275 C 
BRANCH  24  25
ATOM     25  O   UNL A   1      37.415  22.117  25.732  1.00  0.00    -0.458 OA
BRANCH  25  26
ATOM     26  C   UNL A   1      38.661  21.669  26.051  1.00  0.00     0.338 C 
ATOM     27  O   UNL A   1      39.076  20.533  25.929  1.00  0.00    -0.246 OA
BRANCH  26  28
ATOM     28  C   UNL A   1      39.489  22.799  26.560  1.00  0.00     0.060 A 
ATOM     29  C   UNL A   1      39.236  24.081  26.100  1.00  0.00     0.016 A 
ATOM     30  C   UNL A   1      40.536  22.635  27.456  1.00  0.00     0.016 A 
ATOM     31  C   UNL A   1      40.003  25.186  26.461  1.00  0.00     0.010 A 
ATOM     32  C   UNL A   1      41.248  23.767  27.916  1.00  0.00     0.010 A 
ATOM     33  C   UNL A   1      40.979  25.066  27.426  1.00  0.00    -0.014 A 
BRANCH  33  34
ATOM     34  C   UNL A   1      41.746  26.269  27.850  1.00  0.00     0.031 A 
ATOM     35  C   UNL A   1      41.015  27.335  28.595  1.00  0.00     0.074 A 
ATOM     36  C   UNL A   1      43.084  26.423  27.712  1.00  0.00     0.049 A 
ATOM     37  N   UNL A   1      41.367  28.566  28.842  1.00  0.00    -0.248 NA
ATOM     38  C   UNL A   1      39.744  26.922  29.210  1.00  0.00     0.031 C 
ATOM     39  C   UNL A   1      44.063  25.391  27.404  1.00  0.00     0.029 A 
ATOM     40  N   UNL A   1      43.856  27.563  27.767  1.00  0.00    -0.354 N 
ATOM     41  C   UNL A   1      40.366  29.078  29.647  1.00  0.00     0.074 A 
ATOM     42  C   UNL A   1      39.377  28.035  29.825  1.00  0.00     0.031 C 
ATOM     43  C   UNL A   1      45.241  25.947  27.083  1.00  0.00     0.029 A 
ATOM     44  C   UNL A   1      45.110  27.386  27.224  1.00  0.00     0.049 A 
ATOM     45  H   UNL A   1      43.544  28.413  28.153  1.00  0.00     0.167 HD
ATOM     46  C   UNL A   1      40.295  30.307  30.204  1.00  0.00     0.037 A 
ATOM     47  C   UNL A   1      46.043  28.279  26.850  1.00  0.00     0.037 A 
ATOM     48  C   UNL A   1      41.282  31.334  30.025  1.00  0.00     0.049 A 
ATOM     49  C   UNL A   1      45.820  29.719  27.193  1.00  0.00     0.074 A 
ATOM     50  C   UNL A   1      41.262  32.641  30.475  1.00  0.00     0.029 A 
ATOM     51  N   UNL A   1      42.476  31.167  29.336  1.00  0.00    -0.354 N 
ATOM     52  N   UNL A   1      44.824  30.253  27.852  1.00  0.00    -0.248 NA
ATOM     53  C   UNL A   1      46.861  30.672  26.788  1.00  0.00     0.031 C 
ATOM     54  C   UNL A   1      42.420  33.279  30.014  1.00  0.00     0.029 A 
ATOM     55  C   UNL A   1      43.185  32.357  29.317  1.00  0.00     0.049 A 
ATOM     56  H   UNL A   1      42.776  30.325  28.921  1.00  0.00     0.167 HD
ATOM     57  C   UNL A   1      45.149  31.590  28.011  1.00  0.00     0.074 A 
ATOM     58  C   UNL A   1      46.423  31.791  27.351  1.00  0.00     0.031 C 
ATOM     59  C   UNL A   1      44.459  32.549  28.672  1.00  0.00     0.037 A 
BRANCH  46  60
ATOM     60  C   UNL A   1      39.057  30.603  30.984  1.00  0.00     0.064 A 
ATOM     61  C   UNL A   1      37.932  31.199  30.394  1.00  0.00     0.173 A 
ATOM     62  C   UNL A   1      39.027  30.351  32.363  1.00  0.00     0.173 A 
ATOM     63  F   UNL A   1      37.934  31.494  29.085  1.00  0.00    -0.203 F 
ATOM     64  C   UNL A   1      36.832  31.560  31.166  1.00  0.00     0.198 A 
ATOM     65  C   UNL A   1      37.916  30.691  33.127  1.00  0.00     0.198 A 
ATOM     66  F   UNL A   1      40.088  29.799  32.971  1.00  0.00    -0.203 F 
ATOM     67  F   UNL A   1      35.794  32.189  30.597  1.00  0.00    -0.200 F 
ATOM     68  C   UNL A   1      36.824  31.304  32.529  1.00  0.00     0.200 A 
ATOM     69  F   UNL A   1      37.913  30.449  34.444  1.00  0.00    -0.200 F 
ATOM     70  F   UNL A   1      35.773  31.669  33.275  1.00  0.00    -0.200 F 
ENDBRANCH  46  60
BRANCH  47  71
ATOM     71  C   UNL A   1      47.245  27.846  26.091  1.00  0.00     0.064 A 
ATOM     72  C   UNL A   1      47.228  27.720  24.697  1.00  0.00     0.173 A 
ATOM     73  C   UNL A   1      48.425  27.492  26.764  1.00  0.00     0.173 A 
ATOM     74  F   UNL A   1      46.117  28.027  24.012  1.00  0.00    -0.203 F 
ATOM     75  C   UNL A   1      48.334  27.227  24.005  1.00  0.00     0.198 A 
ATOM     76  C   UNL A   1      49.537  27.016  26.071  1.00  0.00     0.198 A 
ATOM     77  F   UNL A   1      48.492  27.587  28.101  1.00  0.00    -0.203 F 
ATOM     78  F   UNL A   1      48.273  27.066  22.677  1.00  0.00    -0.200 F 
ATOM     79  C   UNL A   1      49.487  26.874  24.693  1.00  0.00     0.200 A 
ATOM     80  F   UNL A   1      50.647  26.673  26.739  1.00  0.00    -0.200 F 
ATOM     81  F   UNL A   1      50.540  26.380  24.028  1.00  0.00    -0.200 F 
ENDBRANCH  47  71
BRANCH  59  82
ATOM     82  C   UNL A   1      45.097  33.899  28.772  1.00  0.00     0.064 A 
ATOM     83  C   UNL A   1      44.799  34.925  27.866  1.00  0.00     0.173 A 
ATOM     84  C   UNL A   1      45.995  34.177  29.815  1.00  0.00     0.173 A 
ATOM     85  F   UNL A   1      43.967  34.698  26.838  1.00  0.00    -0.203 F 
ATOM     86  C   UNL A   1      45.388  36.179  27.991  1.00  0.00     0.198 A 
ATOM     87  C   UNL A   1      46.559  35.441  29.953  1.00  0.00     0.198 A 
ATOM     88  F   UNL A   1      46.314  33.225  30.704  1.00  0.00    -0.203 F 
ATOM     89  F   UNL A   1      45.122  37.135  27.090  1.00  0.00    -0.200 F 
ATOM     90  C   UNL A   1      46.259  36.439  29.040  1.00  0.00     0.200 A 
ATOM     91  F   UNL A   1      47.392  35.692  30.973  1.00  0.00    -0.200 F 
ATOM     92  F   UNL A   1      46.814  37.652  29.166  1.00  0.00    -0.200 F 
ENDBRANCH  59  82
ENDBRANCH  33  34
ENDBRANCH  26  28
ENDBRANCH  25  26
ENDBRANCH  24  25
ENDBRANCH  23  24
ENDBRANCH   1  23
TORSDOF 17
ENDMDL
