MODEL 1
REMARK VINA RESULT:     -12.5      0.000      0.000
REMARK SMILES Cn1ccnc1[C@@H]1[C@@H](C(=O)OCCOC(=O)c2ccc(-c3c4nc(c(-c5c(F)c(F)c(F)c(F)c5F)c5ccc([nH]5)c(-c5c(F)c(F)c(F)c(F)c5F)c5nc(c(-c6c(F)c(F)c(F)c(F)c6F)c6ccc3[nH]6)C=C5)C=C4)cc2)CC(=O)N1CCc1ccccc1F
REMARK SMILES IDX 12 1 11 2 9 3 10 4 8 5 7 6 83 7 80 8 81 9 82 10 6 11 1 12
REMARK SMILES IDX 2 13 3 14 4 15 5 16 84 17 85 18 86 19 87 20 91 21 88 22
REMARK SMILES IDX 90 23 92 24 89 25 13 26 14 27 15 28 16 29 17 30 18 31 79 32
REMARK SMILES IDX 19 33 78 34 20 35 21 36 22 37 72 38 23 39 77 40 71 41 73 42
REMARK SMILES IDX 24 43 76 44 70 45 69 46 25 48 57 49 37 50 56 51 38 52 41 53
REMARK SMILES IDX 55 54 74 55 39 56 40 57 54 59 75 60 42 61 26 62 27 63 35 64
REMARK SMILES IDX 28 65 29 66 33 67 36 68 30 69 31 70 34 71 32 72 58 73 59 74
REMARK SMILES IDX 67 75 60 76 61 77 65 78 68 79 62 80 63 81 66 82 64 83 43 84
REMARK SMILES IDX 44 85 52 86 45 87 46 88 50 89 53 90 47 91 48 92 51 93 49 94
REMARK H PARENT 73 47 41 58
REMARK Flexibility Score: inf
ROOT
ATOM      1  C   UNL A   1      31.405  29.190  24.729  1.00  0.00     0.274 C 
ENDROOT
BRANCH   1   2
ATOM      2  O   UNL A   1      31.618  27.940  25.417  1.00  0.00    -0.462 OA
BRANCH   2   3
ATOM      3  C   UNL A   1      32.685  27.215  25.001  1.00  0.00     0.312 C 
ATOM      4  O   UNL A   1      33.819  27.331  25.453  1.00  0.00    -0.252 OA
BRANCH   3   5
ATOM      5  C   UNL A   1      32.345  26.188  23.950  1.00  0.00     0.139 C 
ATOM      6  C   UNL A   1      32.962  24.851  24.297  1.00  0.00     0.166 C 
ATOM      7  N   UNL A   1      33.005  24.162  23.018  1.00  0.00    -0.331 N 
ATOM      8  C   UNL A   1      32.823  26.458  22.528  1.00  0.00     0.118 C 
ATOM      9  C   UNL A   1      32.995  25.068  21.966  1.00  0.00     0.224 C 
ATOM     10  O   UNL A   1      33.139  24.805  20.784  1.00  0.00    -0.275 OA
BRANCH   6  11
ATOM     11  C   UNL A   1      32.236  24.132  25.395  1.00  0.00     0.132 A 
ATOM     12  C   UNL A   1      34.167  23.280  26.822  1.00  0.00     0.151 C 
ATOM     13  N   UNL A   1      32.780  23.463  26.470  1.00  0.00    -0.336 N 
ATOM     14  C   UNL A   1      31.745  22.959  27.216  1.00  0.00     0.107 A 
ATOM     15  C   UNL A   1      30.606  23.302  26.537  1.00  0.00     0.131 A 
ATOM     16  N   UNL A   1      30.919  24.012  25.414  1.00  0.00    -0.239 NA
ENDBRANCH   6  11
BRANCH   7  17
ATOM     17  C   UNL A   1      33.388  22.762  22.841  1.00  0.00     0.125 C 
BRANCH  17  18
ATOM     18  C   UNL A   1      32.198  21.798  22.703  1.00  0.00     0.060 C 
BRANCH  18  19
ATOM     19  C   UNL A   1      32.441  20.459  23.354  1.00  0.00    -0.010 A 
ATOM     20  C   UNL A   1      32.706  20.361  24.727  1.00  0.00     0.007 A 
ATOM     21  C   UNL A   1      32.332  19.281  22.608  1.00  0.00     0.126 A 
ATOM     22  C   UNL A   1      32.790  19.107  25.339  1.00  0.00     0.000 A 
ATOM     23  C   UNL A   1      32.432  18.031  23.208  1.00  0.00     0.039 A 
ATOM     24  F   UNL A   1      32.090  19.347  21.289  1.00  0.00    -0.207 F 
ATOM     25  C   UNL A   1      32.644  17.944  24.583  1.00  0.00     0.003 A 
ENDBRANCH  18  19
ENDBRANCH  17  18
ENDBRANCH   7  17
ENDBRANCH   3   5
ENDBRANCH   2   3
ENDBRANCH   1   2
BRANCH   1  26
ATOM     26  C   UNL A   1      31.705  30.406  25.617  1.00  0.00     0.275 C 
BRANCH  26  27
ATOM     27  O   UNL A   1      33.076  30.451  26.060  1.00  0.00    -0.458 OA
BRANCH  27  28
ATOM     28  C   UNL A   1      33.345  31.393  26.993  1.00  0.00     0.338 C 
ATOM     29  O   UNL A   1      32.589  32.258  27.405  1.00  0.00    -0.246 OA
BRANCH  28  30
ATOM     30  C   UNL A   1      34.651  31.138  27.623  1.00  0.00     0.060 A 
ATOM     31  C   UNL A   1      34.915  29.825  28.016  1.00  0.00     0.016 A 
ATOM     32  C   UNL A   1      35.554  32.153  27.929  1.00  0.00     0.016 A 
ATOM     33  C   UNL A   1      36.066  29.505  28.717  1.00  0.00     0.010 A 
ATOM     34  C   UNL A   1      36.723  31.834  28.637  1.00  0.00     0.010 A 
ATOM     35  C   UNL A   1      36.979  30.509  29.040  1.00  0.00    -0.014 A 
BRANCH  35  36
ATOM     36  C   UNL A   1      38.159  30.148  29.854  1.00  0.00     0.031 A 
ATOM     37  C   UNL A   1      39.213  29.251  29.279  1.00  0.00     0.074 A 
ATOM     38  C   UNL A   1      38.321  30.695  31.073  1.00  0.00     0.049 A 
ATOM     39  N   UNL A   1      40.277  28.751  29.851  1.00  0.00    -0.248 NA
ATOM     40  C   UNL A   1      39.050  28.868  27.868  1.00  0.00     0.031 C 
ATOM     41  C   UNL A   1      37.405  31.651  31.696  1.00  0.00     0.029 A 
ATOM     42  N   UNL A   1      39.319  30.534  31.999  1.00  0.00    -0.354 N 
ATOM     43  C   UNL A   1      40.889  27.964  28.886  1.00  0.00     0.074 A 
ATOM     44  C   UNL A   1      40.081  28.056  27.688  1.00  0.00     0.031 C 
ATOM     45  C   UNL A   1      37.885  31.994  32.902  1.00  0.00     0.029 A 
ATOM     46  C   UNL A   1      39.108  31.239  33.158  1.00  0.00     0.049 A 
ATOM     47  H   UNL A   1      40.111  29.968  31.848  1.00  0.00     0.167 HD
ATOM     48  C   UNL A   1      42.020  27.229  28.998  1.00  0.00     0.037 A 
ATOM     49  C   UNL A   1      39.801  31.240  34.312  1.00  0.00     0.037 A 
ATOM     50  C   UNL A   1      42.832  27.172  30.184  1.00  0.00     0.049 A 
ATOM     51  C   UNL A   1      41.023  30.372  34.428  1.00  0.00     0.074 A 
ATOM     52  C   UNL A   1      44.001  26.463  30.398  1.00  0.00     0.029 A 
ATOM     53  N   UNL A   1      42.560  27.860  31.358  1.00  0.00    -0.354 N 
ATOM     54  N   UNL A   1      41.573  29.595  33.528  1.00  0.00    -0.248 NA
ATOM     55  C   UNL A   1      41.711  30.369  35.727  1.00  0.00     0.031 C 
ATOM     56  C   UNL A   1      44.416  26.694  31.715  1.00  0.00     0.029 A 
ATOM     57  C   UNL A   1      43.527  27.577  32.308  1.00  0.00     0.049 A 
ATOM     58  H   UNL A   1      41.792  28.460  31.497  1.00  0.00     0.167 HD
ATOM     59  C   UNL A   1      42.672  29.015  34.144  1.00  0.00     0.074 A 
ATOM     60  C   UNL A   1      42.725  29.548  35.490  1.00  0.00     0.031 C 
ATOM     61  C   UNL A   1      43.555  28.117  33.643  1.00  0.00     0.037 A 
BRANCH  48  62
ATOM     62  C   UNL A   1      42.416  26.389  27.821  1.00  0.00     0.064 A 
ATOM     63  C   UNL A   1      41.874  25.115  27.602  1.00  0.00     0.173 A 
ATOM     64  C   UNL A   1      43.341  26.882  26.888  1.00  0.00     0.173 A 
ATOM     65  F   UNL A   1      41.001  24.593  28.476  1.00  0.00    -0.203 F 
ATOM     66  C   UNL A   1      42.259  24.356  26.499  1.00  0.00     0.198 A 
ATOM     67  C   UNL A   1      43.706  26.130  25.775  1.00  0.00     0.198 A 
ATOM     68  F   UNL A   1      43.889  28.095  27.054  1.00  0.00    -0.203 F 
ATOM     69  F   UNL A   1      41.761  23.124  26.330  1.00  0.00    -0.200 F 
ATOM     70  C   UNL A   1      43.169  24.865  25.585  1.00  0.00     0.200 A 
ATOM     71  F   UNL A   1      44.581  26.627  24.889  1.00  0.00    -0.200 F 
ATOM     72  F   UNL A   1      43.537  24.134  24.523  1.00  0.00    -0.200 F 
ENDBRANCH  48  62
BRANCH  49  73
ATOM     73  C   UNL A   1      39.326  32.057  35.457  1.00  0.00     0.064 A 
ATOM     74  C   UNL A   1      39.683  33.405  35.585  1.00  0.00     0.173 A 
ATOM     75  C   UNL A   1      38.495  31.504  36.443  1.00  0.00     0.173 A 
ATOM     76  F   UNL A   1      40.496  33.970  34.681  1.00  0.00    -0.203 F 
ATOM     77  C   UNL A   1      39.232  34.168  36.661  1.00  0.00     0.198 A 
ATOM     78  C   UNL A   1      38.023  32.275  37.503  1.00  0.00     0.198 A 
ATOM     79  F   UNL A   1      38.127  30.217  36.368  1.00  0.00    -0.203 F 
ATOM     80  F   UNL A   1      39.616  35.446  36.779  1.00  0.00    -0.200 F 
ATOM     81  C   UNL A   1      38.396  33.605  37.614  1.00  0.00     0.200 A 
ATOM     82  F   UNL A   1      37.206  31.728  38.414  1.00  0.00    -0.200 F 
ATOM     83  F   UNL A   1      37.957  34.342  38.642  1.00  0.00    -0.200 F 
ENDBRANCH  49  73
BRANCH  61  84
ATOM     84  C   UNL A   1      44.658  27.668  34.553  1.00  0.00     0.064 A 
ATOM     85  C   UNL A   1      44.524  26.525  35.355  1.00  0.00     0.173 A 
ATOM     86  C   UNL A   1      45.874  28.367  34.597  1.00  0.00     0.173 A 
ATOM     87  F   UNL A   1      43.373  25.836  35.359  1.00  0.00    -0.203 F 
ATOM     88  C   UNL A   1      45.561  26.110  36.184  1.00  0.00     0.198 A 
ATOM     89  C   UNL A   1      46.917  27.933  35.409  1.00  0.00     0.198 A 
ATOM     90  F   UNL A   1      46.051  29.464  33.844  1.00  0.00    -0.203 F 
ATOM     91  F   UNL A   1      45.397  25.039  36.972  1.00  0.00    -0.200 F 
ATOM     92  C   UNL A   1      46.759  26.810  36.205  1.00  0.00     0.200 A 
ATOM     93  F   UNL A   1      48.077  28.605  35.423  1.00  0.00    -0.200 F 
ATOM     94  F   UNL A   1      47.757  26.404  37.001  1.00  0.00    -0.200 F 
ENDBRANCH  61  84
ENDBRANCH  35  36
ENDBRANCH  28  30
ENDBRANCH  27  28
ENDBRANCH  26  27
ENDBRANCH   1  26
TORSDOF 15
ENDMDL
MODEL 2
REMARK VINA RESULT:     -12.5      4.411      9.682
REMARK SMILES Cn1ccnc1[C@@H]1[C@@H](C(=O)OCCOC(=O)c2ccc(-c3c4nc(c(-c5c(F)c(F)c(F)c(F)c5F)c5ccc([nH]5)c(-c5c(F)c(F)c(F)c(F)c5F)c5nc(c(-c6c(F)c(F)c(F)c(F)c6F)c6ccc3[nH]6)C=C5)C=C4)cc2)CC(=O)N1CCc1ccccc1F
REMARK SMILES IDX 12 1 11 2 9 3 10 4 8 5 7 6 83 7 80 8 81 9 82 10 6 11 1 12
REMARK SMILES IDX 2 13 3 14 4 15 5 16 84 17 85 18 86 19 87 20 91 21 88 22
REMARK SMILES IDX 90 23 92 24 89 25 13 26 14 27 15 28 16 29 17 30 18 31 79 32
REMARK SMILES IDX 19 33 78 34 20 35 21 36 22 37 72 38 23 39 77 40 71 41 73 42
REMARK SMILES IDX 24 43 76 44 70 45 69 46 25 48 57 49 37 50 56 51 38 52 41 53
REMARK SMILES IDX 55 54 74 55 39 56 40 57 54 59 75 60 42 61 26 62 27 63 35 64
REMARK SMILES IDX 28 65 29 66 33 67 36 68 30 69 31 70 34 71 32 72 58 73 59 74
REMARK SMILES IDX 67 75 60 76 61 77 65 78 68 79 62 80 63 81 66 82 64 83 43 84
REMARK SMILES IDX 44 85 52 86 45 87 46 88 50 89 53 90 47 91 48 92 51 93 49 94
REMARK H PARENT 73 47 41 58
REMARK Flexibility Score: inf
ROOT
ATOM      1  C   UNL A   1      35.232  20.883  25.324  1.00  0.00     0.274 C 
ENDROOT
BRANCH   1   2
ATOM      2  O   UNL A   1      34.642  22.019  24.658  1.00  0.00    -0.462 OA
BRANCH   2   3
ATOM      3  C   UNL A   1      34.219  23.019  25.470  1.00  0.00     0.312 C 
ATOM      4  O   UNL A   1      34.958  23.699  26.173  1.00  0.00    -0.252 OA
BRANCH   3   5
ATOM      5  C   UNL A   1      32.734  23.273  25.393  1.00  0.00     0.139 C 
ATOM      6  C   UNL A   1      32.459  24.742  25.157  1.00  0.00     0.166 C 
ATOM      7  N   UNL A   1      31.091  24.903  25.619  1.00  0.00    -0.331 N 
ATOM      8  C   UNL A   1      31.903  22.934  26.624  1.00  0.00     0.118 C 
ATOM      9  C   UNL A   1      30.754  23.907  26.527  1.00  0.00     0.224 C 
ATOM     10  O   UNL A   1      29.723  23.840  27.176  1.00  0.00    -0.275 OA
BRANCH   6  11
ATOM     11  C   UNL A   1      32.719  25.172  23.743  1.00  0.00     0.132 A 
ATOM     12  C   UNL A   1      33.792  27.457  24.086  1.00  0.00     0.151 C 
ATOM     13  N   UNL A   1      33.295  26.347  23.311  1.00  0.00    -0.336 N 
ATOM     14  C   UNL A   1      33.333  26.314  21.940  1.00  0.00     0.107 A 
ATOM     15  C   UNL A   1      32.734  25.134  21.588  1.00  0.00     0.131 A 
ATOM     16  N   UNL A   1      32.350  24.446  22.702  1.00  0.00    -0.239 NA
ENDBRANCH   6  11
BRANCH   7  17
ATOM     17  C   UNL A   1      30.301  26.124  25.468  1.00  0.00     0.125 C 
BRANCH  17  18
ATOM     18  C   UNL A   1      29.315  26.092  24.289  1.00  0.00     0.060 C 
BRANCH  18  19
ATOM     19  C   UNL A   1      29.163  27.427  23.605  1.00  0.00    -0.010 A 
ATOM     20  C   UNL A   1      30.265  28.073  23.029  1.00  0.00     0.007 A 
ATOM     21  C   UNL A   1      27.899  28.012  23.469  1.00  0.00     0.126 A 
ATOM     22  C   UNL A   1      30.085  29.239  22.280  1.00  0.00     0.000 A 
ATOM     23  C   UNL A   1      27.716  29.181  22.739  1.00  0.00     0.039 A 
ATOM     24  F   UNL A   1      26.828  27.420  24.021  1.00  0.00    -0.207 F 
ATOM     25  C   UNL A   1      28.812  29.788  22.127  1.00  0.00     0.003 A 
ENDBRANCH  18  19
ENDBRANCH  17  18
ENDBRANCH   7  17
ENDBRANCH   3   5
ENDBRANCH   2   3
ENDBRANCH   1   2
BRANCH   1  26
ATOM     26  C   UNL A   1      36.741  20.768  25.059  1.00  0.00     0.275 C 
BRANCH  26  27
ATOM     27  O   UNL A   1      37.496  21.847  25.643  1.00  0.00    -0.458 OA
BRANCH  27  28
ATOM     28  C   UNL A   1      38.735  21.512  26.071  1.00  0.00     0.338 C 
ATOM     29  O   UNL A   1      39.306  20.446  25.911  1.00  0.00    -0.246 OA
BRANCH  28  30
ATOM     30  C   UNL A   1      39.428  22.690  26.621  1.00  0.00     0.060 A 
ATOM     31  C   UNL A   1      39.037  23.936  26.130  1.00  0.00     0.016 A 
ATOM     32  C   UNL A   1      40.501  22.592  27.502  1.00  0.00     0.016 A 
ATOM     33  C   UNL A   1      39.703  25.093  26.500  1.00  0.00     0.010 A 
ATOM     34  C   UNL A   1      41.179  23.761  27.883  1.00  0.00     0.010 A 
ATOM     35  C   UNL A   1      40.786  25.014  27.376  1.00  0.00    -0.014 A 
BRANCH  35  36
ATOM     36  C   UNL A   1      41.523  26.257  27.692  1.00  0.00     0.031 A 
ATOM     37  C   UNL A   1      40.881  27.306  28.548  1.00  0.00     0.074 A 
ATOM     38  C   UNL A   1      42.797  26.400  27.279  1.00  0.00     0.049 A 
ATOM     39  N   UNL A   1      41.321  28.494  28.872  1.00  0.00    -0.248 NA
ATOM     40  C   UNL A   1      39.567  26.972  29.120  1.00  0.00     0.031 C 
ATOM     41  C   UNL A   1      43.552  25.405  26.518  1.00  0.00     0.029 A 
ATOM     42  N   UNL A   1      43.681  27.432  27.453  1.00  0.00    -0.354 N 
ATOM     43  C   UNL A   1      40.325  29.064  29.652  1.00  0.00     0.074 A 
ATOM     44  C   UNL A   1      39.258  28.091  29.757  1.00  0.00     0.031 C 
ATOM     45  C   UNL A   1      44.789  25.875  26.292  1.00  0.00     0.029 A 
ATOM     46  C   UNL A   1      44.892  27.223  26.840  1.00  0.00     0.049 A 
ATOM     47  H   UNL A   1      43.470  28.245  27.968  1.00  0.00     0.167 HD
ATOM     48  C   UNL A   1      40.307  30.292  30.220  1.00  0.00     0.037 A 
ATOM     49  C   UNL A   1      45.948  28.046  26.702  1.00  0.00     0.037 A 
ATOM     50  C   UNL A   1      41.387  31.238  30.135  1.00  0.00     0.049 A 
ATOM     51  C   UNL A   1      45.880  29.425  27.296  1.00  0.00     0.074 A 
ATOM     52  C   UNL A   1      41.471  32.507  30.681  1.00  0.00     0.029 A 
ATOM     53  N   UNL A   1      42.580  31.012  29.463  1.00  0.00    -0.354 N 
ATOM     54  N   UNL A   1      44.918  29.977  27.994  1.00  0.00    -0.248 NA
ATOM     55  C   UNL A   1      47.037  30.302  27.069  1.00  0.00     0.031 C 
ATOM     56  C   UNL A   1      42.701  33.063  30.308  1.00  0.00     0.029 A 
ATOM     57  C   UNL A   1      43.398  32.125  29.562  1.00  0.00     0.049 A 
ATOM     58  H   UNL A   1      42.810  30.183  28.984  1.00  0.00     0.167 HD
ATOM     59  C   UNL A   1      45.352  31.260  28.295  1.00  0.00     0.074 A 
ATOM     60  C   UNL A   1      46.676  31.397  27.723  1.00  0.00     0.031 C 
ATOM     61  C   UNL A   1      44.711  32.239  28.979  1.00  0.00     0.037 A 
BRANCH  48  62
ATOM     62  C   UNL A   1      39.057  30.700  30.942  1.00  0.00     0.064 A 
ATOM     63  C   UNL A   1      38.903  30.514  32.322  1.00  0.00     0.173 A 
ATOM     64  C   UNL A   1      38.007  31.306  30.236  1.00  0.00     0.173 A 
ATOM     65  F   UNL A   1      39.872  29.922  33.037  1.00  0.00    -0.203 F 
ATOM     66  C   UNL A   1      37.732  30.903  32.968  1.00  0.00     0.198 A 
ATOM     67  C   UNL A   1      36.847  31.715  30.890  1.00  0.00     0.198 A 
ATOM     68  F   UNL A   1      38.106  31.505  28.913  1.00  0.00    -0.203 F 
ATOM     69  F   UNL A   1      37.587  30.679  34.281  1.00  0.00    -0.200 F 
ATOM     70  C   UNL A   1      36.708  31.508  32.253  1.00  0.00     0.200 A 
ATOM     71  F   UNL A   1      35.862  32.304  30.197  1.00  0.00    -0.200 F 
ATOM     72  F   UNL A   1      35.582  31.883  32.877  1.00  0.00    -0.200 F 
ENDBRANCH  48  62
BRANCH  49  73
ATOM     73  C   UNL A   1      47.136  27.598  25.932  1.00  0.00     0.064 A 
ATOM     74  C   UNL A   1      47.173  27.695  24.536  1.00  0.00     0.173 A 
ATOM     75  C   UNL A   1      48.262  27.071  26.582  1.00  0.00     0.173 A 
ATOM     76  F   UNL A   1      46.111  28.168  23.869  1.00  0.00    -0.203 F 
ATOM     77  C   UNL A   1      48.291  27.275  23.817  1.00  0.00     0.198 A 
ATOM     78  C   UNL A   1      49.389  26.677  25.864  1.00  0.00     0.198 A 
ATOM     79  F   UNL A   1      48.274  26.954  27.918  1.00  0.00    -0.203 F 
ATOM     80  F   UNL A   1      48.289  27.346  22.479  1.00  0.00    -0.200 F 
ATOM     81  C   UNL A   1      49.401  26.774  24.481  1.00  0.00     0.200 A 
ATOM     82  F   UNL A   1      50.463  26.205  26.513  1.00  0.00    -0.200 F 
ATOM     83  F   UNL A   1      50.478  26.379  23.790  1.00  0.00    -0.200 F 
ENDBRANCH  49  73
BRANCH  61  84
ATOM     84  C   UNL A   1      45.440  33.536  29.154  1.00  0.00     0.064 A 
ATOM     85  C   UNL A   1      45.290  34.588  28.238  1.00  0.00     0.173 A 
ATOM     86  C   UNL A   1      46.270  33.741  30.266  1.00  0.00     0.173 A 
ATOM     87  F   UNL A   1      44.521  34.430  27.151  1.00  0.00    -0.203 F 
ATOM     88  C   UNL A   1      45.960  35.793  28.420  1.00  0.00     0.198 A 
ATOM     89  C   UNL A   1      46.919  34.958  30.457  1.00  0.00     0.198 A 
ATOM     90  F   UNL A   1      46.442  32.766  31.171  1.00  0.00    -0.203 F 
ATOM     91  F   UNL A   1      45.834  36.771  27.513  1.00  0.00    -0.200 F 
ATOM     92  C   UNL A   1      46.769  35.980  29.532  1.00  0.00     0.200 A 
ATOM     93  F   UNL A   1      47.694  35.140  31.536  1.00  0.00    -0.200 F 
ATOM     94  F   UNL A   1      47.410  37.143  29.707  1.00  0.00    -0.200 F 
ENDBRANCH  61  84
ENDBRANCH  35  36
ENDBRANCH  28  30
ENDBRANCH  27  28
ENDBRANCH  26  27
ENDBRANCH   1  26
TORSDOF 15
ENDMDL
MODEL 3
REMARK VINA RESULT:     -12.5      0.354      1.163
REMARK SMILES Cn1ccnc1[C@@H]1[C@@H](C(=O)OCCOC(=O)c2ccc(-c3c4nc(c(-c5c(F)c(F)c(F)c(F)c5F)c5ccc([nH]5)c(-c5c(F)c(F)c(F)c(F)c5F)c5nc(c(-c6c(F)c(F)c(F)c(F)c6F)c6ccc3[nH]6)C=C5)C=C4)cc2)CC(=O)N1CCc1ccccc1F
REMARK SMILES IDX 12 1 11 2 9 3 10 4 8 5 7 6 83 7 80 8 81 9 82 10 6 11 1 12
REMARK SMILES IDX 2 13 3 14 4 15 5 16 84 17 85 18 86 19 87 20 91 21 88 22
REMARK SMILES IDX 90 23 92 24 89 25 13 26 14 27 15 28 16 29 17 30 18 31 79 32
REMARK SMILES IDX 19 33 78 34 20 35 21 36 22 37 72 38 23 39 77 40 71 41 73 42
REMARK SMILES IDX 24 43 76 44 70 45 69 46 25 48 57 49 37 50 56 51 38 52 41 53
REMARK SMILES IDX 55 54 74 55 39 56 40 57 54 59 75 60 42 61 26 62 27 63 35 64
REMARK SMILES IDX 28 65 29 66 33 67 36 68 30 69 31 70 34 71 32 72 58 73 59 74
REMARK SMILES IDX 67 75 60 76 61 77 65 78 68 79 62 80 63 81 66 82 64 83 43 84
REMARK SMILES IDX 44 85 52 86 45 87 46 88 50 89 53 90 47 91 48 92 51 93 49 94
REMARK H PARENT 73 47 41 58
REMARK Flexibility Score: inf
ROOT
ATOM      1  C   UNL A   1      31.414  29.503  24.984  1.00  0.00     0.274 C 
ENDROOT
BRANCH   1   2
ATOM      2  O   UNL A   1      31.775  28.133  25.259  1.00  0.00    -0.462 OA
BRANCH   2   3
ATOM      3  C   UNL A   1      32.818  27.646  24.543  1.00  0.00     0.312 C 
ATOM      4  O   UNL A   1      33.985  27.988  24.701  1.00  0.00    -0.252 OA
BRANCH   3   5
ATOM      5  C   UNL A   1      32.425  26.582  23.550  1.00  0.00     0.139 C 
ATOM      6  C   UNL A   1      32.987  25.239  23.963  1.00  0.00     0.166 C 
ATOM      7  N   UNL A   1      32.989  24.483  22.722  1.00  0.00    -0.331 N 
ATOM      8  C   UNL A   1      32.902  26.756  22.113  1.00  0.00     0.118 C 
ATOM      9  C   UNL A   1      33.009  25.332  21.623  1.00  0.00     0.224 C 
ATOM     10  O   UNL A   1      33.131  25.002  20.456  1.00  0.00    -0.275 OA
BRANCH   6  11
ATOM     11  C   UNL A   1      32.239  24.611  25.102  1.00  0.00     0.132 A 
ATOM     12  C   UNL A   1      34.134  23.587  26.464  1.00  0.00     0.151 C 
ATOM     13  N   UNL A   1      32.759  23.905  26.165  1.00  0.00    -0.336 N 
ATOM     14  C   UNL A   1      31.711  23.518  26.962  1.00  0.00     0.107 A 
ATOM     15  C   UNL A   1      30.585  23.965  26.323  1.00  0.00     0.131 A 
ATOM     16  N   UNL A   1      30.919  24.625  25.177  1.00  0.00    -0.239 NA
ENDBRANCH   6  11
BRANCH   7  17
ATOM     17  C   UNL A   1      33.309  23.060  22.616  1.00  0.00     0.125 C 
BRANCH  17  18
ATOM     18  C   UNL A   1      32.080  22.136  22.640  1.00  0.00     0.060 C 
BRANCH  18  19
ATOM     19  C   UNL A   1      32.355  20.800  23.283  1.00  0.00    -0.010 A 
ATOM     20  C   UNL A   1      32.605  20.698  24.658  1.00  0.00     0.007 A 
ATOM     21  C   UNL A   1      32.289  19.625  22.526  1.00  0.00     0.126 A 
ATOM     22  C   UNL A   1      32.719  19.443  25.262  1.00  0.00     0.000 A 
ATOM     23  C   UNL A   1      32.419  18.373  23.119  1.00  0.00     0.039 A 
ATOM     24  F   UNL A   1      32.062  19.695  21.206  1.00  0.00    -0.207 F 
ATOM     25  C   UNL A   1      32.617  18.282  24.495  1.00  0.00     0.003 A 
ENDBRANCH  18  19
ENDBRANCH  17  18
ENDBRANCH   7  17
ENDBRANCH   3   5
ENDBRANCH   2   3
ENDBRANCH   1   2
BRANCH   1  26
ATOM     26  C   UNL A   1      31.768  30.446  26.143  1.00  0.00     0.275 C 
BRANCH  26  27
ATOM     27  O   UNL A   1      33.190  30.605  26.321  1.00  0.00    -0.458 OA
BRANCH  27  28
ATOM     28  C   UNL A   1      33.553  31.586  27.178  1.00  0.00     0.338 C 
ATOM     29  O   UNL A   1      32.872  32.528  27.550  1.00  0.00    -0.246 OA
BRANCH  28  30
ATOM     30  C   UNL A   1      34.858  31.281  27.790  1.00  0.00     0.060 A 
ATOM     31  C   UNL A   1      35.028  29.994  28.300  1.00  0.00     0.016 A 
ATOM     32  C   UNL A   1      35.852  32.240  27.967  1.00  0.00     0.016 A 
ATOM     33  C   UNL A   1      36.176  29.644  28.993  1.00  0.00     0.010 A 
ATOM     34  C   UNL A   1      37.018  31.891  28.665  1.00  0.00     0.010 A 
ATOM     35  C   UNL A   1      37.180  30.593  29.187  1.00  0.00    -0.014 A 
BRANCH  35  36
ATOM     36  C   UNL A   1      38.358  30.212  29.996  1.00  0.00     0.031 A 
ATOM     37  C   UNL A   1      39.406  29.318  29.406  1.00  0.00     0.074 A 
ATOM     38  C   UNL A   1      38.523  30.738  31.224  1.00  0.00     0.049 A 
ATOM     39  N   UNL A   1      40.467  28.802  29.970  1.00  0.00    -0.248 NA
ATOM     40  C   UNL A   1      39.241  28.959  27.989  1.00  0.00     0.031 C 
ATOM     41  C   UNL A   1      37.613  31.688  31.862  1.00  0.00     0.029 A 
ATOM     42  N   UNL A   1      39.520  30.555  32.147  1.00  0.00    -0.354 N 
ATOM     43  C   UNL A   1      41.074  28.028  28.992  1.00  0.00     0.074 A 
ATOM     44  C   UNL A   1      40.267  28.143  27.795  1.00  0.00     0.031 C 
ATOM     45  C   UNL A   1      38.095  32.009  33.074  1.00  0.00     0.029 A 
ATOM     46  C   UNL A   1      39.312  31.242  33.317  1.00  0.00     0.049 A 
ATOM     47  H   UNL A   1      40.308  29.987  31.986  1.00  0.00     0.167 HD
ATOM     48  C   UNL A   1      42.201  27.284  29.092  1.00  0.00     0.037 A 
ATOM     49  C   UNL A   1      40.006  31.221  34.471  1.00  0.00     0.037 A 
ATOM     50  C   UNL A   1      43.012  27.202  30.276  1.00  0.00     0.049 A 
ATOM     51  C   UNL A   1      41.222  30.343  34.573  1.00  0.00     0.074 A 
ATOM     52  C   UNL A   1      44.177  26.483  30.479  1.00  0.00     0.029 A 
ATOM     53  N   UNL A   1      42.744  27.872  31.462  1.00  0.00    -0.354 N 
ATOM     54  N   UNL A   1      41.767  29.577  33.660  1.00  0.00    -0.248 NA
ATOM     55  C   UNL A   1      41.910  30.314  35.871  1.00  0.00     0.031 C 
ATOM     56  C   UNL A   1      44.593  26.689  31.800  1.00  0.00     0.029 A 
ATOM     57  C   UNL A   1      43.710  27.568  32.408  1.00  0.00     0.049 A 
ATOM     58  H   UNL A   1      41.980  28.474  31.610  1.00  0.00     0.167 HD
ATOM     59  C   UNL A   1      42.863  28.981  34.267  1.00  0.00     0.074 A 
ATOM     60  C   UNL A   1      42.919  29.491  35.621  1.00  0.00     0.031 C 
ATOM     61  C   UNL A   1      43.741  28.085  33.751  1.00  0.00     0.037 A 
BRANCH  48  62
ATOM     62  C   UNL A   1      42.592  26.460  27.901  1.00  0.00     0.064 A 
ATOM     63  C   UNL A   1      42.094  25.166  27.697  1.00  0.00     0.173 A 
ATOM     64  C   UNL A   1      43.466  26.990  26.940  1.00  0.00     0.173 A 
ATOM     65  F   UNL A   1      41.271  24.610  28.598  1.00  0.00    -0.203 F 
ATOM     66  C   UNL A   1      42.474  24.424  26.582  1.00  0.00     0.198 A 
ATOM     67  C   UNL A   1      43.824  26.253  25.814  1.00  0.00     0.198 A 
ATOM     68  F   UNL A   1      43.970  28.224  27.090  1.00  0.00    -0.203 F 
ATOM     69  F   UNL A   1      42.019  23.173  26.426  1.00  0.00    -0.200 F 
ATOM     70  C   UNL A   1      43.333  24.969  25.639  1.00  0.00     0.200 A 
ATOM     71  F   UNL A   1      44.651  26.786  24.902  1.00  0.00    -0.200 F 
ATOM     72  F   UNL A   1      43.695  24.253  24.565  1.00  0.00    -0.200 F 
ENDBRANCH  48  62
BRANCH  49  73
ATOM     73  C   UNL A   1      39.535  32.021  35.629  1.00  0.00     0.064 A 
ATOM     74  C   UNL A   1      40.026  33.311  35.867  1.00  0.00     0.173 A 
ATOM     75  C   UNL A   1      38.576  31.512  36.517  1.00  0.00     0.173 A 
ATOM     76  F   UNL A   1      40.962  33.830  35.061  1.00  0.00    -0.203 F 
ATOM     77  C   UNL A   1      39.579  34.059  36.955  1.00  0.00     0.198 A 
ATOM     78  C   UNL A   1      38.110  32.271  37.588  1.00  0.00     0.198 A 
ATOM     79  F   UNL A   1      38.077  30.280  36.335  1.00  0.00    -0.203 F 
ATOM     80  F   UNL A   1      40.089  35.277  37.181  1.00  0.00    -0.200 F 
ATOM     81  C   UNL A   1      38.616  33.543  37.809  1.00  0.00     0.200 A 
ATOM     82  F   UNL A   1      37.171  31.771  38.403  1.00  0.00    -0.200 F 
ATOM     83  F   UNL A   1      38.181  34.267  38.849  1.00  0.00    -0.200 F 
ENDBRANCH  49  73
BRANCH  61  84
ATOM     84  C   UNL A   1      44.841  27.615  34.654  1.00  0.00     0.064 A 
ATOM     85  C   UNL A   1      46.052  28.315  34.755  1.00  0.00     0.173 A 
ATOM     86  C   UNL A   1      44.668  26.474  35.451  1.00  0.00     0.173 A 
ATOM     87  F   UNL A   1      46.268  29.401  33.999  1.00  0.00    -0.203 F 
ATOM     88  C   UNL A   1      47.059  27.877  35.609  1.00  0.00     0.198 A 
ATOM     89  C   UNL A   1      45.669  26.053  36.322  1.00  0.00     0.198 A 
ATOM     90  F   UNL A   1      43.525  25.774  35.392  1.00  0.00    -0.203 F 
ATOM     91  F   UNL A   1      48.224  28.537  35.661  1.00  0.00    -0.200 F 
ATOM     92  C   UNL A   1      46.864  26.751  36.396  1.00  0.00     0.200 A 
ATOM     93  F   UNL A   1      45.477  24.970  37.088  1.00  0.00    -0.200 F 
ATOM     94  F   UNL A   1      47.835  26.334  37.221  1.00  0.00    -0.200 F 
ENDBRANCH  61  84
ENDBRANCH  35  36
ENDBRANCH  28  30
ENDBRANCH  27  28
ENDBRANCH  26  27
ENDBRANCH   1  26
TORSDOF 15
ENDMDL
