MODEL 1
REMARK VINA RESULT:     -12.5      0.000      0.000
REMARK SMILES Cc1c(Cl)cccc1NC(=O)C[C@](C)(C(=O)OCCOC(=O)c1ccc(-c2c3nc(c(-c4c(F)c(F)c(F)c(F)c4F)c4ccc([nH]4)c(-c4c(F)c(F)c(F)c(F)c4F)c4nc(c(-c5c(F)c(F)c(F)c(F)c5F)c5ccc2[nH]5)C=C4)C=C3)cc1)c1ccccc1
REMARK SMILES IDX 18 1 17 2 15 3 16 4 13 5 14 6 12 7 10 8 9 9 11 11 8 12 1 13
REMARK SMILES IDX 2 14 3 15 4 16 5 17 7 18 6 19 86 20 87 21 91 22 88 23 90 24
REMARK SMILES IDX 89 25 19 26 20 27 21 28 22 29 23 30 24 31 85 32 25 33 84 34
REMARK SMILES IDX 26 35 27 36 28 37 78 38 29 39 83 40 77 41 79 42 30 43 82 44
REMARK SMILES IDX 76 45 75 46 31 48 63 49 43 50 62 51 44 52 47 53 61 54 80 55
REMARK SMILES IDX 45 56 46 57 60 59 81 60 48 61 32 62 33 63 41 64 34 65 35 66
REMARK SMILES IDX 39 67 42 68 36 69 37 70 40 71 38 72 64 73 65 74 73 75 66 76
REMARK SMILES IDX 67 77 71 78 74 79 68 80 69 81 72 82 70 83 49 84 50 85 58 86
REMARK SMILES IDX 51 87 52 88 56 89 59 90 53 91 54 92 57 93 55 94
REMARK H PARENT 9 10 79 47 47 58
REMARK Flexibility Score: inf
ROOT
ATOM      1  C   UNL A   1      32.322  29.172  23.989  1.00  0.00     0.274 C 
ENDROOT
BRANCH   1   2
ATOM      2  O   UNL A   1      33.474  28.301  24.031  1.00  0.00    -0.461 OA
BRANCH   2   3
ATOM      3  C   UNL A   1      33.490  27.231  23.183  1.00  0.00     0.316 C 
ATOM      4  O   UNL A   1      33.786  27.345  22.000  1.00  0.00    -0.251 OA
BRANCH   3   5
ATOM      5  C   UNL A   1      33.008  25.901  23.864  1.00  0.00     0.099 C 
ATOM      6  C   UNL A   1      32.329  26.230  25.228  1.00  0.00     0.029 C 
BRANCH   5   7
ATOM      7  C   UNL A   1      31.973  25.159  22.965  1.00  0.00     0.123 C 
BRANCH   7   8
ATOM      8  C   UNL A   1      30.738  24.584  23.630  1.00  0.00     0.225 C 
ATOM      9  N   UNL A   1      30.703  23.428  24.345  1.00  0.00    -0.326 N 
ATOM     10  H   UNL A   1      29.812  23.253  24.728  1.00  0.00     0.169 HD
ATOM     11  O   UNL A   1      29.674  25.212  23.557  1.00  0.00    -0.275 OA
BRANCH   9  12
ATOM     12  C   UNL A   1      31.630  22.417  24.671  1.00  0.00     0.045 A 
ATOM     13  C   UNL A   1      31.842  23.361  27.064  1.00  0.00     0.048 C 
ATOM     14  C   UNL A   1      32.229  22.407  25.957  1.00  0.00    -0.009 A 
ATOM     15  C   UNL A   1      33.291  21.503  26.201  1.00  0.00     0.046 A 
ATOM     16  Cl  UNL A   1      34.161  21.496  27.700  1.00  0.00    -0.084 Cl
ATOM     17  C   UNL A   1      33.717  20.602  25.227  1.00  0.00     0.021 A 
ATOM     18  C   UNL A   1      32.002  21.428  23.756  1.00  0.00     0.026 A 
ATOM     19  C   UNL A   1      33.052  20.545  24.015  1.00  0.00     0.004 A 
ENDBRANCH   9  12
ENDBRANCH   7   8
ENDBRANCH   5   7
BRANCH   5  20
ATOM     20  C   UNL A   1      34.195  24.905  24.123  1.00  0.00    -0.030 A 
ATOM     21  C   UNL A   1      34.875  24.855  25.361  1.00  0.00     0.005 A 
ATOM     22  C   UNL A   1      34.611  23.980  23.145  1.00  0.00     0.005 A 
ATOM     23  C   UNL A   1      35.957  23.994  25.577  1.00  0.00     0.000 A 
ATOM     24  C   UNL A   1      35.701  23.125  23.356  1.00  0.00     0.000 A 
ATOM     25  C   UNL A   1      36.382  23.140  24.568  1.00  0.00     0.000 A 
ENDBRANCH   5  20
ENDBRANCH   3   5
ENDBRANCH   2   3
ENDBRANCH   1   2
BRANCH   1  26
ATOM     26  C   UNL A   1      32.124  29.867  25.337  1.00  0.00     0.275 C 
BRANCH  26  27
ATOM     27  O   UNL A   1      33.407  30.077  25.946  1.00  0.00    -0.458 OA
BRANCH  27  28
ATOM     28  C   UNL A   1      33.445  31.100  26.834  1.00  0.00     0.338 C 
ATOM     29  O   UNL A   1      32.553  31.870  27.120  1.00  0.00    -0.246 OA
BRANCH  28  30
ATOM     30  C   UNL A   1      34.676  30.936  27.627  1.00  0.00     0.060 A 
ATOM     31  C   UNL A   1      34.943  29.652  28.099  1.00  0.00     0.016 A 
ATOM     32  C   UNL A   1      35.575  31.977  27.854  1.00  0.00     0.016 A 
ATOM     33  C   UNL A   1      36.126  29.384  28.767  1.00  0.00     0.010 A 
ATOM     34  C   UNL A   1      36.756  31.714  28.556  1.00  0.00     0.010 A 
ATOM     35  C   UNL A   1      37.037  30.412  29.003  1.00  0.00    -0.014 A 
BRANCH  35  36
ATOM     36  C   UNL A   1      38.224  30.126  29.829  1.00  0.00     0.031 A 
ATOM     37  C   UNL A   1      39.299  29.259  29.257  1.00  0.00     0.074 A 
ATOM     38  C   UNL A   1      38.379  30.705  31.031  1.00  0.00     0.049 A 
ATOM     39  N   UNL A   1      40.363  28.766  29.832  1.00  0.00    -0.248 NA
ATOM     40  C   UNL A   1      39.165  28.922  27.830  1.00  0.00     0.031 C 
ATOM     41  C   UNL A   1      37.484  31.704  31.611  1.00  0.00     0.029 A 
ATOM     42  N   UNL A   1      39.359  30.538  31.976  1.00  0.00    -0.354 N 
ATOM     43  C   UNL A   1      41.017  28.045  28.843  1.00  0.00     0.074 A 
ATOM     44  C   UNL A   1      40.236  28.169  27.632  1.00  0.00     0.031 C 
ATOM     45  C   UNL A   1      37.950  32.052  32.823  1.00  0.00     0.029 A 
ATOM     46  C   UNL A   1      39.134  31.251  33.127  1.00  0.00     0.049 A 
ATOM     47  H   UNL A   1      40.147  29.962  31.842  1.00  0.00     0.167 HD
ATOM     48  C   UNL A   1      42.162  27.331  28.951  1.00  0.00     0.037 A 
ATOM     49  C   UNL A   1      39.788  31.212  34.304  1.00  0.00     0.037 A 
ATOM     50  C   UNL A   1      42.910  27.200  30.171  1.00  0.00     0.049 A 
ATOM     51  C   UNL A   1      40.948  30.260  34.456  1.00  0.00     0.074 A 
ATOM     52  C   UNL A   1      44.045  26.448  30.415  1.00  0.00     0.029 A 
ATOM     53  N   UNL A   1      42.586  27.835  31.362  1.00  0.00    -0.354 N 
ATOM     54  N   UNL A   1      41.530  29.508  33.553  1.00  0.00    -0.248 NA
ATOM     55  C   UNL A   1      41.523  30.127  35.803  1.00  0.00     0.031 C 
ATOM     56  C   UNL A   1      44.372  26.583  31.768  1.00  0.00     0.029 A 
ATOM     57  C   UNL A   1      43.476  27.465  32.355  1.00  0.00     0.049 A 
ATOM     58  H   UNL A   1      41.832  28.457  31.483  1.00  0.00     0.167 HD
ATOM     59  C   UNL A   1      42.549  28.832  34.211  1.00  0.00     0.074 A 
ATOM     60  C   UNL A   1      42.516  29.273  35.591  1.00  0.00     0.031 C 
ATOM     61  C   UNL A   1      43.429  27.924  33.721  1.00  0.00     0.037 A 
BRANCH  48  62
ATOM     62  C   UNL A   1      42.604  26.574  27.736  1.00  0.00     0.064 A 
ATOM     63  C   UNL A   1      42.136  25.282  27.452  1.00  0.00     0.173 A 
ATOM     64  C   UNL A   1      43.542  27.141  26.860  1.00  0.00     0.173 A 
ATOM     65  F   UNL A   1      41.259  24.686  28.273  1.00  0.00    -0.203 F 
ATOM     66  C   UNL A   1      42.620  24.573  26.354  1.00  0.00     0.198 A 
ATOM     67  C   UNL A   1      44.000  26.441  25.748  1.00  0.00     0.198 A 
ATOM     68  F   UNL A   1      44.024  28.372  27.089  1.00  0.00    -0.203 F 
ATOM     69  F   UNL A   1      42.210  23.316  26.138  1.00  0.00    -0.200 F 
ATOM     70  C   UNL A   1      43.548  25.154  25.503  1.00  0.00     0.200 A 
ATOM     71  F   UNL A   1      44.891  27.008  24.923  1.00  0.00    -0.200 F 
ATOM     72  F   UNL A   1      44.020  24.467  24.453  1.00  0.00    -0.200 F 
ENDBRANCH  48  62
BRANCH  49  73
ATOM     73  C   UNL A   1      39.329  32.040  35.450  1.00  0.00     0.064 A 
ATOM     74  C   UNL A   1      39.812  33.342  35.640  1.00  0.00     0.173 A 
ATOM     75  C   UNL A   1      38.432  31.536  36.405  1.00  0.00     0.173 A 
ATOM     76  F   UNL A   1      40.699  33.859  34.776  1.00  0.00    -0.203 F 
ATOM     77  C   UNL A   1      39.428  34.101  36.744  1.00  0.00     0.198 A 
ATOM     78  C   UNL A   1      38.023  32.306  37.491  1.00  0.00     0.198 A 
ATOM     79  F   UNL A   1      37.950  30.290  36.284  1.00  0.00    -0.203 F 
ATOM     80  F   UNL A   1      39.946  35.322  36.928  1.00  0.00    -0.200 F 
ATOM     81  C   UNL A   1      38.528  33.585  37.666  1.00  0.00     0.200 A 
ATOM     82  F   UNL A   1      37.150  31.805  38.375  1.00  0.00    -0.200 F 
ATOM     83  F   UNL A   1      38.161  34.314  38.728  1.00  0.00    -0.200 F 
ENDBRANCH  49  73
BRANCH  61  84
ATOM     84  C   UNL A   1      44.450  27.366  34.670  1.00  0.00     0.064 A 
ATOM     85  C   UNL A   1      45.656  28.031  34.928  1.00  0.00     0.173 A 
ATOM     86  C   UNL A   1      44.182  26.186  35.384  1.00  0.00     0.173 A 
ATOM     87  F   UNL A   1      45.966  29.152  34.259  1.00  0.00    -0.203 F 
ATOM     88  C   UNL A   1      46.564  27.531  35.858  1.00  0.00     0.198 A 
ATOM     89  C   UNL A   1      45.078  25.706  36.335  1.00  0.00     0.198 A 
ATOM     90  F   UNL A   1      43.039  25.516  35.178  1.00  0.00    -0.203 F 
ATOM     91  F   UNL A   1      47.727  28.164  36.065  1.00  0.00    -0.200 F 
ATOM     92  C   UNL A   1      46.269  26.377  36.569  1.00  0.00     0.200 A 
ATOM     93  F   UNL A   1      44.783  24.601  37.032  1.00  0.00    -0.200 F 
ATOM     94  F   UNL A   1      47.134  25.908  37.478  1.00  0.00    -0.200 F 
ENDBRANCH  61  84
ENDBRANCH  35  36
ENDBRANCH  28  30
ENDBRANCH  27  28
ENDBRANCH  26  27
ENDBRANCH   1  26
TORSDOF 15
ENDMDL
MODEL 2
REMARK VINA RESULT:     -12.4      4.419      9.599
REMARK SMILES Cc1c(Cl)cccc1NC(=O)C[C@](C)(C(=O)OCCOC(=O)c1ccc(-c2c3nc(c(-c4c(F)c(F)c(F)c(F)c4F)c4ccc([nH]4)c(-c4c(F)c(F)c(F)c(F)c4F)c4nc(c(-c5c(F)c(F)c(F)c(F)c5F)c5ccc2[nH]5)C=C4)C=C3)cc1)c1ccccc1
REMARK SMILES IDX 18 1 17 2 15 3 16 4 13 5 14 6 12 7 10 8 9 9 11 11 8 12 1 13
REMARK SMILES IDX 2 14 3 15 4 16 5 17 7 18 6 19 86 20 87 21 91 22 88 23 90 24
REMARK SMILES IDX 89 25 19 26 20 27 21 28 22 29 23 30 24 31 85 32 25 33 84 34
REMARK SMILES IDX 26 35 27 36 28 37 78 38 29 39 83 40 77 41 79 42 30 43 82 44
REMARK SMILES IDX 76 45 75 46 31 48 63 49 43 50 62 51 44 52 47 53 61 54 80 55
REMARK SMILES IDX 45 56 46 57 60 59 81 60 48 61 32 62 33 63 41 64 34 65 35 66
REMARK SMILES IDX 39 67 42 68 36 69 37 70 40 71 38 72 64 73 65 74 73 75 66 76
REMARK SMILES IDX 67 77 71 78 74 79 68 80 69 81 72 82 70 83 49 84 50 85 58 86
REMARK SMILES IDX 51 87 52 88 56 89 59 90 53 91 54 92 57 93 55 94
REMARK H PARENT 9 10 79 47 47 58
REMARK Flexibility Score: inf
ROOT
ATOM      1  C   UNL A   1      36.118  22.592  23.932  1.00  0.00     0.274 C 
ENDROOT
BRANCH   1   2
ATOM      2  O   UNL A   1      35.025  22.868  24.836  1.00  0.00    -0.461 OA
BRANCH   2   3
ATOM      3  C   UNL A   1      33.778  22.452  24.468  1.00  0.00     0.316 C 
ATOM      4  O   UNL A   1      33.578  21.342  23.991  1.00  0.00    -0.251 OA
BRANCH   3   5
ATOM      5  C   UNL A   1      32.686  23.568  24.635  1.00  0.00     0.099 C 
ATOM      6  C   UNL A   1      31.288  22.991  24.253  1.00  0.00     0.029 C 
BRANCH   5   7
ATOM      7  C   UNL A   1      32.624  24.071  26.110  1.00  0.00     0.123 C 
BRANCH   7   8
ATOM      8  C   UNL A   1      31.259  24.328  26.716  1.00  0.00     0.225 C 
ATOM      9  N   UNL A   1      30.555  25.485  26.593  1.00  0.00    -0.326 N 
ATOM     10  H   UNL A   1      29.673  25.432  27.028  1.00  0.00     0.169 HD
ATOM     11  O   UNL A   1      30.707  23.420  27.351  1.00  0.00    -0.275 OA
BRANCH   9  12
ATOM     12  C   UNL A   1      30.781  26.742  25.997  1.00  0.00     0.045 A 
ATOM     13  C   UNL A   1      29.316  26.067  23.981  1.00  0.00     0.048 C 
ATOM     14  C   UNL A   1      30.238  27.014  24.714  1.00  0.00    -0.009 A 
ATOM     15  C   UNL A   1      30.630  28.203  24.052  1.00  0.00     0.046 A 
ATOM     16  Cl  UNL A   1      30.112  28.566  22.439  1.00  0.00    -0.084 Cl
ATOM     17  C   UNL A   1      31.490  29.120  24.654  1.00  0.00     0.021 A 
ATOM     18  C   UNL A   1      31.548  27.731  26.618  1.00  0.00     0.026 A 
ATOM     19  C   UNL A   1      31.924  28.897  25.949  1.00  0.00     0.004 A 
ENDBRANCH   9  12
ENDBRANCH   7   8
ENDBRANCH   5   7
BRANCH   5  20
ATOM     20  C   UNL A   1      32.975  24.820  23.731  1.00  0.00    -0.030 A 
ATOM     21  C   UNL A   1      32.465  24.929  22.418  1.00  0.00     0.005 A 
ATOM     22  C   UNL A   1      33.722  25.917  24.204  1.00  0.00     0.005 A 
ATOM     23  C   UNL A   1      32.756  26.028  21.600  1.00  0.00     0.000 A 
ATOM     24  C   UNL A   1      34.023  27.011  23.383  1.00  0.00     0.000 A 
ATOM     25  C   UNL A   1      33.550  27.062  22.077  1.00  0.00     0.000 A 
ENDBRANCH   5  20
ENDBRANCH   3   5
ENDBRANCH   2   3
ENDBRANCH   1   2
BRANCH   1  26
ATOM     26  C   UNL A   1      37.048  21.529  24.522  1.00  0.00     0.275 C 
BRANCH  26  27
ATOM     27  O   UNL A   1      37.537  21.991  25.790  1.00  0.00    -0.458 OA
BRANCH  27  28
ATOM     28  C   UNL A   1      38.762  21.516  26.125  1.00  0.00     0.338 C 
ATOM     29  O   UNL A   1      39.216  20.413  25.907  1.00  0.00    -0.246 OA
BRANCH  28  30
ATOM     30  C   UNL A   1      39.573  22.674  26.541  1.00  0.00     0.060 A 
ATOM     31  C   UNL A   1      39.153  23.922  26.085  1.00  0.00     0.016 A 
ATOM     32  C   UNL A   1      40.670  22.562  27.394  1.00  0.00     0.016 A 
ATOM     33  C   UNL A   1      39.795  25.074  26.507  1.00  0.00     0.010 A 
ATOM     34  C   UNL A   1      41.339  23.722  27.797  1.00  0.00     0.010 A 
ATOM     35  C   UNL A   1      40.893  24.982  27.361  1.00  0.00    -0.014 A 
BRANCH  35  36
ATOM     36  C   UNL A   1      41.636  26.212  27.688  1.00  0.00     0.031 A 
ATOM     37  C   UNL A   1      40.961  27.253  28.522  1.00  0.00     0.074 A 
ATOM     38  C   UNL A   1      42.921  26.355  27.324  1.00  0.00     0.049 A 
ATOM     39  N   UNL A   1      41.358  28.459  28.828  1.00  0.00    -0.248 NA
ATOM     40  C   UNL A   1      39.668  26.868  29.112  1.00  0.00     0.031 C 
ATOM     41  C   UNL A   1      43.733  25.333  26.666  1.00  0.00     0.029 A 
ATOM     42  N   UNL A   1      43.771  27.421  27.469  1.00  0.00    -0.354 N 
ATOM     43  C   UNL A   1      40.356  28.986  29.630  1.00  0.00     0.074 A 
ATOM     44  C   UNL A   1      39.338  27.968  29.771  1.00  0.00     0.031 C 
ATOM     45  C   UNL A   1      44.963  25.829  26.450  1.00  0.00     0.029 A 
ATOM     46  C   UNL A   1      45.000  27.222  26.894  1.00  0.00     0.049 A 
ATOM     47  H   UNL A   1      43.522  28.250  27.940  1.00  0.00     0.167 HD
ATOM     48  C   UNL A   1      40.294  30.218  30.186  1.00  0.00     0.037 A 
ATOM     49  C   UNL A   1      46.014  28.089  26.707  1.00  0.00     0.037 A 
ATOM     50  C   UNL A   1      41.306  31.224  30.013  1.00  0.00     0.049 A 
ATOM     51  C   UNL A   1      45.840  29.515  27.167  1.00  0.00     0.074 A 
ATOM     52  C   UNL A   1      41.317  32.529  30.471  1.00  0.00     0.029 A 
ATOM     53  N   UNL A   1      42.490  31.034  29.315  1.00  0.00    -0.354 N 
ATOM     54  N   UNL A   1      44.862  30.052  27.857  1.00  0.00    -0.248 NA
ATOM     55  C   UNL A   1      46.897  30.466  26.793  1.00  0.00     0.031 C 
ATOM     56  C   UNL A   1      42.481  33.145  29.999  1.00  0.00     0.029 A 
ATOM     57  C   UNL A   1      43.224  32.207  29.296  1.00  0.00     0.049 A 
ATOM     58  H   UNL A   1      42.767  30.188  28.893  1.00  0.00     0.167 HD
ATOM     59  C   UNL A   1      45.193  31.391  28.019  1.00  0.00     0.074 A 
ATOM     60  C   UNL A   1      46.472  31.584  27.366  1.00  0.00     0.031 C 
ATOM     61  C   UNL A   1      44.501  32.374  28.647  1.00  0.00     0.037 A 
BRANCH  48  62
ATOM     62  C   UNL A   1      39.047  30.556  30.945  1.00  0.00     0.064 A 
ATOM     63  C   UNL A   1      37.906  31.071  30.312  1.00  0.00     0.173 A 
ATOM     64  C   UNL A   1      39.010  30.394  32.338  1.00  0.00     0.173 A 
ATOM     65  F   UNL A   1      37.900  31.269  28.985  1.00  0.00    -0.203 F 
ATOM     66  C   UNL A   1      36.787  31.445  31.053  1.00  0.00     0.198 A 
ATOM     67  C   UNL A   1      37.878  30.741  33.071  1.00  0.00     0.198 A 
ATOM     68  F   UNL A   1      40.077  29.910  32.992  1.00  0.00    -0.203 F 
ATOM     69  F   UNL A   1      35.732  31.997  30.437  1.00  0.00    -0.200 F 
ATOM     70  C   UNL A   1      36.773  31.277  32.429  1.00  0.00     0.200 A 
ATOM     71  F   UNL A   1      37.866  30.571  34.400  1.00  0.00    -0.200 F 
ATOM     72  F   UNL A   1      35.699  31.647  33.141  1.00  0.00    -0.200 F 
ENDBRANCH  48  62
BRANCH  49  73
ATOM     73  C   UNL A   1      47.250  27.665  25.998  1.00  0.00     0.064 A 
ATOM     74  C   UNL A   1      47.338  27.722  24.601  1.00  0.00     0.173 A 
ATOM     75  C   UNL A   1      48.355  27.153  26.697  1.00  0.00     0.173 A 
ATOM     76  F   UNL A   1      46.296  28.170  23.883  1.00  0.00    -0.203 F 
ATOM     77  C   UNL A   1      48.474  27.272  23.929  1.00  0.00     0.198 A 
ATOM     78  C   UNL A   1      49.502  26.733  26.028  1.00  0.00     0.198 A 
ATOM     79  F   UNL A   1      48.320  27.059  28.035  1.00  0.00    -0.203 F 
ATOM     80  F   UNL A   1      48.509  27.289  22.591  1.00  0.00    -0.200 F 
ATOM     81  C   UNL A   1      49.558  26.784  24.644  1.00  0.00     0.200 A 
ATOM     82  F   UNL A   1      50.549  26.267  26.724  1.00  0.00    -0.200 F 
ATOM     83  F   UNL A   1      50.648  26.349  23.999  1.00  0.00    -0.200 F 
ENDBRANCH  49  73
BRANCH  61  84
ATOM     84  C   UNL A   1      45.119  33.741  28.686  1.00  0.00     0.064 A 
ATOM     85  C   UNL A   1      46.039  34.104  29.680  1.00  0.00     0.173 A 
ATOM     86  C   UNL A   1      44.841  34.673  27.673  1.00  0.00     0.173 A 
ATOM     87  F   UNL A   1      46.325  33.255  30.678  1.00  0.00    -0.203 F 
ATOM     88  C   UNL A   1      46.650  35.355  29.665  1.00  0.00     0.198 A 
ATOM     89  C   UNL A   1      45.478  35.911  27.645  1.00  0.00     0.198 A 
ATOM     90  F   UNL A   1      43.973  34.372  26.696  1.00  0.00    -0.203 F 
ATOM     91  F   UNL A   1      47.500  35.695  30.644  1.00  0.00    -0.200 F 
ATOM     92  C   UNL A   1      46.379  36.252  28.642  1.00  0.00     0.200 A 
ATOM     93  F   UNL A   1      45.226  36.769  26.648  1.00  0.00    -0.200 F 
ATOM     94  F   UNL A   1      46.983  37.448  28.620  1.00  0.00    -0.200 F 
ENDBRANCH  61  84
ENDBRANCH  35  36
ENDBRANCH  28  30
ENDBRANCH  27  28
ENDBRANCH  26  27
ENDBRANCH   1  26
TORSDOF 15
ENDMDL
MODEL 3
REMARK VINA RESULT:     -12.3      0.915      1.997
REMARK SMILES Cc1c(Cl)cccc1NC(=O)C[C@](C)(C(=O)OCCOC(=O)c1ccc(-c2c3nc(c(-c4c(F)c(F)c(F)c(F)c4F)c4ccc([nH]4)c(-c4c(F)c(F)c(F)c(F)c4F)c4nc(c(-c5c(F)c(F)c(F)c(F)c5F)c5ccc2[nH]5)C=C4)C=C3)cc1)c1ccccc1
REMARK SMILES IDX 18 1 17 2 15 3 16 4 13 5 14 6 12 7 10 8 9 9 11 11 8 12 1 13
REMARK SMILES IDX 2 14 3 15 4 16 5 17 7 18 6 19 86 20 87 21 91 22 88 23 90 24
REMARK SMILES IDX 89 25 19 26 20 27 21 28 22 29 23 30 24 31 85 32 25 33 84 34
REMARK SMILES IDX 26 35 27 36 28 37 78 38 29 39 83 40 77 41 79 42 30 43 82 44
REMARK SMILES IDX 76 45 75 46 31 48 63 49 43 50 62 51 44 52 47 53 61 54 80 55
REMARK SMILES IDX 45 56 46 57 60 59 81 60 48 61 32 62 33 63 41 64 34 65 35 66
REMARK SMILES IDX 39 67 42 68 36 69 37 70 40 71 38 72 64 73 65 74 73 75 66 76
REMARK SMILES IDX 67 77 71 78 74 79 68 80 69 81 72 82 70 83 49 84 50 85 58 86
REMARK SMILES IDX 51 87 52 88 56 89 59 90 53 91 54 92 57 93 55 94
REMARK H PARENT 9 10 79 47 47 58
REMARK Flexibility Score: inf
ROOT
ATOM      1  C   UNL A   1      31.412  29.365  24.625  1.00  0.00     0.274 C 
ENDROOT
BRANCH   1   2
ATOM      2  O   UNL A   1      31.323  28.025  24.090  1.00  0.00    -0.461 OA
BRANCH   2   3
ATOM      3  C   UNL A   1      31.270  26.991  24.979  1.00  0.00     0.316 C 
ATOM      4  O   UNL A   1      30.932  27.153  26.145  1.00  0.00    -0.251 OA
BRANCH   3   5
ATOM      5  C   UNL A   1      31.770  25.632  24.369  1.00  0.00     0.099 C 
ATOM      6  C   UNL A   1      30.699  25.079  23.379  1.00  0.00     0.029 C 
BRANCH   5   7
ATOM      7  C   UNL A   1      33.105  25.830  23.589  1.00  0.00     0.123 C 
BRANCH   7   8
ATOM      8  C   UNL A   1      33.275  25.094  22.275  1.00  0.00     0.225 C 
ATOM      9  N   UNL A   1      33.396  23.745  22.145  1.00  0.00    -0.326 N 
ATOM     10  H   UNL A   1      33.456  23.466  21.203  1.00  0.00     0.169 HD
ATOM     11  O   UNL A   1      33.277  25.744  21.222  1.00  0.00    -0.275 OA
BRANCH   9  12
ATOM     12  C   UNL A   1      33.458  22.650  23.030  1.00  0.00     0.045 A 
ATOM     13  C   UNL A   1      35.867  23.302  23.691  1.00  0.00     0.048 C 
ATOM     14  C   UNL A   1      34.661  22.392  23.737  1.00  0.00    -0.009 A 
ATOM     15  C   UNL A   1      34.767  21.186  24.474  1.00  0.00     0.046 A 
ATOM     16  Cl  UNL A   1      36.234  20.728  25.273  1.00  0.00    -0.084 Cl
ATOM     17  C   UNL A   1      33.705  20.287  24.552  1.00  0.00     0.021 A 
ATOM     18  C   UNL A   1      32.376  21.787  23.220  1.00  0.00     0.026 A 
ATOM     19  C   UNL A   1      32.500  20.603  23.950  1.00  0.00     0.004 A 
ENDBRANCH   9  12
ENDBRANCH   7   8
ENDBRANCH   5   7
BRANCH   5  20
ATOM     20  C   UNL A   1      32.036  24.549  25.476  1.00  0.00    -0.030 A 
ATOM     21  C   UNL A   1      33.284  24.436  26.128  1.00  0.00     0.005 A 
ATOM     22  C   UNL A   1      31.026  23.666  25.904  1.00  0.00     0.005 A 
ATOM     23  C   UNL A   1      33.532  23.445  27.086  1.00  0.00     0.000 A 
ATOM     24  C   UNL A   1      31.275  22.667  26.854  1.00  0.00     0.000 A 
ATOM     25  C   UNL A   1      32.531  22.549  27.437  1.00  0.00     0.000 A 
ENDBRANCH   5  20
ENDBRANCH   3   5
ENDBRANCH   2   3
ENDBRANCH   1   2
BRANCH   1  26
ATOM     26  C   UNL A   1      32.856  29.696  25.005  1.00  0.00     0.275 C 
BRANCH  26  27
ATOM     27  O   UNL A   1      32.955  29.777  26.435  1.00  0.00    -0.458 OA
BRANCH  27  28
ATOM     28  C   UNL A   1      33.268  31.008  26.907  1.00  0.00     0.338 C 
ATOM     29  O   UNL A   1      32.569  31.999  26.922  1.00  0.00    -0.246 OA
BRANCH  28  30
ATOM     30  C   UNL A   1      34.514  30.868  27.682  1.00  0.00     0.060 A 
ATOM     31  C   UNL A   1      34.815  29.589  28.146  1.00  0.00     0.016 A 
ATOM     32  C   UNL A   1      35.393  31.928  27.900  1.00  0.00     0.016 A 
ATOM     33  C   UNL A   1      36.013  29.344  28.796  1.00  0.00     0.010 A 
ATOM     34  C   UNL A   1      36.589  31.689  28.583  1.00  0.00     0.010 A 
ATOM     35  C   UNL A   1      36.905  30.392  29.023  1.00  0.00    -0.014 A 
BRANCH  35  36
ATOM     36  C   UNL A   1      38.109  30.128  29.831  1.00  0.00     0.031 A 
ATOM     37  C   UNL A   1      39.185  29.270  29.248  1.00  0.00     0.074 A 
ATOM     38  C   UNL A   1      38.278  30.722  31.024  1.00  0.00     0.049 A 
ATOM     39  N   UNL A   1      40.265  28.796  29.810  1.00  0.00    -0.248 NA
ATOM     40  C   UNL A   1      39.031  28.917  27.828  1.00  0.00     0.031 C 
ATOM     41  C   UNL A   1      37.380  31.715  31.609  1.00  0.00     0.029 A 
ATOM     42  N   UNL A   1      39.275  30.576  31.954  1.00  0.00    -0.354 N 
ATOM     43  C   UNL A   1      40.911  28.073  28.817  1.00  0.00     0.074 A 
ATOM     44  C   UNL A   1      40.108  28.176  27.619  1.00  0.00     0.031 C 
ATOM     45  C   UNL A   1      37.862  32.081  32.810  1.00  0.00     0.029 A 
ATOM     46  C   UNL A   1      39.061  31.298  33.101  1.00  0.00     0.049 A 
ATOM     47  H   UNL A   1      40.068  30.009  31.811  1.00  0.00     0.167 HD
ATOM     48  C   UNL A   1      42.067  27.375  28.912  1.00  0.00     0.037 A 
ATOM     49  C   UNL A   1      39.735  31.279  34.267  1.00  0.00     0.037 A 
ATOM     50  C   UNL A   1      42.837  27.265  30.120  1.00  0.00     0.049 A 
ATOM     51  C   UNL A   1      40.910  30.344  34.409  1.00  0.00     0.074 A 
ATOM     52  C   UNL A   1      43.986  26.531  30.352  1.00  0.00     0.029 A 
ATOM     53  N   UNL A   1      42.526  27.908  31.311  1.00  0.00    -0.354 N 
ATOM     54  N   UNL A   1      41.487  29.589  33.503  1.00  0.00    -0.248 NA
ATOM     55  C   UNL A   1      41.510  30.231  35.746  1.00  0.00     0.031 C 
ATOM     56  C   UNL A   1      44.335  26.683  31.698  1.00  0.00     0.029 A 
ATOM     57  C   UNL A   1      43.438  27.559  32.291  1.00  0.00     0.049 A 
ATOM     58  H   UNL A   1      41.766  28.522  31.439  1.00  0.00     0.167 HD
ATOM     59  C   UNL A   1      42.525  28.933  34.150  1.00  0.00     0.074 A 
ATOM     60  C   UNL A   1      42.510  29.387  35.525  1.00  0.00     0.031 C 
ATOM     61  C   UNL A   1      43.408  28.032  33.653  1.00  0.00     0.037 A 
BRANCH  48  62
ATOM     62  C   UNL A   1      42.498  26.612  27.697  1.00  0.00     0.064 A 
ATOM     63  C   UNL A   1      42.034  25.315  27.428  1.00  0.00     0.173 A 
ATOM     64  C   UNL A   1      43.421  27.178  26.804  1.00  0.00     0.173 A 
ATOM     65  F   UNL A   1      41.170  24.720  28.265  1.00  0.00    -0.203 F 
ATOM     66  C   UNL A   1      42.508  24.601  26.330  1.00  0.00     0.198 A 
ATOM     67  C   UNL A   1      43.869  26.472  25.692  1.00  0.00     0.198 A 
ATOM     68  F   UNL A   1      43.899  28.413  27.019  1.00  0.00    -0.203 F 
ATOM     69  F   UNL A   1      42.103  23.339  26.128  1.00  0.00    -0.200 F 
ATOM     70  C   UNL A   1      43.421  25.181  25.462  1.00  0.00     0.200 A 
ATOM     71  F   UNL A   1      44.746  27.037  24.852  1.00  0.00    -0.200 F 
ATOM     72  F   UNL A   1      43.883  24.488  24.412  1.00  0.00    -0.200 F 
ENDBRANCH  48  62
BRANCH  49  73
ATOM     73  C   UNL A   1      39.286  32.113  35.413  1.00  0.00     0.064 A 
ATOM     74  C   UNL A   1      39.781  33.410  35.600  1.00  0.00     0.173 A 
ATOM     75  C   UNL A   1      38.385  31.618  36.369  1.00  0.00     0.173 A 
ATOM     76  F   UNL A   1      40.671  33.918  34.734  1.00  0.00    -0.203 F 
ATOM     77  C   UNL A   1      39.405  34.174  36.704  1.00  0.00     0.198 A 
ATOM     78  C   UNL A   1      37.986  32.393  37.455  1.00  0.00     0.198 A 
ATOM     79  F   UNL A   1      37.892  30.376  36.251  1.00  0.00    -0.203 F 
ATOM     80  F   UNL A   1      39.935  35.391  36.886  1.00  0.00    -0.200 F 
ATOM     81  C   UNL A   1      38.502  33.668  37.627  1.00  0.00     0.200 A 
ATOM     82  F   UNL A   1      37.109  31.900  38.342  1.00  0.00    -0.200 F 
ATOM     83  F   UNL A   1      38.143  34.401  38.689  1.00  0.00    -0.200 F 
ENDBRANCH  49  73
BRANCH  61  84
ATOM     84  C   UNL A   1      44.452  27.495  34.590  1.00  0.00     0.064 A 
ATOM     85  C   UNL A   1      44.246  26.319  35.325  1.00  0.00     0.173 A 
ATOM     86  C   UNL A   1      45.701  28.128  34.696  1.00  0.00     0.173 A 
ATOM     87  F   UNL A   1      43.064  25.687  35.271  1.00  0.00    -0.203 F 
ATOM     88  C   UNL A   1      45.248  25.802  36.141  1.00  0.00     0.198 A 
ATOM     89  C   UNL A   1      46.711  27.591  35.489  1.00  0.00     0.198 A 
ATOM     90  F   UNL A   1      45.950  29.253  34.008  1.00  0.00    -0.203 F 
ATOM     91  F   UNL A   1      45.019  24.696  36.861  1.00  0.00    -0.200 F 
ATOM     92  C   UNL A   1      46.483  26.431  36.212  1.00  0.00     0.200 A 
ATOM     93  F   UNL A   1      47.907  28.191  35.544  1.00  0.00    -0.200 F 
ATOM     94  F   UNL A   1      47.453  25.920  36.983  1.00  0.00    -0.200 F 
ENDBRANCH  61  84
ENDBRANCH  35  36
ENDBRANCH  28  30
ENDBRANCH  27  28
ENDBRANCH  26  27
ENDBRANCH   1  26
TORSDOF 15
ENDMDL
