MODEL 1
REMARK VINA RESULT:     -12.5      0.000      0.000
REMARK SMILES C[C@@H](Oc1ccc(-c2ccccc2)cc1)C(=O)N1CCC[C@H](C(=O)OCCOC(=O)c2ccc(-c3c4nc(c(-c5c(F)c(F)c(F)c(F)c5F)c5ccc([nH]5)c(-c5c(F)c(F)c(F)c(F)c5F)c5nc(c(-c6c(F)c(F)c(F)c(F)c6F)c6ccc3[nH]6)C=C5)C=C4)cc2)C1
REMARK SMILES IDX 25 1 23 2 24 3 22 4 18 5 19 6 94 7 20 8 21 9 16 10 17 11
REMARK SMILES IDX 2 12 1 13 3 14 4 15 5 16 15 17 6 18 14 19 7 20 8 21 9 22
REMARK SMILES IDX 13 23 10 24 12 25 11 26 26 27 27 28 28 29 29 30 30 31 31 32
REMARK SMILES IDX 32 33 93 34 33 35 92 36 34 37 35 38 36 39 86 40 37 41 91 42
REMARK SMILES IDX 85 43 87 44 38 45 90 46 84 47 83 48 39 50 71 51 51 52 70 53
REMARK SMILES IDX 52 54 55 55 69 56 88 57 53 58 54 59 68 61 89 62 56 63 40 64
REMARK SMILES IDX 41 65 49 66 42 67 43 68 47 69 50 70 44 71 45 72 48 73 46 74
REMARK SMILES IDX 72 75 73 76 81 77 74 78 75 79 79 80 82 81 76 82 77 83 80 84
REMARK SMILES IDX 78 85 57 86 58 87 66 88 59 89 60 90 64 91 67 92 61 93 62 94
REMARK SMILES IDX 65 95 63 96
REMARK H PARENT 87 49 55 60
REMARK Flexibility Score: inf
ROOT
ATOM      1  O   UNL A   1      32.360  30.674  25.894  1.00  0.00    -0.462 OA
ENDROOT
BRANCH   1   2
ATOM      2  C   UNL A   1      32.016  29.399  25.601  1.00  0.00     0.310 C 
ATOM      3  O   UNL A   1      31.363  29.060  24.618  1.00  0.00    -0.252 OA
BRANCH   2   4
ATOM      4  C   UNL A   1      32.491  28.396  26.643  1.00  0.00     0.119 C 
ATOM      5  N   UNL A   1      33.124  26.617  25.090  1.00  0.00    -0.339 N 
ATOM      6  C   UNL A   1      32.159  25.663  25.630  1.00  0.00     0.119 C 
ATOM      7  C   UNL A   1      33.638  27.576  26.063  1.00  0.00     0.134 C 
ATOM      8  C   UNL A   1      30.976  26.356  26.300  1.00  0.00     0.022 C 
ATOM      9  C   UNL A   1      31.407  27.489  27.236  1.00  0.00     0.019 C 
BRANCH   5  10
ATOM     10  C   UNL A   1      33.453  26.578  23.740  1.00  0.00     0.263 C 
ATOM     11  O   UNL A   1      33.969  27.552  23.181  1.00  0.00    -0.271 OA
BRANCH  10  12
ATOM     12  C   UNL A   1      33.153  25.309  22.911  1.00  0.00     0.259 C 
ATOM     13  C   UNL A   1      32.665  25.633  21.500  1.00  0.00     0.064 C 
BRANCH  12  14
ATOM     14  O   UNL A   1      34.337  24.503  22.895  1.00  0.00    -0.481 OA
BRANCH  14  15
ATOM     15  C   UNL A   1      34.163  23.276  23.460  1.00  0.00     0.120 A 
ATOM     16  C   UNL A   1      35.205  22.681  24.166  1.00  0.00     0.047 A 
ATOM     17  C   UNL A   1      33.001  22.570  23.181  1.00  0.00     0.047 A 
ATOM     18  C   UNL A   1      35.077  21.357  24.597  1.00  0.00     0.012 A 
ATOM     19  C   UNL A   1      32.875  21.253  23.618  1.00  0.00     0.012 A 
ATOM     20  C   UNL A   1      33.917  20.615  24.315  1.00  0.00    -0.018 A 
BRANCH  20  21
ATOM     21  C   UNL A   1      33.802  19.193  24.680  1.00  0.00    -0.018 A 
ATOM     22  C   UNL A   1      34.761  18.250  24.283  1.00  0.00     0.009 A 
ATOM     23  C   UNL A   1      32.715  18.744  25.454  1.00  0.00     0.009 A 
ATOM     24  C   UNL A   1      34.644  16.908  24.658  1.00  0.00     0.001 A 
ATOM     25  C   UNL A   1      32.598  17.405  25.830  1.00  0.00     0.001 A 
ATOM     26  C   UNL A   1      33.566  16.487  25.434  1.00  0.00     0.000 A 
ENDBRANCH  20  21
ENDBRANCH  14  15
ENDBRANCH  12  14
ENDBRANCH  10  12
ENDBRANCH   5  10
ENDBRANCH   2   4
ENDBRANCH   1   2
BRANCH   1  27
ATOM     27  C   UNL A   1      31.311  31.589  26.264  1.00  0.00     0.274 C 
BRANCH  27  28
ATOM     28  C   UNL A   1      31.894  32.878  26.848  1.00  0.00     0.275 C 
BRANCH  28  29
ATOM     29  O   UNL A   1      32.968  32.586  27.761  1.00  0.00    -0.458 OA
BRANCH  29  30
ATOM     30  C   UNL A   1      34.041  33.402  27.661  1.00  0.00     0.338 C 
ATOM     31  O   UNL A   1      34.066  34.566  27.300  1.00  0.00    -0.246 OA
BRANCH  30  32
ATOM     32  C   UNL A   1      35.216  32.720  28.218  1.00  0.00     0.060 A 
ATOM     33  C   UNL A   1      35.044  31.421  28.702  1.00  0.00     0.016 A 
ATOM     34  C   UNL A   1      36.444  33.368  28.336  1.00  0.00     0.016 A 
ATOM     35  C   UNL A   1      36.101  30.756  29.311  1.00  0.00     0.010 A 
ATOM     36  C   UNL A   1      37.507  32.702  28.952  1.00  0.00     0.010 A 
ATOM     37  C   UNL A   1      37.336  31.398  29.452  1.00  0.00    -0.014 A 
BRANCH  37  38
ATOM     38  C   UNL A   1      38.423  30.719  30.191  1.00  0.00     0.031 A 
ATOM     39  C   UNL A   1      38.638  31.032  31.642  1.00  0.00     0.074 A 
ATOM     40  C   UNL A   1      39.182  29.801  29.570  1.00  0.00     0.049 A 
ATOM     41  N   UNL A   1      39.571  30.605  32.453  1.00  0.00    -0.248 NA
ATOM     42  C   UNL A   1      37.670  31.949  32.264  1.00  0.00     0.031 C 
ATOM     43  C   UNL A   1      39.026  29.378  28.179  1.00  0.00     0.029 A 
ATOM     44  N   UNL A   1      40.238  29.057  30.032  1.00  0.00    -0.354 N 
ATOM     45  C   UNL A   1      39.319  31.217  33.673  1.00  0.00     0.074 A 
ATOM     46  C   UNL A   1      38.152  32.055  33.495  1.00  0.00     0.031 C 
ATOM     47  C   UNL A   1      39.954  28.449  27.897  1.00  0.00     0.029 A 
ATOM     48  C   UNL A   1      40.795  28.245  29.074  1.00  0.00     0.049 A 
ATOM     49  H   UNL A   1      40.566  29.100  30.959  1.00  0.00     0.167 HD
ATOM     50  C   UNL A   1      40.002  31.088  34.834  1.00  0.00     0.037 A 
ATOM     51  C   UNL A   1      41.879  27.450  29.137  1.00  0.00     0.037 A 
ATOM     52  C   UNL A   1      41.153  30.242  35.006  1.00  0.00     0.049 A 
ATOM     53  C   UNL A   1      42.649  27.364  30.426  1.00  0.00     0.074 A 
ATOM     54  C   UNL A   1      41.916  30.037  36.142  1.00  0.00     0.029 A 
ATOM     55  N   UNL A   1      41.707  29.454  34.006  1.00  0.00    -0.354 N 
ATOM     56  N   UNL A   1      42.416  27.957  31.572  1.00  0.00    -0.248 NA
ATOM     57  C   UNL A   1      43.838  26.499  30.430  1.00  0.00     0.031 C 
ATOM     58  C   UNL A   1      42.954  29.155  35.821  1.00  0.00     0.029 A 
ATOM     59  C   UNL A   1      42.812  28.775  34.496  1.00  0.00     0.049 A 
ATOM     60  H   UNL A   1      41.366  29.388  33.085  1.00  0.00     0.167 HD
ATOM     61  C   UNL A   1      43.413  27.526  32.436  1.00  0.00     0.074 A 
ATOM     62  C   UNL A   1      44.245  26.607  31.687  1.00  0.00     0.031 C 
ATOM     63  C   UNL A   1      43.623  27.863  33.732  1.00  0.00     0.037 A 
BRANCH  50  64
ATOM     64  C   UNL A   1      39.541  31.909  36.001  1.00  0.00     0.064 A 
ATOM     65  C   UNL A   1      40.127  33.143  36.315  1.00  0.00     0.173 A 
ATOM     66  C   UNL A   1      38.480  31.462  36.803  1.00  0.00     0.173 A 
ATOM     67  F   UNL A   1      41.157  33.604  35.590  1.00  0.00    -0.203 F 
ATOM     68  C   UNL A   1      39.683  33.891  37.403  1.00  0.00     0.198 A 
ATOM     69  C   UNL A   1      38.021  32.224  37.875  1.00  0.00     0.198 A 
ATOM     70  F   UNL A   1      37.883  30.288  36.545  1.00  0.00    -0.203 F 
ATOM     71  F   UNL A   1      40.286  35.048  37.710  1.00  0.00    -0.200 F 
ATOM     72  C   UNL A   1      38.627  33.434  38.177  1.00  0.00     0.200 A 
ATOM     73  F   UNL A   1      36.996  31.785  38.617  1.00  0.00    -0.200 F 
ATOM     74  F   UNL A   1      38.199  34.157  39.221  1.00  0.00    -0.200 F 
ENDBRANCH  50  64
BRANCH  51  75
ATOM     75  C   UNL A   1      42.309  26.691  27.936  1.00  0.00     0.064 A 
ATOM     76  C   UNL A   1      43.219  27.240  27.021  1.00  0.00     0.173 A 
ATOM     77  C   UNL A   1      41.817  25.404  27.675  1.00  0.00     0.173 A 
ATOM     78  F   UNL A   1      43.697  28.477  27.215  1.00  0.00    -0.203 F 
ATOM     79  C   UNL A   1      43.610  26.534  25.886  1.00  0.00     0.198 A 
ATOM     80  C   UNL A   1      42.230  24.689  26.554  1.00  0.00     0.198 A 
ATOM     81  F   UNL A   1      40.942  24.836  28.518  1.00  0.00    -0.203 F 
ATOM     82  F   UNL A   1      44.451  27.097  25.006  1.00  0.00    -0.200 F 
ATOM     83  C   UNL A   1      43.121  25.257  25.656  1.00  0.00     0.200 A 
ATOM     84  F   UNL A   1      41.762  23.450  26.341  1.00  0.00    -0.200 F 
ATOM     85  F   UNL A   1      43.503  24.576  24.567  1.00  0.00    -0.200 F 
ENDBRANCH  51  75
BRANCH  63  86
ATOM     86  C   UNL A   1      44.781  27.209  34.426  1.00  0.00     0.064 A 
ATOM     87  C   UNL A   1      46.049  27.808  34.460  1.00  0.00     0.173 A 
ATOM     88  C   UNL A   1      44.612  25.985  35.088  1.00  0.00     0.173 A 
ATOM     89  F   UNL A   1      46.263  28.971  33.828  1.00  0.00    -0.203 F 
ATOM     90  C   UNL A   1      47.113  27.191  35.111  1.00  0.00     0.198 A 
ATOM     91  C   UNL A   1      45.672  25.382  35.761  1.00  0.00     0.198 A 
ATOM     92  F   UNL A   1      43.417  25.375  35.090  1.00  0.00    -0.203 F 
ATOM     93  F   UNL A   1      48.328  27.757  35.092  1.00  0.00    -0.200 F 
ATOM     94  C   UNL A   1      46.923  25.982  35.765  1.00  0.00     0.200 A 
ATOM     95  F   UNL A   1      45.484  24.220  36.401  1.00  0.00    -0.200 F 
ATOM     96  F   UNL A   1      47.948  25.390  36.393  1.00  0.00    -0.200 F 
ENDBRANCH  63  86
ENDBRANCH  37  38
ENDBRANCH  30  32
ENDBRANCH  29  30
ENDBRANCH  28  29
ENDBRANCH  27  28
ENDBRANCH   1  27
TORSDOF 16
ENDMDL
MODEL 2
REMARK VINA RESULT:     -12.4      1.318      2.134
REMARK SMILES C[C@@H](Oc1ccc(-c2ccccc2)cc1)C(=O)N1CCC[C@H](C(=O)OCCOC(=O)c2ccc(-c3c4nc(c(-c5c(F)c(F)c(F)c(F)c5F)c5ccc([nH]5)c(-c5c(F)c(F)c(F)c(F)c5F)c5nc(c(-c6c(F)c(F)c(F)c(F)c6F)c6ccc3[nH]6)C=C5)C=C4)cc2)C1
REMARK SMILES IDX 25 1 23 2 24 3 22 4 18 5 19 6 94 7 20 8 21 9 16 10 17 11
REMARK SMILES IDX 2 12 1 13 3 14 4 15 5 16 15 17 6 18 14 19 7 20 8 21 9 22
REMARK SMILES IDX 13 23 10 24 12 25 11 26 26 27 27 28 28 29 29 30 30 31 31 32
REMARK SMILES IDX 32 33 93 34 33 35 92 36 34 37 35 38 36 39 86 40 37 41 91 42
REMARK SMILES IDX 85 43 87 44 38 45 90 46 84 47 83 48 39 50 71 51 51 52 70 53
REMARK SMILES IDX 52 54 55 55 69 56 88 57 53 58 54 59 68 61 89 62 56 63 40 64
REMARK SMILES IDX 41 65 49 66 42 67 43 68 47 69 50 70 44 71 45 72 48 73 46 74
REMARK SMILES IDX 72 75 73 76 81 77 74 78 75 79 79 80 82 81 76 82 77 83 80 84
REMARK SMILES IDX 78 85 57 86 58 87 66 88 59 89 60 90 64 91 67 92 61 93 62 94
REMARK SMILES IDX 65 95 63 96
REMARK H PARENT 87 49 55 60
REMARK Flexibility Score: inf
ROOT
ATOM      1  O   UNL A   1      30.861  29.549  24.631  1.00  0.00    -0.462 OA
ENDROOT
BRANCH   1   2
ATOM      2  C   UNL A   1      31.440  28.839  23.634  1.00  0.00     0.310 C 
ATOM      3  O   UNL A   1      32.638  28.860  23.369  1.00  0.00    -0.252 OA
BRANCH   2   4
ATOM      4  C   UNL A   1      30.445  28.019  22.826  1.00  0.00     0.119 C 
ATOM      5  N   UNL A   1      30.528  25.998  24.200  1.00  0.00    -0.339 N 
ATOM      6  C   UNL A   1      31.033  25.159  23.116  1.00  0.00     0.119 C 
ATOM      7  C   UNL A   1      29.674  27.100  23.767  1.00  0.00     0.134 C 
ATOM      8  C   UNL A   1      31.782  25.969  22.061  1.00  0.00     0.022 C 
ATOM      9  C   UNL A   1      31.030  27.237  21.645  1.00  0.00     0.019 C 
BRANCH   5  10
ATOM     10  C   UNL A   1      30.901  25.730  25.512  1.00  0.00     0.263 C 
ATOM     11  O   UNL A   1      30.123  25.933  26.451  1.00  0.00    -0.271 OA
BRANCH  10  12
ATOM     12  C   UNL A   1      32.317  25.191  25.815  1.00  0.00     0.259 C 
ATOM     13  C   UNL A   1      33.296  26.299  26.201  1.00  0.00     0.064 C 
BRANCH  12  14
ATOM     14  O   UNL A   1      32.200  24.199  26.842  1.00  0.00    -0.481 OA
BRANCH  14  15
ATOM     15  C   UNL A   1      32.439  22.933  26.401  1.00  0.00     0.120 A 
ATOM     16  C   UNL A   1      33.642  22.304  26.711  1.00  0.00     0.047 A 
ATOM     17  C   UNL A   1      31.544  22.356  25.511  1.00  0.00     0.047 A 
ATOM     18  C   UNL A   1      33.949  21.076  26.117  1.00  0.00     0.012 A 
ATOM     19  C   UNL A   1      31.851  21.129  24.927  1.00  0.00     0.012 A 
ATOM     20  C   UNL A   1      33.067  20.476  25.201  1.00  0.00    -0.018 A 
BRANCH  20  21
ATOM     21  C   UNL A   1      33.414  19.231  24.497  1.00  0.00    -0.018 A 
ATOM     22  C   UNL A   1      34.611  18.547  24.754  1.00  0.00     0.009 A 
ATOM     23  C   UNL A   1      32.535  18.686  23.541  1.00  0.00     0.009 A 
ATOM     24  C   UNL A   1      34.913  17.355  24.089  1.00  0.00     0.001 A 
ATOM     25  C   UNL A   1      32.835  17.495  22.878  1.00  0.00     0.001 A 
ATOM     26  C   UNL A   1      34.023  16.827  23.155  1.00  0.00     0.000 A 
ENDBRANCH  20  21
ENDBRANCH  14  15
ENDBRANCH  12  14
ENDBRANCH  10  12
ENDBRANCH   5  10
ENDBRANCH   2   4
ENDBRANCH   1   2
BRANCH   1  27
ATOM     27  C   UNL A   1      31.416  29.434  25.954  1.00  0.00     0.274 C 
BRANCH  27  28
ATOM     28  C   UNL A   1      31.782  30.811  26.513  1.00  0.00     0.275 C 
BRANCH  28  29
ATOM     29  O   UNL A   1      33.205  31.023  26.458  1.00  0.00    -0.458 OA
BRANCH  29  30
ATOM     30  C   UNL A   1      33.675  31.969  27.301  1.00  0.00     0.338 C 
ATOM     31  O   UNL A   1      33.124  32.996  27.657  1.00  0.00    -0.246 OA
BRANCH  30  32
ATOM     32  C   UNL A   1      34.938  31.503  27.887  1.00  0.00     0.060 A 
ATOM     33  C   UNL A   1      35.009  30.173  28.306  1.00  0.00     0.016 A 
ATOM     34  C   UNL A   1      36.008  32.374  28.093  1.00  0.00     0.016 A 
ATOM     35  C   UNL A   1      36.152  29.698  28.938  1.00  0.00     0.010 A 
ATOM     36  C   UNL A   1      37.156  31.898  28.732  1.00  0.00     0.010 A 
ATOM     37  C   UNL A   1      37.228  30.562  29.167  1.00  0.00    -0.014 A 
BRANCH  37  38
ATOM     38  C   UNL A   1      38.397  30.073  29.930  1.00  0.00     0.031 A 
ATOM     39  C   UNL A   1      38.610  30.542  31.338  1.00  0.00     0.074 A 
ATOM     40  C   UNL A   1      39.237  29.185  29.371  1.00  0.00     0.049 A 
ATOM     41  N   UNL A   1      39.602  30.294  32.154  1.00  0.00    -0.248 NA
ATOM     42  C   UNL A   1      37.564  31.407  31.905  1.00  0.00     0.031 C 
ATOM     43  C   UNL A   1      39.096  28.619  28.030  1.00  0.00     0.029 A 
ATOM     44  N   UNL A   1      40.376  28.602  29.864  1.00  0.00    -0.354 N 
ATOM     45  C   UNL A   1      39.313  30.988  33.321  1.00  0.00     0.074 A 
ATOM     46  C   UNL A   1      38.059  31.678  33.105  1.00  0.00     0.031 C 
ATOM     47  C   UNL A   1      40.111  27.769  27.805  1.00  0.00     0.029 A 
ATOM     48  C   UNL A   1      40.995  27.766  28.967  1.00  0.00     0.049 A 
ATOM     49  H   UNL A   1      40.718  28.766  30.773  1.00  0.00     0.167 HD
ATOM     50  C   UNL A   1      40.031  31.041  34.466  1.00  0.00     0.037 A 
ATOM     51  C   UNL A   1      42.159  27.098  29.068  1.00  0.00     0.037 A 
ATOM     52  C   UNL A   1      41.270  30.339  34.677  1.00  0.00     0.049 A 
ATOM     53  C   UNL A   1      42.963  27.215  30.334  1.00  0.00     0.074 A 
ATOM     54  C   UNL A   1      42.075  30.323  35.803  1.00  0.00     0.029 A 
ATOM     55  N   UNL A   1      41.883  29.523  33.737  1.00  0.00    -0.354 N 
ATOM     56  N   UNL A   1      42.693  27.886  31.428  1.00  0.00    -0.248 NA
ATOM     57  C   UNL A   1      44.237  26.483  30.378  1.00  0.00     0.031 C 
ATOM     58  C   UNL A   1      43.194  29.528  35.530  1.00  0.00     0.029 A 
ATOM     59  C   UNL A   1      43.064  29.012  34.250  1.00  0.00     0.049 A 
ATOM     60  H   UNL A   1      41.530  29.335  32.837  1.00  0.00     0.167 HD
ATOM     61  C   UNL A   1      43.749  27.645  32.295  1.00  0.00     0.074 A 
ATOM     62  C   UNL A   1      44.658  26.751  31.606  1.00  0.00     0.031 C 
ATOM     63  C   UNL A   1      43.951  28.122  33.548  1.00  0.00     0.037 A 
BRANCH  50  64
ATOM     64  C   UNL A   1      39.511  31.915  35.568  1.00  0.00     0.064 A 
ATOM     65  C   UNL A   1      39.906  33.254  35.698  1.00  0.00     0.173 A 
ATOM     66  C   UNL A   1      38.585  31.409  36.493  1.00  0.00     0.173 A 
ATOM     67  F   UNL A   1      40.803  33.778  34.849  1.00  0.00    -0.203 F 
ATOM     68  C   UNL A   1      39.410  34.050  36.728  1.00  0.00     0.198 A 
ATOM     69  C   UNL A   1      38.072  32.215  37.506  1.00  0.00     0.198 A 
ATOM     70  F   UNL A   1      38.174  30.135  36.412  1.00  0.00    -0.203 F 
ATOM     71  F   UNL A   1      39.833  35.315  36.858  1.00  0.00    -0.200 F 
ATOM     72  C   UNL A   1      38.489  33.532  37.627  1.00  0.00     0.200 A 
ATOM     73  F   UNL A   1      37.176  31.715  38.369  1.00  0.00    -0.200 F 
ATOM     74  F   UNL A   1      38.010  34.300  38.614  1.00  0.00    -0.200 F 
ENDBRANCH  50  64
BRANCH  51  75
ATOM     75  C   UNL A   1      42.641  26.279  27.927  1.00  0.00     0.064 A 
ATOM     76  C   UNL A   1      43.476  26.827  26.945  1.00  0.00     0.173 A 
ATOM     77  C   UNL A   1      42.273  24.932  27.795  1.00  0.00     0.173 A 
ATOM     78  F   UNL A   1      43.834  28.118  27.016  1.00  0.00    -0.203 F 
ATOM     79  C   UNL A   1      43.915  26.063  25.867  1.00  0.00     0.198 A 
ATOM     80  C   UNL A   1      42.735  24.161  26.731  1.00  0.00     0.198 A 
ATOM     81  F   UNL A   1      41.473  24.361  28.707  1.00  0.00    -0.203 F 
ATOM     82  F   UNL A   1      44.681  26.623  24.919  1.00  0.00    -0.200 F 
ATOM     83  C   UNL A   1      43.551  24.729  25.764  1.00  0.00     0.200 A 
ATOM     84  F   UNL A   1      42.388  22.869  26.641  1.00  0.00    -0.200 F 
ATOM     85  F   UNL A   1      43.978  23.992  24.729  1.00  0.00    -0.200 F 
ENDBRANCH  51  75
BRANCH  63  86
ATOM     86  C   UNL A   1      45.188  27.661  34.261  1.00  0.00     0.064 A 
ATOM     87  C   UNL A   1      45.196  26.491  35.034  1.00  0.00     0.173 A 
ATOM     88  C   UNL A   1      46.384  28.384  34.146  1.00  0.00     0.173 A 
ATOM     89  F   UNL A   1      44.071  25.775  35.187  1.00  0.00    -0.203 F 
ATOM     90  C   UNL A   1      46.352  26.075  35.688  1.00  0.00     0.198 A 
ATOM     91  C   UNL A   1      47.545  27.951  34.779  1.00  0.00     0.198 A 
ATOM     92  F   UNL A   1      46.429  29.506  33.413  1.00  0.00    -0.203 F 
ATOM     93  F   UNL A   1      46.326  24.980  36.459  1.00  0.00    -0.200 F 
ATOM     94  C   UNL A   1      47.527  26.801  35.555  1.00  0.00     0.200 A 
ATOM     95  F   UNL A   1      48.682  28.647  34.641  1.00  0.00    -0.200 F 
ATOM     96  F   UNL A   1      48.639  26.397  36.183  1.00  0.00    -0.200 F 
ENDBRANCH  63  86
ENDBRANCH  37  38
ENDBRANCH  30  32
ENDBRANCH  29  30
ENDBRANCH  28  29
ENDBRANCH  27  28
ENDBRANCH   1  27
TORSDOF 16
ENDMDL
MODEL 3
REMARK VINA RESULT:     -12.4      1.008      7.340
REMARK SMILES C[C@@H](Oc1ccc(-c2ccccc2)cc1)C(=O)N1CCC[C@H](C(=O)OCCOC(=O)c2ccc(-c3c4nc(c(-c5c(F)c(F)c(F)c(F)c5F)c5ccc([nH]5)c(-c5c(F)c(F)c(F)c(F)c5F)c5nc(c(-c6c(F)c(F)c(F)c(F)c6F)c6ccc3[nH]6)C=C5)C=C4)cc2)C1
REMARK SMILES IDX 25 1 23 2 24 3 22 4 18 5 19 6 94 7 20 8 21 9 16 10 17 11
REMARK SMILES IDX 2 12 1 13 3 14 4 15 5 16 15 17 6 18 14 19 7 20 8 21 9 22
REMARK SMILES IDX 13 23 10 24 12 25 11 26 26 27 27 28 28 29 29 30 30 31 31 32
REMARK SMILES IDX 32 33 93 34 33 35 92 36 34 37 35 38 36 39 86 40 37 41 91 42
REMARK SMILES IDX 85 43 87 44 38 45 90 46 84 47 83 48 39 50 71 51 51 52 70 53
REMARK SMILES IDX 52 54 55 55 69 56 88 57 53 58 54 59 68 61 89 62 56 63 40 64
REMARK SMILES IDX 41 65 49 66 42 67 43 68 47 69 50 70 44 71 45 72 48 73 46 74
REMARK SMILES IDX 72 75 73 76 81 77 74 78 75 79 79 80 82 81 76 82 77 83 80 84
REMARK SMILES IDX 78 85 57 86 58 87 66 88 59 89 60 90 64 91 67 92 61 93 62 94
REMARK SMILES IDX 65 95 63 96
REMARK H PARENT 87 49 55 60
REMARK Flexibility Score: inf
ROOT
ATOM      1  O   UNL A   1      32.012  29.170  24.429  1.00  0.00    -0.462 OA
ENDROOT
BRANCH   1   2
ATOM      2  C   UNL A   1      31.325  28.199  23.782  1.00  0.00     0.310 C 
ATOM      3  O   UNL A   1      31.461  27.920  22.595  1.00  0.00    -0.252 OA
BRANCH   2   4
ATOM      4  C   UNL A   1      30.316  27.487  24.672  1.00  0.00     0.119 C 
ATOM      5  N   UNL A   1      31.659  25.495  25.125  1.00  0.00    -0.339 N 
ATOM      6  C   UNL A   1      30.703  24.583  24.502  1.00  0.00     0.119 C 
ATOM      7  C   UNL A   1      31.061  26.681  25.730  1.00  0.00     0.134 C 
ATOM      8  C   UNL A   1      29.840  25.280  23.455  1.00  0.00     0.022 C 
ATOM      9  C   UNL A   1      29.282  26.620  23.944  1.00  0.00     0.019 C 
BRANCH   5  10
ATOM     10  C   UNL A   1      33.019  25.209  25.076  1.00  0.00     0.263 C 
ATOM     11  O   UNL A   1      33.773  25.532  26.001  1.00  0.00    -0.271 OA
BRANCH  10  12
ATOM     12  C   UNL A   1      33.612  24.496  23.840  1.00  0.00     0.259 C 
ATOM     13  C   UNL A   1      33.938  25.464  22.705  1.00  0.00     0.064 C 
BRANCH  12  14
ATOM     14  O   UNL A   1      34.767  23.763  24.267  1.00  0.00    -0.481 OA
BRANCH  14  15
ATOM     15  C   UNL A   1      34.584  22.414  24.265  1.00  0.00     0.120 A 
ATOM     16  C   UNL A   1      33.336  21.882  23.954  1.00  0.00     0.047 A 
ATOM     17  C   UNL A   1      35.605  21.600  24.735  1.00  0.00     0.047 A 
ATOM     18  C   UNL A   1      33.111  20.512  24.118  1.00  0.00     0.012 A 
ATOM     19  C   UNL A   1      35.380  20.234  24.891  1.00  0.00     0.012 A 
ATOM     20  C   UNL A   1      34.124  19.667  24.606  1.00  0.00    -0.018 A 
BRANCH  20  21
ATOM     21  C   UNL A   1      33.878  18.240  24.872  1.00  0.00    -0.018 A 
ATOM     22  C   UNL A   1      32.667  17.789  25.417  1.00  0.00     0.009 A 
ATOM     23  C   UNL A   1      34.865  17.282  24.574  1.00  0.00     0.009 A 
ATOM     24  C   UNL A   1      32.445  16.428  25.642  1.00  0.00     0.001 A 
ATOM     25  C   UNL A   1      34.644  15.922  24.798  1.00  0.00     0.001 A 
ATOM     26  C   UNL A   1      33.431  15.495  25.329  1.00  0.00     0.000 A 
ENDBRANCH  20  21
ENDBRANCH  14  15
ENDBRANCH  12  14
ENDBRANCH  10  12
ENDBRANCH   5  10
ENDBRANCH   2   4
ENDBRANCH   1   2
BRANCH   1  27
ATOM     27  C   UNL A   1      31.260  30.228  25.052  1.00  0.00     0.274 C 
BRANCH  27  28
ATOM     28  C   UNL A   1      31.784  30.510  26.462  1.00  0.00     0.275 C 
BRANCH  28  29
ATOM     29  O   UNL A   1      33.202  30.760  26.441  1.00  0.00    -0.458 OA
BRANCH  29  30
ATOM     30  C   UNL A   1      33.616  31.769  27.240  1.00  0.00     0.338 C 
ATOM     31  O   UNL A   1      33.016  32.788  27.533  1.00  0.00    -0.246 OA
BRANCH  30  32
ATOM     32  C   UNL A   1      34.888  31.390  27.868  1.00  0.00     0.060 A 
ATOM     33  C   UNL A   1      35.002  30.093  28.374  1.00  0.00     0.016 A 
ATOM     34  C   UNL A   1      35.922  32.312  28.028  1.00  0.00     0.016 A 
ATOM     35  C   UNL A   1      36.153  29.704  29.048  1.00  0.00     0.010 A 
ATOM     36  C   UNL A   1      37.079  31.922  28.709  1.00  0.00     0.010 A 
ATOM     37  C   UNL A   1      37.194  30.621  29.231  1.00  0.00    -0.014 A 
BRANCH  37  38
ATOM     38  C   UNL A   1      38.370  30.227  30.036  1.00  0.00     0.031 A 
ATOM     39  C   UNL A   1      39.391  29.298  29.450  1.00  0.00     0.074 A 
ATOM     40  C   UNL A   1      38.537  30.733  31.270  1.00  0.00     0.049 A 
ATOM     41  N   UNL A   1      40.453  28.774  30.005  1.00  0.00    -0.248 NA
ATOM     42  C   UNL A   1      39.189  28.907  28.046  1.00  0.00     0.031 C 
ATOM     43  C   UNL A   1      37.638  31.687  31.919  1.00  0.00     0.029 A 
ATOM     44  N   UNL A   1      39.523  30.516  32.198  1.00  0.00    -0.354 N 
ATOM     45  C   UNL A   1      41.033  27.975  29.030  1.00  0.00     0.074 A 
ATOM     46  C   UNL A   1      40.200  28.072  27.850  1.00  0.00     0.031 C 
ATOM     47  C   UNL A   1      38.112  31.973  33.142  1.00  0.00     0.029 A 
ATOM     48  C   UNL A   1      39.323  31.189  33.378  1.00  0.00     0.049 A 
ATOM     49  H   UNL A   1      40.299  29.933  32.035  1.00  0.00     0.167 HD
ATOM     50  C   UNL A   1      42.160  27.230  29.116  1.00  0.00     0.037 A 
ATOM     51  C   UNL A   1      40.024  31.153  34.526  1.00  0.00     0.037 A 
ATOM     52  C   UNL A   1      42.990  27.151  30.289  1.00  0.00     0.049 A 
ATOM     53  C   UNL A   1      41.244  30.278  34.610  1.00  0.00     0.074 A 
ATOM     54  C   UNL A   1      44.154  26.427  30.479  1.00  0.00     0.029 A 
ATOM     55  N   UNL A   1      42.742  27.826  31.476  1.00  0.00    -0.354 N 
ATOM     56  N   UNL A   1      41.779  29.511  33.690  1.00  0.00    -0.248 NA
ATOM     57  C   UNL A   1      41.957  30.259  35.895  1.00  0.00     0.031 C 
ATOM     58  C   UNL A   1      44.590  26.634  31.792  1.00  0.00     0.029 A 
ATOM     59  C   UNL A   1      43.722  27.522  32.408  1.00  0.00     0.049 A 
ATOM     60  H   UNL A   1      41.980  28.430  31.634  1.00  0.00     0.167 HD
ATOM     61  C   UNL A   1      42.897  28.935  34.276  1.00  0.00     0.074 A 
ATOM     62  C   UNL A   1      42.975  29.453  35.626  1.00  0.00     0.031 C 
ATOM     63  C   UNL A   1      43.780  28.053  33.745  1.00  0.00     0.037 A 
BRANCH  50  64
ATOM     64  C   UNL A   1      42.540  26.413  27.918  1.00  0.00     0.064 A 
ATOM     65  C   UNL A   1      43.433  26.893  26.949  1.00  0.00     0.173 A 
ATOM     66  C   UNL A   1      42.019  25.121  27.749  1.00  0.00     0.173 A 
ATOM     67  F   UNL A   1      43.943  28.129  27.055  1.00  0.00    -0.203 F 
ATOM     68  C   UNL A   1      43.774  26.118  25.843  1.00  0.00     0.198 A 
ATOM     69  C   UNL A   1      42.382  24.339  26.656  1.00  0.00     0.198 A 
ATOM     70  F   UNL A   1      41.162  24.615  28.648  1.00  0.00    -0.203 F 
ATOM     71  F   UNL A   1      44.597  26.612  24.908  1.00  0.00    -0.200 F 
ATOM     72  C   UNL A   1      43.253  24.840  25.701  1.00  0.00     0.200 A 
ATOM     73  F   UNL A   1      41.884  23.102  26.524  1.00  0.00    -0.200 F 
ATOM     74  F   UNL A   1      43.586  24.094  24.639  1.00  0.00    -0.200 F 
ENDBRANCH  50  64
BRANCH  51  75
ATOM     75  C   UNL A   1      39.575  31.956  35.691  1.00  0.00     0.064 A 
ATOM     76  C   UNL A   1      38.591  31.474  36.564  1.00  0.00     0.173 A 
ATOM     77  C   UNL A   1      40.119  33.222  35.953  1.00  0.00     0.173 A 
ATOM     78  F   UNL A   1      38.023  30.280  36.339  1.00  0.00    -0.203 F 
ATOM     79  C   UNL A   1      38.158  32.234  37.648  1.00  0.00     0.198 A 
ATOM     80  C   UNL A   1      39.705  33.969  37.054  1.00  0.00     0.198 A 
ATOM     81  F   UNL A   1      41.062  33.729  35.146  1.00  0.00    -0.203 F 
ATOM     82  F   UNL A   1      37.186  31.767  38.445  1.00  0.00    -0.200 F 
ATOM     83  C   UNL A   1      38.720  33.477  37.897  1.00  0.00     0.200 A 
ATOM     84  F   UNL A   1      40.259  35.165  37.296  1.00  0.00    -0.200 F 
ATOM     85  F   UNL A   1      38.308  34.205  38.944  1.00  0.00    -0.200 F 
ENDBRANCH  51  75
BRANCH  63  86
ATOM     86  C   UNL A   1      44.919  27.619  34.619  1.00  0.00     0.064 A 
ATOM     87  C   UNL A   1      44.834  26.471  35.420  1.00  0.00     0.173 A 
ATOM     88  C   UNL A   1      46.118  28.346  34.635  1.00  0.00     0.173 A 
ATOM     89  F   UNL A   1      43.701  25.752  35.450  1.00  0.00    -0.203 F 
ATOM     90  C   UNL A   1      45.900  26.079  36.224  1.00  0.00     0.198 A 
ATOM     91  C   UNL A   1      47.193  27.938  35.420  1.00  0.00     0.198 A 
ATOM     92  F   UNL A   1      46.251  29.449  33.882  1.00  0.00    -0.203 F 
ATOM     93  F   UNL A   1      45.782  25.005  37.016  1.00  0.00    -0.200 F 
ATOM     94  C   UNL A   1      47.080  26.809  36.219  1.00  0.00     0.200 A 
ATOM     95  F   UNL A   1      48.336  28.637  35.406  1.00  0.00    -0.200 F 
ATOM     96  F   UNL A   1      48.107  26.430  36.992  1.00  0.00    -0.200 F 
ENDBRANCH  63  86
ENDBRANCH  37  38
ENDBRANCH  30  32
ENDBRANCH  29  30
ENDBRANCH  28  29
ENDBRANCH  27  28
ENDBRANCH   1  27
TORSDOF 16
ENDMDL
