MODEL 1
REMARK VINA RESULT:     -12.5      0.000      0.000
REMARK SMILES O=C(OCCOC(=O)c1cccc(Nc2ccc([N+](=O)[O-])cc2)c1)c1ccc(-c2c3nc(c(-c4c(F)c(F)c(F)c(F)c4F)c4ccc([nH]4)c(-c4c(F)c(F)c(F)c(F)c4F)c4nc(c(-c5c(F)c(F)c(F)c(F)c5F)c5ccc2[nH]5)C=C4)C=C3)cc1
REMARK SMILES IDX 5 1 4 2 3 3 2 4 1 5 25 6 26 7 87 8 27 9 86 10 28 11 29 12
REMARK SMILES IDX 30 13 80 14 31 15 85 16 79 17 81 18 32 19 84 20 78 21 77 22
REMARK SMILES IDX 33 24 65 25 45 26 64 27 46 28 49 29 63 30 82 31 47 32 48 33
REMARK SMILES IDX 62 35 83 36 50 37 34 38 35 39 43 40 36 41 37 42 41 43 44 44
REMARK SMILES IDX 38 45 39 46 42 47 40 48 66 49 67 50 75 51 68 52 69 53 73 54
REMARK SMILES IDX 76 55 70 56 71 57 74 58 72 59 51 60 52 61 60 62 53 63 54 64
REMARK SMILES IDX 58 65 61 66 55 67 56 68 59 69 57 70 6 71 7 72 8 73 9 74
REMARK SMILES IDX 10 75 24 76 11 77 13 78 12 79 14 80 15 82 16 83 23 84 17 85
REMARK SMILES IDX 22 86 18 87 19 88 20 89 21 90
REMARK H PARENT 81 23 49 34 14 81
REMARK Flexibility Score: inf
ROOT
ATOM      1  C   UNL A   1      38.326  21.311  25.482  1.00  0.00     0.275 C 
ENDROOT
BRANCH   1   2
ATOM      2  C   UNL A   1      38.714  19.853  25.221  1.00  0.00     0.275 C 
BRANCH   2   3
ATOM      3  O   UNL A   1      39.785  19.353  26.044  1.00  0.00    -0.458 OA
BRANCH   3   4
ATOM      4  C   UNL A   1      41.107  19.637  26.011  1.00  0.00     0.338 C 
ATOM      5  O   UNL A   1      41.900  18.757  25.676  1.00  0.00    -0.246 OA
BRANCH   4   6
ATOM      6  C   UNL A   1      41.686  20.924  26.504  1.00  0.00     0.060 A 
ATOM      7  C   UNL A   1      41.846  21.287  27.842  1.00  0.00     0.016 A 
ATOM      8  C   UNL A   1      42.053  21.860  25.517  1.00  0.00     0.016 A 
ATOM      9  C   UNL A   1      42.402  22.519  28.189  1.00  0.00     0.010 A 
ATOM     10  C   UNL A   1      42.617  23.094  25.856  1.00  0.00     0.010 A 
ATOM     11  C   UNL A   1      42.774  23.434  27.201  1.00  0.00    -0.014 A 
BRANCH  11  12
ATOM     12  C   UNL A   1      43.142  24.806  27.611  1.00  0.00     0.031 A 
ATOM     13  C   UNL A   1      44.548  25.264  27.367  1.00  0.00     0.074 A 
ATOM     14  C   UNL A   1      42.215  25.652  28.091  1.00  0.00     0.049 A 
ATOM     15  N   UNL A   1      45.063  26.457  27.498  1.00  0.00    -0.248 NA
ATOM     16  C   UNL A   1      45.494  24.245  26.883  1.00  0.00     0.031 C 
ATOM     17  C   UNL A   1      40.809  25.323  28.306  1.00  0.00     0.029 A 
ATOM     18  N   UNL A   1      42.313  26.965  28.474  1.00  0.00    -0.354 N 
ATOM     19  C   UNL A   1      46.379  26.342  27.075  1.00  0.00     0.074 A 
ATOM     20  C   UNL A   1      46.604  24.952  26.744  1.00  0.00     0.031 C 
ATOM     21  C   UNL A   1      40.176  26.398  28.805  1.00  0.00     0.029 A 
ATOM     22  C   UNL A   1      41.133  27.490  28.938  1.00  0.00     0.049 A 
ATOM     23  H   UNL A   1      43.150  27.480  28.422  1.00  0.00     0.167 HD
ATOM     24  C   UNL A   1      47.308  27.316  26.947  1.00  0.00     0.037 A 
ATOM     25  C   UNL A   1      40.862  28.723  29.408  1.00  0.00     0.037 A 
ATOM     26  C   UNL A   1      47.083  28.687  27.313  1.00  0.00     0.049 A 
ATOM     27  C   UNL A   1      41.948  29.763  29.368  1.00  0.00     0.074 A 
ATOM     28  C   UNL A   1      47.955  29.757  27.244  1.00  0.00     0.029 A 
ATOM     29  N   UNL A   1      45.893  29.170  27.841  1.00  0.00    -0.354 N 
ATOM     30  N   UNL A   1      43.174  29.659  28.916  1.00  0.00    -0.248 NA
ATOM     31  C   UNL A   1      41.604  31.097  29.874  1.00  0.00     0.031 C 
ATOM     32  C   UNL A   1      47.307  30.879  27.776  1.00  0.00     0.029 A 
ATOM     33  C   UNL A   1      46.015  30.519  28.127  1.00  0.00     0.049 A 
ATOM     34  H   UNL A   1      45.081  28.632  27.988  1.00  0.00     0.167 HD
ATOM     35  C   UNL A   1      43.733  30.924  29.032  1.00  0.00     0.074 A 
ATOM     36  C   UNL A   1      42.710  31.776  29.608  1.00  0.00     0.031 C 
ATOM     37  C   UNL A   1      44.973  31.346  28.682  1.00  0.00     0.037 A 
BRANCH  24  38
ATOM     38  C   UNL A   1      48.648  26.904  26.416  1.00  0.00     0.064 A 
ATOM     39  C   UNL A   1      48.976  27.053  25.058  1.00  0.00     0.173 A 
ATOM     40  C   UNL A   1      49.599  26.317  27.262  1.00  0.00     0.173 A 
ATOM     41  F   UNL A   1      48.090  27.586  24.204  1.00  0.00    -0.203 F 
ATOM     42  C   UNL A   1      50.193  26.594  24.562  1.00  0.00     0.198 A 
ATOM     43  C   UNL A   1      50.825  25.882  26.766  1.00  0.00     0.198 A 
ATOM     44  F   UNL A   1      49.331  26.147  28.565  1.00  0.00    -0.203 F 
ATOM     45  F   UNL A   1      50.460  26.688  23.252  1.00  0.00    -0.200 F 
ATOM     46  C   UNL A   1      51.117  26.011  25.417  1.00  0.00     0.200 A 
ATOM     47  F   UNL A   1      51.719  25.322  27.593  1.00  0.00    -0.200 F 
ATOM     48  F   UNL A   1      52.284  25.558  24.936  1.00  0.00    -0.200 F 
ENDBRANCH  24  38
BRANCH  25  49
ATOM     49  C   UNL A   1      39.504  29.046  29.917  1.00  0.00     0.064 A 
ATOM     50  C   UNL A   1      39.141  28.783  31.244  1.00  0.00     0.173 A 
ATOM     51  C   UNL A   1      38.538  29.616  29.077  1.00  0.00     0.173 A 
ATOM     52  F   UNL A   1      40.024  28.218  32.080  1.00  0.00    -0.203 F 
ATOM     53  C   UNL A   1      37.857  29.068  31.709  1.00  0.00     0.198 A 
ATOM     54  C   UNL A   1      37.264  29.926  29.548  1.00  0.00     0.198 A 
ATOM     55  F   UNL A   1      38.830  29.872  27.794  1.00  0.00    -0.203 F 
ATOM     56  F   UNL A   1      37.524  28.773  32.972  1.00  0.00    -0.200 F 
ATOM     57  C   UNL A   1      36.922  29.645  30.862  1.00  0.00     0.200 A 
ATOM     58  F   UNL A   1      36.368  30.495  28.730  1.00  0.00    -0.200 F 
ATOM     59  F   UNL A   1      35.691  29.925  31.311  1.00  0.00    -0.200 F 
ENDBRANCH  25  49
BRANCH  37  60
ATOM     60  C   UNL A   1      45.269  32.805  28.855  1.00  0.00     0.064 A 
ATOM     61  C   UNL A   1      44.947  33.747  27.867  1.00  0.00     0.173 A 
ATOM     62  C   UNL A   1      45.853  33.267  30.043  1.00  0.00     0.173 A 
ATOM     63  F   UNL A   1      44.402  33.350  26.707  1.00  0.00    -0.203 F 
ATOM     64  C   UNL A   1      45.222  35.099  28.055  1.00  0.00     0.198 A 
ATOM     65  C   UNL A   1      46.099  34.623  30.239  1.00  0.00     0.198 A 
ATOM     66  F   UNL A   1      46.175  32.405  31.018  1.00  0.00    -0.203 F 
ATOM     67  F   UNL A   1      44.952  35.977  27.079  1.00  0.00    -0.200 F 
ATOM     68  C   UNL A   1      45.791  35.536  29.243  1.00  0.00     0.200 A 
ATOM     69  F   UNL A   1      46.637  35.044  31.392  1.00  0.00    -0.200 F 
ATOM     70  F   UNL A   1      46.049  36.838  29.422  1.00  0.00    -0.200 F 
ENDBRANCH  37  60
ENDBRANCH  11  12
ENDBRANCH   4   6
ENDBRANCH   3   4
ENDBRANCH   2   3
ENDBRANCH   1   2
BRANCH   1  71
ATOM     71  O   UNL A   1      36.908  21.522  25.552  1.00  0.00    -0.458 OA
BRANCH  71  72
ATOM     72  C   UNL A   1      36.512  22.773  25.202  1.00  0.00     0.338 C 
ATOM     73  O   UNL A   1      37.118  23.813  25.407  1.00  0.00    -0.246 OA
BRANCH  72  74
ATOM     74  C   UNL A   1      35.276  22.712  24.403  1.00  0.00     0.062 A 
ATOM     75  C   UNL A   1      34.951  23.828  23.628  1.00  0.00     0.016 A 
ATOM     76  C   UNL A   1      34.426  21.601  24.438  1.00  0.00     0.041 A 
ATOM     77  C   UNL A   1      33.798  23.814  22.853  1.00  0.00     0.003 A 
ATOM     78  C   UNL A   1      33.217  21.608  23.717  1.00  0.00     0.039 A 
ATOM     79  C   UNL A   1      32.940  22.711  22.899  1.00  0.00     0.026 A 
BRANCH  78  80
ATOM     80  N   UNL A   1      32.336  20.515  23.856  1.00  0.00    -0.355 N 
ATOM     81  H   UNL A   1      31.390  20.721  23.681  1.00  0.00     0.167 HD
BRANCH  80  82
ATOM     82  C   UNL A   1      32.593  19.176  24.206  1.00  0.00     0.039 A 
ATOM     83  C   UNL A   1      32.984  18.285  23.195  1.00  0.00     0.033 A 
ATOM     84  C   UNL A   1      32.566  18.720  25.530  1.00  0.00     0.033 A 
ATOM     85  C   UNL A   1      33.361  16.972  23.495  1.00  0.00     0.088 A 
ATOM     86  C   UNL A   1      32.935  17.406  25.847  1.00  0.00     0.088 A 
ATOM     87  C   UNL A   1      33.343  16.540  24.826  1.00  0.00     0.269 A 
BRANCH  87  88
ATOM     88  N   UNL A   1      33.772  15.173  25.150  1.00  0.00     0.062 N 
ATOM     89  O   UNL A   1      32.892  14.313  25.301  1.00  0.00    -0.258 OA
ATOM     90  O   UNL A   1      34.988  14.956  25.245  1.00  0.00    -0.258 OA
ENDBRANCH  87  88
ENDBRANCH  80  82
ENDBRANCH  78  80
ENDBRANCH  72  74
ENDBRANCH  71  72
ENDBRANCH   1  71
TORSDOF 14
ENDMDL
MODEL 2
REMARK VINA RESULT:     -12.3      6.063     11.408
REMARK SMILES O=C(OCCOC(=O)c1cccc(Nc2ccc([N+](=O)[O-])cc2)c1)c1ccc(-c2c3nc(c(-c4c(F)c(F)c(F)c(F)c4F)c4ccc([nH]4)c(-c4c(F)c(F)c(F)c(F)c4F)c4nc(c(-c5c(F)c(F)c(F)c(F)c5F)c5ccc2[nH]5)C=C4)C=C3)cc1
REMARK SMILES IDX 5 1 4 2 3 3 2 4 1 5 25 6 26 7 87 8 27 9 86 10 28 11 29 12
REMARK SMILES IDX 30 13 80 14 31 15 85 16 79 17 81 18 32 19 84 20 78 21 77 22
REMARK SMILES IDX 33 24 65 25 45 26 64 27 46 28 49 29 63 30 82 31 47 32 48 33
REMARK SMILES IDX 62 35 83 36 50 37 34 38 35 39 43 40 36 41 37 42 41 43 44 44
REMARK SMILES IDX 38 45 39 46 42 47 40 48 66 49 67 50 75 51 68 52 69 53 73 54
REMARK SMILES IDX 76 55 70 56 71 57 74 58 72 59 51 60 52 61 60 62 53 63 54 64
REMARK SMILES IDX 58 65 61 66 55 67 56 68 59 69 57 70 6 71 7 72 8 73 9 74
REMARK SMILES IDX 10 75 24 76 11 77 13 78 12 79 14 80 15 82 16 83 23 84 17 85
REMARK SMILES IDX 22 86 18 87 19 88 20 89 21 90
REMARK H PARENT 81 23 49 34 14 81
REMARK Flexibility Score: inf
ROOT
ATOM      1  C   UNL A   1      32.261  30.225  27.113  1.00  0.00     0.275 C 
ENDROOT
BRANCH   1   2
ATOM      2  C   UNL A   1      31.826  31.677  26.898  1.00  0.00     0.275 C 
BRANCH   2   3
ATOM      3  O   UNL A   1      32.904  32.630  26.825  1.00  0.00    -0.458 OA
BRANCH   3   4
ATOM      4  C   UNL A   1      33.695  33.119  27.808  1.00  0.00     0.338 C 
ATOM      5  O   UNL A   1      33.492  34.257  28.229  1.00  0.00    -0.246 OA
BRANCH   4   6
ATOM      6  C   UNL A   1      34.909  32.409  28.317  1.00  0.00     0.060 A 
ATOM      7  C   UNL A   1      34.936  31.121  28.852  1.00  0.00     0.016 A 
ATOM      8  C   UNL A   1      36.114  33.139  28.288  1.00  0.00     0.016 A 
ATOM      9  C   UNL A   1      36.132  30.554  29.296  1.00  0.00     0.010 A 
ATOM     10  C   UNL A   1      37.317  32.577  28.726  1.00  0.00     0.010 A 
ATOM     11  C   UNL A   1      37.323  31.283  29.252  1.00  0.00    -0.014 A 
BRANCH  11  12
ATOM     12  C   UNL A   1      38.512  30.736  29.938  1.00  0.00     0.031 A 
ATOM     13  C   UNL A   1      38.757  31.141  31.360  1.00  0.00     0.074 A 
ATOM     14  C   UNL A   1      39.292  29.821  29.339  1.00  0.00     0.049 A 
ATOM     15  N   UNL A   1      39.636  30.682  32.211  1.00  0.00    -0.248 NA
ATOM     16  C   UNL A   1      37.873  32.185  31.906  1.00  0.00     0.031 C 
ATOM     17  C   UNL A   1      39.101  29.315  27.983  1.00  0.00     0.029 A 
ATOM     18  N   UNL A   1      40.393  29.144  29.796  1.00  0.00    -0.354 N 
ATOM     19  C   UNL A   1      39.385  31.350  33.401  1.00  0.00     0.074 A 
ATOM     20  C   UNL A   1      38.316  32.291  33.148  1.00  0.00     0.031 C 
ATOM     21  C   UNL A   1      40.066  28.422  27.705  1.00  0.00     0.029 A 
ATOM     22  C   UNL A   1      40.938  28.292  28.868  1.00  0.00     0.049 A 
ATOM     23  H   UNL A   1      40.758  29.260  30.703  1.00  0.00     0.167 HD
ATOM     24  C   UNL A   1      39.975  31.171  34.604  1.00  0.00     0.037 A 
ATOM     25  C   UNL A   1      42.017  27.492  28.958  1.00  0.00     0.037 A 
ATOM     26  C   UNL A   1      41.060  30.259  34.833  1.00  0.00     0.049 A 
ATOM     27  C   UNL A   1      42.735  27.399  30.277  1.00  0.00     0.074 A 
ATOM     28  C   UNL A   1      41.748  30.006  36.006  1.00  0.00     0.029 A 
ATOM     29  N   UNL A   1      41.629  29.457  33.852  1.00  0.00    -0.354 N 
ATOM     30  N   UNL A   1      42.457  27.993  31.412  1.00  0.00    -0.248 NA
ATOM     31  C   UNL A   1      43.896  26.502  30.335  1.00  0.00     0.031 C 
ATOM     32  C   UNL A   1      42.766  29.088  35.722  1.00  0.00     0.029 A 
ATOM     33  C   UNL A   1      42.678  28.729  34.385  1.00  0.00     0.049 A 
ATOM     34  H   UNL A   1      41.330  29.414  32.915  1.00  0.00     0.167 HD
ATOM     35  C   UNL A   1      43.373  27.505  32.333  1.00  0.00     0.074 A 
ATOM     36  C   UNL A   1      44.220  26.570  31.618  1.00  0.00     0.031 C 
ATOM     37  C   UNL A   1      43.493  27.791  33.653  1.00  0.00     0.037 A 
BRANCH  24  38
ATOM     38  C   UNL A   1      39.463  32.010  35.737  1.00  0.00     0.064 A 
ATOM     39  C   UNL A   1      40.003  33.278  36.011  1.00  0.00     0.173 A 
ATOM     40  C   UNL A   1      38.455  31.528  36.580  1.00  0.00     0.173 A 
ATOM     41  F   UNL A   1      40.988  33.773  35.247  1.00  0.00    -0.203 F 
ATOM     42  C   UNL A   1      39.575  34.014  37.113  1.00  0.00     0.198 A 
ATOM     43  C   UNL A   1      38.012  32.277  37.667  1.00  0.00     0.198 A 
ATOM     44  F   UNL A   1      37.911  30.320  36.364  1.00  0.00    -0.203 F 
ATOM     45  F   UNL A   1      40.148  35.192  37.394  1.00  0.00    -0.200 F 
ATOM     46  C   UNL A   1      38.579  33.514  37.939  1.00  0.00     0.200 A 
ATOM     47  F   UNL A   1      37.047  31.795  38.463  1.00  0.00    -0.200 F 
ATOM     48  F   UNL A   1      38.177  34.218  39.006  1.00  0.00    -0.200 F 
ENDBRANCH  24  38
BRANCH  25  49
ATOM     49  C   UNL A   1      42.456  26.695  27.784  1.00  0.00     0.064 A 
ATOM     50  C   UNL A   1      43.399  27.193  26.875  1.00  0.00     0.173 A 
ATOM     51  C   UNL A   1      41.929  25.418  27.543  1.00  0.00     0.173 A 
ATOM     52  F   UNL A   1      43.916  28.417  27.051  1.00  0.00    -0.203 F 
ATOM     53  C   UNL A   1      43.789  26.448  25.762  1.00  0.00     0.198 A 
ATOM     54  C   UNL A   1      42.339  24.663  26.447  1.00  0.00     0.198 A 
ATOM     55  F   UNL A   1      41.012  24.904  28.373  1.00  0.00    -0.203 F 
ATOM     56  F   UNL A   1      44.665  26.962  24.889  1.00  0.00    -0.200 F 
ATOM     57  C   UNL A   1      43.263  25.181  25.553  1.00  0.00     0.200 A 
ATOM     58  F   UNL A   1      41.837  23.435  26.256  1.00  0.00    -0.200 F 
ATOM     59  F   UNL A   1      43.644  24.463  24.487  1.00  0.00    -0.200 F 
ENDBRANCH  25  49
BRANCH  37  60
ATOM     60  C   UNL A   1      44.538  27.039  34.420  1.00  0.00     0.064 A 
ATOM     61  C   UNL A   1      45.834  27.543  34.594  1.00  0.00     0.173 A 
ATOM     62  C   UNL A   1      44.220  25.811  35.019  1.00  0.00     0.173 A 
ATOM     63  F   UNL A   1      46.188  28.706  34.025  1.00  0.00    -0.203 F 
ATOM     64  C   UNL A   1      46.785  26.831  35.320  1.00  0.00     0.198 A 
ATOM     65  C   UNL A   1      45.164  25.116  35.770  1.00  0.00     0.198 A 
ATOM     66  F   UNL A   1      42.992  25.290  34.885  1.00  0.00    -0.203 F 
ATOM     67  F   UNL A   1      48.033  27.306  35.432  1.00  0.00    -0.200 F 
ATOM     68  C   UNL A   1      46.447  25.623  35.913  1.00  0.00     0.200 A 
ATOM     69  F   UNL A   1      44.832  23.956  36.352  1.00  0.00    -0.200 F 
ATOM     70  F   UNL A   1      47.362  24.942  36.616  1.00  0.00    -0.200 F 
ENDBRANCH  37  60
ENDBRANCH  11  12
ENDBRANCH   4   6
ENDBRANCH   3   4
ENDBRANCH   2   3
ENDBRANCH   1   2
BRANCH   1  71
ATOM     71  O   UNL A   1      32.819  29.615  25.940  1.00  0.00    -0.458 OA
BRANCH  71  72
ATOM     72  C   UNL A   1      33.104  28.295  26.080  1.00  0.00     0.338 C 
ATOM     73  O   UNL A   1      34.100  27.815  26.596  1.00  0.00    -0.246 OA
BRANCH  72  74
ATOM     74  C   UNL A   1      31.964  27.476  25.631  1.00  0.00     0.062 A 
ATOM     75  C   UNL A   1      31.843  26.189  26.161  1.00  0.00     0.016 A 
ATOM     76  C   UNL A   1      31.050  27.940  24.678  1.00  0.00     0.041 A 
ATOM     77  C   UNL A   1      30.781  25.383  25.770  1.00  0.00     0.003 A 
ATOM     78  C   UNL A   1      30.016  27.103  24.219  1.00  0.00     0.039 A 
ATOM     79  C   UNL A   1      29.876  25.839  24.807  1.00  0.00     0.026 A 
BRANCH  78  80
ATOM     80  N   UNL A   1      29.175  27.565  23.184  1.00  0.00    -0.355 N 
ATOM     81  H   UNL A   1      28.716  26.857  22.678  1.00  0.00     0.167 HD
BRANCH  80  82
ATOM     82  C   UNL A   1      28.888  28.876  22.761  1.00  0.00     0.039 A 
ATOM     83  C   UNL A   1      27.741  29.506  23.266  1.00  0.00     0.033 A 
ATOM     84  C   UNL A   1      29.746  29.609  21.932  1.00  0.00     0.033 A 
ATOM     85  C   UNL A   1      27.462  30.844  22.972  1.00  0.00     0.088 A 
ATOM     86  C   UNL A   1      29.478  30.950  21.622  1.00  0.00     0.088 A 
ATOM     87  C   UNL A   1      28.340  31.564  22.155  1.00  0.00     0.269 A 
BRANCH  87  88
ATOM     88  N   UNL A   1      28.070  32.980  21.872  1.00  0.00     0.062 N 
ATOM     89  O   UNL A   1      28.419  33.814  22.720  1.00  0.00    -0.258 OA
ATOM     90  O   UNL A   1      27.518  33.260  20.799  1.00  0.00    -0.258 OA
ENDBRANCH  87  88
ENDBRANCH  80  82
ENDBRANCH  78  80
ENDBRANCH  72  74
ENDBRANCH  71  72
ENDBRANCH   1  71
TORSDOF 14
ENDMDL
MODEL 3
REMARK VINA RESULT:     -12.3      0.259      1.628
REMARK SMILES O=C(OCCOC(=O)c1cccc(Nc2ccc([N+](=O)[O-])cc2)c1)c1ccc(-c2c3nc(c(-c4c(F)c(F)c(F)c(F)c4F)c4ccc([nH]4)c(-c4c(F)c(F)c(F)c(F)c4F)c4nc(c(-c5c(F)c(F)c(F)c(F)c5F)c5ccc2[nH]5)C=C4)C=C3)cc1
REMARK SMILES IDX 5 1 4 2 3 3 2 4 1 5 25 6 26 7 87 8 27 9 86 10 28 11 29 12
REMARK SMILES IDX 30 13 80 14 31 15 85 16 79 17 81 18 32 19 84 20 78 21 77 22
REMARK SMILES IDX 33 24 65 25 45 26 64 27 46 28 49 29 63 30 82 31 47 32 48 33
REMARK SMILES IDX 62 35 83 36 50 37 34 38 35 39 43 40 36 41 37 42 41 43 44 44
REMARK SMILES IDX 38 45 39 46 42 47 40 48 66 49 67 50 75 51 68 52 69 53 73 54
REMARK SMILES IDX 76 55 70 56 71 57 74 58 72 59 51 60 52 61 60 62 53 63 54 64
REMARK SMILES IDX 58 65 61 66 55 67 56 68 59 69 57 70 6 71 7 72 8 73 9 74
REMARK SMILES IDX 10 75 24 76 11 77 13 78 12 79 14 80 15 82 16 83 23 84 17 85
REMARK SMILES IDX 22 86 18 87 19 88 20 89 21 90
REMARK H PARENT 81 23 49 34 14 81
REMARK Flexibility Score: inf
ROOT
ATOM      1  C   UNL A   1      38.332  21.187  25.375  1.00  0.00     0.275 C 
ENDROOT
BRANCH   1   2
ATOM      2  C   UNL A   1      38.786  19.725  25.353  1.00  0.00     0.275 C 
BRANCH   2   3
ATOM      3  O   UNL A   1      39.885  19.418  26.232  1.00  0.00    -0.458 OA
BRANCH   3   4
ATOM      4  C   UNL A   1      41.197  19.726  26.117  1.00  0.00     0.338 C 
ATOM      5  O   UNL A   1      41.985  18.861  25.737  1.00  0.00    -0.246 OA
BRANCH   4   6
ATOM      6  C   UNL A   1      41.780  21.026  26.572  1.00  0.00     0.060 A 
ATOM      7  C   UNL A   1      42.086  21.366  27.890  1.00  0.00     0.016 A 
ATOM      8  C   UNL A   1      41.988  21.999  25.573  1.00  0.00     0.016 A 
ATOM      9  C   UNL A   1      42.631  22.613  28.201  1.00  0.00     0.010 A 
ATOM     10  C   UNL A   1      42.538  23.248  25.875  1.00  0.00     0.010 A 
ATOM     11  C   UNL A   1      42.844  23.565  27.200  1.00  0.00    -0.014 A 
BRANCH  11  12
ATOM     12  C   UNL A   1      43.204  24.941  27.599  1.00  0.00     0.031 A 
ATOM     13  C   UNL A   1      44.600  25.414  27.328  1.00  0.00     0.074 A 
ATOM     14  C   UNL A   1      42.277  25.778  28.095  1.00  0.00     0.049 A 
ATOM     15  N   UNL A   1      45.104  26.614  27.446  1.00  0.00    -0.248 NA
ATOM     16  C   UNL A   1      45.549  24.405  26.828  1.00  0.00     0.031 C 
ATOM     17  C   UNL A   1      40.880  25.434  28.337  1.00  0.00     0.029 A 
ATOM     18  N   UNL A   1      42.368  27.093  28.473  1.00  0.00    -0.354 N 
ATOM     19  C   UNL A   1      46.414  26.512  26.998  1.00  0.00     0.074 A 
ATOM     20  C   UNL A   1      46.647  25.124  26.667  1.00  0.00     0.031 C 
ATOM     21  C   UNL A   1      40.244  26.503  28.845  1.00  0.00     0.029 A 
ATOM     22  C   UNL A   1      41.191  27.607  28.957  1.00  0.00     0.049 A 
ATOM     23  H   UNL A   1      43.198  27.617  28.404  1.00  0.00     0.167 HD
ATOM     24  C   UNL A   1      47.328  27.496  26.850  1.00  0.00     0.037 A 
ATOM     25  C   UNL A   1      40.915  28.837  29.429  1.00  0.00     0.037 A 
ATOM     26  C   UNL A   1      47.095  28.865  27.217  1.00  0.00     0.049 A 
ATOM     27  C   UNL A   1      41.988  29.890  29.366  1.00  0.00     0.074 A 
ATOM     28  C   UNL A   1      47.954  29.945  27.128  1.00  0.00     0.029 A 
ATOM     29  N   UNL A   1      45.910  29.337  27.766  1.00  0.00    -0.354 N 
ATOM     30  N   UNL A   1      43.207  29.798  28.891  1.00  0.00    -0.248 NA
ATOM     31  C   UNL A   1      41.639  31.221  29.876  1.00  0.00     0.031 C 
ATOM     32  C   UNL A   1      47.303  31.061  27.669  1.00  0.00     0.029 A 
ATOM     33  C   UNL A   1      46.022  30.687  28.047  1.00  0.00     0.049 A 
ATOM     34  H   UNL A   1      45.107  28.791  27.930  1.00  0.00     0.167 HD
ATOM     35  C   UNL A   1      43.753  31.070  28.994  1.00  0.00     0.074 A 
ATOM     36  C   UNL A   1      42.733  31.912  29.586  1.00  0.00     0.031 C 
ATOM     37  C   UNL A   1      44.982  31.504  28.619  1.00  0.00     0.037 A 
BRANCH  24  38
ATOM     38  C   UNL A   1      48.663  27.098  26.295  1.00  0.00     0.064 A 
ATOM     39  C   UNL A   1      48.921  27.127  24.914  1.00  0.00     0.173 A 
ATOM     40  C   UNL A   1      49.680  26.644  27.144  1.00  0.00     0.173 A 
ATOM     41  F   UNL A   1      47.970  27.530  24.057  1.00  0.00    -0.203 F 
ATOM     42  C   UNL A   1      50.137  26.680  24.404  1.00  0.00     0.198 A 
ATOM     43  C   UNL A   1      50.904  26.220  26.632  1.00  0.00     0.198 A 
ATOM     44  F   UNL A   1      49.481  26.591  28.470  1.00  0.00    -0.203 F 
ATOM     45  F   UNL A   1      50.338  26.656  23.079  1.00  0.00    -0.200 F 
ATOM     46  C   UNL A   1      51.127  26.229  25.263  1.00  0.00     0.200 A 
ATOM     47  F   UNL A   1      51.862  25.787  27.464  1.00  0.00    -0.200 F 
ATOM     48  F   UNL A   1      52.293  25.786  24.770  1.00  0.00    -0.200 F 
ENDBRANCH  24  38
BRANCH  25  49
ATOM     49  C   UNL A   1      39.564  29.147  29.964  1.00  0.00     0.064 A 
ATOM     50  C   UNL A   1      38.537  29.607  29.130  1.00  0.00     0.173 A 
ATOM     51  C   UNL A   1      39.279  28.998  31.329  1.00  0.00     0.173 A 
ATOM     52  F   UNL A   1      38.767  29.786  27.821  1.00  0.00    -0.203 F 
ATOM     53  C   UNL A   1      37.277  29.917  29.643  1.00  0.00     0.198 A 
ATOM     54  C   UNL A   1      38.013  29.281  31.837  1.00  0.00     0.198 A 
ATOM     55  F   UNL A   1      40.232  28.577  32.171  1.00  0.00    -0.203 F 
ATOM     56  F   UNL A   1      36.324  30.390  28.830  1.00  0.00    -0.200 F 
ATOM     57  C   UNL A   1      37.015  29.748  30.995  1.00  0.00     0.200 A 
ATOM     58  F   UNL A   1      37.761  29.105  33.141  1.00  0.00    -0.200 F 
ATOM     59  F   UNL A   1      35.803  30.040  31.486  1.00  0.00    -0.200 F 
ENDBRANCH  25  49
BRANCH  37  60
ATOM     60  C   UNL A   1      45.265  32.968  28.782  1.00  0.00     0.064 A 
ATOM     61  C   UNL A   1      45.900  33.476  29.924  1.00  0.00     0.173 A 
ATOM     62  C   UNL A   1      44.924  33.866  27.760  1.00  0.00     0.173 A 
ATOM     63  F   UNL A   1      46.229  32.657  30.934  1.00  0.00    -0.203 F 
ATOM     64  C   UNL A   1      46.161  34.838  30.047  1.00  0.00     0.198 A 
ATOM     65  C   UNL A   1      45.214  35.222  27.874  1.00  0.00     0.198 A 
ATOM     66  F   UNL A   1      44.319  33.426  26.647  1.00  0.00    -0.203 F 
ATOM     67  F   UNL A   1      46.724  35.311  31.168  1.00  0.00    -0.200 F 
ATOM     68  C   UNL A   1      45.825  35.708  29.020  1.00  0.00     0.200 A 
ATOM     69  F   UNL A   1      44.900  36.059  26.875  1.00  0.00    -0.200 F 
ATOM     70  F   UNL A   1      46.083  37.017  29.139  1.00  0.00    -0.200 F 
ENDBRANCH  37  60
ENDBRANCH  11  12
ENDBRANCH   4   6
ENDBRANCH   3   4
ENDBRANCH   2   3
ENDBRANCH   1   2
BRANCH   1  71
ATOM     71  O   UNL A   1      37.077  21.406  24.714  1.00  0.00    -0.458 OA
BRANCH  71  72
ATOM     72  C   UNL A   1      36.570  22.655  24.879  1.00  0.00     0.338 C 
ATOM     73  O   UNL A   1      37.157  23.626  25.328  1.00  0.00    -0.246 OA
BRANCH  72  74
ATOM     74  C   UNL A   1      35.213  22.733  24.310  1.00  0.00     0.062 A 
ATOM     75  C   UNL A   1      34.733  23.996  23.952  1.00  0.00     0.016 A 
ATOM     76  C   UNL A   1      34.403  21.600  24.167  1.00  0.00     0.041 A 
ATOM     77  C   UNL A   1      33.461  24.118  23.407  1.00  0.00     0.003 A 
ATOM     78  C   UNL A   1      33.086  21.723  23.688  1.00  0.00     0.039 A 
ATOM     79  C   UNL A   1      32.647  22.989  23.277  1.00  0.00     0.026 A 
BRANCH  78  80
ATOM     80  N   UNL A   1      32.265  20.577  23.653  1.00  0.00    -0.355 N 
ATOM     81  H   UNL A   1      31.361  20.726  23.292  1.00  0.00     0.167 HD
BRANCH  80  82
ATOM     82  C   UNL A   1      32.530  19.254  24.050  1.00  0.00     0.039 A 
ATOM     83  C   UNL A   1      32.918  18.327  23.071  1.00  0.00     0.033 A 
ATOM     84  C   UNL A   1      32.515  18.847  25.390  1.00  0.00     0.033 A 
ATOM     85  C   UNL A   1      33.304  17.028  23.417  1.00  0.00     0.088 A 
ATOM     86  C   UNL A   1      32.893  17.547  25.754  1.00  0.00     0.088 A 
ATOM     87  C   UNL A   1      33.297  16.646  24.763  1.00  0.00     0.269 A 
BRANCH  87  88
ATOM     88  N   UNL A   1      33.735  15.294  25.135  1.00  0.00     0.062 N 
ATOM     89  O   UNL A   1      32.863  14.424  25.274  1.00  0.00    -0.258 OA
ATOM     90  O   UNL A   1      34.950  15.099  25.280  1.00  0.00    -0.258 OA
ENDBRANCH  87  88
ENDBRANCH  80  82
ENDBRANCH  78  80
ENDBRANCH  72  74
ENDBRANCH  71  72
ENDBRANCH   1  71
TORSDOF 14
ENDMDL
