MODEL 1
REMARK VINA RESULT:     -11.3      0.000      0.000
REMARK SMILES CC[C@@](C)(NC(=O)[C@@H]1CCS(=O)(=O)C1)C(=O)OCCOC(=O)c1ccc(-c2c3nc(c(-c4c(F)c(F)c(F)c(F)c4F)c4ccc([nH]4)c(-c4c(F)c(F)c(F)c(F)c4F)c4nc(c(-c5c(F)c(F)c(F)c(F)c5F)c5ccc2[nH]5)C=C4)C=C3)cc1
REMARK SMILES IDX 18 1 17 2 15 3 16 4 3 5 4 6 2 7 1 8 5 9 6 10 7 12 8 13 9 14
REMARK SMILES IDX 14 15 10 16 11 17 12 18 13 19 19 20 20 21 21 22 22 23 23 24
REMARK SMILES IDX 24 25 85 26 25 27 84 28 26 29 27 30 28 31 78 32 29 33 83 34
REMARK SMILES IDX 77 35 79 36 30 37 82 38 76 39 75 40 31 42 63 43 43 44 62 45
REMARK SMILES IDX 44 46 47 47 61 48 80 49 45 50 46 51 60 53 81 54 48 55 32 56
REMARK SMILES IDX 33 57 41 58 34 59 35 60 39 61 42 62 36 63 37 64 40 65 38 66
REMARK SMILES IDX 64 67 65 68 73 69 66 70 67 71 71 72 74 73 68 74 69 75 72 76
REMARK SMILES IDX 70 77 49 78 50 79 58 80 51 81 52 82 56 83 59 84 53 85 54 86
REMARK SMILES IDX 57 87 55 88
REMARK H PARENT 5 11 79 41 47 52
REMARK Flexibility Score: inf
ROOT
ATOM      1  C   UNL A   1      31.263  29.572  24.572  1.00  0.00     0.274 C 
ENDROOT
BRANCH   1   2
ATOM      2  O   UNL A   1      30.965  28.212  24.177  1.00  0.00    -0.460 OA
BRANCH   2   3
ATOM      3  C   UNL A   1      31.104  27.887  22.872  1.00  0.00     0.331 C 
ATOM      4  O   UNL A   1      30.336  28.285  22.004  1.00  0.00    -0.249 OA
BRANCH   3   5
ATOM      5  C   UNL A   1      32.252  26.852  22.610  1.00  0.00     0.135 C 
ATOM      6  C   UNL A   1      31.780  25.989  21.425  1.00  0.00     0.047 C 
BRANCH   5   7
ATOM      7  C   UNL A   1      33.556  27.615  22.165  1.00  0.00     0.037 C 
ATOM      8  C   UNL A   1      34.321  28.447  23.186  1.00  0.00     0.007 C 
ENDBRANCH   5   7
BRANCH   5   9
ATOM      9  N   UNL A   1      32.756  25.936  23.706  1.00  0.00    -0.340 N 
ATOM     10  C   UNL A   1      32.539  24.694  24.201  1.00  0.00     0.225 C 
ATOM     11  H   UNL A   1      33.464  26.385  24.221  1.00  0.00     0.164 HD
ATOM     12  O   UNL A   1      33.507  24.149  24.741  1.00  0.00    -0.275 OA
BRANCH  10  13
ATOM     13  C   UNL A   1      31.175  24.039  24.250  1.00  0.00     0.094 C 
ATOM     14  C   UNL A   1      30.043  25.021  24.607  1.00  0.00     0.030 C 
ATOM     15  C   UNL A   1      31.093  22.922  25.271  1.00  0.00     0.150 C 
ATOM     16  C   UNL A   1      30.007  25.206  26.119  1.00  0.00     0.138 C 
ATOM     17  S   UNL A   1      30.673  23.705  26.810  1.00  0.00     0.151 S 
ATOM     18  O   UNL A   1      31.904  24.003  27.514  1.00  0.00    -0.229 OA
ATOM     19  O   UNL A   1      29.605  22.944  27.421  1.00  0.00    -0.229 OA
ENDBRANCH  10  13
ENDBRANCH   5   9
ENDBRANCH   3   5
ENDBRANCH   2   3
ENDBRANCH   1   2
BRANCH   1  20
ATOM     20  C   UNL A   1      31.789  29.575  26.007  1.00  0.00     0.275 C 
BRANCH  20  21
ATOM     21  O   UNL A   1      33.091  30.189  26.010  1.00  0.00    -0.458 OA
BRANCH  21  22
ATOM     22  C   UNL A   1      33.259  31.212  26.873  1.00  0.00     0.338 C 
ATOM     23  O   UNL A   1      32.455  32.089  27.171  1.00  0.00    -0.246 OA
BRANCH  22  24
ATOM     24  C   UNL A   1      34.516  30.989  27.589  1.00  0.00     0.060 A 
ATOM     25  C   UNL A   1      34.802  29.681  27.974  1.00  0.00     0.016 A 
ATOM     26  C   UNL A   1      35.380  32.031  27.914  1.00  0.00     0.016 A 
ATOM     27  C   UNL A   1      35.949  29.398  28.705  1.00  0.00     0.010 A 
ATOM     28  C   UNL A   1      36.553  31.743  28.623  1.00  0.00     0.010 A 
ATOM     29  C   UNL A   1      36.841  30.427  29.032  1.00  0.00    -0.014 A 
BRANCH  29  30
ATOM     30  C   UNL A   1      38.056  30.118  29.831  1.00  0.00     0.031 A 
ATOM     31  C   UNL A   1      39.131  29.242  29.256  1.00  0.00     0.074 A 
ATOM     32  C   UNL A   1      38.211  30.660  31.054  1.00  0.00     0.049 A 
ATOM     33  N   UNL A   1      40.208  28.764  29.828  1.00  0.00    -0.248 NA
ATOM     34  C   UNL A   1      38.975  28.849  27.847  1.00  0.00     0.031 C 
ATOM     35  C   UNL A   1      37.263  31.568  31.701  1.00  0.00     0.029 A 
ATOM     36  N   UNL A   1      39.226  30.534  31.970  1.00  0.00    -0.354 N 
ATOM     37  C   UNL A   1      40.842  27.994  28.861  1.00  0.00     0.074 A 
ATOM     38  C   UNL A   1      40.024  28.059  27.668  1.00  0.00     0.031 C 
ATOM     39  C   UNL A   1      37.749  31.932  32.898  1.00  0.00     0.029 A 
ATOM     40  C   UNL A   1      39.008  31.232  33.133  1.00  0.00     0.049 A 
ATOM     41  H   UNL A   1      40.033  29.994  31.808  1.00  0.00     0.167 HD
ATOM     42  C   UNL A   1      41.999  27.297  28.963  1.00  0.00     0.037 A 
ATOM     43  C   UNL A   1      39.723  31.275  34.272  1.00  0.00     0.037 A 
ATOM     44  C   UNL A   1      42.815  27.250  30.150  1.00  0.00     0.049 A 
ATOM     45  C   UNL A   1      40.987  30.466  34.371  1.00  0.00     0.074 A 
ATOM     46  C   UNL A   1      43.982  26.542  30.373  1.00  0.00     0.029 A 
ATOM     47  N   UNL A   1      42.550  27.956  31.315  1.00  0.00    -0.354 N 
ATOM     48  N   UNL A   1      41.543  29.686  33.473  1.00  0.00    -0.248 NA
ATOM     49  C   UNL A   1      41.719  30.532  35.642  1.00  0.00     0.031 C 
ATOM     50  C   UNL A   1      44.409  26.797  31.681  1.00  0.00     0.029 A 
ATOM     51  C   UNL A   1      43.531  27.698  32.260  1.00  0.00     0.049 A 
ATOM     52  H   UNL A   1      41.779  28.554  31.450  1.00  0.00     0.167 HD
ATOM     53  C   UNL A   1      42.686  29.172  34.070  1.00  0.00     0.074 A 
ATOM     54  C   UNL A   1      42.763  29.757  35.392  1.00  0.00     0.031 C 
ATOM     55  C   UNL A   1      43.582  28.285  33.574  1.00  0.00     0.037 A 
BRANCH  42  56
ATOM     56  C   UNL A   1      42.434  26.502  27.768  1.00  0.00     0.064 A 
ATOM     57  C   UNL A   1      41.928  25.220  27.508  1.00  0.00     0.173 A 
ATOM     58  C   UNL A   1      43.355  27.041  26.855  1.00  0.00     0.173 A 
ATOM     59  F   UNL A   1      41.059  24.654  28.359  1.00  0.00    -0.203 F 
ATOM     60  C   UNL A   1      42.344  24.499  26.391  1.00  0.00     0.198 A 
ATOM     61  C   UNL A   1      43.749  26.328  25.726  1.00  0.00     0.198 A 
ATOM     62  F   UNL A   1      43.869  28.264  27.055  1.00  0.00    -0.203 F 
ATOM     63  F   UNL A   1      41.880  23.258  26.186  1.00  0.00    -0.200 F 
ATOM     64  C   UNL A   1      43.248  25.055  25.498  1.00  0.00     0.200 A 
ATOM     65  F   UNL A   1      44.616  26.870  24.860  1.00  0.00    -0.200 F 
ATOM     66  F   UNL A   1      43.644  24.360  24.423  1.00  0.00    -0.200 F 
ENDBRANCH  42  56
BRANCH  43  67
ATOM     67  C   UNL A   1      39.238  32.080  35.425  1.00  0.00     0.064 A 
ATOM     68  C   UNL A   1      38.452  31.507  36.433  1.00  0.00     0.173 A 
ATOM     69  C   UNL A   1      39.549  33.444  35.538  1.00  0.00     0.173 A 
ATOM     70  F   UNL A   1      38.105  30.214  36.358  1.00  0.00    -0.203 F 
ATOM     71  C   UNL A   1      37.983  32.270  37.502  1.00  0.00     0.198 A 
ATOM     72  C   UNL A   1      39.106  34.198  36.622  1.00  0.00     0.198 A 
ATOM     73  F   UNL A   1      40.296  34.042  34.598  1.00  0.00    -0.203 F 
ATOM     74  F   UNL A   1      37.194  31.708  38.428  1.00  0.00    -0.200 F 
ATOM     75  C   UNL A   1      38.318  33.612  37.599  1.00  0.00     0.200 A 
ATOM     76  F   UNL A   1      39.445  35.491  36.719  1.00  0.00    -0.200 F 
ATOM     77  F   UNL A   1      37.874  34.343  38.631  1.00  0.00    -0.200 F 
ENDBRANCH  43  67
BRANCH  55  78
ATOM     78  C   UNL A   1      44.724  27.908  34.471  1.00  0.00     0.064 A 
ATOM     79  C   UNL A   1      44.637  26.813  35.345  1.00  0.00     0.173 A 
ATOM     80  C   UNL A   1      45.916  28.646  34.456  1.00  0.00     0.173 A 
ATOM     81  F   UNL A   1      43.510  26.088  35.407  1.00  0.00    -0.203 F 
ATOM     82  C   UNL A   1      45.690  26.494  36.197  1.00  0.00     0.198 A 
ATOM     83  C   UNL A   1      46.977  28.307  35.290  1.00  0.00     0.198 A 
ATOM     84  F   UNL A   1      46.050  29.698  33.634  1.00  0.00    -0.203 F 
ATOM     85  F   UNL A   1      45.564  25.480  37.064  1.00  0.00    -0.200 F 
ATOM     86  C   UNL A   1      46.860  27.238  36.166  1.00  0.00     0.200 A 
ATOM     87  F   UNL A   1      48.111  29.022  35.254  1.00  0.00    -0.200 F 
ATOM     88  F   UNL A   1      47.871  26.932  36.991  1.00  0.00    -0.200 F 
ENDBRANCH  55  78
ENDBRANCH  29  30
ENDBRANCH  22  24
ENDBRANCH  21  22
ENDBRANCH  20  21
ENDBRANCH   1  20
TORSDOF 14
ENDMDL
MODEL 2
REMARK VINA RESULT:     -11.2      1.265      1.887
REMARK SMILES CC[C@@](C)(NC(=O)[C@@H]1CCS(=O)(=O)C1)C(=O)OCCOC(=O)c1ccc(-c2c3nc(c(-c4c(F)c(F)c(F)c(F)c4F)c4ccc([nH]4)c(-c4c(F)c(F)c(F)c(F)c4F)c4nc(c(-c5c(F)c(F)c(F)c(F)c5F)c5ccc2[nH]5)C=C4)C=C3)cc1
REMARK SMILES IDX 18 1 17 2 15 3 16 4 3 5 4 6 2 7 1 8 5 9 6 10 7 12 8 13 9 14
REMARK SMILES IDX 14 15 10 16 11 17 12 18 13 19 19 20 20 21 21 22 22 23 23 24
REMARK SMILES IDX 24 25 85 26 25 27 84 28 26 29 27 30 28 31 78 32 29 33 83 34
REMARK SMILES IDX 77 35 79 36 30 37 82 38 76 39 75 40 31 42 63 43 43 44 62 45
REMARK SMILES IDX 44 46 47 47 61 48 80 49 45 50 46 51 60 53 81 54 48 55 32 56
REMARK SMILES IDX 33 57 41 58 34 59 35 60 39 61 42 62 36 63 37 64 40 65 38 66
REMARK SMILES IDX 64 67 65 68 73 69 66 70 67 71 71 72 74 73 68 74 69 75 72 76
REMARK SMILES IDX 70 77 49 78 50 79 58 80 51 81 52 82 56 83 59 84 53 85 54 86
REMARK SMILES IDX 57 87 55 88
REMARK H PARENT 5 11 79 41 47 52
REMARK Flexibility Score: inf
ROOT
ATOM      1  C   UNL A   1      31.755  28.631  26.785  1.00  0.00     0.274 C 
ENDROOT
BRANCH   1   2
ATOM      2  O   UNL A   1      32.205  27.650  25.822  1.00  0.00    -0.460 OA
BRANCH   2   3
ATOM      3  C   UNL A   1      31.396  26.597  25.564  1.00  0.00     0.331 C 
ATOM      4  O   UNL A   1      30.872  25.932  26.450  1.00  0.00    -0.249 OA
BRANCH   3   5
ATOM      5  C   UNL A   1      31.309  26.240  24.041  1.00  0.00     0.135 C 
ATOM      6  C   UNL A   1      30.102  25.295  23.897  1.00  0.00     0.047 C 
BRANCH   5   7
ATOM      7  C   UNL A   1      31.004  27.545  23.212  1.00  0.00     0.037 C 
ATOM      8  C   UNL A   1      29.575  28.062  23.129  1.00  0.00     0.007 C 
ENDBRANCH   5   7
BRANCH   5   9
ATOM      9  N   UNL A   1      32.486  25.640  23.301  1.00  0.00    -0.340 N 
ATOM     10  C   UNL A   1      33.129  24.455  23.162  1.00  0.00     0.225 C 
ATOM     11  H   UNL A   1      32.921  26.327  22.746  1.00  0.00     0.164 HD
ATOM     12  O   UNL A   1      33.695  24.270  22.081  1.00  0.00    -0.275 OA
BRANCH  10  13
ATOM     13  C   UNL A   1      33.300  23.460  24.290  1.00  0.00     0.094 C 
ATOM     14  C   UNL A   1      34.041  24.043  25.508  1.00  0.00     0.030 C 
ATOM     15  C   UNL A   1      34.084  22.230  23.877  1.00  0.00     0.150 C 
ATOM     16  C   UNL A   1      35.541  23.998  25.243  1.00  0.00     0.138 C 
ATOM     17  S   UNL A   1      35.796  22.648  24.108  1.00  0.00     0.151 S 
ATOM     18  O   UNL A   1      36.306  23.163  22.853  1.00  0.00    -0.229 OA
ATOM     19  O   UNL A   1      36.434  21.552  24.803  1.00  0.00    -0.229 OA
ENDBRANCH  10  13
ENDBRANCH   5   9
ENDBRANCH   3   5
ENDBRANCH   2   3
ENDBRANCH   1   2
BRANCH   1  20
ATOM     20  C   UNL A   1      31.819  30.022  26.154  1.00  0.00     0.275 C 
BRANCH  20  21
ATOM     21  O   UNL A   1      33.188  30.464  26.172  1.00  0.00    -0.458 OA
BRANCH  21  22
ATOM     22  C   UNL A   1      33.457  31.519  26.969  1.00  0.00     0.338 C 
ATOM     23  O   UNL A   1      32.742  32.484  27.212  1.00  0.00    -0.246 OA
BRANCH  22  24
ATOM     24  C   UNL A   1      34.693  31.223  27.696  1.00  0.00     0.060 A 
ATOM     25  C   UNL A   1      34.886  29.906  28.107  1.00  0.00     0.016 A 
ATOM     26  C   UNL A   1      35.625  32.209  28.008  1.00  0.00     0.016 A 
ATOM     27  C   UNL A   1      36.008  29.559  28.850  1.00  0.00     0.010 A 
ATOM     28  C   UNL A   1      36.772  31.855  28.729  1.00  0.00     0.010 A 
ATOM     29  C   UNL A   1      36.967  30.530  29.163  1.00  0.00    -0.014 A 
BRANCH  29  30
ATOM     30  C   UNL A   1      38.154  30.153  29.975  1.00  0.00     0.031 A 
ATOM     31  C   UNL A   1      39.202  29.245  29.398  1.00  0.00     0.074 A 
ATOM     32  C   UNL A   1      38.311  30.663  31.212  1.00  0.00     0.049 A 
ATOM     33  N   UNL A   1      40.248  28.710  29.977  1.00  0.00    -0.248 NA
ATOM     34  C   UNL A   1      39.053  28.888  27.979  1.00  0.00     0.031 C 
ATOM     35  C   UNL A   1      37.391  31.597  31.862  1.00  0.00     0.029 A 
ATOM     36  N   UNL A   1      39.304  30.475  32.141  1.00  0.00    -0.354 N 
ATOM     37  C   UNL A   1      40.864  27.934  29.004  1.00  0.00     0.074 A 
ATOM     38  C   UNL A   1      40.070  28.057  27.800  1.00  0.00     0.031 C 
ATOM     39  C   UNL A   1      37.871  31.915  33.075  1.00  0.00     0.029 A 
ATOM     40  C   UNL A   1      39.096  31.157  33.315  1.00  0.00     0.049 A 
ATOM     41  H   UNL A   1      40.091  29.904  31.981  1.00  0.00     0.167 HD
ATOM     42  C   UNL A   1      41.989  27.187  29.111  1.00  0.00     0.037 A 
ATOM     43  C   UNL A   1      39.793  31.146  34.466  1.00  0.00     0.037 A 
ATOM     44  C   UNL A   1      42.782  27.080  30.309  1.00  0.00     0.049 A 
ATOM     45  C   UNL A   1      41.020  30.282  34.568  1.00  0.00     0.074 A 
ATOM     46  C   UNL A   1      43.915  26.318  30.535  1.00  0.00     0.029 A 
ATOM     47  N   UNL A   1      42.528  27.773  31.484  1.00  0.00    -0.354 N 
ATOM     48  N   UNL A   1      41.557  29.499  33.663  1.00  0.00    -0.248 NA
ATOM     49  C   UNL A   1      41.732  30.292  35.852  1.00  0.00     0.031 C 
ATOM     50  C   UNL A   1      44.330  26.528  31.856  1.00  0.00     0.029 A 
ATOM     51  C   UNL A   1      43.481  27.453  32.439  1.00  0.00     0.049 A 
ATOM     52  H   UNL A   1      41.780  28.400  31.620  1.00  0.00     0.167 HD
ATOM     53  C   UNL A   1      42.667  28.924  34.267  1.00  0.00     0.074 A 
ATOM     54  C   UNL A   1      42.747  29.478  35.602  1.00  0.00     0.031 C 
ATOM     55  C   UNL A   1      43.534  28.011  33.766  1.00  0.00     0.037 A 
BRANCH  42  56
ATOM     56  C   UNL A   1      42.411  26.399  27.906  1.00  0.00     0.064 A 
ATOM     57  C   UNL A   1      41.840  25.155  27.598  1.00  0.00     0.173 A 
ATOM     58  C   UNL A   1      43.385  26.907  27.032  1.00  0.00     0.173 A 
ATOM     59  F   UNL A   1      40.918  24.618  28.411  1.00  0.00    -0.203 F 
ATOM     60  C   UNL A   1      42.244  24.439  26.474  1.00  0.00     0.198 A 
ATOM     61  C   UNL A   1      43.769  26.201  25.895  1.00  0.00     0.198 A 
ATOM     62  F   UNL A   1      43.963  28.093  27.279  1.00  0.00    -0.203 F 
ATOM     63  F   UNL A   1      41.716  23.233  26.223  1.00  0.00    -0.200 F 
ATOM     64  C   UNL A   1      43.202  24.965  25.619  1.00  0.00     0.200 A 
ATOM     65  F   UNL A   1      44.689  26.714  25.066  1.00  0.00    -0.200 F 
ATOM     66  F   UNL A   1      43.588  24.276  24.536  1.00  0.00    -0.200 F 
ENDBRANCH  42  56
BRANCH  43  67
ATOM     67  C   UNL A   1      39.323  31.948  35.628  1.00  0.00     0.064 A 
ATOM     68  C   UNL A   1      38.430  31.413  36.566  1.00  0.00     0.173 A 
ATOM     69  C   UNL A   1      39.755  33.268  35.819  1.00  0.00     0.173 A 
ATOM     70  F   UNL A   1      37.967  30.164  36.414  1.00  0.00    -0.203 F 
ATOM     71  C   UNL A   1      37.976  32.174  37.643  1.00  0.00     0.198 A 
ATOM     72  C   UNL A   1      39.326  34.017  36.912  1.00  0.00     0.198 A 
ATOM     73  F   UNL A   1      40.607  33.829  34.948  1.00  0.00    -0.203 F 
ATOM     74  F   UNL A   1      37.087  31.654  38.500  1.00  0.00    -0.200 F 
ATOM     75  C   UNL A   1      38.431  33.472  37.819  1.00  0.00     0.200 A 
ATOM     76  F   UNL A   1      39.780  35.266  37.086  1.00  0.00    -0.200 F 
ATOM     77  F   UNL A   1      38.001  34.200  38.859  1.00  0.00    -0.200 F 
ENDBRANCH  43  67
BRANCH  55  78
ATOM     78  C   UNL A   1      44.643  27.567  34.674  1.00  0.00     0.064 A 
ATOM     79  C   UNL A   1      44.501  26.450  35.511  1.00  0.00     0.173 A 
ATOM     80  C   UNL A   1      45.860  28.263  34.705  1.00  0.00     0.173 A 
ATOM     81  F   UNL A   1      43.350  25.762  35.528  1.00  0.00    -0.203 F 
ATOM     82  C   UNL A   1      45.525  26.068  36.373  1.00  0.00     0.198 A 
ATOM     83  C   UNL A   1      46.892  27.862  35.549  1.00  0.00     0.198 A 
ATOM     84  F   UNL A   1      46.046  29.335  33.920  1.00  0.00    -0.203 F 
ATOM     85  F   UNL A   1      45.347  25.033  37.205  1.00  0.00    -0.200 F 
ATOM     86  C   UNL A   1      46.720  26.772  36.389  1.00  0.00     0.200 A 
ATOM     87  F   UNL A   1      48.049  28.539  35.558  1.00  0.00    -0.200 F 
ATOM     88  F   UNL A   1      47.703  26.407  37.223  1.00  0.00    -0.200 F 
ENDBRANCH  55  78
ENDBRANCH  29  30
ENDBRANCH  22  24
ENDBRANCH  21  22
ENDBRANCH  20  21
ENDBRANCH   1  20
TORSDOF 14
ENDMDL
MODEL 3
REMARK VINA RESULT:     -11.1      4.630      9.983
REMARK SMILES CC[C@@](C)(NC(=O)[C@@H]1CCS(=O)(=O)C1)C(=O)OCCOC(=O)c1ccc(-c2c3nc(c(-c4c(F)c(F)c(F)c(F)c4F)c4ccc([nH]4)c(-c4c(F)c(F)c(F)c(F)c4F)c4nc(c(-c5c(F)c(F)c(F)c(F)c5F)c5ccc2[nH]5)C=C4)C=C3)cc1
REMARK SMILES IDX 18 1 17 2 15 3 16 4 3 5 4 6 2 7 1 8 5 9 6 10 7 12 8 13 9 14
REMARK SMILES IDX 14 15 10 16 11 17 12 18 13 19 19 20 20 21 21 22 22 23 23 24
REMARK SMILES IDX 24 25 85 26 25 27 84 28 26 29 27 30 28 31 78 32 29 33 83 34
REMARK SMILES IDX 77 35 79 36 30 37 82 38 76 39 75 40 31 42 63 43 43 44 62 45
REMARK SMILES IDX 44 46 47 47 61 48 80 49 45 50 46 51 60 53 81 54 48 55 32 56
REMARK SMILES IDX 33 57 41 58 34 59 35 60 39 61 42 62 36 63 37 64 40 65 38 66
REMARK SMILES IDX 64 67 65 68 73 69 66 70 67 71 71 72 74 73 68 74 69 75 72 76
REMARK SMILES IDX 70 77 49 78 50 79 58 80 51 81 52 82 56 83 59 84 53 85 54 86
REMARK SMILES IDX 57 87 55 88
REMARK H PARENT 5 11 79 41 47 52
REMARK Flexibility Score: inf
ROOT
ATOM      1  C   UNL A   1      35.633  33.334  28.001  1.00  0.00     0.274 C 
ENDROOT
BRANCH   1   2
ATOM      2  O   UNL A   1      36.231  33.051  29.288  1.00  0.00    -0.460 OA
BRANCH   2   3
ATOM      3  C   UNL A   1      37.345  33.735  29.634  1.00  0.00     0.331 C 
ATOM      4  O   UNL A   1      38.155  34.142  28.809  1.00  0.00    -0.249 OA
BRANCH   3   5
ATOM      5  C   UNL A   1      37.556  33.833  31.184  1.00  0.00     0.135 C 
ATOM      6  C   UNL A   1      37.302  32.418  31.735  1.00  0.00     0.047 C 
BRANCH   5   7
ATOM      7  C   UNL A   1      39.056  34.209  31.486  1.00  0.00     0.037 C 
ATOM      8  C   UNL A   1      39.498  34.423  32.927  1.00  0.00     0.007 C 
ENDBRANCH   5   7
BRANCH   5   9
ATOM      9  N   UNL A   1      36.785  34.827  32.026  1.00  0.00    -0.340 N 
ATOM     10  C   UNL A   1      35.566  34.976  32.599  1.00  0.00     0.225 C 
ATOM     11  H   UNL A   1      37.346  35.612  32.219  1.00  0.00     0.164 HD
ATOM     12  O   UNL A   1      35.528  35.668  33.620  1.00  0.00    -0.275 OA
BRANCH  10  13
ATOM     13  C   UNL A   1      34.282  34.473  31.974  1.00  0.00     0.094 C 
ATOM     14  C   UNL A   1      33.937  35.175  30.646  1.00  0.00     0.030 C 
ATOM     15  C   UNL A   1      33.075  34.666  32.871  1.00  0.00     0.150 C 
ATOM     16  C   UNL A   1      33.265  36.508  30.951  1.00  0.00     0.138 C 
ATOM     17  S   UNL A   1      32.486  36.310  32.541  1.00  0.00     0.151 S 
ATOM     18  O   UNL A   1      33.103  37.209  33.496  1.00  0.00    -0.229 OA
ATOM     19  O   UNL A   1      31.051  36.244  32.365  1.00  0.00    -0.229 OA
ENDBRANCH  10  13
ENDBRANCH   5   9
ENDBRANCH   3   5
ENDBRANCH   2   3
ENDBRANCH   1   2
BRANCH   1  20
ATOM     20  C   UNL A   1      34.350  32.517  27.852  1.00  0.00     0.275 C 
BRANCH  20  21
ATOM     21  O   UNL A   1      34.468  31.338  28.669  1.00  0.00    -0.458 OA
BRANCH  21  22
ATOM     22  C   UNL A   1      34.801  30.203  28.021  1.00  0.00     0.338 C 
ATOM     23  O   UNL A   1      34.182  29.629  27.132  1.00  0.00    -0.246 OA
BRANCH  22  24
ATOM     24  C   UNL A   1      36.172  29.859  28.403  1.00  0.00     0.060 A 
ATOM     25  C   UNL A   1      37.164  30.046  27.441  1.00  0.00     0.016 A 
ATOM     26  C   UNL A   1      36.485  29.331  29.652  1.00  0.00     0.016 A 
ATOM     27  C   UNL A   1      38.479  29.690  27.711  1.00  0.00     0.010 A 
ATOM     28  C   UNL A   1      37.816  29.003  29.937  1.00  0.00     0.010 A 
ATOM     29  C   UNL A   1      38.821  29.171  28.966  1.00  0.00    -0.014 A 
BRANCH  29  30
ATOM     30  C   UNL A   1      40.229  28.776  29.237  1.00  0.00     0.031 A 
ATOM     31  C   UNL A   1      41.124  29.684  30.030  1.00  0.00     0.074 A 
ATOM     32  C   UNL A   1      40.686  27.583  28.810  1.00  0.00     0.049 A 
ATOM     33  N   UNL A   1      42.405  29.576  30.279  1.00  0.00    -0.248 NA
ATOM     34  C   UNL A   1      40.495  30.874  30.623  1.00  0.00     0.031 C 
ATOM     35  C   UNL A   1      39.898  26.592  28.076  1.00  0.00     0.029 A 
ATOM     36  N   UNL A   1      41.921  26.999  28.936  1.00  0.00    -0.354 N 
ATOM     37  C   UNL A   1      42.741  30.695  31.031  1.00  0.00     0.074 A 
ATOM     38  C   UNL A   1      41.532  31.475  31.189  1.00  0.00     0.031 C 
ATOM     39  C   UNL A   1      40.662  25.515  27.835  1.00  0.00     0.029 A 
ATOM     40  C   UNL A   1      42.009  25.766  28.335  1.00  0.00     0.049 A 
ATOM     41  H   UNL A   1      42.672  27.422  29.411  1.00  0.00     0.167 HD
ATOM     42  C   UNL A   1      43.949  31.037  31.540  1.00  0.00     0.037 A 
ATOM     43  C   UNL A   1      43.066  24.947  28.175  1.00  0.00     0.037 A 
ATOM     44  C   UNL A   1      45.145  30.248  31.390  1.00  0.00     0.049 A 
ATOM     45  C   UNL A   1      44.403  25.366  28.721  1.00  0.00     0.074 A 
ATOM     46  C   UNL A   1      46.427  30.524  31.829  1.00  0.00     0.029 A 
ATOM     47  N   UNL A   1      45.198  29.013  30.758  1.00  0.00    -0.354 N 
ATOM     48  N   UNL A   1      44.725  26.459  29.373  1.00  0.00    -0.248 NA
ATOM     49  C   UNL A   1      45.527  24.446  28.502  1.00  0.00     0.031 C 
ATOM     50  C   UNL A   1      47.263  29.470  31.440  1.00  0.00     0.029 A 
ATOM     51  C   UNL A   1      46.493  28.517  30.794  1.00  0.00     0.049 A 
ATOM     52  H   UNL A   1      44.430  28.556  30.345  1.00  0.00     0.167 HD
ATOM     53  C   UNL A   1      46.083  26.357  29.641  1.00  0.00     0.074 A 
ATOM     54  C   UNL A   1      46.516  25.080  29.114  1.00  0.00     0.031 C 
ATOM     55  C   UNL A   1      46.901  27.246  30.254  1.00  0.00     0.037 A 
BRANCH  42  56
ATOM     56  C   UNL A   1      44.043  32.339  32.279  1.00  0.00     0.064 A 
ATOM     57  C   UNL A   1      43.869  32.415  33.669  1.00  0.00     0.173 A 
ATOM     58  C   UNL A   1      44.335  33.526  31.589  1.00  0.00     0.173 A 
ATOM     59  F   UNL A   1      43.570  31.312  34.371  1.00  0.00    -0.203 F 
ATOM     60  C   UNL A   1      43.962  33.633  34.337  1.00  0.00     0.198 A 
ATOM     61  C   UNL A   1      44.453  34.738  32.264  1.00  0.00     0.198 A 
ATOM     62  F   UNL A   1      44.513  33.510  30.259  1.00  0.00    -0.203 F 
ATOM     63  F   UNL A   1      43.749  33.689  35.659  1.00  0.00    -0.200 F 
ATOM     64  C   UNL A   1      44.261  34.792  33.636  1.00  0.00     0.200 A 
ATOM     65  F   UNL A   1      44.750  35.856  31.586  1.00  0.00    -0.200 F 
ATOM     66  F   UNL A   1      44.352  35.964  34.281  1.00  0.00    -0.200 F 
ENDBRANCH  42  56
BRANCH  43  67
ATOM     67  C   UNL A   1      42.910  23.669  27.430  1.00  0.00     0.064 A 
ATOM     68  C   UNL A   1      43.266  23.567  26.079  1.00  0.00     0.173 A 
ATOM     69  C   UNL A   1      42.396  22.524  28.056  1.00  0.00     0.173 A 
ATOM     70  F   UNL A   1      43.738  24.641  25.428  1.00  0.00    -0.203 F 
ATOM     71  C   UNL A   1      43.100  22.373  25.379  1.00  0.00     0.198 A 
ATOM     72  C   UNL A   1      42.260  21.323  27.365  1.00  0.00     0.198 A 
ATOM     73  F   UNL A   1      42.036  22.569  29.348  1.00  0.00    -0.203 F 
ATOM     74  F   UNL A   1      43.405  22.315  24.075  1.00  0.00    -0.200 F 
ATOM     75  C   UNL A   1      42.605  21.250  26.025  1.00  0.00     0.200 A 
ATOM     76  F   UNL A   1      41.796  20.236  27.997  1.00  0.00    -0.200 F 
ATOM     77  F   UNL A   1      42.454  20.100  25.353  1.00  0.00    -0.200 F 
ENDBRANCH  43  67
BRANCH  55  78
ATOM     78  C   UNL A   1      48.343  26.853  30.390  1.00  0.00     0.064 A 
ATOM     79  C   UNL A   1      49.306  27.267  29.457  1.00  0.00     0.173 A 
ATOM     80  C   UNL A   1      48.766  26.056  31.464  1.00  0.00     0.173 A 
ATOM     81  F   UNL A   1      48.946  28.016  28.404  1.00  0.00    -0.203 F 
ATOM     82  C   UNL A   1      50.633  26.868  29.576  1.00  0.00     0.198 A 
ATOM     83  C   UNL A   1      50.100  25.681  31.594  1.00  0.00     0.198 A 
ATOM     84  F   UNL A   1      47.883  25.638  32.385  1.00  0.00    -0.203 F 
ATOM     85  F   UNL A   1      51.525  27.227  28.643  1.00  0.00    -0.200 F 
ATOM     86  C   UNL A   1      51.030  26.078  30.645  1.00  0.00     0.200 A 
ATOM     87  F   UNL A   1      50.484  24.924  32.632  1.00  0.00    -0.200 F 
ATOM     88  F   UNL A   1      52.308  25.690  30.755  1.00  0.00    -0.200 F 
ENDBRANCH  55  78
ENDBRANCH  29  30
ENDBRANCH  22  24
ENDBRANCH  21  22
ENDBRANCH  20  21
ENDBRANCH   1  20
TORSDOF 14
ENDMDL
