MODEL 1
REMARK VINA RESULT:     -12.4      0.000      0.000
REMARK SMILES O=C(CCc1cccnc1)Nc1cccc(F)c1C(=O)OCCOC(=O)c1ccc(-c2c3nc(c(-c4c(F)c(F)c(F)c(F)c4F)c4ccc([nH]4)c(-c4c(F)c(F)c(F)c(F)c4F)c4nc(c(-c5c(F)c(F)c(F)c(F)c5F)c5ccc2[nH]5)C=C4)C=C3)cc1
REMARK SMILES IDX 22 1 21 2 19 3 20 4 18 5 12 6 13 7 14 8 16 9 15 10 17 11
REMARK SMILES IDX 11 12 1 13 2 14 3 16 4 17 5 18 6 19 10 20 7 21 9 22 8 23
REMARK SMILES IDX 23 24 24 25 25 26 26 27 27 28 28 29 89 30 29 31 88 32 30 33
REMARK SMILES IDX 31 34 32 35 82 36 33 37 87 38 81 39 83 40 34 41 86 42 80 43
REMARK SMILES IDX 79 44 35 46 67 47 47 48 66 49 48 50 51 51 65 52 84 53 49 54
REMARK SMILES IDX 50 55 64 57 85 58 52 59 36 60 37 61 45 62 38 63 39 64 43 65
REMARK SMILES IDX 46 66 40 67 41 68 44 69 42 70 68 71 69 72 77 73 70 74 71 75
REMARK SMILES IDX 75 76 78 77 72 78 73 79 76 80 74 81 53 82 54 83 62 84 55 85
REMARK SMILES IDX 56 86 60 87 63 88 57 89 58 90 61 91 59 92
REMARK H PARENT 11 15 83 45 51 56
REMARK Flexibility Score: inf
ROOT
ATOM      1  C   UNL A   1      33.469  29.178  25.021  1.00  0.00     0.275 C 
ENDROOT
BRANCH   1   2
ATOM      2  O   UNL A   1      33.217  27.764  25.003  1.00  0.00    -0.458 OA
BRANCH   2   3
ATOM      3  C   UNL A   1      33.320  27.135  23.805  1.00  0.00     0.343 C 
ATOM      4  O   UNL A   1      34.017  27.507  22.880  1.00  0.00    -0.246 OA
BRANCH   3   5
ATOM      5  C   UNL A   1      32.581  25.853  23.912  1.00  0.00     0.119 A 
ATOM      6  C   UNL A   1      31.176  25.779  23.862  1.00  0.00     0.058 A 
ATOM      7  C   UNL A   1      30.564  24.542  23.598  1.00  0.00     0.027 A 
ATOM      8  C   UNL A   1      31.324  23.378  23.472  1.00  0.00     0.005 A 
ATOM      9  C   UNL A   1      33.326  24.673  23.812  1.00  0.00     0.139 A 
ATOM     10  C   UNL A   1      32.707  23.442  23.600  1.00  0.00     0.040 A 
ATOM     11  F   UNL A   1      34.665  24.699  23.882  1.00  0.00    -0.206 F 
BRANCH   6  12
ATOM     12  N   UNL A   1      30.306  26.883  23.966  1.00  0.00    -0.325 N 
ATOM     13  O   UNL A   1      30.583  27.790  21.858  1.00  0.00    -0.275 OA
ATOM     14  C   UNL A   1      29.945  27.689  22.899  1.00  0.00     0.224 C 
ATOM     15  H   UNL A   1      29.934  27.095  24.853  1.00  0.00     0.169 HD
BRANCH  14  16
ATOM     16  C   UNL A   1      28.763  28.570  23.232  1.00  0.00     0.105 C 
BRANCH  16  17
ATOM     17  C   UNL A   1      29.123  30.042  23.449  1.00  0.00     0.047 C 
BRANCH  17  18
ATOM     18  C   UNL A   1      28.591  31.046  22.452  1.00  0.00    -0.029 A 
ATOM     19  C   UNL A   1      28.232  30.745  21.139  1.00  0.00     0.007 A 
ATOM     20  C   UNL A   1      28.486  32.386  22.828  1.00  0.00     0.114 A 
ATOM     21  C   UNL A   1      27.769  31.754  20.294  1.00  0.00     0.020 A 
ATOM     22  N   UNL A   1      28.031  33.384  22.034  1.00  0.00    -0.264 NA
ATOM     23  C   UNL A   1      27.683  33.044  20.781  1.00  0.00     0.111 A 
ENDBRANCH  17  18
ENDBRANCH  16  17
ENDBRANCH  14  16
ENDBRANCH   6  12
ENDBRANCH   3   5
ENDBRANCH   2   3
ENDBRANCH   1   2
BRANCH   1  24
ATOM     24  C   UNL A   1      32.283  29.875  25.690  1.00  0.00     0.275 C 
BRANCH  24  25
ATOM     25  O   UNL A   1      32.595  30.167  27.069  1.00  0.00    -0.458 OA
BRANCH  25  26
ATOM     26  C   UNL A   1      33.210  31.350  27.314  1.00  0.00     0.338 C 
ATOM     27  O   UNL A   1      32.725  32.464  27.227  1.00  0.00    -0.246 OA
BRANCH  26  28
ATOM     28  C   UNL A   1      34.559  31.091  27.879  1.00  0.00     0.060 A 
ATOM     29  C   UNL A   1      34.866  29.781  28.258  1.00  0.00     0.016 A 
ATOM     30  C   UNL A   1      35.530  32.092  28.003  1.00  0.00     0.016 A 
ATOM     31  C   UNL A   1      36.148  29.465  28.718  1.00  0.00     0.010 A 
ATOM     32  C   UNL A   1      36.820  31.775  28.450  1.00  0.00     0.010 A 
ATOM     33  C   UNL A   1      37.133  30.460  28.819  1.00  0.00    -0.014 A 
BRANCH  33  34
ATOM     34  C   UNL A   1      38.416  30.119  29.484  1.00  0.00     0.031 A 
ATOM     35  C   UNL A   1      38.621  30.561  30.899  1.00  0.00     0.074 A 
ATOM     36  C   UNL A   1      39.351  29.364  28.881  1.00  0.00     0.049 A 
ATOM     37  N   UNL A   1      39.552  30.214  31.747  1.00  0.00    -0.248 NA
ATOM     38  C   UNL A   1      37.659  31.545  31.417  1.00  0.00     0.031 C 
ATOM     39  C   UNL A   1      39.331  28.968  27.481  1.00  0.00     0.029 A 
ATOM     40  N   UNL A   1      40.484  28.766  29.377  1.00  0.00    -0.354 N 
ATOM     41  C   UNL A   1      39.294  30.943  32.896  1.00  0.00     0.074 A 
ATOM     42  C   UNL A   1      38.135  31.766  32.632  1.00  0.00     0.031 C 
ATOM     43  C   UNL A   1      40.333  28.105  27.246  1.00  0.00     0.029 A 
ATOM     44  C   UNL A   1      41.102  27.927  28.478  1.00  0.00     0.049 A 
ATOM     45  H   UNL A   1      40.823  28.923  30.288  1.00  0.00     0.167 HD
ATOM     46  C   UNL A   1      39.967  30.929  34.070  1.00  0.00     0.037 A 
ATOM     47  C   UNL A   1      42.159  27.107  28.637  1.00  0.00     0.037 A 
ATOM     48  C   UNL A   1      41.134  30.133  34.325  1.00  0.00     0.049 A 
ATOM     49  C   UNL A   1      42.859  27.062  29.972  1.00  0.00     0.074 A 
ATOM     50  C   UNL A   1      41.885  30.052  35.483  1.00  0.00     0.029 A 
ATOM     51  N   UNL A   1      41.727  29.286  33.400  1.00  0.00    -0.354 N 
ATOM     52  N   UNL A   1      42.565  27.697  31.080  1.00  0.00    -0.248 NA
ATOM     53  C   UNL A   1      44.047  26.201  30.073  1.00  0.00     0.031 C 
ATOM     54  C   UNL A   1      42.956  29.183  35.247  1.00  0.00     0.029 A 
ATOM     55  C   UNL A   1      42.844  28.688  33.958  1.00  0.00     0.049 A 
ATOM     56  H   UNL A   1      41.401  29.133  32.483  1.00  0.00     0.167 HD
ATOM     57  C   UNL A   1      43.530  27.320  32.005  1.00  0.00     0.074 A 
ATOM     58  C   UNL A   1      44.398  26.369  31.341  1.00  0.00     0.031 C 
ATOM     59  C   UNL A   1      43.693  27.739  33.284  1.00  0.00     0.037 A 
BRANCH  46  60
ATOM     60  C   UNL A   1      39.460  31.835  35.145  1.00  0.00     0.064 A 
ATOM     61  C   UNL A   1      38.582  31.351  36.125  1.00  0.00     0.173 A 
ATOM     62  C   UNL A   1      39.861  33.177  35.219  1.00  0.00     0.173 A 
ATOM     63  F   UNL A   1      38.176  30.073  36.099  1.00  0.00    -0.203 F 
ATOM     64  C   UNL A   1      38.126  32.180  37.145  1.00  0.00     0.198 A 
ATOM     65  C   UNL A   1      39.423  33.996  36.256  1.00  0.00     0.198 A 
ATOM     66  F   UNL A   1      40.723  33.674  34.319  1.00  0.00    -0.203 F 
ATOM     67  F   UNL A   1      37.285  31.700  38.071  1.00  0.00    -0.200 F 
ATOM     68  C   UNL A   1      38.553  33.498  37.214  1.00  0.00     0.200 A 
ATOM     69  F   UNL A   1      39.863  35.259  36.340  1.00  0.00    -0.200 F 
ATOM     70  F   UNL A   1      38.139  34.286  38.216  1.00  0.00    -0.200 F 
ENDBRANCH  46  60
BRANCH  47  71
ATOM     71  C   UNL A   1      42.609  26.232  27.521  1.00  0.00     0.064 A 
ATOM     72  C   UNL A   1      42.034  24.974  27.292  1.00  0.00     0.173 A 
ATOM     73  C   UNL A   1      43.620  26.654  26.644  1.00  0.00     0.173 A 
ATOM     74  F   UNL A   1      41.063  24.525  28.099  1.00  0.00    -0.203 F 
ATOM     75  C   UNL A   1      42.460  24.168  26.236  1.00  0.00     0.198 A 
ATOM     76  C   UNL A   1      44.028  25.858  25.574  1.00  0.00     0.198 A 
ATOM     77  F   UNL A   1      44.186  27.859  26.808  1.00  0.00    -0.203 F 
ATOM     78  F   UNL A   1      41.906  22.961  26.054  1.00  0.00    -0.200 F 
ATOM     79  C   UNL A   1      43.450  24.613  25.375  1.00  0.00     0.200 A 
ATOM     80  F   UNL A   1      44.966  26.305  24.730  1.00  0.00    -0.200 F 
ATOM     81  F   UNL A   1      43.843  23.848  24.348  1.00  0.00    -0.200 F 
ENDBRANCH  47  71
BRANCH  59  82
ATOM     82  C   UNL A   1      44.848  27.180  34.062  1.00  0.00     0.064 A 
ATOM     83  C   UNL A   1      44.689  26.023  34.838  1.00  0.00     0.173 A 
ATOM     84  C   UNL A   1      46.081  27.846  34.114  1.00  0.00     0.173 A 
ATOM     85  F   UNL A   1      43.524  25.356  34.825  1.00  0.00    -0.203 F 
ATOM     86  C   UNL A   1      45.716  25.563  35.656  1.00  0.00     0.198 A 
ATOM     87  C   UNL A   1      47.116  27.369  34.915  1.00  0.00     0.198 A 
ATOM     88  F   UNL A   1      46.285  28.950  33.381  1.00  0.00    -0.203 F 
ATOM     89  F   UNL A   1      45.530  24.477  36.417  1.00  0.00    -0.200 F 
ATOM     90  C   UNL A   1      46.929  26.236  35.694  1.00  0.00     0.200 A 
ATOM     91  F   UNL A   1      48.293  28.008  34.936  1.00  0.00    -0.200 F 
ATOM     92  F   UNL A   1      47.918  25.792  36.480  1.00  0.00    -0.200 F 
ENDBRANCH  59  82
ENDBRANCH  33  34
ENDBRANCH  26  28
ENDBRANCH  25  26
ENDBRANCH  24  25
ENDBRANCH   1  24
TORSDOF 15
ENDMDL
MODEL 2
REMARK VINA RESULT:     -12.2      4.846     10.176
REMARK SMILES O=C(CCc1cccnc1)Nc1cccc(F)c1C(=O)OCCOC(=O)c1ccc(-c2c3nc(c(-c4c(F)c(F)c(F)c(F)c4F)c4ccc([nH]4)c(-c4c(F)c(F)c(F)c(F)c4F)c4nc(c(-c5c(F)c(F)c(F)c(F)c5F)c5ccc2[nH]5)C=C4)C=C3)cc1
REMARK SMILES IDX 22 1 21 2 19 3 20 4 18 5 12 6 13 7 14 8 16 9 15 10 17 11
REMARK SMILES IDX 11 12 1 13 2 14 3 16 4 17 5 18 6 19 10 20 7 21 9 22 8 23
REMARK SMILES IDX 23 24 24 25 25 26 26 27 27 28 28 29 89 30 29 31 88 32 30 33
REMARK SMILES IDX 31 34 32 35 82 36 33 37 87 38 81 39 83 40 34 41 86 42 80 43
REMARK SMILES IDX 79 44 35 46 67 47 47 48 66 49 48 50 51 51 65 52 84 53 49 54
REMARK SMILES IDX 50 55 64 57 85 58 52 59 36 60 37 61 45 62 38 63 39 64 43 65
REMARK SMILES IDX 46 66 40 67 41 68 44 69 42 70 68 71 69 72 77 73 70 74 71 75
REMARK SMILES IDX 75 76 78 77 72 78 73 79 76 80 74 81 53 82 54 83 62 84 55 85
REMARK SMILES IDX 56 86 60 87 63 88 57 89 58 90 61 91 59 92
REMARK H PARENT 11 15 83 45 51 56
REMARK Flexibility Score: inf
ROOT
ATOM      1  C   UNL A   1      36.281  22.896  23.511  1.00  0.00     0.275 C 
ENDROOT
BRANCH   1   2
ATOM      2  O   UNL A   1      34.872  22.622  23.437  1.00  0.00    -0.458 OA
BRANCH   2   3
ATOM      3  C   UNL A   1      34.097  23.542  22.810  1.00  0.00     0.343 C 
ATOM      4  O   UNL A   1      33.751  23.485  21.645  1.00  0.00    -0.246 OA
BRANCH   3   5
ATOM      5  C   UNL A   1      33.626  24.500  23.840  1.00  0.00     0.119 A 
ATOM      6  C   UNL A   1      33.308  24.109  25.154  1.00  0.00     0.058 A 
ATOM      7  C   UNL A   1      33.231  25.087  26.161  1.00  0.00     0.027 A 
ATOM      8  C   UNL A   1      33.380  26.442  25.858  1.00  0.00     0.005 A 
ATOM      9  C   UNL A   1      33.744  25.864  23.549  1.00  0.00     0.139 A 
ATOM     10  C   UNL A   1      33.617  26.831  24.544  1.00  0.00     0.040 A 
ATOM     11  F   UNL A   1      34.020  26.278  22.303  1.00  0.00    -0.206 F 
BRANCH   6  12
ATOM     12  N   UNL A   1      33.144  22.776  25.581  1.00  0.00    -0.325 N 
ATOM     13  O   UNL A   1      30.854  22.575  25.336  1.00  0.00    -0.275 OA
ATOM     14  C   UNL A   1      31.961  22.065  25.463  1.00  0.00     0.224 C 
ATOM     15  H   UNL A   1      33.917  22.323  25.988  1.00  0.00     0.169 HD
BRANCH  14  16
ATOM     16  C   UNL A   1      32.168  20.584  25.689  1.00  0.00     0.105 C 
BRANCH  16  17
ATOM     17  C   UNL A   1      33.253  19.965  24.804  1.00  0.00     0.047 C 
BRANCH  17  18
ATOM     18  C   UNL A   1      33.345  18.456  24.764  1.00  0.00    -0.029 A 
ATOM     19  C   UNL A   1      34.068  17.731  23.819  1.00  0.00     0.007 A 
ATOM     20  C   UNL A   1      32.625  17.708  25.698  1.00  0.00     0.114 A 
ATOM     21  C   UNL A   1      34.069  16.336  23.862  1.00  0.00     0.020 A 
ATOM     22  N   UNL A   1      32.616  16.355  25.770  1.00  0.00    -0.264 NA
ATOM     23  C   UNL A   1      33.340  15.699  24.847  1.00  0.00     0.111 A 
ENDBRANCH  17  18
ENDBRANCH  16  17
ENDBRANCH  14  16
ENDBRANCH   6  12
ENDBRANCH   3   5
ENDBRANCH   2   3
ENDBRANCH   1   2
BRANCH   1  24
ATOM     24  C   UNL A   1      36.976  21.694  24.153  1.00  0.00     0.275 C 
BRANCH  24  25
ATOM     25  O   UNL A   1      37.339  22.002  25.516  1.00  0.00    -0.458 OA
BRANCH  25  26
ATOM     26  C   UNL A   1      38.575  21.616  25.917  1.00  0.00     0.338 C 
ATOM     27  O   UNL A   1      39.113  20.542  25.713  1.00  0.00    -0.246 OA
BRANCH  26  28
ATOM     28  C   UNL A   1      39.276  22.777  26.522  1.00  0.00     0.060 A 
ATOM     29  C   UNL A   1      38.773  24.054  26.256  1.00  0.00     0.016 A 
ATOM     30  C   UNL A   1      40.382  22.632  27.370  1.00  0.00     0.016 A 
ATOM     31  C   UNL A   1      39.343  25.174  26.866  1.00  0.00     0.010 A 
ATOM     32  C   UNL A   1      40.946  23.753  27.993  1.00  0.00     0.010 A 
ATOM     33  C   UNL A   1      40.434  25.033  27.738  1.00  0.00    -0.014 A 
BRANCH  33  34
ATOM     34  C   UNL A   1      41.123  26.259  28.214  1.00  0.00     0.031 A 
ATOM     35  C   UNL A   1      42.516  26.522  27.736  1.00  0.00     0.074 A 
ATOM     36  C   UNL A   1      40.503  27.167  28.989  1.00  0.00     0.049 A 
ATOM     37  N   UNL A   1      43.236  27.606  27.844  1.00  0.00    -0.248 NA
ATOM     38  C   UNL A   1      43.195  25.401  27.069  1.00  0.00     0.031 C 
ATOM     39  C   UNL A   1      39.202  26.983  29.614  1.00  0.00     0.029 A 
ATOM     40  N   UNL A   1      40.870  28.438  29.357  1.00  0.00    -0.354 N 
ATOM     41  C   UNL A   1      44.457  27.297  27.266  1.00  0.00     0.074 A 
ATOM     42  C   UNL A   1      44.388  25.920  26.828  1.00  0.00     0.031 C 
ATOM     43  C   UNL A   1      38.820  28.132  30.197  1.00  0.00     0.029 A 
ATOM     44  C   UNL A   1      39.883  29.123  30.028  1.00  0.00     0.049 A 
ATOM     45  H   UNL A   1      41.754  28.823  29.160  1.00  0.00     0.167 HD
ATOM     46  C   UNL A   1      45.541  28.092  27.115  1.00  0.00     0.037 A 
ATOM     47  C   UNL A   1      39.842  30.403  30.447  1.00  0.00     0.037 A 
ATOM     48  C   UNL A   1      45.620  29.451  27.572  1.00  0.00     0.049 A 
ATOM     49  C   UNL A   1      41.040  31.289  30.217  1.00  0.00     0.074 A 
ATOM     50  C   UNL A   1      46.677  30.335  27.466  1.00  0.00     0.029 A 
ATOM     51  N   UNL A   1      44.601  30.118  28.236  1.00  0.00    -0.354 N 
ATOM     52  N   UNL A   1      42.164  31.015  29.602  1.00  0.00    -0.248 NA
ATOM     53  C   UNL A   1      40.970  32.657  30.753  1.00  0.00     0.031 C 
ATOM     54  C   UNL A   1      46.311  31.528  28.098  1.00  0.00     0.029 A 
ATOM     55  C   UNL A   1      45.010  31.401  28.558  1.00  0.00     0.049 A 
ATOM     56  H   UNL A   1      43.718  29.736  28.448  1.00  0.00     0.167 HD
ATOM     57  C   UNL A   1      42.935  32.167  29.682  1.00  0.00     0.074 A 
ATOM     58  C   UNL A   1      42.136  33.159  30.371  1.00  0.00     0.031 C 
ATOM     59  C   UNL A   1      44.199  32.377  29.239  1.00  0.00     0.037 A 
BRANCH  46  60
ATOM     60  C   UNL A   1      46.734  27.482  26.452  1.00  0.00     0.064 A 
ATOM     61  C   UNL A   1      46.895  27.567  25.063  1.00  0.00     0.173 A 
ATOM     62  C   UNL A   1      47.729  26.830  27.196  1.00  0.00     0.173 A 
ATOM     63  F   UNL A   1      45.973  28.187  24.311  1.00  0.00    -0.203 F 
ATOM     64  C   UNL A   1      48.015  27.026  24.441  1.00  0.00     0.198 A 
ATOM     65  C   UNL A   1      48.860  26.312  26.573  1.00  0.00     0.198 A 
ATOM     66  F   UNL A   1      47.629  26.750  28.531  1.00  0.00    -0.203 F 
ATOM     67  F   UNL A   1      48.151  27.116  23.110  1.00  0.00    -0.200 F 
ATOM     68  C   UNL A   1      49.000  26.406  25.196  1.00  0.00     0.200 A 
ATOM     69  F   UNL A   1      49.826  25.744  27.308  1.00  0.00    -0.200 F 
ATOM     70  F   UNL A   1      50.093  25.914  24.599  1.00  0.00    -0.200 F 
ENDBRANCH  46  60
BRANCH  47  71
ATOM     71  C   UNL A   1      38.619  30.943  31.101  1.00  0.00     0.064 A 
ATOM     72  C   UNL A   1      37.542  31.440  30.353  1.00  0.00     0.173 A 
ATOM     73  C   UNL A   1      38.500  30.954  32.499  1.00  0.00     0.173 A 
ATOM     74  F   UNL A   1      37.605  31.451  29.015  1.00  0.00    -0.203 F 
ATOM     75  C   UNL A   1      36.398  31.936  30.979  1.00  0.00     0.198 A 
ATOM     76  C   UNL A   1      37.346  31.426  33.123  1.00  0.00     0.198 A 
ATOM     77  F   UNL A   1      39.494  30.468  33.258  1.00  0.00    -0.203 F 
ATOM     78  F   UNL A   1      35.393  32.424  30.240  1.00  0.00    -0.200 F 
ATOM     79  C   UNL A   1      36.299  31.922  32.361  1.00  0.00     0.200 A 
ATOM     80  F   UNL A   1      37.244  31.385  34.457  1.00  0.00    -0.200 F 
ATOM     81  F   UNL A   1      35.190  32.378  32.960  1.00  0.00    -0.200 F 
ENDBRANCH  47  71
BRANCH  59  82
ATOM     82  C   UNL A   1      44.810  33.726  29.480  1.00  0.00     0.064 A 
ATOM     83  C   UNL A   1      45.456  34.008  30.692  1.00  0.00     0.173 A 
ATOM     84  C   UNL A   1      44.668  34.767  28.551  1.00  0.00     0.173 A 
ATOM     85  F   UNL A   1      45.609  33.046  31.616  1.00  0.00    -0.203 F 
ATOM     86  C   UNL A   1      45.921  35.289  30.976  1.00  0.00     0.198 A 
ATOM     87  C   UNL A   1      45.156  36.041  28.827  1.00  0.00     0.198 A 
ATOM     88  F   UNL A   1      44.067  34.543  27.373  1.00  0.00    -0.203 F 
ATOM     89  F   UNL A   1      46.502  35.544  32.155  1.00  0.00    -0.200 F 
ATOM     90  C   UNL A   1      45.771  36.304  30.042  1.00  0.00     0.200 A 
ATOM     91  F   UNL A   1      45.028  37.017  27.917  1.00  0.00    -0.200 F 
ATOM     92  F   UNL A   1      46.220  37.537  30.314  1.00  0.00    -0.200 F 
ENDBRANCH  59  82
ENDBRANCH  33  34
ENDBRANCH  26  28
ENDBRANCH  25  26
ENDBRANCH  24  25
ENDBRANCH   1  24
TORSDOF 15
ENDMDL
MODEL 3
REMARK VINA RESULT:     -12.1      4.641      9.602
REMARK SMILES O=C(CCc1cccnc1)Nc1cccc(F)c1C(=O)OCCOC(=O)c1ccc(-c2c3nc(c(-c4c(F)c(F)c(F)c(F)c4F)c4ccc([nH]4)c(-c4c(F)c(F)c(F)c(F)c4F)c4nc(c(-c5c(F)c(F)c(F)c(F)c5F)c5ccc2[nH]5)C=C4)C=C3)cc1
REMARK SMILES IDX 22 1 21 2 19 3 20 4 18 5 12 6 13 7 14 8 16 9 15 10 17 11
REMARK SMILES IDX 11 12 1 13 2 14 3 16 4 17 5 18 6 19 10 20 7 21 9 22 8 23
REMARK SMILES IDX 23 24 24 25 25 26 26 27 27 28 28 29 89 30 29 31 88 32 30 33
REMARK SMILES IDX 31 34 32 35 82 36 33 37 87 38 81 39 83 40 34 41 86 42 80 43
REMARK SMILES IDX 79 44 35 46 67 47 47 48 66 49 48 50 51 51 65 52 84 53 49 54
REMARK SMILES IDX 50 55 64 57 85 58 52 59 36 60 37 61 45 62 38 63 39 64 43 65
REMARK SMILES IDX 46 66 40 67 41 68 44 69 42 70 68 71 69 72 77 73 70 74 71 75
REMARK SMILES IDX 75 76 78 77 72 78 73 79 76 80 74 81 53 82 54 83 62 84 55 85
REMARK SMILES IDX 56 86 60 87 63 88 57 89 58 90 61 91 59 92
REMARK H PARENT 11 15 83 45 51 56
REMARK Flexibility Score: inf
ROOT
ATOM      1  C   UNL A   1      36.004  20.368  25.001  1.00  0.00     0.275 C 
ENDROOT
BRANCH   1   2
ATOM      2  O   UNL A   1      35.247  21.456  25.556  1.00  0.00    -0.458 OA
BRANCH   2   3
ATOM      3  C   UNL A   1      33.989  21.177  25.982  1.00  0.00     0.343 C 
ATOM      4  O   UNL A   1      33.653  21.078  27.146  1.00  0.00    -0.246 OA
BRANCH   3   5
ATOM      5  C   UNL A   1      33.104  21.196  24.791  1.00  0.00     0.119 A 
ATOM      6  C   UNL A   1      32.847  22.367  24.053  1.00  0.00     0.058 A 
ATOM      7  C   UNL A   1      32.320  22.256  22.755  1.00  0.00     0.027 A 
ATOM      8  C   UNL A   1      31.970  21.013  22.226  1.00  0.00     0.005 A 
ATOM      9  C   UNL A   1      32.722  19.960  24.257  1.00  0.00     0.139 A 
ATOM     10  C   UNL A   1      32.153  19.865  22.988  1.00  0.00     0.040 A 
ATOM     11  F   UNL A   1      32.925  18.825  24.941  1.00  0.00    -0.206 F 
BRANCH   6  12
ATOM     12  N   UNL A   1      33.163  23.673  24.477  1.00  0.00    -0.325 N 
ATOM     13  O   UNL A   1      35.064  24.036  23.213  1.00  0.00    -0.275 OA
ATOM     14  C   UNL A   1      34.137  24.464  23.889  1.00  0.00     0.224 C 
ATOM     15  H   UNL A   1      32.663  24.045  25.239  1.00  0.00     0.169 HD
BRANCH  14  16
ATOM     16  C   UNL A   1      34.028  25.908  24.324  1.00  0.00     0.105 C 
BRANCH  16  17
ATOM     17  C   UNL A   1      33.404  26.097  25.709  1.00  0.00     0.047 C 
BRANCH  17  18
ATOM     18  C   UNL A   1      33.276  27.510  26.231  1.00  0.00    -0.029 A 
ATOM     19  C   UNL A   1      34.337  28.405  26.364  1.00  0.00     0.007 A 
ATOM     20  C   UNL A   1      32.029  27.963  26.663  1.00  0.00     0.114 A 
ATOM     21  C   UNL A   1      34.111  29.683  26.876  1.00  0.00     0.020 A 
ATOM     22  N   UNL A   1      31.778  29.201  27.155  1.00  0.00    -0.264 NA
ATOM     23  C   UNL A   1      32.829  30.034  27.251  1.00  0.00     0.111 A 
ENDBRANCH  17  18
ENDBRANCH  16  17
ENDBRANCH  14  16
ENDBRANCH   6  12
ENDBRANCH   3   5
ENDBRANCH   2   3
ENDBRANCH   1   2
BRANCH   1  24
ATOM     24  C   UNL A   1      37.396  20.882  24.633  1.00  0.00     0.275 C 
BRANCH  24  25
ATOM     25  O   UNL A   1      37.903  21.734  25.683  1.00  0.00    -0.458 OA
BRANCH  25  26
ATOM     26  C   UNL A   1      39.148  21.456  26.141  1.00  0.00     0.338 C 
ATOM     27  O   UNL A   1      39.766  20.415  26.008  1.00  0.00    -0.246 OA
BRANCH  26  28
ATOM     28  C   UNL A   1      39.745  22.691  26.711  1.00  0.00     0.060 A 
ATOM     29  C   UNL A   1      39.219  23.919  26.299  1.00  0.00     0.016 A 
ATOM     30  C   UNL A   1      40.774  22.663  27.661  1.00  0.00     0.016 A 
ATOM     31  C   UNL A   1      39.686  25.109  26.865  1.00  0.00     0.010 A 
ATOM     32  C   UNL A   1      41.234  23.853  28.240  1.00  0.00     0.010 A 
ATOM     33  C   UNL A   1      40.698  25.085  27.837  1.00  0.00    -0.014 A 
BRANCH  33  34
ATOM     34  C   UNL A   1      41.292  26.375  28.272  1.00  0.00     0.031 A 
ATOM     35  C   UNL A   1      42.661  26.726  27.784  1.00  0.00     0.074 A 
ATOM     36  C   UNL A   1      40.605  27.258  29.018  1.00  0.00     0.049 A 
ATOM     37  N   UNL A   1      43.298  27.865  27.854  1.00  0.00    -0.248 NA
ATOM     38  C   UNL A   1      43.424  25.638  27.152  1.00  0.00     0.031 C 
ATOM     39  C   UNL A   1      39.321  26.997  29.651  1.00  0.00     0.029 A 
ATOM     40  N   UNL A   1      40.874  28.565  29.343  1.00  0.00    -0.354 N 
ATOM     41  C   UNL A   1      44.539  27.629  27.285  1.00  0.00     0.074 A 
ATOM     42  C   UNL A   1      44.575  26.238  26.893  1.00  0.00     0.031 C 
ATOM     43  C   UNL A   1      38.853  28.133  30.196  1.00  0.00     0.029 A 
ATOM     44  C   UNL A   1      39.838  29.195  29.993  1.00  0.00     0.049 A 
ATOM     45  H   UNL A   1      41.727  29.009  29.133  1.00  0.00     0.167 HD
ATOM     46  C   UNL A   1      45.560  28.499  27.106  1.00  0.00     0.037 A 
ATOM     47  C   UNL A   1      39.700  30.481  30.370  1.00  0.00     0.037 A 
ATOM     48  C   UNL A   1      45.536  29.873  27.519  1.00  0.00     0.049 A 
ATOM     49  C   UNL A   1      40.828  31.448  30.109  1.00  0.00     0.074 A 
ATOM     50  C   UNL A   1      46.523  30.831  27.381  1.00  0.00     0.029 A 
ATOM     51  N   UNL A   1      44.469  30.483  28.162  1.00  0.00    -0.354 N 
ATOM     52  N   UNL A   1      41.970  31.238  29.501  1.00  0.00    -0.248 NA
ATOM     53  C   UNL A   1      40.654  32.823  30.599  1.00  0.00     0.031 C 
ATOM     54  C   UNL A   1      46.068  32.013  27.975  1.00  0.00     0.029 A 
ATOM     55  C   UNL A   1      44.780  31.803  28.440  1.00  0.00     0.049 A 
ATOM     56  H   UNL A   1      43.618  30.043  28.387  1.00  0.00     0.167 HD
ATOM     57  C   UNL A   1      42.652  32.447  29.542  1.00  0.00     0.074 A 
ATOM     58  C   UNL A   1      41.780  33.399  30.199  1.00  0.00     0.031 C 
ATOM     59  C   UNL A   1      43.897  32.738  29.091  1.00  0.00     0.037 A 
BRANCH  46  60
ATOM     60  C   UNL A   1      46.796  27.958  26.462  1.00  0.00     0.064 A 
ATOM     61  C   UNL A   1      46.877  27.842  25.068  1.00  0.00     0.173 A 
ATOM     62  C   UNL A   1      47.910  27.575  27.225  1.00  0.00     0.173 A 
ATOM     63  F   UNL A   1      45.840  28.203  24.297  1.00  0.00    -0.203 F 
ATOM     64  C   UNL A   1      48.033  27.366  24.458  1.00  0.00     0.198 A 
ATOM     65  C   UNL A   1      49.074  27.123  26.610  1.00  0.00     0.198 A 
ATOM     66  F   UNL A   1      47.886  27.696  28.561  1.00  0.00    -0.203 F 
ATOM     67  F   UNL A   1      48.091  27.261  23.123  1.00  0.00    -0.200 F 
ATOM     68  C   UNL A   1      49.133  27.014  25.229  1.00  0.00     0.200 A 
ATOM     69  F   UNL A   1      50.146  26.816  27.354  1.00  0.00    -0.200 F 
ATOM     70  F   UNL A   1      50.256  26.587  24.638  1.00  0.00    -0.200 F 
ENDBRANCH  46  60
BRANCH  47  71
ATOM     71  C   UNL A   1      38.440  30.949  31.007  1.00  0.00     0.064 A 
ATOM     72  C   UNL A   1      38.313  31.057  32.399  1.00  0.00     0.173 A 
ATOM     73  C   UNL A   1      37.336  31.319  30.223  1.00  0.00     0.173 A 
ATOM     74  F   UNL A   1      39.338  30.718  33.193  1.00  0.00    -0.203 F 
ATOM     75  C   UNL A   1      37.128  31.505  32.983  1.00  0.00     0.198 A 
ATOM     76  C   UNL A   1      36.161  31.792  30.806  1.00  0.00     0.198 A 
ATOM     77  F   UNL A   1      37.416  31.256  28.886  1.00  0.00    -0.203 F 
ATOM     78  F   UNL A   1      37.028  31.578  34.317  1.00  0.00    -0.200 F 
ATOM     79  C   UNL A   1      36.057  31.878  32.186  1.00  0.00     0.200 A 
ATOM     80  F   UNL A   1      35.139  32.177  30.031  1.00  0.00    -0.200 F 
ATOM     81  F   UNL A   1      34.927  32.331  32.747  1.00  0.00    -0.200 F 
ENDBRANCH  47  71
BRANCH  59  82
ATOM     82  C   UNL A   1      44.404  34.136  29.286  1.00  0.00     0.064 A 
ATOM     83  C   UNL A   1      44.200  35.111  28.299  1.00  0.00     0.173 A 
ATOM     84  C   UNL A   1      45.174  34.483  30.406  1.00  0.00     0.173 A 
ATOM     85  F   UNL A   1      43.476  34.824  27.206  1.00  0.00    -0.203 F 
ATOM     86  C   UNL A   1      44.767  36.377  28.414  1.00  0.00     0.198 A 
ATOM     87  C   UNL A   1      45.719  35.757  30.530  1.00  0.00     0.198 A 
ATOM     88  F   UNL A   1      45.387  33.588  31.382  1.00  0.00    -0.203 F 
ATOM     89  F   UNL A   1      44.590  37.280  27.441  1.00  0.00    -0.200 F 
ATOM     90  C   UNL A   1      45.526  36.699  29.530  1.00  0.00     0.200 A 
ATOM     91  F   UNL A   1      46.436  36.075  31.617  1.00  0.00    -0.200 F 
ATOM     92  F   UNL A   1      46.070  37.918  29.642  1.00  0.00    -0.200 F 
ENDBRANCH  59  82
ENDBRANCH  33  34
ENDBRANCH  26  28
ENDBRANCH  25  26
ENDBRANCH  24  25
ENDBRANCH   1  24
TORSDOF 15
ENDMDL
