MODEL 1
REMARK VINA RESULT:     -11.4      0.000      0.000
REMARK SMILES CCN(C(=O)C1(C)CCCC1)[C@@H]1COC[C@H]1C(=O)OCCOC(=O)c1ccc(-c2c3nc(c(-c4c(F)c(F)c(F)c(F)c4F)c4ccc([nH]4)c(-c4c(F)c(F)c(F)c(F)c4F)c4nc(c(-c5c(F)c(F)c(F)c(F)c5F)c5ccc2[nH]5)C=C4)C=C3)cc1
REMARK SMILES IDX 20 1 19 2 17 3 18 4 16 5 12 6 13 7 14 8 15 9 3 10 2 11 1 12
REMARK SMILES IDX 4 13 5 14 6 15 7 16 8 17 11 18 9 19 10 20 21 21 22 22 23 23
REMARK SMILES IDX 24 24 25 25 26 26 87 27 27 28 86 29 28 30 29 31 30 32 80 33
REMARK SMILES IDX 31 34 85 35 79 36 81 37 32 38 84 39 78 40 77 41 33 43 65 44
REMARK SMILES IDX 45 45 64 46 46 47 49 48 63 49 82 50 47 51 48 52 62 54 83 55
REMARK SMILES IDX 50 56 34 57 35 58 43 59 36 60 37 61 41 62 44 63 38 64 39 65
REMARK SMILES IDX 42 66 40 67 66 68 67 69 75 70 68 71 69 72 73 73 76 74 70 75
REMARK SMILES IDX 71 76 74 77 72 78 51 79 52 80 60 81 53 82 54 83 58 84 61 85
REMARK SMILES IDX 55 86 56 87 59 88 57 89
REMARK H PARENT 81 42 49 53
REMARK Flexibility Score: inf
ROOT
ATOM      1  C   UNL A   1      31.408  28.580  25.983  1.00  0.00     0.274 C 
ENDROOT
BRANCH   1   2
ATOM      2  O   UNL A   1      31.387  27.458  25.074  1.00  0.00    -0.462 OA
BRANCH   2   3
ATOM      3  C   UNL A   1      32.071  26.365  25.498  1.00  0.00     0.313 C 
ATOM      4  O   UNL A   1      33.166  26.416  26.056  1.00  0.00    -0.252 OA
BRANCH   3   5
ATOM      5  C   UNL A   1      31.390  25.041  25.227  1.00  0.00     0.150 C 
ATOM      6  C   UNL A   1      32.124  23.766  25.638  1.00  0.00     0.127 C 
ATOM      7  C   UNL A   1      31.079  23.014  26.473  1.00  0.00     0.186 C 
ATOM      8  O   UNL A   1      30.295  24.033  27.092  1.00  0.00    -0.378 OA
ATOM      9  C   UNL A   1      30.127  25.046  26.091  1.00  0.00     0.177 C 
BRANCH   6  10
ATOM     10  N   UNL A   1      32.729  22.940  24.562  1.00  0.00    -0.336 N 
BRANCH  10  11
ATOM     11  C   UNL A   1      32.194  23.112  23.210  1.00  0.00     0.116 C 
ATOM     12  C   UNL A   1      33.260  23.642  22.268  1.00  0.00     0.027 C 
ENDBRANCH  10  11
BRANCH  10  13
ATOM     13  C   UNL A   1      33.546  21.857  24.892  1.00  0.00     0.228 C 
ATOM     14  O   UNL A   1      33.205  20.715  24.570  1.00  0.00    -0.274 OA
BRANCH  13  15
ATOM     15  C   UNL A   1      34.794  22.104  25.798  1.00  0.00     0.047 C 
ATOM     16  C   UNL A   1      34.410  21.811  27.257  1.00  0.00     0.022 C 
ATOM     17  C   UNL A   1      35.944  21.153  25.382  1.00  0.00     0.016 C 
ATOM     18  C   UNL A   1      35.502  23.457  25.646  1.00  0.00     0.016 C 
ATOM     19  C   UNL A   1      36.689  21.866  24.254  1.00  0.00     0.001 C 
ATOM     20  C   UNL A   1      36.305  23.336  24.357  1.00  0.00     0.001 C 
ENDBRANCH  13  15
ENDBRANCH  10  13
ENDBRANCH   6  10
ENDBRANCH   3   5
ENDBRANCH   2   3
ENDBRANCH   1   2
BRANCH   1  21
ATOM     21  C   UNL A   1      31.955  29.837  25.309  1.00  0.00     0.275 C 
BRANCH  21  22
ATOM     22  O   UNL A   1      33.270  30.129  25.810  1.00  0.00    -0.458 OA
BRANCH  22  23
ATOM     23  C   UNL A   1      33.326  31.023  26.821  1.00  0.00     0.338 C 
ATOM     24  O   UNL A   1      32.466  31.846  27.109  1.00  0.00    -0.246 OA
BRANCH  23  25
ATOM     25  C   UNL A   1      34.560  30.845  27.624  1.00  0.00     0.060 A 
ATOM     26  C   UNL A   1      35.457  31.897  27.845  1.00  0.00     0.016 A 
ATOM     27  C   UNL A   1      34.893  29.557  28.052  1.00  0.00     0.016 A 
ATOM     28  C   UNL A   1      36.698  31.653  28.437  1.00  0.00     0.010 A 
ATOM     29  C   UNL A   1      36.098  29.330  28.722  1.00  0.00     0.010 A 
ATOM     30  C   UNL A   1      37.016  30.374  28.915  1.00  0.00    -0.014 A 
BRANCH  30  31
ATOM     31  C   UNL A   1      38.262  30.127  29.686  1.00  0.00     0.031 A 
ATOM     32  C   UNL A   1      39.331  29.211  29.161  1.00  0.00     0.074 A 
ATOM     33  C   UNL A   1      38.394  30.675  30.910  1.00  0.00     0.049 A 
ATOM     34  N   UNL A   1      40.361  28.699  29.787  1.00  0.00    -0.248 NA
ATOM     35  C   UNL A   1      39.224  28.807  27.751  1.00  0.00     0.031 C 
ATOM     36  C   UNL A   1      37.440  31.595  31.532  1.00  0.00     0.029 A 
ATOM     37  N   UNL A   1      39.373  30.519  31.859  1.00  0.00    -0.354 N 
ATOM     38  C   UNL A   1      41.002  27.885  28.865  1.00  0.00     0.074 A 
ATOM     39  C   UNL A   1      40.248  27.970  27.632  1.00  0.00     0.031 C 
ATOM     40  C   UNL A   1      37.882  31.926  32.753  1.00  0.00     0.029 A 
ATOM     41  C   UNL A   1      39.106  31.184  33.030  1.00  0.00     0.049 A 
ATOM     42  H   UNL A   1      40.186  29.984  31.714  1.00  0.00     0.167 HD
ATOM     43  C   UNL A   1      42.118  27.134  29.037  1.00  0.00     0.037 A 
ATOM     44  C   UNL A   1      39.740  31.162  34.217  1.00  0.00     0.037 A 
ATOM     45  C   UNL A   1      42.889  27.081  30.254  1.00  0.00     0.049 A 
ATOM     46  C   UNL A   1      40.950  30.294  34.391  1.00  0.00     0.074 A 
ATOM     47  C   UNL A   1      44.057  26.382  30.506  1.00  0.00     0.029 A 
ATOM     48  N   UNL A   1      42.574  27.762  31.421  1.00  0.00    -0.354 N 
ATOM     49  N   UNL A   1      41.529  29.504  33.524  1.00  0.00    -0.248 NA
ATOM     50  C   UNL A   1      41.582  30.304  35.718  1.00  0.00     0.031 C 
ATOM     51  C   UNL A   1      44.431  26.612  31.834  1.00  0.00     0.029 A 
ATOM     52  C   UNL A   1      43.516  27.483  32.400  1.00  0.00     0.049 A 
ATOM     53  H   UNL A   1      41.797  28.355  31.536  1.00  0.00     0.167 HD
ATOM     54  C   UNL A   1      42.597  28.925  34.193  1.00  0.00     0.074 A 
ATOM     55  C   UNL A   1      42.595  29.469  35.536  1.00  0.00     0.031 C 
ATOM     56  C   UNL A   1      43.495  28.022  33.734  1.00  0.00     0.037 A 
BRANCH  43  57
ATOM     57  C   UNL A   1      42.575  26.283  27.891  1.00  0.00     0.064 A 
ATOM     58  C   UNL A   1      42.017  25.021  27.641  1.00  0.00     0.173 A 
ATOM     59  C   UNL A   1      43.524  26.776  26.982  1.00  0.00     0.173 A 
ATOM     60  F   UNL A   1      41.114  24.503  28.487  1.00  0.00    -0.203 F 
ATOM     61  C   UNL A   1      42.397  24.282  26.524  1.00  0.00     0.198 A 
ATOM     62  C   UNL A   1      43.887  26.042  25.856  1.00  0.00     0.198 A 
ATOM     63  F   UNL A   1      44.082  27.980  27.174  1.00  0.00    -0.203 F 
ATOM     64  F   UNL A   1      41.867  23.069  26.313  1.00  0.00    -0.200 F 
ATOM     65  C   UNL A   1      43.324  24.796  25.628  1.00  0.00     0.200 A 
ATOM     66  F   UNL A   1      44.774  26.545  24.987  1.00  0.00    -0.200 F 
ATOM     67  F   UNL A   1      43.677  24.088  24.546  1.00  0.00    -0.200 F 
ENDBRANCH  43  57
BRANCH  44  68
ATOM     68  C   UNL A   1      39.203  31.966  35.340  1.00  0.00     0.064 A 
ATOM     69  C   UNL A   1      38.412  31.375  36.332  1.00  0.00     0.173 A 
ATOM     70  C   UNL A   1      39.502  33.332  35.463  1.00  0.00     0.173 A 
ATOM     71  F   UNL A   1      38.083  30.078  36.241  1.00  0.00    -0.203 F 
ATOM     72  C   UNL A   1      37.937  32.121  37.408  1.00  0.00     0.198 A 
ATOM     73  C   UNL A   1      39.047  34.070  36.552  1.00  0.00     0.198 A 
ATOM     74  F   UNL A   1      40.259  33.939  34.538  1.00  0.00    -0.203 F 
ATOM     75  F   UNL A   1      37.159  31.539  38.331  1.00  0.00    -0.200 F 
ATOM     76  C   UNL A   1      38.263  33.465  37.522  1.00  0.00     0.200 A 
ATOM     77  F   UNL A   1      39.376  35.364  36.665  1.00  0.00    -0.200 F 
ATOM     78  F   UNL A   1      37.817  34.178  38.565  1.00  0.00    -0.200 F 
ENDBRANCH  44  68
BRANCH  56  79
ATOM     79  C   UNL A   1      44.559  27.579  34.692  1.00  0.00     0.064 A 
ATOM     80  C   UNL A   1      44.385  26.447  35.501  1.00  0.00     0.173 A 
ATOM     81  C   UNL A   1      45.765  28.287  34.795  1.00  0.00     0.173 A 
ATOM     82  F   UNL A   1      43.240  25.750  35.450  1.00  0.00    -0.203 F 
ATOM     83  C   UNL A   1      45.375  26.052  36.397  1.00  0.00     0.198 A 
ATOM     84  C   UNL A   1      46.760  27.877  35.677  1.00  0.00     0.198 A 
ATOM     85  F   UNL A   1      45.977  29.375  34.041  1.00  0.00    -0.203 F 
ATOM     86  F   UNL A   1      45.172  24.992  37.191  1.00  0.00    -0.200 F 
ATOM     87  C   UNL A   1      46.562  26.764  36.481  1.00  0.00     0.200 A 
ATOM     88  F   UNL A   1      47.909  28.562  35.755  1.00  0.00    -0.200 F 
ATOM     89  F   UNL A   1      47.512  26.383  37.346  1.00  0.00    -0.200 F 
ENDBRANCH  56  79
ENDBRANCH  30  31
ENDBRANCH  23  25
ENDBRANCH  22  23
ENDBRANCH  21  22
ENDBRANCH   1  21
TORSDOF 15
ENDMDL
MODEL 2
REMARK VINA RESULT:     -11.4      0.537      1.775
REMARK SMILES CCN(C(=O)C1(C)CCCC1)[C@@H]1COC[C@H]1C(=O)OCCOC(=O)c1ccc(-c2c3nc(c(-c4c(F)c(F)c(F)c(F)c4F)c4ccc([nH]4)c(-c4c(F)c(F)c(F)c(F)c4F)c4nc(c(-c5c(F)c(F)c(F)c(F)c5F)c5ccc2[nH]5)C=C4)C=C3)cc1
REMARK SMILES IDX 20 1 19 2 17 3 18 4 16 5 12 6 13 7 14 8 15 9 3 10 2 11 1 12
REMARK SMILES IDX 4 13 5 14 6 15 7 16 8 17 11 18 9 19 10 20 21 21 22 22 23 23
REMARK SMILES IDX 24 24 25 25 26 26 87 27 27 28 86 29 28 30 29 31 30 32 80 33
REMARK SMILES IDX 31 34 85 35 79 36 81 37 32 38 84 39 78 40 77 41 33 43 65 44
REMARK SMILES IDX 45 45 64 46 46 47 49 48 63 49 82 50 47 51 48 52 62 54 83 55
REMARK SMILES IDX 50 56 34 57 35 58 43 59 36 60 37 61 41 62 44 63 38 64 39 65
REMARK SMILES IDX 42 66 40 67 66 68 67 69 75 70 68 71 69 72 73 73 76 74 70 75
REMARK SMILES IDX 71 76 74 77 72 78 51 79 52 80 60 81 53 82 54 83 58 84 61 85
REMARK SMILES IDX 55 86 56 87 59 88 57 89
REMARK H PARENT 81 42 49 53
REMARK Flexibility Score: inf
ROOT
ATOM      1  C   UNL A   1      31.526  28.706  24.781  1.00  0.00     0.274 C 
ENDROOT
BRANCH   1   2
ATOM      2  O   UNL A   1      32.315  27.659  25.390  1.00  0.00    -0.462 OA
BRANCH   2   3
ATOM      3  C   UNL A   1      31.636  26.857  26.249  1.00  0.00     0.313 C 
ATOM      4  O   UNL A   1      31.430  27.134  27.429  1.00  0.00    -0.252 OA
BRANCH   3   5
ATOM      5  C   UNL A   1      31.141  25.557  25.651  1.00  0.00     0.150 C 
ATOM      6  C   UNL A   1      31.970  24.298  25.901  1.00  0.00     0.127 C 
ATOM      7  C   UNL A   1      30.937  23.301  26.444  1.00  0.00     0.186 C 
ATOM      8  O   UNL A   1      29.983  24.100  27.143  1.00  0.00    -0.378 OA
ATOM      9  C   UNL A   1      29.803  25.273  26.338  1.00  0.00     0.177 C 
BRANCH   6  10
ATOM     10  N   UNL A   1      32.772  23.763  24.771  1.00  0.00    -0.336 N 
BRANCH  10  11
ATOM     11  C   UNL A   1      32.586  24.396  23.464  1.00  0.00     0.116 C 
ATOM     12  C   UNL A   1      33.866  25.066  22.998  1.00  0.00     0.027 C 
ENDBRANCH  10  11
BRANCH  10  13
ATOM     13  C   UNL A   1      33.430  22.539  24.903  1.00  0.00     0.228 C 
ATOM     14  O   UNL A   1      32.971  21.537  24.349  1.00  0.00    -0.274 OA
BRANCH  13  15
ATOM     15  C   UNL A   1      34.646  22.440  25.878  1.00  0.00     0.047 C 
ATOM     16  C   UNL A   1      34.144  21.942  27.243  1.00  0.00     0.022 C 
ATOM     17  C   UNL A   1      35.682  21.428  25.327  1.00  0.00     0.016 C 
ATOM     18  C   UNL A   1      35.534  23.685  26.006  1.00  0.00     0.016 C 
ATOM     19  C   UNL A   1      36.578  22.223  24.378  1.00  0.00     0.001 C 
ATOM     20  C   UNL A   1      36.387  23.689  24.744  1.00  0.00     0.001 C 
ENDBRANCH  13  15
ENDBRANCH  10  13
ENDBRANCH   6  10
ENDBRANCH   3   5
ENDBRANCH   2   3
ENDBRANCH   1   2
BRANCH   1  21
ATOM     21  C   UNL A   1      31.612  30.007  25.577  1.00  0.00     0.275 C 
BRANCH  21  22
ATOM     22  O   UNL A   1      32.988  30.350  25.808  1.00  0.00    -0.458 OA
BRANCH  22  23
ATOM     23  C   UNL A   1      33.215  31.195  26.837  1.00  0.00     0.338 C 
ATOM     24  O   UNL A   1      32.453  32.064  27.243  1.00  0.00    -0.246 OA
BRANCH  23  25
ATOM     25  C   UNL A   1      34.510  30.899  27.498  1.00  0.00     0.060 A 
ATOM     26  C   UNL A   1      34.831  29.616  27.954  1.00  0.00     0.016 A 
ATOM     27  C   UNL A   1      35.364  31.966  27.788  1.00  0.00     0.016 A 
ATOM     28  C   UNL A   1      35.966  29.411  28.741  1.00  0.00     0.010 A 
ATOM     29  C   UNL A   1      36.545  31.745  28.501  1.00  0.00     0.010 A 
ATOM     30  C   UNL A   1      36.854  30.466  28.992  1.00  0.00    -0.014 A 
BRANCH  30  31
ATOM     31  C   UNL A   1      38.145  30.237  29.692  1.00  0.00     0.031 A 
ATOM     32  C   UNL A   1      39.206  29.355  29.095  1.00  0.00     0.074 A 
ATOM     33  C   UNL A   1      38.329  30.769  30.916  1.00  0.00     0.049 A 
ATOM     34  N   UNL A   1      40.279  28.859  29.657  1.00  0.00    -0.248 NA
ATOM     35  C   UNL A   1      39.033  28.972  27.686  1.00  0.00     0.031 C 
ATOM     36  C   UNL A   1      37.390  31.656  31.604  1.00  0.00     0.029 A 
ATOM     37  N   UNL A   1      39.361  30.621  31.809  1.00  0.00    -0.354 N 
ATOM     38  C   UNL A   1      40.889  28.075  28.688  1.00  0.00     0.074 A 
ATOM     39  C   UNL A   1      40.067  28.161  27.498  1.00  0.00     0.031 C 
ATOM     40  C   UNL A   1      37.888  31.978  32.805  1.00  0.00     0.029 A 
ATOM     41  C   UNL A   1      39.142  31.261  33.004  1.00  0.00     0.049 A 
ATOM     42  H   UNL A   1      40.178  30.108  31.612  1.00  0.00     0.167 HD
ATOM     43  C   UNL A   1      42.029  27.348  28.788  1.00  0.00     0.037 A 
ATOM     44  C   UNL A   1      39.839  31.235  34.155  1.00  0.00     0.037 A 
ATOM     45  C   UNL A   1      42.864  27.295  29.961  1.00  0.00     0.049 A 
ATOM     46  C   UNL A   1      41.076  30.394  34.250  1.00  0.00     0.074 A 
ATOM     47  C   UNL A   1      44.061  26.620  30.139  1.00  0.00     0.029 A 
ATOM     48  N   UNL A   1      42.597  27.949  31.154  1.00  0.00    -0.354 N 
ATOM     49  N   UNL A   1      41.626  29.632  33.340  1.00  0.00    -0.248 NA
ATOM     50  C   UNL A   1      41.777  30.398  35.541  1.00  0.00     0.031 C 
ATOM     51  C   UNL A   1      44.500  26.838  31.449  1.00  0.00     0.029 A 
ATOM     52  C   UNL A   1      43.597  27.677  32.077  1.00  0.00     0.049 A 
ATOM     53  H   UNL A   1      41.814  28.522  31.321  1.00  0.00     0.167 HD
ATOM     54  C   UNL A   1      42.741  29.068  33.941  1.00  0.00     0.074 A 
ATOM     55  C   UNL A   1      42.799  29.591  35.291  1.00  0.00     0.031 C 
ATOM     56  C   UNL A   1      43.635  28.194  33.420  1.00  0.00     0.037 A 
BRANCH  43  57
ATOM     57  C   UNL A   1      42.444  26.527  27.605  1.00  0.00     0.064 A 
ATOM     58  C   UNL A   1      43.416  26.975  26.701  1.00  0.00     0.173 A 
ATOM     59  C   UNL A   1      41.922  25.236  27.426  1.00  0.00     0.173 A 
ATOM     60  F   UNL A   1      43.938  28.205  26.826  1.00  0.00    -0.203 F 
ATOM     61  C   UNL A   1      43.848  26.163  25.655  1.00  0.00     0.198 A 
ATOM     62  C   UNL A   1      42.370  24.419  26.391  1.00  0.00     0.198 A 
ATOM     63  F   UNL A   1      40.993  24.759  28.268  1.00  0.00    -0.203 F 
ATOM     64  F   UNL A   1      44.765  26.618  24.790  1.00  0.00    -0.200 F 
ATOM     65  C   UNL A   1      43.332  24.883  25.507  1.00  0.00     0.200 A 
ATOM     66  F   UNL A   1      41.878  23.180  26.255  1.00  0.00    -0.200 F 
ATOM     67  F   UNL A   1      43.760  24.098  24.508  1.00  0.00    -0.200 F 
ENDBRANCH  43  57
BRANCH  44  68
ATOM     68  C   UNL A   1      39.344  32.009  35.319  1.00  0.00     0.064 A 
ATOM     69  C   UNL A   1      39.653  33.366  35.461  1.00  0.00     0.173 A 
ATOM     70  C   UNL A   1      38.524  31.414  36.289  1.00  0.00     0.173 A 
ATOM     71  F   UNL A   1      40.453  33.968  34.569  1.00  0.00    -0.203 F 
ATOM     72  C   UNL A   1      39.159  34.104  36.534  1.00  0.00     0.198 A 
ATOM     73  C   UNL A   1      38.011  32.159  37.348  1.00  0.00     0.198 A 
ATOM     74  F   UNL A   1      38.200  30.117  36.192  1.00  0.00    -0.203 F 
ATOM     75  F   UNL A   1      39.489  35.396  36.664  1.00  0.00    -0.200 F 
ATOM     76  C   UNL A   1      38.331  33.502  37.471  1.00  0.00     0.200 A 
ATOM     77  F   UNL A   1      37.200  31.577  38.242  1.00  0.00    -0.200 F 
ATOM     78  F   UNL A   1      37.845  34.217  38.495  1.00  0.00    -0.200 F 
ENDBRANCH  44  68
BRANCH  56  79
ATOM     79  C   UNL A   1      44.758  27.761  34.312  1.00  0.00     0.064 A 
ATOM     80  C   UNL A   1      44.657  26.608  35.102  1.00  0.00     0.173 A 
ATOM     81  C   UNL A   1      45.947  28.502  34.371  1.00  0.00     0.173 A 
ATOM     82  F   UNL A   1      43.531  25.878  35.092  1.00  0.00    -0.203 F 
ATOM     83  C   UNL A   1      45.702  26.222  35.937  1.00  0.00     0.198 A 
ATOM     84  C   UNL A   1      46.997  28.103  35.192  1.00  0.00     0.198 A 
ATOM     85  F   UNL A   1      46.089  29.613  33.633  1.00  0.00    -0.203 F 
ATOM     86  F   UNL A   1      45.571  25.139  36.715  1.00  0.00    -0.200 F 
ATOM     87  C   UNL A   1      46.872  26.967  35.978  1.00  0.00     0.200 A 
ATOM     88  F   UNL A   1      48.128  28.819  35.228  1.00  0.00    -0.200 F 
ATOM     89  F   UNL A   1      47.875  26.595  36.785  1.00  0.00    -0.200 F 
ENDBRANCH  56  79
ENDBRANCH  30  31
ENDBRANCH  23  25
ENDBRANCH  22  23
ENDBRANCH  21  22
ENDBRANCH   1  21
TORSDOF 15
ENDMDL
MODEL 3
REMARK VINA RESULT:     -11.2      0.939      1.972
REMARK SMILES CCN(C(=O)C1(C)CCCC1)[C@@H]1COC[C@H]1C(=O)OCCOC(=O)c1ccc(-c2c3nc(c(-c4c(F)c(F)c(F)c(F)c4F)c4ccc([nH]4)c(-c4c(F)c(F)c(F)c(F)c4F)c4nc(c(-c5c(F)c(F)c(F)c(F)c5F)c5ccc2[nH]5)C=C4)C=C3)cc1
REMARK SMILES IDX 20 1 19 2 17 3 18 4 16 5 12 6 13 7 14 8 15 9 3 10 2 11 1 12
REMARK SMILES IDX 4 13 5 14 6 15 7 16 8 17 11 18 9 19 10 20 21 21 22 22 23 23
REMARK SMILES IDX 24 24 25 25 26 26 87 27 27 28 86 29 28 30 29 31 30 32 80 33
REMARK SMILES IDX 31 34 85 35 79 36 81 37 32 38 84 39 78 40 77 41 33 43 65 44
REMARK SMILES IDX 45 45 64 46 46 47 49 48 63 49 82 50 47 51 48 52 62 54 83 55
REMARK SMILES IDX 50 56 34 57 35 58 43 59 36 60 37 61 41 62 44 63 38 64 39 65
REMARK SMILES IDX 42 66 40 67 66 68 67 69 75 70 68 71 69 72 73 73 76 74 70 75
REMARK SMILES IDX 71 76 74 77 72 78 51 79 52 80 60 81 53 82 54 83 58 84 61 85
REMARK SMILES IDX 55 86 56 87 59 88 57 89
REMARK H PARENT 81 42 49 53
REMARK Flexibility Score: inf
ROOT
ATOM      1  C   UNL A   1      31.798  28.674  27.247  1.00  0.00     0.274 C 
ENDROOT
BRANCH   1   2
ATOM      2  O   UNL A   1      32.893  27.797  26.903  1.00  0.00    -0.462 OA
BRANCH   2   3
ATOM      3  C   UNL A   1      32.561  26.758  26.094  1.00  0.00     0.313 C 
ATOM      4  O   UNL A   1      31.513  26.123  26.190  1.00  0.00    -0.252 OA
BRANCH   3   5
ATOM      5  C   UNL A   1      33.594  26.413  25.043  1.00  0.00     0.150 C 
ATOM      6  C   UNL A   1      33.233  25.339  24.017  1.00  0.00     0.127 C 
ATOM      7  C   UNL A   1      33.531  26.023  22.676  1.00  0.00     0.186 C 
ATOM      8  O   UNL A   1      33.269  27.408  22.899  1.00  0.00    -0.378 OA
ATOM      9  C   UNL A   1      33.774  27.686  24.213  1.00  0.00     0.177 C 
BRANCH   6  10
ATOM     10  N   UNL A   1      33.875  24.007  24.158  1.00  0.00    -0.336 N 
BRANCH  10  11
ATOM     11  C   UNL A   1      35.328  23.982  24.333  1.00  0.00     0.116 C 
ATOM     12  C   UNL A   1      35.977  23.020  23.355  1.00  0.00     0.027 C 
ENDBRANCH  10  11
BRANCH  10  13
ATOM     13  C   UNL A   1      33.157  22.853  23.840  1.00  0.00     0.228 C 
ATOM     14  O   UNL A   1      32.864  22.622  22.664  1.00  0.00    -0.274 OA
BRANCH  13  15
ATOM     15  C   UNL A   1      32.610  21.962  25.001  1.00  0.00     0.047 C 
ATOM     16  C   UNL A   1      31.296  22.574  25.514  1.00  0.00     0.022 C 
ATOM     17  C   UNL A   1      32.325  20.531  24.479  1.00  0.00     0.016 C 
ATOM     18  C   UNL A   1      33.583  21.638  26.142  1.00  0.00     0.016 C 
ATOM     19  C   UNL A   1      33.647  19.773  24.594  1.00  0.00     0.001 C 
ATOM     20  C   UNL A   1      34.501  20.560  25.581  1.00  0.00     0.001 C 
ENDBRANCH  13  15
ENDBRANCH  10  13
ENDBRANCH   6  10
ENDBRANCH   3   5
ENDBRANCH   2   3
ENDBRANCH   1   2
BRANCH   1  21
ATOM     21  C   UNL A   1      31.874  29.993  26.480  1.00  0.00     0.275 C 
BRANCH  21  22
ATOM     22  O   UNL A   1      33.237  30.443  26.413  1.00  0.00    -0.458 OA
BRANCH  22  23
ATOM     23  C   UNL A   1      33.543  31.500  27.197  1.00  0.00     0.338 C 
ATOM     24  O   UNL A   1      32.872  32.515  27.340  1.00  0.00    -0.246 OA
BRANCH  23  25
ATOM     25  C   UNL A   1      34.794  31.259  27.957  1.00  0.00     0.060 A 
ATOM     26  C   UNL A   1      35.788  32.237  28.075  1.00  0.00     0.016 A 
ATOM     27  C   UNL A   1      35.034  29.973  28.447  1.00  0.00     0.016 A 
ATOM     28  C   UNL A   1      37.030  31.917  28.627  1.00  0.00     0.010 A 
ATOM     29  C   UNL A   1      36.245  29.677  29.078  1.00  0.00     0.010 A 
ATOM     30  C   UNL A   1      37.259  30.644  29.168  1.00  0.00    -0.014 A 
BRANCH  30  31
ATOM     31  C   UNL A   1      38.514  30.331  29.899  1.00  0.00     0.031 A 
ATOM     32  C   UNL A   1      39.531  29.385  29.325  1.00  0.00     0.074 A 
ATOM     33  C   UNL A   1      38.700  30.847  31.129  1.00  0.00     0.049 A 
ATOM     34  N   UNL A   1      40.556  28.820  29.912  1.00  0.00    -0.248 NA
ATOM     35  C   UNL A   1      39.370  29.018  27.910  1.00  0.00     0.031 C 
ATOM     36  C   UNL A   1      37.802  31.790  31.798  1.00  0.00     0.029 A 
ATOM     37  N   UNL A   1      39.698  30.631  32.048  1.00  0.00    -0.354 N 
ATOM     38  C   UNL A   1      41.139  28.001  28.955  1.00  0.00     0.074 A 
ATOM     39  C   UNL A   1      40.355  28.143  27.745  1.00  0.00     0.031 C 
ATOM     40  C   UNL A   1      38.289  32.076  33.012  1.00  0.00     0.029 A 
ATOM     41  C   UNL A   1      39.489  31.280  33.240  1.00  0.00     0.049 A 
ATOM     42  H   UNL A   1      40.485  30.067  31.869  1.00  0.00     0.167 HD
ATOM     43  C   UNL A   1      42.228  27.203  29.080  1.00  0.00     0.037 A 
ATOM     44  C   UNL A   1      40.154  31.207  34.408  1.00  0.00     0.037 A 
ATOM     45  C   UNL A   1      43.028  27.094  30.274  1.00  0.00     0.049 A 
ATOM     46  C   UNL A   1      41.332  30.288  34.530  1.00  0.00     0.074 A 
ATOM     47  C   UNL A   1      44.174  26.343  30.478  1.00  0.00     0.029 A 
ATOM     48  N   UNL A   1      42.773  27.760  31.463  1.00  0.00    -0.354 N 
ATOM     49  N   UNL A   1      41.856  29.495  33.631  1.00  0.00    -0.248 NA
ATOM     50  C   UNL A   1      41.999  30.244  35.839  1.00  0.00     0.031 C 
ATOM     51  C   UNL A   1      44.593  26.529  31.800  1.00  0.00     0.029 A 
ATOM     52  C   UNL A   1      43.729  27.423  32.409  1.00  0.00     0.049 A 
ATOM     53  H   UNL A   1      42.024  28.381  31.612  1.00  0.00     0.167 HD
ATOM     54  C   UNL A   1      42.917  28.859  34.257  1.00  0.00     0.074 A 
ATOM     55  C   UNL A   1      42.973  29.374  35.611  1.00  0.00     0.031 C 
ATOM     56  C   UNL A   1      43.766  27.932  33.754  1.00  0.00     0.037 A 
BRANCH  43  57
ATOM     57  C   UNL A   1      42.620  26.360  27.904  1.00  0.00     0.064 A 
ATOM     58  C   UNL A   1      42.046  25.102  27.675  1.00  0.00     0.173 A 
ATOM     59  C   UNL A   1      43.518  26.859  26.948  1.00  0.00     0.173 A 
ATOM     60  F   UNL A   1      41.189  24.579  28.565  1.00  0.00    -0.203 F 
ATOM     61  C   UNL A   1      42.362  24.370  26.534  1.00  0.00     0.198 A 
ATOM     62  C   UNL A   1      43.817  26.133  25.799  1.00  0.00     0.198 A 
ATOM     63  F   UNL A   1      44.089  28.061  27.119  1.00  0.00    -0.203 F 
ATOM     64  F   UNL A   1      41.818  23.160  26.343  1.00  0.00    -0.200 F 
ATOM     65  C   UNL A   1      43.240  24.890  25.592  1.00  0.00     0.200 A 
ATOM     66  F   UNL A   1      44.657  26.641  24.886  1.00  0.00    -0.200 F 
ATOM     67  F   UNL A   1      43.531  24.190  24.487  1.00  0.00    -0.200 F 
ENDBRANCH  43  57
BRANCH  44  68
ATOM     68  C   UNL A   1      39.680  32.007  35.562  1.00  0.00     0.064 A 
ATOM     69  C   UNL A   1      40.175  33.295  35.793  1.00  0.00     0.173 A 
ATOM     70  C   UNL A   1      38.697  31.512  36.433  1.00  0.00     0.173 A 
ATOM     71  F   UNL A   1      41.132  33.797  34.999  1.00  0.00    -0.203 F 
ATOM     72  C   UNL A   1      39.705  34.063  36.856  1.00  0.00     0.198 A 
ATOM     73  C   UNL A   1      38.210  32.290  37.480  1.00  0.00     0.198 A 
ATOM     74  F   UNL A   1      38.192  30.284  36.247  1.00  0.00    -0.203 F 
ATOM     75  F   UNL A   1      40.212  35.284  37.073  1.00  0.00    -0.200 F 
ATOM     76  C   UNL A   1      38.716  33.564  37.692  1.00  0.00     0.200 A 
ATOM     77  F   UNL A   1      37.245  31.810  38.276  1.00  0.00    -0.200 F 
ATOM     78  F   UNL A   1      38.254  34.309  38.705  1.00  0.00    -0.200 F 
ENDBRANCH  44  68
BRANCH  56  79
ATOM     79  C   UNL A   1      44.836  27.426  34.673  1.00  0.00     0.064 A 
ATOM     80  C   UNL A   1      44.646  26.274  35.449  1.00  0.00     0.173 A 
ATOM     81  C   UNL A   1      46.065  28.094  34.771  1.00  0.00     0.173 A 
ATOM     82  F   UNL A   1      43.479  25.614  35.401  1.00  0.00    -0.203 F 
ATOM     83  C   UNL A   1      45.642  25.820  36.309  1.00  0.00     0.198 A 
ATOM     84  C   UNL A   1      47.067  27.626  35.616  1.00  0.00     0.198 A 
ATOM     85  F   UNL A   1      46.293  29.200  34.048  1.00  0.00    -0.203 F 
ATOM     86  F   UNL A   1      45.425  24.741  37.072  1.00  0.00    -0.200 F 
ATOM     87  C   UNL A   1      46.853  26.494  36.388  1.00  0.00     0.200 A 
ATOM     88  F   UNL A   1      48.237  28.274  35.690  1.00  0.00    -0.200 F 
ATOM     89  F   UNL A   1      47.809  26.057  37.219  1.00  0.00    -0.200 F 
ENDBRANCH  56  79
ENDBRANCH  30  31
ENDBRANCH  23  25
ENDBRANCH  22  23
ENDBRANCH  21  22
ENDBRANCH   1  21
TORSDOF 15
ENDMDL
