MODEL 1
REMARK VINA RESULT:     -11.7      0.000      0.000
REMARK SMILES CSc1nc(C2CC2)nc(C)c1C(=O)OCCOC(=O)c1ccc(-c2c3nc(c(-c4c(F)c(F)c(F)c(F)c4F)c4ccc([nH]4)c(-c4c(F)c(F)c(F)c(F)c4F)c4nc(c(-c5c(F)c(F)c(F)c(F)c5F)c5ccc2[nH]5)C=C4)C=C3)cc1
REMARK SMILES IDX 17 1 16 2 15 3 13 4 14 5 12 6 3 7 4 8 5 9 10 10 9 11 11 12
REMARK SMILES IDX 2 13 1 14 6 15 7 16 8 17 18 18 19 19 20 20 21 21 22 22 83 23
REMARK SMILES IDX 23 24 82 25 24 26 25 27 26 28 76 29 27 30 81 31 75 32 77 33
REMARK SMILES IDX 28 34 80 35 74 36 73 37 29 39 61 40 41 41 60 42 42 43 45 44
REMARK SMILES IDX 59 45 78 46 43 47 44 48 58 50 79 51 46 52 30 53 31 54 39 55
REMARK SMILES IDX 32 56 33 57 37 58 40 59 34 60 35 61 38 62 36 63 62 64 63 65
REMARK SMILES IDX 71 66 64 67 65 68 69 69 72 70 66 71 67 72 70 73 68 74 47 75
REMARK SMILES IDX 48 76 56 77 49 78 50 79 54 80 57 81 51 82 52 83 55 84 53 85
REMARK H PARENT 77 38 45 49
REMARK Flexibility Score: inf
ROOT
ATOM      1  C   UNL A   1      31.782  30.668  26.012  1.00  0.00     0.275 C 
ENDROOT
BRANCH   1   2
ATOM      2  C   UNL A   1      32.369  29.699  24.988  1.00  0.00     0.275 C 
BRANCH   2   3
ATOM      3  O   UNL A   1      31.332  28.825  24.482  1.00  0.00    -0.458 OA
BRANCH   3   4
ATOM      4  C   UNL A   1      31.290  28.627  23.142  1.00  0.00     0.342 C 
ATOM      5  O   UNL A   1      30.863  29.418  22.315  1.00  0.00    -0.246 OA
BRANCH   4   6
ATOM      6  C   UNL A   1      31.833  27.300  22.806  1.00  0.00     0.113 A 
ATOM      7  C   UNL A   1      31.141  26.132  23.073  1.00  0.00     0.114 A 
ATOM      8  N   UNL A   1      31.647  24.911  22.823  1.00  0.00    -0.225 NA
ATOM      9  C   UNL A   1      32.876  24.801  22.318  1.00  0.00     0.133 A 
ATOM     10  C   UNL A   1      33.102  27.118  22.271  1.00  0.00     0.057 A 
ATOM     11  N   UNL A   1      33.620  25.881  22.027  1.00  0.00    -0.237 NA
ATOM     12  C   UNL A   1      34.090  28.226  22.042  1.00  0.00     0.068 C 
BRANCH   7  13
ATOM     13  S   UNL A   1      29.540  25.994  23.821  1.00  0.00    -0.109 SA
ATOM     14  C   UNL A   1      30.062  25.682  25.540  1.00  0.00     0.092 C 
ENDBRANCH   7  13
BRANCH   9  15
ATOM     15  C   UNL A   1      33.429  23.410  22.122  1.00  0.00     0.058 C 
ATOM     16  C   UNL A   1      33.997  22.651  23.309  1.00  0.00     0.012 C 
ATOM     17  C   UNL A   1      32.701  22.215  22.694  1.00  0.00     0.012 C 
ENDBRANCH   9  15
ENDBRANCH   4   6
ENDBRANCH   3   4
ENDBRANCH   2   3
ENDBRANCH   1   2
BRANCH   1  18
ATOM     18  O   UNL A   1      32.607  30.646  27.188  1.00  0.00    -0.458 OA
BRANCH  18  19
ATOM     19  C   UNL A   1      33.306  31.778  27.426  1.00  0.00     0.338 C 
ATOM     20  O   UNL A   1      32.890  32.920  27.495  1.00  0.00    -0.246 OA
BRANCH  19  21
ATOM     21  C   UNL A   1      34.691  31.411  27.752  1.00  0.00     0.060 A 
ATOM     22  C   UNL A   1      34.953  30.079  28.032  1.00  0.00     0.016 A 
ATOM     23  C   UNL A   1      35.669  32.376  27.972  1.00  0.00     0.016 A 
ATOM     24  C   UNL A   1      36.141  29.738  28.673  1.00  0.00     0.010 A 
ATOM     25  C   UNL A   1      36.912  31.996  28.507  1.00  0.00     0.010 A 
ATOM     26  C   UNL A   1      37.146  30.678  28.945  1.00  0.00    -0.014 A 
BRANCH  26  27
ATOM     27  C   UNL A   1      38.354  30.300  29.764  1.00  0.00     0.031 A 
ATOM     28  C   UNL A   1      39.449  29.439  29.164  1.00  0.00     0.074 A 
ATOM     29  C   UNL A   1      38.557  30.776  31.014  1.00  0.00     0.049 A 
ATOM     30  N   UNL A   1      40.423  28.791  29.760  1.00  0.00    -0.248 NA
ATOM     31  C   UNL A   1      39.444  29.274  27.701  1.00  0.00     0.031 C 
ATOM     32  C   UNL A   1      37.682  31.704  31.733  1.00  0.00     0.029 A 
ATOM     33  N   UNL A   1      39.592  30.565  31.901  1.00  0.00    -0.354 N 
ATOM     34  C   UNL A   1      41.075  28.072  28.764  1.00  0.00     0.074 A 
ATOM     35  C   UNL A   1      40.399  28.371  27.521  1.00  0.00     0.031 C 
ATOM     36  C   UNL A   1      38.257  32.056  32.890  1.00  0.00     0.029 A 
ATOM     37  C   UNL A   1      39.446  31.242  33.090  1.00  0.00     0.049 A 
ATOM     38  H   UNL A   1      40.362  29.985  31.702  1.00  0.00     0.167 HD
ATOM     39  C   UNL A   1      42.136  27.233  28.877  1.00  0.00     0.037 A 
ATOM     40  C   UNL A   1      40.123  31.163  34.253  1.00  0.00     0.037 A 
ATOM     41  C   UNL A   1      42.875  27.014  30.097  1.00  0.00     0.049 A 
ATOM     42  C   UNL A   1      41.243  30.171  34.385  1.00  0.00     0.074 A 
ATOM     43  C   UNL A   1      43.964  26.184  30.310  1.00  0.00     0.029 A 
ATOM     44  N   UNL A   1      42.625  27.654  31.302  1.00  0.00    -0.354 N 
ATOM     45  N   UNL A   1      41.760  29.381  33.478  1.00  0.00    -0.248 NA
ATOM     46  C   UNL A   1      41.845  30.029  35.718  1.00  0.00     0.031 C 
ATOM     47  C   UNL A   1      44.339  26.282  31.653  1.00  0.00     0.029 A 
ATOM     48  C   UNL A   1      43.526  27.223  32.263  1.00  0.00     0.049 A 
ATOM     49  H   UNL A   1      41.912  28.316  31.451  1.00  0.00     0.167 HD
ATOM     50  C   UNL A   1      42.754  28.659  34.123  1.00  0.00     0.074 A 
ATOM     51  C   UNL A   1      42.785  29.123  35.493  1.00  0.00     0.031 C 
ATOM     52  C   UNL A   1      43.561  27.693  33.623  1.00  0.00     0.037 A 
BRANCH  39  53
ATOM     53  C   UNL A   1      42.543  26.436  27.668  1.00  0.00     0.064 A 
ATOM     54  C   UNL A   1      43.563  26.845  26.799  1.00  0.00     0.173 A 
ATOM     55  C   UNL A   1      41.930  25.196  27.415  1.00  0.00     0.173 A 
ATOM     56  F   UNL A   1      44.176  28.024  26.985  1.00  0.00    -0.203 F 
ATOM     57  C   UNL A   1      43.939  26.058  25.712  1.00  0.00     0.198 A 
ATOM     58  C   UNL A   1      42.331  24.395  26.350  1.00  0.00     0.198 A 
ATOM     59  F   UNL A   1      40.953  24.748  28.220  1.00  0.00    -0.203 F 
ATOM     60  F   UNL A   1      44.886  26.490  24.868  1.00  0.00    -0.200 F 
ATOM     61  C   UNL A   1      43.330  24.830  25.493  1.00  0.00     0.200 A 
ATOM     62  F   UNL A   1      41.754  23.201  26.156  1.00  0.00    -0.200 F 
ATOM     63  F   UNL A   1      43.704  24.067  24.457  1.00  0.00    -0.200 F 
ENDBRANCH  39  53
BRANCH  40  64
ATOM     64  C   UNL A   1      39.684  31.972  35.427  1.00  0.00     0.064 A 
ATOM     65  C   UNL A   1      38.692  31.509  36.301  1.00  0.00     0.173 A 
ATOM     66  C   UNL A   1      40.241  33.235  35.688  1.00  0.00     0.173 A 
ATOM     67  F   UNL A   1      38.097  30.328  36.075  1.00  0.00    -0.203 F 
ATOM     68  C   UNL A   1      38.273  32.277  37.386  1.00  0.00     0.198 A 
ATOM     69  C   UNL A   1      39.856  33.980  36.798  1.00  0.00     0.198 A 
ATOM     70  F   UNL A   1      41.183  33.737  34.875  1.00  0.00    -0.203 F 
ATOM     71  F   UNL A   1      37.284  31.836  38.175  1.00  0.00    -0.200 F 
ATOM     72  C   UNL A   1      38.864  33.506  37.642  1.00  0.00     0.200 A 
ATOM     73  F   UNL A   1      40.445  35.157  37.049  1.00  0.00    -0.200 F 
ATOM     74  F   UNL A   1      38.472  34.237  38.694  1.00  0.00    -0.200 F 
ENDBRANCH  40  64
BRANCH  52  75
ATOM     75  C   UNL A   1      44.585  27.105  34.551  1.00  0.00     0.064 A 
ATOM     76  C   UNL A   1      45.853  27.684  34.715  1.00  0.00     0.173 A 
ATOM     77  C   UNL A   1      44.288  25.956  35.298  1.00  0.00     0.173 A 
ATOM     78  F   UNL A   1      46.194  28.773  34.010  1.00  0.00    -0.203 F 
ATOM     79  C   UNL A   1      46.794  27.116  35.570  1.00  0.00     0.198 A 
ATOM     80  C   UNL A   1      45.218  25.410  36.178  1.00  0.00     0.198 A 
ATOM     81  F   UNL A   1      43.088  25.366  35.183  1.00  0.00    -0.203 F 
ATOM     82  F   UNL A   1      48.018  27.652  35.668  1.00  0.00    -0.200 F 
ATOM     83  C   UNL A   1      46.473  25.984  36.305  1.00  0.00     0.200 A 
ATOM     84  F   UNL A   1      44.902  24.325  36.897  1.00  0.00    -0.200 F 
ATOM     85  F   UNL A   1      47.379  25.441  37.130  1.00  0.00    -0.200 F 
ENDBRANCH  52  75
ENDBRANCH  26  27
ENDBRANCH  19  21
ENDBRANCH  18  19
ENDBRANCH   1  18
TORSDOF 13
ENDMDL
MODEL 2
REMARK VINA RESULT:     -11.5      0.347      1.683
REMARK SMILES CSc1nc(C2CC2)nc(C)c1C(=O)OCCOC(=O)c1ccc(-c2c3nc(c(-c4c(F)c(F)c(F)c(F)c4F)c4ccc([nH]4)c(-c4c(F)c(F)c(F)c(F)c4F)c4nc(c(-c5c(F)c(F)c(F)c(F)c5F)c5ccc2[nH]5)C=C4)C=C3)cc1
REMARK SMILES IDX 17 1 16 2 15 3 13 4 14 5 12 6 3 7 4 8 5 9 10 10 9 11 11 12
REMARK SMILES IDX 2 13 1 14 6 15 7 16 8 17 18 18 19 19 20 20 21 21 22 22 83 23
REMARK SMILES IDX 23 24 82 25 24 26 25 27 26 28 76 29 27 30 81 31 75 32 77 33
REMARK SMILES IDX 28 34 80 35 74 36 73 37 29 39 61 40 41 41 60 42 42 43 45 44
REMARK SMILES IDX 59 45 78 46 43 47 44 48 58 50 79 51 46 52 30 53 31 54 39 55
REMARK SMILES IDX 32 56 33 57 37 58 40 59 34 60 35 61 38 62 36 63 62 64 63 65
REMARK SMILES IDX 71 66 64 67 65 68 69 69 72 70 66 71 67 72 70 73 68 74 47 75
REMARK SMILES IDX 48 76 56 77 49 78 50 79 54 80 57 81 51 82 52 83 55 84 53 85
REMARK H PARENT 77 38 45 49
REMARK Flexibility Score: inf
ROOT
ATOM      1  C   UNL A   1      31.658  30.351  26.474  1.00  0.00     0.275 C 
ENDROOT
BRANCH   1   2
ATOM      2  C   UNL A   1      31.235  30.210  25.013  1.00  0.00     0.275 C 
BRANCH   2   3
ATOM      3  O   UNL A   1      31.804  29.004  24.448  1.00  0.00    -0.458 OA
BRANCH   3   4
ATOM      4  C   UNL A   1      31.413  28.664  23.196  1.00  0.00     0.342 C 
ATOM      5  O   UNL A   1      30.735  29.350  22.446  1.00  0.00    -0.246 OA
BRANCH   4   6
ATOM      6  C   UNL A   1      31.920  27.324  22.851  1.00  0.00     0.113 A 
ATOM      7  C   UNL A   1      31.216  26.172  23.151  1.00  0.00     0.114 A 
ATOM      8  N   UNL A   1      31.691  24.940  22.893  1.00  0.00    -0.225 NA
ATOM      9  C   UNL A   1      32.899  24.803  22.347  1.00  0.00     0.133 A 
ATOM     10  C   UNL A   1      33.166  27.115  22.273  1.00  0.00     0.057 A 
ATOM     11  N   UNL A   1      33.651  25.867  22.022  1.00  0.00    -0.237 NA
ATOM     12  C   UNL A   1      34.165  28.203  22.001  1.00  0.00     0.068 C 
BRANCH   7  13
ATOM     13  S   UNL A   1      29.640  26.068  23.957  1.00  0.00    -0.109 SA
ATOM     14  C   UNL A   1      30.217  25.918  25.679  1.00  0.00     0.092 C 
ENDBRANCH   7  13
BRANCH   9  15
ATOM     15  C   UNL A   1      33.420  23.401  22.142  1.00  0.00     0.058 C 
ATOM     16  C   UNL A   1      34.112  22.680  23.286  1.00  0.00     0.012 C 
ATOM     17  C   UNL A   1      32.753  22.234  22.836  1.00  0.00     0.012 C 
ENDBRANCH   9  15
ENDBRANCH   4   6
ENDBRANCH   3   4
ENDBRANCH   2   3
ENDBRANCH   1   2
BRANCH   1  18
ATOM     18  O   UNL A   1      33.091  30.442  26.529  1.00  0.00    -0.458 OA
BRANCH  18  19
ATOM     19  C   UNL A   1      33.579  31.475  27.251  1.00  0.00     0.338 C 
ATOM     20  O   UNL A   1      32.986  32.462  27.648  1.00  0.00    -0.246 OA
BRANCH  19  21
ATOM     21  C   UNL A   1      34.960  31.163  27.638  1.00  0.00     0.060 A 
ATOM     22  C   UNL A   1      35.288  29.829  27.827  1.00  0.00     0.016 A 
ATOM     23  C   UNL A   1      35.861  32.161  28.000  1.00  0.00     0.016 A 
ATOM     24  C   UNL A   1      36.454  29.505  28.517  1.00  0.00     0.010 A 
ATOM     25  C   UNL A   1      37.089  31.809  28.585  1.00  0.00     0.010 A 
ATOM     26  C   UNL A   1      37.378  30.475  28.930  1.00  0.00    -0.014 A 
BRANCH  26  27
ATOM     27  C   UNL A   1      38.554  30.100  29.795  1.00  0.00     0.031 A 
ATOM     28  C   UNL A   1      39.670  29.234  29.241  1.00  0.00     0.074 A 
ATOM     29  C   UNL A   1      38.711  30.581  31.050  1.00  0.00     0.049 A 
ATOM     30  N   UNL A   1      40.620  28.589  29.876  1.00  0.00    -0.248 NA
ATOM     31  C   UNL A   1      39.719  29.062  27.779  1.00  0.00     0.031 C 
ATOM     32  C   UNL A   1      37.812  31.514  31.732  1.00  0.00     0.029 A 
ATOM     33  N   UNL A   1      39.713  30.374  31.976  1.00  0.00    -0.354 N 
ATOM     34  C   UNL A   1      41.308  27.864  28.908  1.00  0.00     0.074 A 
ATOM     35  C   UNL A   1      40.679  28.158  27.639  1.00  0.00     0.031 C 
ATOM     36  C   UNL A   1      38.344  31.871  32.907  1.00  0.00     0.029 A 
ATOM     37  C   UNL A   1      39.523  31.057  33.156  1.00  0.00     0.049 A 
ATOM     38  H   UNL A   1      40.489  29.792  31.808  1.00  0.00     0.167 HD
ATOM     39  C   UNL A   1      42.363  27.024  29.065  1.00  0.00     0.037 A 
ATOM     40  C   UNL A   1      40.157  30.982  34.343  1.00  0.00     0.037 A 
ATOM     41  C   UNL A   1      43.056  26.810  30.312  1.00  0.00     0.049 A 
ATOM     42  C   UNL A   1      41.270  29.989  34.521  1.00  0.00     0.074 A 
ATOM     43  C   UNL A   1      44.135  25.980  30.569  1.00  0.00     0.029 A 
ATOM     44  N   UNL A   1      42.762  27.456  31.503  1.00  0.00    -0.354 N 
ATOM     45  N   UNL A   1      41.819  29.194  33.637  1.00  0.00    -0.248 NA
ATOM     46  C   UNL A   1      41.821  29.853  35.876  1.00  0.00     0.031 C 
ATOM     47  C   UNL A   1      44.460  26.085  31.925  1.00  0.00     0.029 A 
ATOM     48  C   UNL A   1      43.626  27.028  32.500  1.00  0.00     0.049 A 
ATOM     49  H   UNL A   1      42.045  28.120  31.623  1.00  0.00     0.167 HD
ATOM     50  C   UNL A   1      42.787  28.475  34.323  1.00  0.00     0.074 A 
ATOM     51  C   UNL A   1      42.768  28.945  35.691  1.00  0.00     0.031 C 
ATOM     52  C   UNL A   1      43.611  27.505  33.858  1.00  0.00     0.037 A 
BRANCH  39  53
ATOM     53  C   UNL A   1      42.813  26.220  27.874  1.00  0.00     0.064 A 
ATOM     54  C   UNL A   1      42.270  24.968  27.558  1.00  0.00     0.173 A 
ATOM     55  C   UNL A   1      43.771  26.758  26.996  1.00  0.00     0.173 A 
ATOM     56  F   UNL A   1      41.361  24.402  28.365  1.00  0.00    -0.203 F 
ATOM     57  C   UNL A   1      42.685  24.273  26.423  1.00  0.00     0.198 A 
ATOM     58  C   UNL A   1      44.156  26.078  25.844  1.00  0.00     0.198 A 
ATOM     59  F   UNL A   1      44.317  27.958  27.244  1.00  0.00    -0.203 F 
ATOM     60  F   UNL A   1      42.186  23.057  26.163  1.00  0.00    -0.200 F 
ATOM     61  C   UNL A   1      43.619  24.832  25.562  1.00  0.00     0.200 A 
ATOM     62  F   UNL A   1      45.044  26.632  25.007  1.00  0.00    -0.200 F 
ATOM     63  F   UNL A   1      44.004  24.169  24.463  1.00  0.00    -0.200 F 
ENDBRANCH  39  53
BRANCH  40  64
ATOM     64  C   UNL A   1      39.676  31.797  35.495  1.00  0.00     0.064 A 
ATOM     65  C   UNL A   1      40.246  33.041  35.796  1.00  0.00     0.173 A 
ATOM     66  C   UNL A   1      38.642  31.339  36.329  1.00  0.00     0.173 A 
ATOM     67  F   UNL A   1      41.264  33.509  35.059  1.00  0.00    -0.203 F 
ATOM     68  C   UNL A   1      39.804  33.792  36.885  1.00  0.00     0.198 A 
ATOM     69  C   UNL A   1      38.170  32.110  37.387  1.00  0.00     0.198 A 
ATOM     70  F   UNL A   1      38.070  30.148  36.099  1.00  0.00    -0.203 F 
ATOM     71  F   UNL A   1      40.404  34.953  37.184  1.00  0.00    -0.200 F 
ATOM     72  C   UNL A   1      38.758  33.332  37.671  1.00  0.00     0.200 A 
ATOM     73  F   UNL A   1      37.146  31.668  38.130  1.00  0.00    -0.200 F 
ATOM     74  F   UNL A   1      38.324  34.061  38.708  1.00  0.00    -0.200 F 
ENDBRANCH  40  64
BRANCH  52  75
ATOM     75  C   UNL A   1      44.600  26.921  34.826  1.00  0.00     0.064 A 
ATOM     76  C   UNL A   1      45.858  27.504  35.041  1.00  0.00     0.173 A 
ATOM     77  C   UNL A   1      44.276  25.771  35.561  1.00  0.00     0.173 A 
ATOM     78  F   UNL A   1      46.223  28.594  34.349  1.00  0.00    -0.203 F 
ATOM     79  C   UNL A   1      46.766  26.939  35.932  1.00  0.00     0.198 A 
ATOM     80  C   UNL A   1      45.173  25.228  36.477  1.00  0.00     0.198 A 
ATOM     81  F   UNL A   1      43.084  25.177  35.397  1.00  0.00    -0.203 F 
ATOM     82  F   UNL A   1      47.983  27.480  36.079  1.00  0.00    -0.200 F 
ATOM     83  C   UNL A   1      46.420  25.806  36.654  1.00  0.00     0.200 A 
ATOM     84  F   UNL A   1      44.832  24.142  37.183  1.00  0.00    -0.200 F 
ATOM     85  F   UNL A   1      47.294  25.266  37.514  1.00  0.00    -0.200 F 
ENDBRANCH  52  75
ENDBRANCH  26  27
ENDBRANCH  19  21
ENDBRANCH  18  19
ENDBRANCH   1  18
TORSDOF 13
ENDMDL
MODEL 3
REMARK VINA RESULT:     -11.5      4.761      9.981
REMARK SMILES CSc1nc(C2CC2)nc(C)c1C(=O)OCCOC(=O)c1ccc(-c2c3nc(c(-c4c(F)c(F)c(F)c(F)c4F)c4ccc([nH]4)c(-c4c(F)c(F)c(F)c(F)c4F)c4nc(c(-c5c(F)c(F)c(F)c(F)c5F)c5ccc2[nH]5)C=C4)C=C3)cc1
REMARK SMILES IDX 17 1 16 2 15 3 13 4 14 5 12 6 3 7 4 8 5 9 10 10 9 11 11 12
REMARK SMILES IDX 2 13 1 14 6 15 7 16 8 17 18 18 19 19 20 20 21 21 22 22 83 23
REMARK SMILES IDX 23 24 82 25 24 26 25 27 26 28 76 29 27 30 81 31 75 32 77 33
REMARK SMILES IDX 28 34 80 35 74 36 73 37 29 39 61 40 41 41 60 42 42 43 45 44
REMARK SMILES IDX 59 45 78 46 43 47 44 48 58 50 79 51 46 52 30 53 31 54 39 55
REMARK SMILES IDX 32 56 33 57 37 58 40 59 34 60 35 61 38 62 36 63 62 64 63 65
REMARK SMILES IDX 71 66 64 67 65 68 69 69 72 70 66 71 67 72 70 73 68 74 47 75
REMARK SMILES IDX 48 76 56 77 49 78 50 79 54 80 57 81 51 82 52 83 55 84 53 85
REMARK H PARENT 77 38 45 49
REMARK Flexibility Score: inf
ROOT
ATOM      1  C   UNL A   1      36.783  20.676  24.933  1.00  0.00     0.275 C 
ENDROOT
BRANCH   1   2
ATOM      2  C   UNL A   1      35.567  21.123  25.742  1.00  0.00     0.275 C 
BRANCH   2   3
ATOM      3  O   UNL A   1      34.410  21.229  24.879  1.00  0.00    -0.458 OA
BRANCH   3   4
ATOM      4  C   UNL A   1      33.202  20.952  25.427  1.00  0.00     0.342 C 
ATOM      5  O   UNL A   1      32.784  19.841  25.716  1.00  0.00    -0.246 OA
BRANCH   4   6
ATOM      6  C   UNL A   1      32.438  22.195  25.630  1.00  0.00     0.113 A 
ATOM      7  C   UNL A   1      31.828  22.862  24.583  1.00  0.00     0.114 A 
ATOM      8  N   UNL A   1      31.174  24.027  24.742  1.00  0.00    -0.225 NA
ATOM      9  C   UNL A   1      31.121  24.590  25.950  1.00  0.00     0.133 A 
ATOM     10  C   UNL A   1      32.337  22.827  26.863  1.00  0.00     0.057 A 
ATOM     11  N   UNL A   1      31.684  24.012  27.024  1.00  0.00    -0.237 NA
ATOM     12  C   UNL A   1      33.044  22.369  28.107  1.00  0.00     0.068 C 
BRANCH   7  13
ATOM     13  S   UNL A   1      31.825  22.384  22.875  1.00  0.00    -0.109 SA
ATOM     14  C   UNL A   1      33.233  23.392  22.303  1.00  0.00     0.092 C 
ENDBRANCH   7  13
BRANCH   9  15
ATOM     15  C   UNL A   1      30.439  25.931  26.068  1.00  0.00     0.058 C 
ATOM     16  C   UNL A   1      31.263  27.170  26.377  1.00  0.00     0.012 C 
ATOM     17  C   UNL A   1      30.664  26.993  25.014  1.00  0.00     0.012 C 
ENDBRANCH   9  15
ENDBRANCH   4   6
ENDBRANCH   3   4
ENDBRANCH   2   3
ENDBRANCH   1   2
BRANCH   1  18
ATOM     18  O   UNL A   1      37.816  21.665  25.076  1.00  0.00    -0.458 OA
BRANCH  18  19
ATOM     19  C   UNL A   1      38.877  21.289  25.825  1.00  0.00     0.338 C 
ATOM     20  O   UNL A   1      39.459  20.220  25.823  1.00  0.00    -0.246 OA
BRANCH  19  21
ATOM     21  C   UNL A   1      39.352  22.456  26.580  1.00  0.00     0.060 A 
ATOM     22  C   UNL A   1      38.843  23.697  26.230  1.00  0.00     0.016 A 
ATOM     23  C   UNL A   1      40.414  22.363  27.475  1.00  0.00     0.016 A 
ATOM     24  C   UNL A   1      39.499  24.848  26.661  1.00  0.00     0.010 A 
ATOM     25  C   UNL A   1      40.987  23.536  27.996  1.00  0.00     0.010 A 
ATOM     26  C   UNL A   1      40.593  24.808  27.537  1.00  0.00    -0.014 A 
BRANCH  26  27
ATOM     27  C   UNL A   1      41.362  26.061  27.868  1.00  0.00     0.031 A 
ATOM     28  C   UNL A   1      40.748  27.127  28.757  1.00  0.00     0.074 A 
ATOM     29  C   UNL A   1      42.641  26.249  27.472  1.00  0.00     0.049 A 
ATOM     30  N   UNL A   1      41.120  28.371  28.948  1.00  0.00    -0.248 NA
ATOM     31  C   UNL A   1      39.550  26.748  29.525  1.00  0.00     0.031 C 
ATOM     32  C   UNL A   1      43.452  25.302  26.705  1.00  0.00     0.029 A 
ATOM     33  N   UNL A   1      43.506  27.303  27.688  1.00  0.00    -0.354 N 
ATOM     34  C   UNL A   1      40.154  28.942  29.770  1.00  0.00     0.074 A 
ATOM     35  C   UNL A   1      39.185  27.907  30.056  1.00  0.00     0.031 C 
ATOM     36  C   UNL A   1      44.705  25.763  26.603  1.00  0.00     0.029 A 
ATOM     37  C   UNL A   1      44.749  27.120  27.127  1.00  0.00     0.049 A 
ATOM     38  H   UNL A   1      43.257  28.109  28.195  1.00  0.00     0.167 HD
ATOM     39  C   UNL A   1      40.079  30.214  30.237  1.00  0.00     0.037 A 
ATOM     40  C   UNL A   1      45.787  27.964  26.958  1.00  0.00     0.037 A 
ATOM     41  C   UNL A   1      41.097  31.216  30.039  1.00  0.00     0.049 A 
ATOM     42  C   UNL A   1      45.654  29.390  27.410  1.00  0.00     0.074 A 
ATOM     43  C   UNL A   1      41.110  32.532  30.474  1.00  0.00     0.029 A 
ATOM     44  N   UNL A   1      42.298  31.007  29.377  1.00  0.00    -0.354 N 
ATOM     45  N   UNL A   1      44.672  29.966  28.056  1.00  0.00    -0.248 NA
ATOM     46  C   UNL A   1      46.760  30.295  27.068  1.00  0.00     0.031 C 
ATOM     47  C   UNL A   1      42.293  33.131  30.032  1.00  0.00     0.029 A 
ATOM     48  C   UNL A   1      43.048  32.172  29.378  1.00  0.00     0.049 A 
ATOM     49  H   UNL A   1      42.575  30.155  28.968  1.00  0.00     0.167 HD
ATOM     50  C   UNL A   1      45.045  31.293  28.211  1.00  0.00     0.074 A 
ATOM     51  C   UNL A   1      46.355  31.433  27.613  1.00  0.00     0.031 C 
ATOM     52  C   UNL A   1      44.355  32.306  28.790  1.00  0.00     0.037 A 
BRANCH  39  53
ATOM     53  C   UNL A   1      38.830  30.628  30.969  1.00  0.00     0.064 A 
ATOM     54  C   UNL A   1      38.741  30.640  32.367  1.00  0.00     0.173 A 
ATOM     55  C   UNL A   1      37.719  31.086  30.240  1.00  0.00     0.173 A 
ATOM     56  F   UNL A   1      39.766  30.204  33.113  1.00  0.00    -0.203 F 
ATOM     57  C   UNL A   1      37.580  31.070  33.008  1.00  0.00     0.198 A 
ATOM     58  C   UNL A   1      36.575  31.550  30.883  1.00  0.00     0.198 A 
ATOM     59  F   UNL A   1      37.752  31.107  28.899  1.00  0.00    -0.203 F 
ATOM     60  F   UNL A   1      37.500  31.030  34.344  1.00  0.00    -0.200 F 
ATOM     61  C   UNL A   1      36.502  31.533  32.266  1.00  0.00     0.200 A 
ATOM     62  F   UNL A   1      35.544  32.014  30.162  1.00  0.00    -0.200 F 
ATOM     63  F   UNL A   1      35.394  31.962  32.885  1.00  0.00    -0.200 F 
ENDBRANCH  39  53
BRANCH  40  64
ATOM     64  C   UNL A   1      47.005  27.509  26.227  1.00  0.00     0.064 A 
ATOM     65  C   UNL A   1      48.108  26.979  26.909  1.00  0.00     0.173 A 
ATOM     66  C   UNL A   1      47.094  27.611  24.829  1.00  0.00     0.173 A 
ATOM     67  F   UNL A   1      48.094  26.897  28.247  1.00  0.00    -0.203 F 
ATOM     68  C   UNL A   1      49.250  26.571  26.221  1.00  0.00     0.198 A 
ATOM     69  C   UNL A   1      48.216  27.160  24.140  1.00  0.00     0.198 A 
ATOM     70  F   UNL A   1      46.074  28.127  24.126  1.00  0.00    -0.203 F 
ATOM     71  F   UNL A   1      50.313  26.119  26.902  1.00  0.00    -0.200 F 
ATOM     72  C   UNL A   1      49.298  26.650  24.838  1.00  0.00     0.200 A 
ATOM     73  F   UNL A   1      48.247  27.222  22.802  1.00  0.00    -0.200 F 
ATOM     74  F   UNL A   1      50.391  26.244  24.177  1.00  0.00    -0.200 F 
ENDBRANCH  40  64
BRANCH  52  75
ATOM     75  C   UNL A   1      45.028  33.648  28.852  1.00  0.00     0.064 A 
ATOM     76  C   UNL A   1      45.879  34.000  29.911  1.00  0.00     0.173 A 
ATOM     77  C   UNL A   1      44.830  34.587  27.829  1.00  0.00     0.173 A 
ATOM     78  F   UNL A   1      46.086  33.145  30.924  1.00  0.00    -0.203 F 
ATOM     79  C   UNL A   1      46.481  35.255  29.957  1.00  0.00     0.198 A 
ATOM     80  C   UNL A   1      45.461  35.827  27.860  1.00  0.00     0.198 A 
ATOM     81  F   UNL A   1      44.031  34.297  26.791  1.00  0.00    -0.203 F 
ATOM     82  F   UNL A   1      47.244  35.592  31.006  1.00  0.00    -0.200 F 
ATOM     83  C   UNL A   1      46.278  36.164  28.929  1.00  0.00     0.200 A 
ATOM     84  F   UNL A   1      45.274  36.698  26.860  1.00  0.00    -0.200 F 
ATOM     85  F   UNL A   1      46.861  37.369  28.974  1.00  0.00    -0.200 F 
ENDBRANCH  52  75
ENDBRANCH  26  27
ENDBRANCH  19  21
ENDBRANCH  18  19
ENDBRANCH   1  18
TORSDOF 13
ENDMDL
