MODEL 1
REMARK VINA RESULT:     -14.9      0.000      0.000
REMARK SMILES Cc1ccc(C(=O)C[C@@H](C(=O)OCCOC(=O)c2ccc(-c3c4nc(c(-c5c(F)c(F)c(F)c(F)c5F)c5ccc([nH]5)c(-c5c(F)c(F)c(F)c(F)c5F)c5nc(c(-c6c(F)c(F)c(F)c(F)c6F)c6ccc3[nH]6)C=C5)C=C4)cc2)[NH+]2CC[NH+](Cc3ccccc3)CC2)cc1
REMARK SMILES IDX 13 1 12 2 10 3 11 4 9 5 8 6 6 7 7 8 5 9 1 10 2 11 3 12 95 13
REMARK SMILES IDX 4 14 94 15 81 16 82 17 93 18 83 20 92 21 84 22 85 24 86 25
REMARK SMILES IDX 87 26 91 27 88 28 90 29 89 30 14 31 15 32 16 33 17 34 18 35
REMARK SMILES IDX 19 36 80 37 20 38 79 39 21 40 22 41 23 42 73 43 24 44 78 45
REMARK SMILES IDX 72 46 74 47 25 48 77 49 71 50 70 51 26 53 58 54 38 55 57 56
REMARK SMILES IDX 39 57 42 58 56 59 75 60 40 61 41 62 55 64 76 65 43 66 27 67
REMARK SMILES IDX 28 68 36 69 29 70 30 71 34 72 37 73 31 74 32 75 35 76 33 77
REMARK SMILES IDX 59 78 60 79 68 80 61 81 62 82 66 83 69 84 63 85 64 86 67 87
REMARK SMILES IDX 65 88 44 89 45 90 53 91 46 92 47 93 51 94 54 95 48 96 49 97
REMARK SMILES IDX 52 98 50 99
REMARK H PARENT 81 19 84 23 74 52 42 63
REMARK Flexibility Score: inf
ROOT
ATOM      1  C   UNL A   1      32.272  30.484  26.740  1.00  0.00     0.274 C 
ENDROOT
BRANCH   1   2
ATOM      2  O   UNL A   1      32.572  29.610  25.655  1.00  0.00    -0.458 OA
BRANCH   2   3
ATOM      3  C   UNL A   1      32.822  28.366  26.098  1.00  0.00     0.365 C 
ATOM      4  O   UNL A   1      33.137  28.155  27.264  1.00  0.00    -0.245 OA
BRANCH   3   5
ATOM      5  C   UNL A   1      32.630  27.205  24.995  1.00  0.00     0.303 C 
BRANCH   5   6
ATOM      6  C   UNL A   1      30.747  27.449  25.143  1.00  0.00     0.158 C 
BRANCH   6   7
ATOM      7  C   UNL A   1      29.806  27.069  24.004  1.00  0.00     0.169 C 
ATOM      8  O   UNL A   1      29.512  25.891  23.794  1.00  0.00    -0.294 OA
BRANCH   7   9
ATOM      9  C   UNL A   1      29.245  28.094  23.108  1.00  0.00     0.018 A 
ATOM     10  C   UNL A   1      28.416  32.117  22.137  1.00  0.00     0.044 C 
ATOM     11  C   UNL A   1      28.628  30.640  22.266  1.00  0.00    -0.051 A 
ATOM     12  C   UNL A   1      29.869  30.085  21.943  1.00  0.00     0.004 A 
ATOM     13  C   UNL A   1      27.617  29.817  22.775  1.00  0.00     0.004 A 
ATOM     14  C   UNL A   1      30.183  28.804  22.368  1.00  0.00     0.012 A 
ATOM     15  C   UNL A   1      27.917  28.510  23.158  1.00  0.00     0.012 A 
ENDBRANCH   7   9
ENDBRANCH   6   7
ENDBRANCH   5   6
BRANCH   5  16
ATOM     16  N   UNL A   1      33.690  25.364  24.690  1.00  0.00    -0.314 N 
ATOM     17  C   UNL A   1      33.110  23.961  23.776  1.00  0.00     0.325 C 
ATOM     18  C   UNL A   1      34.513  24.339  25.830  1.00  0.00     0.325 C 
ATOM     19  H   UNL A   1      34.206  26.139  24.272  1.00  0.00     0.349 HD
ATOM     20  C   UNL A   1      34.004  22.785  23.413  1.00  0.00     0.324 C 
ATOM     21  C   UNL A   1      34.890  22.777  25.628  1.00  0.00     0.324 C 
ATOM     22  N   UNL A   1      34.287  21.990  24.576  1.00  0.00    -0.322 N 
ATOM     23  H   UNL A   1      35.030  21.342  24.314  1.00  0.00     0.348 HD
BRANCH  22  24
ATOM     24  C   UNL A   1      33.336  20.924  24.918  1.00  0.00     0.299 C 
BRANCH  24  25
ATOM     25  C   UNL A   1      33.427  19.545  24.281  1.00  0.00     0.006 A 
ATOM     26  C   UNL A   1      34.487  18.698  24.633  1.00  0.00     0.009 A 
ATOM     27  C   UNL A   1      32.544  19.062  23.317  1.00  0.00     0.009 A 
ATOM     28  C   UNL A   1      34.594  17.410  24.089  1.00  0.00     0.001 A 
ATOM     29  C   UNL A   1      32.628  17.781  22.777  1.00  0.00     0.001 A 
ATOM     30  C   UNL A   1      33.654  16.945  23.174  1.00  0.00     0.000 A 
ENDBRANCH  24  25
ENDBRANCH  22  24
ENDBRANCH   5  16
ENDBRANCH   3   5
ENDBRANCH   2   3
ENDBRANCH   1   2
BRANCH   1  31
ATOM     31  C   UNL A   1      33.406  31.428  27.324  1.00  0.00     0.275 C 
BRANCH  31  32
ATOM     32  O   UNL A   1      33.304  32.937  27.703  1.00  0.00    -0.458 OA
BRANCH  32  33
ATOM     33  C   UNL A   1      34.036  33.908  28.422  1.00  0.00     0.338 C 
ATOM     34  O   UNL A   1      34.139  35.066  28.051  1.00  0.00    -0.246 OA
BRANCH  33  35
ATOM     35  C   UNL A   1      34.877  33.393  29.559  1.00  0.00     0.060 A 
ATOM     36  C   UNL A   1      34.559  32.844  31.300  1.00  0.00     0.016 A 
ATOM     37  C   UNL A   1      36.345  32.940  28.752  1.00  0.00     0.016 A 
ATOM     38  C   UNL A   1      35.747  31.580  32.046  1.00  0.00     0.010 A 
ATOM     39  C   UNL A   1      37.331  31.775  29.358  1.00  0.00     0.010 A 
ATOM     40  C   UNL A   1      37.210  31.105  30.989  1.00  0.00    -0.014 A 
BRANCH  40  41
ATOM     41  C   UNL A   1      38.553  30.498  31.125  1.00  0.00     0.031 A 
ATOM     42  C   UNL A   1      38.935  29.311  30.406  1.00  0.00     0.074 A 
ATOM     43  C   UNL A   1      39.519  31.178  31.839  1.00  0.00     0.049 A 
ATOM     44  N   UNL A   1      39.785  28.465  30.879  1.00  0.00    -0.248 NA
ATOM     45  C   UNL A   1      38.323  28.930  29.147  1.00  0.00     0.031 C 
ATOM     46  C   UNL A   1      40.853  31.474  31.312  1.00  0.00     0.029 A 
ATOM     47  N   UNL A   1      39.410  32.104  32.898  1.00  0.00    -0.354 N 
ATOM     48  C   UNL A   1      40.154  27.721  29.791  1.00  0.00     0.074 A 
ATOM     49  C   UNL A   1      39.023  27.820  28.893  1.00  0.00     0.031 C 
ATOM     50  C   UNL A   1      41.415  32.485  32.010  1.00  0.00     0.029 A 
ATOM     51  C   UNL A   1      40.553  32.872  33.127  1.00  0.00     0.049 A 
ATOM     52  H   UNL A   1      38.590  32.201  33.434  1.00  0.00     0.167 HD
ATOM     53  C   UNL A   1      41.482  27.454  29.598  1.00  0.00     0.037 A 
ATOM     54  C   UNL A   1      41.038  33.275  34.347  1.00  0.00     0.037 A 
ATOM     55  C   UNL A   1      42.322  28.148  30.609  1.00  0.00     0.049 A 
ATOM     56  C   UNL A   1      41.769  32.064  34.884  1.00  0.00     0.074 A 
ATOM     57  C   UNL A   1      43.221  29.200  30.501  1.00  0.00     0.029 A 
ATOM     58  N   UNL A   1      42.102  27.990  31.981  1.00  0.00    -0.354 N 
ATOM     59  N   UNL A   1      42.191  31.121  34.095  1.00  0.00    -0.248 NA
ATOM     60  C   UNL A   1      42.056  31.773  36.286  1.00  0.00     0.031 C 
ATOM     61  C   UNL A   1      43.547  29.658  31.802  1.00  0.00     0.029 A 
ATOM     62  C   UNL A   1      42.853  28.893  32.722  1.00  0.00     0.049 A 
ATOM     63  H   UNL A   1      41.491  27.325  32.372  1.00  0.00     0.167 HD
ATOM     64  C   UNL A   1      42.597  30.049  34.818  1.00  0.00     0.074 A 
ATOM     65  C   UNL A   1      42.589  30.541  36.186  1.00  0.00     0.031 C 
ATOM     66  C   UNL A   1      42.858  28.867  34.189  1.00  0.00     0.037 A 
BRANCH  53  67
ATOM     67  C   UNL A   1      42.073  26.890  28.309  1.00  0.00     0.064 A 
ATOM     68  C   UNL A   1      42.073  27.660  27.125  1.00  0.00     0.173 A 
ATOM     69  C   UNL A   1      42.672  25.621  28.159  1.00  0.00     0.173 A 
ATOM     70  F   UNL A   1      41.670  28.936  27.117  1.00  0.00    -0.203 F 
ATOM     71  C   UNL A   1      42.526  27.166  25.896  1.00  0.00     0.198 A 
ATOM     72  C   UNL A   1      43.094  25.113  26.927  1.00  0.00     0.198 A 
ATOM     73  F   UNL A   1      42.959  24.839  29.201  1.00  0.00    -0.203 F 
ATOM     74  F   UNL A   1      42.489  27.954  24.813  1.00  0.00    -0.200 F 
ATOM     75  C   UNL A   1      43.016  25.883  25.792  1.00  0.00     0.200 A 
ATOM     76  F   UNL A   1      43.602  23.873  26.862  1.00  0.00    -0.200 F 
ATOM     77  F   UNL A   1      43.454  25.410  24.618  1.00  0.00    -0.200 F 
ENDBRANCH  53  67
BRANCH  54  78
ATOM     78  C   UNL A   1      40.120  34.126  35.168  1.00  0.00     0.064 A 
ATOM     79  C   UNL A   1      39.296  33.523  36.148  1.00  0.00     0.173 A 
ATOM     80  C   UNL A   1      40.557  35.402  35.419  1.00  0.00     0.173 A 
ATOM     81  F   UNL A   1      38.721  32.339  35.900  1.00  0.00    -0.203 F 
ATOM     82  C   UNL A   1      39.179  34.057  37.437  1.00  0.00     0.198 A 
ATOM     83  C   UNL A   1      40.661  35.744  36.748  1.00  0.00     0.198 A 
ATOM     84  F   UNL A   1      41.306  36.060  34.524  1.00  0.00    -0.203 F 
ATOM     85  F   UNL A   1      38.491  33.419  38.394  1.00  0.00    -0.200 F 
ATOM     86  C   UNL A   1      39.968  35.126  37.768  1.00  0.00     0.200 A 
ATOM     87  F   UNL A   1      41.775  36.364  37.061  1.00  0.00    -0.200 F 
ATOM     88  F   UNL A   1      40.217  35.443  39.047  1.00  0.00    -0.200 F 
ENDBRANCH  54  78
BRANCH  66  89
ATOM     89  C   UNL A   1      43.283  27.613  34.888  1.00  0.00     0.064 A 
ATOM     90  C   UNL A   1      44.544  27.409  35.462  1.00  0.00     0.173 A 
ATOM     91  C   UNL A   1      42.355  26.555  35.036  1.00  0.00     0.173 A 
ATOM     92  F   UNL A   1      45.454  28.391  35.519  1.00  0.00    -0.203 F 
ATOM     93  C   UNL A   1      44.893  26.187  36.036  1.00  0.00     0.198 A 
ATOM     94  C   UNL A   1      42.679  25.370  35.681  1.00  0.00     0.198 A 
ATOM     95  F   UNL A   1      41.104  26.640  34.560  1.00  0.00    -0.203 F 
ATOM     96  F   UNL A   1      46.140  26.000  36.490  1.00  0.00    -0.200 F 
ATOM     97  C   UNL A   1      43.960  25.171  36.149  1.00  0.00     0.200 A 
ATOM     98  F   UNL A   1      41.743  24.426  35.840  1.00  0.00    -0.200 F 
ATOM     99  F   UNL A   1      44.291  24.007  36.720  1.00  0.00    -0.200 F 
ENDBRANCH  66  89
ENDBRANCH  40  41
ENDBRANCH  33  35
ENDBRANCH  32  33
ENDBRANCH  31  32
ENDBRANCH   1  31
TORSDOF 17
ENDMDL
MODEL 2
REMARK VINA RESULT:     -14.9      4.406     10.549
REMARK SMILES Cc1ccc(C(=O)C[C@@H](C(=O)OCCOC(=O)c2ccc(-c3c4nc(c(-c5c(F)c(F)c(F)c(F)c5F)c5ccc([nH]5)c(-c5c(F)c(F)c(F)c(F)c5F)c5nc(c(-c6c(F)c(F)c(F)c(F)c6F)c6ccc3[nH]6)C=C5)C=C4)cc2)[NH+]2CC[NH+](Cc3ccccc3)CC2)cc1
REMARK SMILES IDX 13 1 12 2 10 3 11 4 9 5 8 6 6 7 7 8 5 9 1 10 2 11 3 12 95 13
REMARK SMILES IDX 4 14 94 15 81 16 82 17 93 18 83 20 92 21 84 22 85 24 86 25
REMARK SMILES IDX 87 26 91 27 88 28 90 29 89 30 14 31 15 32 16 33 17 34 18 35
REMARK SMILES IDX 19 36 80 37 20 38 79 39 21 40 22 41 23 42 73 43 24 44 78 45
REMARK SMILES IDX 72 46 74 47 25 48 77 49 71 50 70 51 26 53 58 54 38 55 57 56
REMARK SMILES IDX 39 57 42 58 56 59 75 60 40 61 41 62 55 64 76 65 43 66 27 67
REMARK SMILES IDX 28 68 36 69 29 70 30 71 34 72 37 73 31 74 32 75 35 76 33 77
REMARK SMILES IDX 59 78 60 79 68 80 61 81 62 82 66 83 69 84 63 85 64 86 67 87
REMARK SMILES IDX 65 88 44 89 45 90 53 91 46 92 47 93 51 94 54 95 48 96 49 97
REMARK SMILES IDX 52 98 50 99
REMARK H PARENT 81 19 84 23 74 52 42 63
REMARK Flexibility Score: inf
ROOT
ATOM      1  C   UNL A   1      37.428  21.557  24.569  1.00  0.00     0.274 C 
ENDROOT
BRANCH   1   2
ATOM      2  O   UNL A   1      36.143  22.136  24.779  1.00  0.00    -0.458 OA
BRANCH   2   3
ATOM      3  C   UNL A   1      35.836  22.990  23.788  1.00  0.00     0.365 C 
ATOM      4  O   UNL A   1      36.528  23.072  22.779  1.00  0.00    -0.245 OA
BRANCH   3   5
ATOM      5  C   UNL A   1      34.485  23.839  24.022  1.00  0.00     0.303 C 
BRANCH   5   6
ATOM      6  C   UNL A   1      33.499  22.363  23.332  1.00  0.00     0.158 C 
BRANCH   6   7
ATOM      7  C   UNL A   1      32.537  21.571  24.211  1.00  0.00     0.169 C 
ATOM      8  O   UNL A   1      31.850  22.136  25.065  1.00  0.00    -0.294 OA
BRANCH   7   9
ATOM      9  C   UNL A   1      32.420  20.109  24.085  1.00  0.00     0.018 A 
ATOM     10  C   UNL A   1      34.125  16.289  23.522  1.00  0.00     0.044 C 
ATOM     11  C   UNL A   1      33.318  17.528  23.761  1.00  0.00    -0.051 A 
ATOM     12  C   UNL A   1      33.268  18.088  25.040  1.00  0.00     0.004 A 
ATOM     13  C   UNL A   1      32.671  18.172  22.700  1.00  0.00     0.004 A 
ATOM     14  C   UNL A   1      32.818  19.388  25.205  1.00  0.00     0.012 A 
ATOM     15  C   UNL A   1      32.172  19.463  22.877  1.00  0.00     0.012 A 
ENDBRANCH   7   9
ENDBRANCH   6   7
ENDBRANCH   5   6
BRANCH   5  16
ATOM     16  N   UNL A   1      34.070  25.928  23.754  1.00  0.00    -0.314 N 
ATOM     17  C   UNL A   1      33.576  27.068  25.017  1.00  0.00     0.325 C 
ATOM     18  C   UNL A   1      33.077  26.734  22.574  1.00  0.00     0.325 C 
ATOM     19  H   UNL A   1      35.043  25.730  23.517  1.00  0.00     0.349 HD
ATOM     20  C   UNL A   1      33.521  28.572  24.797  1.00  0.00     0.324 C 
ATOM     21  C   UNL A   1      32.451  28.222  22.694  1.00  0.00     0.324 C 
ATOM     22  N   UNL A   1      32.404  28.917  23.961  1.00  0.00    -0.322 N 
ATOM     23  H   UNL A   1      32.529  29.895  23.695  1.00  0.00     0.348 HD
BRANCH  22  24
ATOM     24  C   UNL A   1      31.111  29.152  24.616  1.00  0.00     0.299 C 
BRANCH  24  25
ATOM     25  C   UNL A   1      29.957  29.815  23.880  1.00  0.00     0.006 A 
ATOM     26  C   UNL A   1      29.200  29.059  22.974  1.00  0.00     0.009 A 
ATOM     27  C   UNL A   1      29.612  31.159  24.002  1.00  0.00     0.009 A 
ATOM     28  C   UNL A   1      28.112  29.624  22.294  1.00  0.00     0.001 A 
ATOM     29  C   UNL A   1      28.526  31.733  23.344  1.00  0.00     0.001 A 
ATOM     30  C   UNL A   1      27.764  30.957  22.493  1.00  0.00     0.000 A 
ENDBRANCH  24  25
ENDBRANCH  22  24
ENDBRANCH   5  16
ENDBRANCH   3   5
ENDBRANCH   2   3
ENDBRANCH   1   2
BRANCH   1  31
ATOM     31  C   UNL A   1      38.561  21.742  25.665  1.00  0.00     0.275 C 
BRANCH  31  32
ATOM     32  O   UNL A   1      39.555  20.674  26.216  1.00  0.00    -0.458 OA
BRANCH  32  33
ATOM     33  C   UNL A   1      40.882  20.599  26.695  1.00  0.00     0.338 C 
ATOM     34  O   UNL A   1      41.297  19.651  27.341  1.00  0.00    -0.246 OA
BRANCH  33  35
ATOM     35  C   UNL A   1      41.703  21.853  26.563  1.00  0.00     0.060 A 
ATOM     36  C   UNL A   1      42.658  22.675  25.204  1.00  0.00     0.016 A 
ATOM     37  C   UNL A   1      41.222  22.754  27.965  1.00  0.00     0.016 A 
ATOM     38  C   UNL A   1      42.847  24.552  25.284  1.00  0.00     0.010 A 
ATOM     39  C   UNL A   1      41.304  24.394  27.999  1.00  0.00     0.010 A 
ATOM     40  C   UNL A   1      42.158  25.382  26.808  1.00  0.00    -0.014 A 
BRANCH  40  41
ATOM     41  C   UNL A   1      42.289  26.649  27.561  1.00  0.00     0.031 A 
ATOM     42  C   UNL A   1      41.165  27.515  27.806  1.00  0.00     0.074 A 
ATOM     43  C   UNL A   1      43.488  26.932  28.181  1.00  0.00     0.049 A 
ATOM     44  N   UNL A   1      41.294  28.793  27.917  1.00  0.00    -0.248 NA
ATOM     45  C   UNL A   1      39.799  27.028  27.850  1.00  0.00     0.031 C 
ATOM     46  C   UNL A   1      43.599  27.295  29.597  1.00  0.00     0.029 A 
ATOM     47  N   UNL A   1      44.807  26.532  27.878  1.00  0.00    -0.354 N 
ATOM     48  C   UNL A   1      40.124  29.196  28.502  1.00  0.00     0.074 A 
ATOM     49  C   UNL A   1      39.169  28.173  28.128  1.00  0.00     0.031 C 
ATOM     50  C   UNL A   1      44.862  27.093  30.031  1.00  0.00     0.029 A 
ATOM     51  C   UNL A   1      45.723  26.687  28.920  1.00  0.00     0.049 A 
ATOM     52  H   UNL A   1      45.061  26.171  26.997  1.00  0.00     0.167 HD
ATOM     53  C   UNL A   1      40.181  30.089  29.537  1.00  0.00     0.037 A 
ATOM     54  C   UNL A   1      47.036  27.072  28.806  1.00  0.00     0.037 A 
ATOM     55  C   UNL A   1      41.588  30.389  29.910  1.00  0.00     0.049 A 
ATOM     56  C   UNL A   1      46.980  28.577  28.659  1.00  0.00     0.074 A 
ATOM     57  C   UNL A   1      42.332  30.078  31.040  1.00  0.00     0.029 A 
ATOM     58  N   UNL A   1      42.518  30.842  28.969  1.00  0.00    -0.354 N 
ATOM     59  N   UNL A   1      45.948  29.258  29.060  1.00  0.00    -0.248 NA
ATOM     60  C   UNL A   1      47.995  29.429  28.048  1.00  0.00     0.031 C 
ATOM     61  C   UNL A   1      43.697  30.359  30.780  1.00  0.00     0.029 A 
ATOM     62  C   UNL A   1      43.806  30.844  29.489  1.00  0.00     0.049 A 
ATOM     63  H   UNL A   1      42.289  31.123  28.054  1.00  0.00     0.167 HD
ATOM     64  C   UNL A   1      46.027  30.536  28.614  1.00  0.00     0.074 A 
ATOM     65  C   UNL A   1      47.373  30.623  28.072  1.00  0.00     0.031 C 
ATOM     66  C   UNL A   1      44.944  31.359  28.720  1.00  0.00     0.037 A 
BRANCH  53  67
ATOM     67  C   UNL A   1      39.014  30.417  30.464  1.00  0.00     0.064 A 
ATOM     68  C   UNL A   1      38.190  31.536  30.208  1.00  0.00     0.173 A 
ATOM     69  C   UNL A   1      38.627  29.677  31.601  1.00  0.00     0.173 A 
ATOM     70  F   UNL A   1      38.327  32.270  29.097  1.00  0.00    -0.203 F 
ATOM     71  C   UNL A   1      37.158  31.933  31.066  1.00  0.00     0.198 A 
ATOM     72  C   UNL A   1      37.618  30.089  32.478  1.00  0.00     0.198 A 
ATOM     73  F   UNL A   1      39.141  28.479  31.882  1.00  0.00    -0.203 F 
ATOM     74  F   UNL A   1      36.422  33.010  30.761  1.00  0.00    -0.200 F 
ATOM     75  C   UNL A   1      36.886  31.221  32.213  1.00  0.00     0.200 A 
ATOM     76  F   UNL A   1      37.350  29.355  33.568  1.00  0.00    -0.200 F 
ATOM     77  F   UNL A   1      35.895  31.595  33.033  1.00  0.00    -0.200 F 
ENDBRANCH  53  67
BRANCH  54  78
ATOM     78  C   UNL A   1      47.908  26.186  27.971  1.00  0.00     0.064 A 
ATOM     79  C   UNL A   1      48.085  26.471  26.596  1.00  0.00     0.173 A 
ATOM     80  C   UNL A   1      48.960  25.598  28.626  1.00  0.00     0.173 A 
ATOM     81  F   UNL A   1      47.050  26.911  25.867  1.00  0.00    -0.203 F 
ATOM     82  C   UNL A   1      49.351  26.450  25.999  1.00  0.00     0.198 A 
ATOM     83  C   UNL A   1      50.207  25.862  28.106  1.00  0.00     0.198 A 
ATOM     84  F   UNL A   1      48.860  25.257  29.918  1.00  0.00    -0.203 F 
ATOM     85  F   UNL A   1      49.527  26.834  24.728  1.00  0.00    -0.200 F 
ATOM     86  C   UNL A   1      50.441  26.250  26.803  1.00  0.00     0.200 A 
ATOM     87  F   UNL A   1      51.111  26.176  29.004  1.00  0.00    -0.200 F 
ATOM     88  F   UNL A   1      51.674  26.602  26.411  1.00  0.00    -0.200 F 
ENDBRANCH  54  78
BRANCH  66  89
ATOM     89  C   UNL A   1      44.908  32.776  28.238  1.00  0.00     0.064 A 
ATOM     90  C   UNL A   1      45.396  33.875  28.956  1.00  0.00     0.173 A 
ATOM     91  C   UNL A   1      44.391  33.055  26.951  1.00  0.00     0.173 A 
ATOM     92  F   UNL A   1      46.044  33.720  30.118  1.00  0.00    -0.203 F 
ATOM     93  C   UNL A   1      45.265  35.177  28.471  1.00  0.00     0.198 A 
ATOM     94  C   UNL A   1      44.338  34.343  26.437  1.00  0.00     0.198 A 
ATOM     95  F   UNL A   1      43.923  32.085  26.151  1.00  0.00    -0.203 F 
ATOM     96  F   UNL A   1      45.660  36.208  29.229  1.00  0.00    -0.200 F 
ATOM     97  C   UNL A   1      44.740  35.409  27.212  1.00  0.00     0.200 A 
ATOM     98  F   UNL A   1      43.889  34.540  25.190  1.00  0.00    -0.200 F 
ATOM     99  F   UNL A   1      44.635  36.657  26.741  1.00  0.00    -0.200 F 
ENDBRANCH  66  89
ENDBRANCH  40  41
ENDBRANCH  33  35
ENDBRANCH  32  33
ENDBRANCH  31  32
ENDBRANCH   1  31
TORSDOF 17
ENDMDL
MODEL 3
REMARK VINA RESULT:     -14.8      4.646     10.336
REMARK SMILES Cc1ccc(C(=O)C[C@@H](C(=O)OCCOC(=O)c2ccc(-c3c4nc(c(-c5c(F)c(F)c(F)c(F)c5F)c5ccc([nH]5)c(-c5c(F)c(F)c(F)c(F)c5F)c5nc(c(-c6c(F)c(F)c(F)c(F)c6F)c6ccc3[nH]6)C=C5)C=C4)cc2)[NH+]2CC[NH+](Cc3ccccc3)CC2)cc1
REMARK SMILES IDX 13 1 12 2 10 3 11 4 9 5 8 6 6 7 7 8 5 9 1 10 2 11 3 12 95 13
REMARK SMILES IDX 4 14 94 15 81 16 82 17 93 18 83 20 92 21 84 22 85 24 86 25
REMARK SMILES IDX 87 26 91 27 88 28 90 29 89 30 14 31 15 32 16 33 17 34 18 35
REMARK SMILES IDX 19 36 80 37 20 38 79 39 21 40 22 41 23 42 73 43 24 44 78 45
REMARK SMILES IDX 72 46 74 47 25 48 77 49 71 50 70 51 26 53 58 54 38 55 57 56
REMARK SMILES IDX 39 57 42 58 56 59 75 60 40 61 41 62 55 64 76 65 43 66 27 67
REMARK SMILES IDX 28 68 36 69 29 70 30 71 34 72 37 73 31 74 32 75 35 76 33 77
REMARK SMILES IDX 59 78 60 79 68 80 61 81 62 82 66 83 69 84 63 85 64 86 67 87
REMARK SMILES IDX 65 88 44 89 45 90 53 91 46 92 47 93 51 94 54 95 48 96 49 97
REMARK SMILES IDX 52 98 50 99
REMARK H PARENT 81 19 84 23 74 52 42 63
REMARK Flexibility Score: inf
ROOT
ATOM      1  C   UNL A   1      38.849  22.850  26.022  1.00  0.00     0.274 C 
ENDROOT
BRANCH   1   2
ATOM      2  O   UNL A   1      37.669  23.485  26.505  1.00  0.00    -0.458 OA
BRANCH   2   3
ATOM      3  C   UNL A   1      36.738  23.564  25.540  1.00  0.00     0.365 C 
ATOM      4  O   UNL A   1      37.040  23.480  24.354  1.00  0.00    -0.245 OA
BRANCH   3   5
ATOM      5  C   UNL A   1      35.225  23.729  26.072  1.00  0.00     0.303 C 
BRANCH   5   6
ATOM      6  C   UNL A   1      35.105  21.831  26.163  1.00  0.00     0.158 C 
BRANCH   6   7
ATOM      7  C   UNL A   1      34.268  21.039  25.163  1.00  0.00     0.169 C 
ATOM      8  O   UNL A   1      34.681  19.977  24.694  1.00  0.00    -0.294 OA
BRANCH   7   9
ATOM      9  C   UNL A   1      32.958  21.534  24.709  1.00  0.00     0.018 A 
ATOM     10  C   UNL A   1      30.369  24.669  23.576  1.00  0.00     0.044 C 
ATOM     11  C   UNL A   1      31.111  23.412  23.912  1.00  0.00    -0.051 A 
ATOM     12  C   UNL A   1      31.966  22.836  22.967  1.00  0.00     0.004 A 
ATOM     13  C   UNL A   1      31.015  22.847  25.189  1.00  0.00     0.004 A 
ATOM     14  C   UNL A   1      32.898  21.892  23.367  1.00  0.00     0.012 A 
ATOM     15  C   UNL A   1      31.920  21.860  25.578  1.00  0.00     0.012 A 
ENDBRANCH   7   9
ENDBRANCH   6   7
ENDBRANCH   5   6
BRANCH   5  16
ATOM     16  N   UNL A   1      33.680  25.111  25.517  1.00  0.00    -0.314 N 
ATOM     17  C   UNL A   1      33.842  26.464  24.384  1.00  0.00     0.325 C 
ATOM     18  C   UNL A   1      32.572  26.015  26.509  1.00  0.00     0.325 C 
ATOM     19  H   UNL A   1      33.420  24.165  25.237  1.00  0.00     0.349 HD
ATOM     20  C   UNL A   1      32.652  27.258  23.869  1.00  0.00     0.324 C 
ATOM     21  C   UNL A   1      31.760  27.349  26.080  1.00  0.00     0.324 C 
ATOM     22  N   UNL A   1      32.127  28.106  24.904  1.00  0.00    -0.322 N 
ATOM     23  H   UNL A   1      31.232  28.461  24.566  1.00  0.00     0.348 HD
BRANCH  22  24
ATOM     24  C   UNL A   1      32.718  29.442  25.053  1.00  0.00     0.299 C 
BRANCH  24  25
ATOM     25  C   UNL A   1      33.632  29.780  26.221  1.00  0.00     0.006 A 
ATOM     26  C   UNL A   1      33.368  30.923  26.988  1.00  0.00     0.009 A 
ATOM     27  C   UNL A   1      34.768  29.050  26.571  1.00  0.00     0.009 A 
ATOM     28  C   UNL A   1      34.170  31.257  28.088  1.00  0.00     0.001 A 
ATOM     29  C   UNL A   1      35.567  29.360  27.668  1.00  0.00     0.001 A 
ATOM     30  C   UNL A   1      35.260  30.465  28.439  1.00  0.00     0.000 A 
ENDBRANCH  24  25
ENDBRANCH  22  24
ENDBRANCH   5  16
ENDBRANCH   3   5
ENDBRANCH   2   3
ENDBRANCH   1   2
BRANCH   1  31
ATOM     31  C   UNL A   1      38.963  21.267  26.063  1.00  0.00     0.275 C 
BRANCH  31  32
ATOM     32  O   UNL A   1      40.027  20.395  26.797  1.00  0.00    -0.458 OA
BRANCH  32  33
ATOM     33  C   UNL A   1      41.415  20.401  27.059  1.00  0.00     0.338 C 
ATOM     34  O   UNL A   1      41.983  19.483  27.628  1.00  0.00    -0.246 OA
BRANCH  33  35
ATOM     35  C   UNL A   1      42.129  21.700  26.801  1.00  0.00     0.060 A 
ATOM     36  C   UNL A   1      42.867  22.536  25.321  1.00  0.00     0.016 A 
ATOM     37  C   UNL A   1      41.749  22.615  28.226  1.00  0.00     0.016 A 
ATOM     38  C   UNL A   1      42.936  24.423  25.331  1.00  0.00     0.010 A 
ATOM     39  C   UNL A   1      41.723  24.257  28.207  1.00  0.00     0.010 A 
ATOM     40  C   UNL A   1      42.369  25.257  26.901  1.00  0.00    -0.014 A 
BRANCH  40  41
ATOM     41  C   UNL A   1      42.497  26.555  27.602  1.00  0.00     0.031 A 
ATOM     42  C   UNL A   1      41.373  27.430  27.806  1.00  0.00     0.074 A 
ATOM     43  C   UNL A   1      43.695  26.862  28.214  1.00  0.00     0.049 A 
ATOM     44  N   UNL A   1      41.501  28.712  27.864  1.00  0.00    -0.248 NA
ATOM     45  C   UNL A   1      40.006  26.945  27.866  1.00  0.00     0.031 C 
ATOM     46  C   UNL A   1      43.801  27.284  29.613  1.00  0.00     0.029 A 
ATOM     47  N   UNL A   1      45.014  26.450  27.932  1.00  0.00    -0.354 N 
ATOM     48  C   UNL A   1      40.330  29.139  28.428  1.00  0.00     0.074 A 
ATOM     49  C   UNL A   1      39.375  28.102  28.094  1.00  0.00     0.031 C 
ATOM     50  C   UNL A   1      45.062  27.100  30.060  1.00  0.00     0.029 A 
ATOM     51  C   UNL A   1      45.926  26.648  28.970  1.00  0.00     0.049 A 
ATOM     52  H   UNL A   1      45.271  26.052  27.068  1.00  0.00     0.167 HD
ATOM     53  C   UNL A   1      40.384  30.074  29.425  1.00  0.00     0.037 A 
ATOM     54  C   UNL A   1      47.240  27.027  28.844  1.00  0.00     0.037 A 
ATOM     55  C   UNL A   1      41.789  30.389  29.791  1.00  0.00     0.049 A 
ATOM     56  C   UNL A   1      47.185  28.525  28.635  1.00  0.00     0.074 A 
ATOM     57  C   UNL A   1      42.529  30.125  30.936  1.00  0.00     0.029 A 
ATOM     58  N   UNL A   1      42.723  30.803  28.835  1.00  0.00    -0.354 N 
ATOM     59  N   UNL A   1      46.152  29.223  29.003  1.00  0.00    -0.248 NA
ATOM     60  C   UNL A   1      48.203  29.351  27.993  1.00  0.00     0.031 C 
ATOM     61  C   UNL A   1      43.895  30.395  30.669  1.00  0.00     0.029 A 
ATOM     62  C   UNL A   1      44.009  30.826  29.359  1.00  0.00     0.049 A 
ATOM     63  H   UNL A   1      42.498  31.045  27.908  1.00  0.00     0.167 HD
ATOM     64  C   UNL A   1      46.233  30.481  28.506  1.00  0.00     0.074 A 
ATOM     65  C   UNL A   1      47.581  30.546  27.965  1.00  0.00     0.031 C 
ATOM     66  C   UNL A   1      45.150  31.308  28.574  1.00  0.00     0.037 A 
BRANCH  53  67
ATOM     67  C   UNL A   1      39.213  30.440  30.334  1.00  0.00     0.064 A 
ATOM     68  C   UNL A   1      38.779  29.545  31.337  1.00  0.00     0.173 A 
ATOM     69  C   UNL A   1      38.484  31.647  30.298  1.00  0.00     0.173 A 
ATOM     70  F   UNL A   1      39.443  28.414  31.604  1.00  0.00    -0.203 F 
ATOM     71  C   UNL A   1      37.662  29.790  32.144  1.00  0.00     0.198 A 
ATOM     72  C   UNL A   1      37.347  31.880  31.079  1.00  0.00     0.198 A 
ATOM     73  F   UNL A   1      38.873  32.696  29.572  1.00  0.00    -0.203 F 
ATOM     74  F   UNL A   1      37.307  28.891  33.072  1.00  0.00    -0.200 F 
ATOM     75  C   UNL A   1      36.933  30.949  32.000  1.00  0.00     0.200 A 
ATOM     76  F   UNL A   1      36.678  33.035  30.944  1.00  0.00    -0.200 F 
ATOM     77  F   UNL A   1      35.866  31.188  32.774  1.00  0.00    -0.200 F 
ENDBRANCH  53  67
BRANCH  54  78
ATOM     78  C   UNL A   1      48.114  26.108  28.051  1.00  0.00     0.064 A 
ATOM     79  C   UNL A   1      48.318  26.352  26.671  1.00  0.00     0.173 A 
ATOM     80  C   UNL A   1      49.148  25.525  28.740  1.00  0.00     0.173 A 
ATOM     81  F   UNL A   1      47.302  26.783  25.912  1.00  0.00    -0.203 F 
ATOM     82  C   UNL A   1      49.594  26.298  26.097  1.00  0.00     0.198 A 
ATOM     83  C   UNL A   1      50.407  25.759  28.234  1.00  0.00     0.198 A 
ATOM     84  F   UNL A   1      49.021  25.223  30.039  1.00  0.00    -0.203 F 
ATOM     85  F   UNL A   1      49.797  26.643  24.819  1.00  0.00    -0.200 F 
ATOM     86  C   UNL A   1      50.668  26.107  26.925  1.00  0.00     0.200 A 
ATOM     87  F   UNL A   1      51.299  26.087  29.139  1.00  0.00    -0.200 F 
ATOM     88  F   UNL A   1      51.912  26.432  26.545  1.00  0.00    -0.200 F 
ENDBRANCH  54  78
BRANCH  66  89
ATOM     89  C   UNL A   1      45.116  32.703  28.032  1.00  0.00     0.064 A 
ATOM     90  C   UNL A   1      44.640  33.055  26.762  1.00  0.00     0.173 A 
ATOM     91  C   UNL A   1      45.545  33.774  28.852  1.00  0.00     0.173 A 
ATOM     92  F   UNL A   1      44.069  32.151  25.955  1.00  0.00    -0.203 F 
ATOM     93  C   UNL A   1      44.704  34.369  26.299  1.00  0.00     0.198 A 
ATOM     94  C   UNL A   1      45.531  35.092  28.418  1.00  0.00     0.198 A 
ATOM     95  F   UNL A   1      45.992  33.573  30.101  1.00  0.00    -0.203 F 
ATOM     96  F   UNL A   1      44.327  34.648  25.045  1.00  0.00    -0.200 F 
ATOM     97  C   UNL A   1      45.145  35.386  27.128  1.00  0.00     0.200 A 
ATOM     98  F   UNL A   1      45.897  36.069  29.258  1.00  0.00    -0.200 F 
ATOM     99  F   UNL A   1      45.186  36.649  26.688  1.00  0.00    -0.200 F 
ENDBRANCH  66  89
ENDBRANCH  40  41
ENDBRANCH  33  35
ENDBRANCH  32  33
ENDBRANCH  31  32
ENDBRANCH   1  31
TORSDOF 17
ENDMDL
