MODEL 1
REMARK VINA RESULT:     -12.1      0.000      0.000
REMARK SMILES O=C(C[C@@H]1C[N@@H+]([C@H]2CCCc3sccc32)CCO1)OCCOC(=O)c1ccc(-c2c3nc(c(-c4c(F)c(F)c(F)c(F)c4F)c4ccc([nH]4)c(-c4c(F)c(F)c(F)c(F)c4F)c4nc(c(-c5c(F)c(F)c(F)c(F)c5F)c5ccc2[nH]5)C=C4)C=C3)cc1
REMARK SMILES IDX 20 1 19 2 2 3 1 4 3 5 4 6 5 7 18 8 6 9 17 10 16 11 7 13 8 14
REMARK SMILES IDX 15 15 9 16 11 17 14 18 10 19 12 20 13 21 21 22 22 23 23 24
REMARK SMILES IDX 24 25 25 26 26 27 87 28 27 29 86 30 28 31 29 32 30 33 80 34
REMARK SMILES IDX 31 35 85 36 79 37 81 38 32 39 84 40 78 41 77 42 33 44 65 45
REMARK SMILES IDX 45 46 64 47 46 48 49 49 63 50 82 51 47 52 48 53 62 55 83 56
REMARK SMILES IDX 50 57 34 58 35 59 43 60 36 61 37 62 41 63 44 64 38 65 39 66
REMARK SMILES IDX 42 67 40 68 66 69 67 70 75 71 68 72 69 73 73 74 76 75 70 76
REMARK SMILES IDX 71 77 74 78 72 79 51 80 52 81 60 82 53 83 54 84 58 85 61 86
REMARK SMILES IDX 55 87 56 88 59 89 57 90
REMARK H PARENT 6 12 81 43 49 54
REMARK Flexibility Score: inf
ROOT
ATOM      1  C   UNL A   1      32.387  29.591  25.236  1.00  0.00     0.274 C 
ENDROOT
BRANCH   1   2
ATOM      2  O   UNL A   1      32.588  28.418  26.051  1.00  0.00    -0.462 OA
BRANCH   2   3
ATOM      3  C   UNL A   1      31.607  27.635  26.551  1.00  0.00     0.308 C 
ATOM      4  O   UNL A   1      31.354  27.652  27.753  1.00  0.00    -0.252 OA
BRANCH   3   5
ATOM      5  C   UNL A   1      30.890  26.685  25.633  1.00  0.00     0.160 C 
BRANCH   5   6
ATOM      6  C   UNL A   1      31.318  25.227  25.667  1.00  0.00     0.184 C 
ATOM      7  C   UNL A   1      30.945  24.422  24.410  1.00  0.00     0.295 C 
ATOM      8  O   UNL A   1      30.723  24.623  26.835  1.00  0.00    -0.366 OA
ATOM      9  N   UNL A   1      31.362  23.014  24.485  1.00  0.00    -0.325 N 
ATOM     10  C   UNL A   1      31.190  23.278  27.000  1.00  0.00     0.222 C 
ATOM     11  C   UNL A   1      30.930  22.414  25.752  1.00  0.00     0.291 C 
ATOM     12  H   UNL A   1      30.849  22.483  23.782  1.00  0.00     0.348 HD
BRANCH   9  13
ATOM     13  C   UNL A   1      32.706  22.721  23.973  1.00  0.00     0.216 C 
ATOM     14  C   UNL A   1      33.946  23.423  24.586  1.00  0.00     0.071 C 
ATOM     15  C   UNL A   1      32.892  21.218  24.006  1.00  0.00     0.023 A 
ATOM     16  C   UNL A   1      34.498  22.767  25.858  1.00  0.00     0.012 C 
ATOM     17  C   UNL A   1      33.850  20.599  24.789  1.00  0.00     0.014 A 
ATOM     18  C   UNL A   1      32.153  20.258  23.242  1.00  0.00     0.022 A 
ATOM     19  C   UNL A   1      34.849  21.287  25.663  1.00  0.00     0.047 C 
ATOM     20  S   UNL A   1      33.837  18.903  24.626  1.00  0.00    -0.148 S 
ATOM     21  C   UNL A   1      32.566  18.968  23.485  1.00  0.00     0.065 A 
ENDBRANCH   9  13
ENDBRANCH   5   6
ENDBRANCH   3   5
ENDBRANCH   2   3
ENDBRANCH   1   2
BRANCH   1  22
ATOM     22  C   UNL A   1      31.832  30.753  26.053  1.00  0.00     0.275 C 
BRANCH  22  23
ATOM     23  O   UNL A   1      32.559  30.860  27.289  1.00  0.00    -0.458 OA
BRANCH  23  24
ATOM     24  C   UNL A   1      33.354  31.952  27.417  1.00  0.00     0.338 C 
ATOM     25  O   UNL A   1      33.036  33.113  27.254  1.00  0.00    -0.246 OA
BRANCH  24  26
ATOM     26  C   UNL A   1      34.646  31.524  28.002  1.00  0.00     0.060 A 
ATOM     27  C   UNL A   1      34.779  30.176  28.358  1.00  0.00     0.016 A 
ATOM     28  C   UNL A   1      35.728  32.400  28.138  1.00  0.00     0.016 A 
ATOM     29  C   UNL A   1      35.993  29.702  28.853  1.00  0.00     0.010 A 
ATOM     30  C   UNL A   1      36.939  31.929  28.650  1.00  0.00     0.010 A 
ATOM     31  C   UNL A   1      37.072  30.581  29.022  1.00  0.00    -0.014 A 
BRANCH  31  32
ATOM     32  C   UNL A   1      38.286  30.111  29.727  1.00  0.00     0.031 A 
ATOM     33  C   UNL A   1      38.569  30.644  31.102  1.00  0.00     0.074 A 
ATOM     34  C   UNL A   1      39.101  29.200  29.170  1.00  0.00     0.049 A 
ATOM     35  N   UNL A   1      39.531  30.332  31.932  1.00  0.00    -0.248 NA
ATOM     36  C   UNL A   1      37.639  31.667  31.610  1.00  0.00     0.031 C 
ATOM     37  C   UNL A   1      38.927  28.597  27.850  1.00  0.00     0.029 A 
ATOM     38  N   UNL A   1      40.248  28.623  29.656  1.00  0.00    -0.354 N 
ATOM     39  C   UNL A   1      39.303  31.093  33.070  1.00  0.00     0.074 A 
ATOM     40  C   UNL A   1      38.145  31.920  32.807  1.00  0.00     0.031 C 
ATOM     41  C   UNL A   1      39.942  27.742  27.626  1.00  0.00     0.029 A 
ATOM     42  C   UNL A   1      40.836  27.743  28.782  1.00  0.00     0.049 A 
ATOM     43  H   UNL A   1      40.616  28.822  30.548  1.00  0.00     0.167 HD
ATOM     44  C   UNL A   1      39.985  31.087  34.239  1.00  0.00     0.037 A 
ATOM     45  C   UNL A   1      41.967  27.023  28.909  1.00  0.00     0.037 A 
ATOM     46  C   UNL A   1      41.155  30.292  34.495  1.00  0.00     0.049 A 
ATOM     47  C   UNL A   1      42.754  27.096  30.194  1.00  0.00     0.074 A 
ATOM     48  C   UNL A   1      41.919  30.223  35.646  1.00  0.00     0.029 A 
ATOM     49  N   UNL A   1      41.737  29.432  33.575  1.00  0.00    -0.354 N 
ATOM     50  N   UNL A   1      42.500  27.774  31.287  1.00  0.00    -0.248 NA
ATOM     51  C   UNL A   1      43.983  26.290  30.265  1.00  0.00     0.031 C 
ATOM     52  C   UNL A   1      42.986  29.351  35.410  1.00  0.00     0.029 A 
ATOM     53  C   UNL A   1      42.863  28.846  34.126  1.00  0.00     0.049 A 
ATOM     54  H   UNL A   1      41.398  29.264  32.666  1.00  0.00     0.167 HD
ATOM     55  C   UNL A   1      43.513  27.453  32.181  1.00  0.00     0.074 A 
ATOM     56  C   UNL A   1      44.380  26.509  31.510  1.00  0.00     0.031 C 
ATOM     57  C   UNL A   1      43.710  27.901  33.446  1.00  0.00     0.037 A 
BRANCH  44  58
ATOM     58  C   UNL A   1      39.479  31.978  35.331  1.00  0.00     0.064 A 
ATOM     59  C   UNL A   1      38.598  31.494  36.310  1.00  0.00     0.173 A 
ATOM     60  C   UNL A   1      39.901  33.310  35.422  1.00  0.00     0.173 A 
ATOM     61  F   UNL A   1      38.153  30.230  36.253  1.00  0.00    -0.203 F 
ATOM     62  C   UNL A   1      38.146  32.321  37.335  1.00  0.00     0.198 A 
ATOM     63  C   UNL A   1      39.463  34.128  36.460  1.00  0.00     0.198 A 
ATOM     64  F   UNL A   1      40.740  33.818  34.507  1.00  0.00    -0.203 F 
ATOM     65  F   UNL A   1      37.277  31.849  38.239  1.00  0.00    -0.200 F 
ATOM     66  C   UNL A   1      38.584  33.634  37.412  1.00  0.00     0.200 A 
ATOM     67  F   UNL A   1      39.890  35.396  36.538  1.00  0.00    -0.200 F 
ATOM     68  F   UNL A   1      38.153  34.427  38.403  1.00  0.00    -0.200 F 
ENDBRANCH  44  58
BRANCH  45  69
ATOM     69  C   UNL A   1      42.441  26.165  27.792  1.00  0.00     0.064 A 
ATOM     70  C   UNL A   1      43.409  26.621  26.887  1.00  0.00     0.173 A 
ATOM     71  C   UNL A   1      41.889  24.894  27.575  1.00  0.00     0.173 A 
ATOM     72  F   UNL A   1      43.943  27.841  27.037  1.00  0.00    -0.203 F 
ATOM     73  C   UNL A   1      43.785  25.851  25.788  1.00  0.00     0.198 A 
ATOM     74  C   UNL A   1      42.284  24.114  26.490  1.00  0.00     0.198 A 
ATOM     75  F   UNL A   1      40.956  24.414  28.410  1.00  0.00    -0.203 F 
ATOM     76  F   UNL A   1      44.666  26.336  24.903  1.00  0.00    -0.200 F 
ATOM     77  C   UNL A   1      43.224  24.598  25.592  1.00  0.00     0.200 A 
ATOM     78  F   UNL A   1      41.744  22.902  26.307  1.00  0.00    -0.200 F 
ATOM     79  F   UNL A   1      43.575  23.863  24.528  1.00  0.00    -0.200 F 
ENDBRANCH  45  69
BRANCH  57  80
ATOM     80  C   UNL A   1      44.889  27.353  34.195  1.00  0.00     0.064 A 
ATOM     81  C   UNL A   1      46.138  27.993  34.171  1.00  0.00     0.173 A 
ATOM     82  C   UNL A   1      44.761  26.194  34.976  1.00  0.00     0.173 A 
ATOM     83  F   UNL A   1      46.315  29.096  33.428  1.00  0.00    -0.203 F 
ATOM     84  C   UNL A   1      47.220  27.477  34.877  1.00  0.00     0.198 A 
ATOM     85  C   UNL A   1      45.839  25.697  35.703  1.00  0.00     0.198 A 
ATOM     86  F   UNL A   1      43.587  25.548  35.040  1.00  0.00    -0.203 F 
ATOM     87  F   UNL A   1      48.415  28.079  34.801  1.00  0.00    -0.200 F 
ATOM     88  C   UNL A   1      47.069  26.334  35.648  1.00  0.00     0.200 A 
ATOM     89  F   UNL A   1      45.687  24.598  36.457  1.00  0.00    -0.200 F 
ATOM     90  F   UNL A   1      48.112  25.842  36.330  1.00  0.00    -0.200 F 
ENDBRANCH  57  80
ENDBRANCH  31  32
ENDBRANCH  24  26
ENDBRANCH  23  24
ENDBRANCH  22  23
ENDBRANCH   1  22
TORSDOF 13
ENDMDL
MODEL 2
REMARK VINA RESULT:     -12.0      0.993      1.661
REMARK SMILES O=C(C[C@@H]1C[N@@H+]([C@H]2CCCc3sccc32)CCO1)OCCOC(=O)c1ccc(-c2c3nc(c(-c4c(F)c(F)c(F)c(F)c4F)c4ccc([nH]4)c(-c4c(F)c(F)c(F)c(F)c4F)c4nc(c(-c5c(F)c(F)c(F)c(F)c5F)c5ccc2[nH]5)C=C4)C=C3)cc1
REMARK SMILES IDX 20 1 19 2 2 3 1 4 3 5 4 6 5 7 18 8 6 9 17 10 16 11 7 13 8 14
REMARK SMILES IDX 15 15 9 16 11 17 14 18 10 19 12 20 13 21 21 22 22 23 23 24
REMARK SMILES IDX 24 25 25 26 26 27 87 28 27 29 86 30 28 31 29 32 30 33 80 34
REMARK SMILES IDX 31 35 85 36 79 37 81 38 32 39 84 40 78 41 77 42 33 44 65 45
REMARK SMILES IDX 45 46 64 47 46 48 49 49 63 50 82 51 47 52 48 53 62 55 83 56
REMARK SMILES IDX 50 57 34 58 35 59 43 60 36 61 37 62 41 63 44 64 38 65 39 66
REMARK SMILES IDX 42 67 40 68 66 69 67 70 75 71 68 72 69 73 73 74 76 75 70 76
REMARK SMILES IDX 71 77 74 78 72 79 51 80 52 81 60 82 53 83 54 84 58 85 61 86
REMARK SMILES IDX 55 87 56 88 59 89 57 90
REMARK H PARENT 6 12 81 43 49 54
REMARK Flexibility Score: inf
ROOT
ATOM      1  C   UNL A   1      31.673  29.153  24.977  1.00  0.00     0.274 C 
ENDROOT
BRANCH   1   2
ATOM      2  O   UNL A   1      30.509  29.255  24.132  1.00  0.00    -0.462 OA
BRANCH   2   3
ATOM      3  C   UNL A   1      30.142  28.355  23.194  1.00  0.00     0.308 C 
ATOM      4  O   UNL A   1      30.276  28.614  22.001  1.00  0.00    -0.252 OA
BRANCH   3   5
ATOM      5  C   UNL A   1      29.494  27.070  23.627  1.00  0.00     0.160 C 
BRANCH   5   6
ATOM      6  C   UNL A   1      30.404  25.970  24.148  1.00  0.00     0.184 C 
ATOM      7  C   UNL A   1      30.283  24.631  23.398  1.00  0.00     0.295 C 
ATOM      8  O   UNL A   1      30.109  25.782  25.548  1.00  0.00    -0.366 OA
ATOM      9  N   UNL A   1      31.169  23.589  23.938  1.00  0.00    -0.325 N 
ATOM     10  C   UNL A   1      31.023  24.847  26.134  1.00  0.00     0.222 C 
ATOM     11  C   UNL A   1      31.028  23.496  25.395  1.00  0.00     0.291 C 
ATOM     12  H   UNL A   1      30.843  22.682  23.608  1.00  0.00     0.348 HD
BRANCH   9  13
ATOM     13  C   UNL A   1      32.507  23.520  23.339  1.00  0.00     0.216 C 
ATOM     14  C   UNL A   1      33.409  24.781  23.294  1.00  0.00     0.071 C 
ATOM     15  C   UNL A   1      33.247  22.376  24.002  1.00  0.00     0.023 A 
ATOM     16  C   UNL A   1      34.208  25.051  24.576  1.00  0.00     0.012 C 
ATOM     17  C   UNL A   1      34.392  22.562  24.755  1.00  0.00     0.014 A 
ATOM     18  C   UNL A   1      32.901  20.989  23.925  1.00  0.00     0.022 A 
ATOM     19  C   UNL A   1      35.085  23.865  24.995  1.00  0.00     0.047 C 
ATOM     20  S   UNL A   1      35.014  21.103  25.376  1.00  0.00    -0.148 S 
ATOM     21  C   UNL A   1      33.777  20.192  24.626  1.00  0.00     0.065 A 
ENDBRANCH   9  13
ENDBRANCH   5   6
ENDBRANCH   3   5
ENDBRANCH   2   3
ENDBRANCH   1   2
BRANCH   1  22
ATOM     22  C   UNL A   1      31.882  30.421  25.800  1.00  0.00     0.275 C 
BRANCH  22  23
ATOM     23  O   UNL A   1      33.260  30.512  26.200  1.00  0.00    -0.458 OA
BRANCH  23  24
ATOM     24  C   UNL A   1      33.542  31.443  27.145  1.00  0.00     0.338 C 
ATOM     25  O   UNL A   1      32.812  32.329  27.542  1.00  0.00    -0.246 OA
BRANCH  24  26
ATOM     26  C   UNL A   1      34.827  31.083  27.788  1.00  0.00     0.060 A 
ATOM     27  C   UNL A   1      35.029  29.737  28.121  1.00  0.00     0.016 A 
ATOM     28  C   UNL A   1      35.842  32.022  28.000  1.00  0.00     0.016 A 
ATOM     29  C   UNL A   1      36.244  29.329  28.668  1.00  0.00     0.010 A 
ATOM     30  C   UNL A   1      37.054  31.616  28.564  1.00  0.00     0.010 A 
ATOM     31  C   UNL A   1      37.254  30.270  28.914  1.00  0.00    -0.014 A 
BRANCH  31  32
ATOM     32  C   UNL A   1      38.457  29.859  29.671  1.00  0.00     0.031 A 
ATOM     33  C   UNL A   1      38.671  30.429  31.043  1.00  0.00     0.074 A 
ATOM     34  C   UNL A   1      39.326  28.969  29.162  1.00  0.00     0.049 A 
ATOM     35  N   UNL A   1      39.612  30.170  31.914  1.00  0.00    -0.248 NA
ATOM     36  C   UNL A   1      37.686  31.425  31.497  1.00  0.00     0.031 C 
ATOM     37  C   UNL A   1      39.222  28.335  27.849  1.00  0.00     0.029 A 
ATOM     38  N   UNL A   1      40.475  28.445  29.700  1.00  0.00    -0.354 N 
ATOM     39  C   UNL A   1      39.315  30.943  33.027  1.00  0.00     0.074 A 
ATOM     40  C   UNL A   1      38.138  31.720  32.706  1.00  0.00     0.031 C 
ATOM     41  C   UNL A   1      40.276  27.515  27.679  1.00  0.00     0.029 A 
ATOM     42  C   UNL A   1      41.126  27.571  28.866  1.00  0.00     0.049 A 
ATOM     43  H   UNL A   1      40.802  28.675  30.601  1.00  0.00     0.167 HD
ATOM     44  C   UNL A   1      39.955  30.986  34.219  1.00  0.00     0.037 A 
ATOM     45  C   UNL A   1      42.278  26.898  29.048  1.00  0.00     0.037 A 
ATOM     46  C   UNL A   1      41.143  30.239  34.533  1.00  0.00     0.049 A 
ATOM     47  C   UNL A   1      43.015  27.025  30.359  1.00  0.00     0.074 A 
ATOM     48  C   UNL A   1      41.866  30.222  35.711  1.00  0.00     0.029 A 
ATOM     49  N   UNL A   1      41.789  29.385  33.652  1.00  0.00    -0.354 N 
ATOM     50  N   UNL A   1      42.696  27.714  31.428  1.00  0.00    -0.248 NA
ATOM     51  C   UNL A   1      44.269  26.267  30.490  1.00  0.00     0.031 C 
ATOM     52  C   UNL A   1      42.973  29.386  35.532  1.00  0.00     0.029 A 
ATOM     53  C   UNL A   1      42.916  28.852  34.255  1.00  0.00     0.049 A 
ATOM     54  H   UNL A   1      41.490  29.187  32.735  1.00  0.00     0.167 HD
ATOM     55  C   UNL A   1      43.687  27.448  32.364  1.00  0.00     0.074 A 
ATOM     56  C   UNL A   1      44.612  26.525  31.743  1.00  0.00     0.031 C 
ATOM     57  C   UNL A   1      43.821  27.927  33.626  1.00  0.00     0.037 A 
BRANCH  44  58
ATOM     58  C   UNL A   1      39.376  31.877  35.274  1.00  0.00     0.064 A 
ATOM     59  C   UNL A   1      38.514  31.370  36.258  1.00  0.00     0.173 A 
ATOM     60  C   UNL A   1      39.709  33.237  35.325  1.00  0.00     0.173 A 
ATOM     61  F   UNL A   1      38.153  30.079  36.239  1.00  0.00    -0.203 F 
ATOM     62  C   UNL A   1      37.995  32.199  37.248  1.00  0.00     0.198 A 
ATOM     63  C   UNL A   1      39.205  34.058  36.329  1.00  0.00     0.198 A 
ATOM     64  F   UNL A   1      40.527  33.767  34.403  1.00  0.00    -0.203 F 
ATOM     65  F   UNL A   1      37.146  31.703  38.158  1.00  0.00    -0.200 F 
ATOM     66  C   UNL A   1      38.346  33.540  37.286  1.00  0.00     0.200 A 
ATOM     67  F   UNL A   1      39.548  35.353  36.368  1.00  0.00    -0.200 F 
ATOM     68  F   UNL A   1      37.850  34.336  38.244  1.00  0.00    -0.200 F 
ENDBRANCH  44  58
BRANCH  45  69
ATOM     69  C   UNL A   1      42.823  26.036  27.966  1.00  0.00     0.064 A 
ATOM     70  C   UNL A   1      43.708  26.549  27.008  1.00  0.00     0.173 A 
ATOM     71  C   UNL A   1      42.422  24.699  27.838  1.00  0.00     0.173 A 
ATOM     72  F   UNL A   1      44.096  27.831  27.072  1.00  0.00    -0.203 F 
ATOM     73  C   UNL A   1      44.146  25.765  25.942  1.00  0.00     0.198 A 
ATOM     74  C   UNL A   1      42.882  23.908  26.787  1.00  0.00     0.198 A 
ATOM     75  F   UNL A   1      41.574  24.162  28.727  1.00  0.00    -0.203 F 
ATOM     76  F   UNL A   1      44.942  26.297  25.005  1.00  0.00    -0.200 F 
ATOM     77  C   UNL A   1      43.734  24.445  25.834  1.00  0.00     0.200 A 
ATOM     78  F   UNL A   1      42.486  22.632  26.689  1.00  0.00    -0.200 F 
ATOM     79  F   UNL A   1      44.145  23.695  24.802  1.00  0.00    -0.200 F 
ENDBRANCH  45  69
BRANCH  57  80
ATOM     80  C   UNL A   1      44.992  27.439  34.427  1.00  0.00     0.064 A 
ATOM     81  C   UNL A   1      44.915  26.273  35.204  1.00  0.00     0.173 A 
ATOM     82  C   UNL A   1      46.216  28.123  34.389  1.00  0.00     0.173 A 
ATOM     83  F   UNL A   1      43.762  25.592  35.285  1.00  0.00    -0.203 F 
ATOM     84  C   UNL A   1      46.012  25.828  35.936  1.00  0.00     0.198 A 
ATOM     85  C   UNL A   1      47.319  27.659  35.100  1.00  0.00     0.198 A 
ATOM     86  F   UNL A   1      46.345  29.238  33.654  1.00  0.00    -0.203 F 
ATOM     87  F   UNL A   1      45.901  24.738  36.709  1.00  0.00    -0.200 F 
ATOM     88  C   UNL A   1      47.215  26.516  35.878  1.00  0.00     0.200 A 
ATOM     89  F   UNL A   1      48.484  28.319  35.033  1.00  0.00    -0.200 F 
ATOM     90  F   UNL A   1      48.271  26.083  36.580  1.00  0.00    -0.200 F 
ENDBRANCH  57  80
ENDBRANCH  31  32
ENDBRANCH  24  26
ENDBRANCH  23  24
ENDBRANCH  22  23
ENDBRANCH   1  22
TORSDOF 13
ENDMDL
MODEL 3
REMARK VINA RESULT:     -11.9      1.044      1.717
REMARK SMILES O=C(C[C@@H]1C[N@@H+]([C@H]2CCCc3sccc32)CCO1)OCCOC(=O)c1ccc(-c2c3nc(c(-c4c(F)c(F)c(F)c(F)c4F)c4ccc([nH]4)c(-c4c(F)c(F)c(F)c(F)c4F)c4nc(c(-c5c(F)c(F)c(F)c(F)c5F)c5ccc2[nH]5)C=C4)C=C3)cc1
REMARK SMILES IDX 20 1 19 2 2 3 1 4 3 5 4 6 5 7 18 8 6 9 17 10 16 11 7 13 8 14
REMARK SMILES IDX 15 15 9 16 11 17 14 18 10 19 12 20 13 21 21 22 22 23 23 24
REMARK SMILES IDX 24 25 25 26 26 27 87 28 27 29 86 30 28 31 29 32 30 33 80 34
REMARK SMILES IDX 31 35 85 36 79 37 81 38 32 39 84 40 78 41 77 42 33 44 65 45
REMARK SMILES IDX 45 46 64 47 46 48 49 49 63 50 82 51 47 52 48 53 62 55 83 56
REMARK SMILES IDX 50 57 34 58 35 59 43 60 36 61 37 62 41 63 44 64 38 65 39 66
REMARK SMILES IDX 42 67 40 68 66 69 67 70 75 71 68 72 69 73 73 74 76 75 70 76
REMARK SMILES IDX 71 77 74 78 72 79 51 80 52 81 60 82 53 83 54 84 58 85 61 86
REMARK SMILES IDX 55 87 56 88 59 89 57 90
REMARK H PARENT 6 12 81 43 49 54
REMARK Flexibility Score: inf
ROOT
ATOM      1  C   UNL A   1      31.667  29.188  24.956  1.00  0.00     0.274 C 
ENDROOT
BRANCH   1   2
ATOM      2  O   UNL A   1      30.433  29.262  24.212  1.00  0.00    -0.462 OA
BRANCH   2   3
ATOM      3  C   UNL A   1      30.085  28.448  23.192  1.00  0.00     0.308 C 
ATOM      4  O   UNL A   1      30.199  28.828  22.030  1.00  0.00    -0.252 OA
BRANCH   3   5
ATOM      5  C   UNL A   1      29.479  27.108  23.501  1.00  0.00     0.160 C 
BRANCH   5   6
ATOM      6  C   UNL A   1      30.393  26.051  24.099  1.00  0.00     0.184 C 
ATOM      7  C   UNL A   1      30.419  24.719  23.329  1.00  0.00     0.295 C 
ATOM      8  O   UNL A   1      29.972  25.827  25.461  1.00  0.00    -0.366 OA
ATOM      9  N   UNL A   1      31.303  23.718  23.944  1.00  0.00    -0.325 N 
ATOM     10  C   UNL A   1      30.873  24.933  26.126  1.00  0.00     0.222 C 
ATOM     11  C   UNL A   1      31.024  23.596  25.379  1.00  0.00     0.291 C 
ATOM     12  H   UNL A   1      31.062  22.799  23.575  1.00  0.00     0.348 HD
BRANCH   9  13
ATOM     13  C   UNL A   1      32.695  23.729  23.480  1.00  0.00     0.216 C 
ATOM     14  C   UNL A   1      33.515  25.045  23.502  1.00  0.00     0.071 C 
ATOM     15  C   UNL A   1      33.438  22.643  24.232  1.00  0.00     0.023 A 
ATOM     16  C   UNL A   1      34.165  25.381  24.851  1.00  0.00     0.012 C 
ATOM     17  C   UNL A   1      34.488  22.911  25.090  1.00  0.00     0.014 A 
ATOM     18  C   UNL A   1      33.190  21.235  24.145  1.00  0.00     0.022 A 
ATOM     19  C   UNL A   1      35.070  24.259  25.374  1.00  0.00     0.047 C 
ATOM     20  S   UNL A   1      35.138  21.502  25.794  1.00  0.00    -0.148 S 
ATOM     21  C   UNL A   1      34.042  20.505  24.943  1.00  0.00     0.065 A 
ENDBRANCH   9  13
ENDBRANCH   5   6
ENDBRANCH   3   5
ENDBRANCH   2   3
ENDBRANCH   1   2
BRANCH   1  22
ATOM     22  C   UNL A   1      31.901  30.449  25.782  1.00  0.00     0.275 C 
BRANCH  22  23
ATOM     23  O   UNL A   1      33.262  30.474  26.245  1.00  0.00    -0.458 OA
BRANCH  23  24
ATOM     24  C   UNL A   1      33.551  31.407  27.186  1.00  0.00     0.338 C 
ATOM     25  O   UNL A   1      32.823  32.294  27.586  1.00  0.00    -0.246 OA
BRANCH  24  26
ATOM     26  C   UNL A   1      34.840  31.049  27.820  1.00  0.00     0.060 A 
ATOM     27  C   UNL A   1      35.035  29.709  28.179  1.00  0.00     0.016 A 
ATOM     28  C   UNL A   1      35.865  31.983  28.002  1.00  0.00     0.016 A 
ATOM     29  C   UNL A   1      36.253  29.301  28.719  1.00  0.00     0.010 A 
ATOM     30  C   UNL A   1      37.081  31.578  28.559  1.00  0.00     0.010 A 
ATOM     31  C   UNL A   1      37.274  30.237  28.933  1.00  0.00    -0.014 A 
BRANCH  31  32
ATOM     32  C   UNL A   1      38.483  29.832  29.684  1.00  0.00     0.031 A 
ATOM     33  C   UNL A   1      38.707  30.411  31.051  1.00  0.00     0.074 A 
ATOM     34  C   UNL A   1      39.348  28.939  29.174  1.00  0.00     0.049 A 
ATOM     35  N   UNL A   1      39.655  30.157  31.916  1.00  0.00    -0.248 NA
ATOM     36  C   UNL A   1      37.725  31.410  31.506  1.00  0.00     0.031 C 
ATOM     37  C   UNL A   1      39.234  28.296  27.866  1.00  0.00     0.029 A 
ATOM     38  N   UNL A   1      40.501  28.419  29.707  1.00  0.00    -0.354 N 
ATOM     39  C   UNL A   1      39.366  30.937  33.026  1.00  0.00     0.074 A 
ATOM     40  C   UNL A   1      38.186  31.713  32.709  1.00  0.00     0.031 C 
ATOM     41  C   UNL A   1      40.287  27.475  27.693  1.00  0.00     0.029 A 
ATOM     42  C   UNL A   1      41.146  27.539  28.874  1.00  0.00     0.049 A 
ATOM     43  H   UNL A   1      40.835  28.655  30.603  1.00  0.00     0.167 HD
ATOM     44  C   UNL A   1      40.014  30.988  34.213  1.00  0.00     0.037 A 
ATOM     45  C   UNL A   1      42.300  26.867  29.051  1.00  0.00     0.037 A 
ATOM     46  C   UNL A   1      41.205  30.244  34.523  1.00  0.00     0.049 A 
ATOM     47  C   UNL A   1      43.046  27.003  30.355  1.00  0.00     0.074 A 
ATOM     48  C   UNL A   1      41.937  30.234  35.696  1.00  0.00     0.029 A 
ATOM     49  N   UNL A   1      41.845  29.384  33.643  1.00  0.00    -0.354 N 
ATOM     50  N   UNL A   1      42.735  27.699  31.422  1.00  0.00    -0.248 NA
ATOM     51  C   UNL A   1      44.302  26.246  30.482  1.00  0.00     0.031 C 
ATOM     52  C   UNL A   1      43.043  29.397  35.513  1.00  0.00     0.029 A 
ATOM     53  C   UNL A   1      42.976  28.855  34.240  1.00  0.00     0.049 A 
ATOM     54  H   UNL A   1      41.539  29.180  32.729  1.00  0.00     0.167 HD
ATOM     55  C   UNL A   1      43.733  27.439  32.353  1.00  0.00     0.074 A 
ATOM     56  C   UNL A   1      44.654  26.512  31.731  1.00  0.00     0.031 C 
ATOM     57  C   UNL A   1      43.877  27.926  33.610  1.00  0.00     0.037 A 
BRANCH  44  58
ATOM     58  C   UNL A   1      39.443  31.886  35.267  1.00  0.00     0.064 A 
ATOM     59  C   UNL A   1      39.741  33.257  35.290  1.00  0.00     0.173 A 
ATOM     60  C   UNL A   1      38.568  31.383  36.239  1.00  0.00     0.173 A 
ATOM     61  F   UNL A   1      40.587  33.779  34.391  1.00  0.00    -0.203 F 
ATOM     62  C   UNL A   1      39.191  34.090  36.260  1.00  0.00     0.198 A 
ATOM     63  C   UNL A   1      38.004  32.223  37.194  1.00  0.00     0.198 A 
ATOM     64  F   UNL A   1      38.257  30.078  36.259  1.00  0.00    -0.203 F 
ATOM     65  F   UNL A   1      39.515  35.390  36.286  1.00  0.00    -0.200 F 
ATOM     66  C   UNL A   1      38.319  33.574  37.206  1.00  0.00     0.200 A 
ATOM     67  F   UNL A   1      37.157  31.725  38.106  1.00  0.00    -0.200 F 
ATOM     68  F   UNL A   1      37.785  34.379  38.136  1.00  0.00    -0.200 F 
ENDBRANCH  44  58
BRANCH  45  69
ATOM     69  C   UNL A   1      42.837  25.999  27.971  1.00  0.00     0.064 A 
ATOM     70  C   UNL A   1      43.721  26.504  27.007  1.00  0.00     0.173 A 
ATOM     71  C   UNL A   1      42.428  24.663  27.848  1.00  0.00     0.173 A 
ATOM     72  F   UNL A   1      44.116  27.783  27.066  1.00  0.00    -0.203 F 
ATOM     73  C   UNL A   1      44.151  25.714  25.944  1.00  0.00     0.198 A 
ATOM     74  C   UNL A   1      42.880  23.866  26.799  1.00  0.00     0.198 A 
ATOM     75  F   UNL A   1      41.580  24.134  28.743  1.00  0.00    -0.203 F 
ATOM     76  F   UNL A   1      44.947  26.238  25.001  1.00  0.00    -0.200 F 
ATOM     77  C   UNL A   1      43.733  24.395  25.841  1.00  0.00     0.200 A 
ATOM     78  F   UNL A   1      42.477  22.592  26.707  1.00  0.00    -0.200 F 
ATOM     79  F   UNL A   1      44.136  23.640  24.811  1.00  0.00    -0.200 F 
ENDBRANCH  45  69
BRANCH  57  80
ATOM     80  C   UNL A   1      45.054  27.443  34.406  1.00  0.00     0.064 A 
ATOM     81  C   UNL A   1      46.273  28.136  34.409  1.00  0.00     0.173 A 
ATOM     82  C   UNL A   1      44.950  26.293  35.203  1.00  0.00     0.173 A 
ATOM     83  F   UNL A   1      46.427  29.234  33.652  1.00  0.00    -0.203 F 
ATOM     84  C   UNL A   1      47.353  27.680  35.158  1.00  0.00     0.198 A 
ATOM     85  C   UNL A   1      46.024  25.856  35.973  1.00  0.00     0.198 A 
ATOM     86  F   UNL A   1      43.803  25.598  35.242  1.00  0.00    -0.203 F 
ATOM     87  F   UNL A   1      48.524  28.332  35.109  1.00  0.00    -0.200 F 
ATOM     88  C   UNL A   1      47.226  26.545  35.945  1.00  0.00     0.200 A 
ATOM     89  F   UNL A   1      45.895  24.765  36.742  1.00  0.00    -0.200 F 
ATOM     90  F   UNL A   1      48.267  26.110  36.670  1.00  0.00    -0.200 F 
ENDBRANCH  57  80
ENDBRANCH  31  32
ENDBRANCH  24  26
ENDBRANCH  23  24
ENDBRANCH  22  23
ENDBRANCH   1  22
TORSDOF 13
ENDMDL
