MODEL 1
REMARK VINA RESULT:     -13.0      0.000      0.000
REMARK SMILES Cc1ccc(Nc2c(C)cccc2Cl)c(CC(=O)OCCOC(=O)c2ccc(-c3c4nc(c(-c5c(F)c(F)c(F)c(F)c5F)c5ccc([nH]5)c(-c5c(F)c(F)c(F)c(F)c5F)c5nc(c(-c6c(F)c(F)c(F)c(F)c6F)c6ccc3[nH]6)C=C5)C=C4)cc2)c1
REMARK SMILES IDX 20 1 19 2 17 3 18 4 16 5 15 6 1 7 2 8 3 9 88 10 4 11 5 12
REMARK SMILES IDX 6 13 7 15 8 16 13 17 9 18 10 19 12 20 14 21 11 22 21 23
REMARK SMILES IDX 22 24 23 25 24 26 25 27 26 28 87 29 27 30 86 31 28 32 29 33
REMARK SMILES IDX 30 34 80 35 31 36 85 37 79 38 81 39 32 40 84 41 78 42 77 43
REMARK SMILES IDX 33 45 65 46 45 47 64 48 46 49 49 50 63 51 82 52 47 53 48 54
REMARK SMILES IDX 62 56 83 57 50 58 34 59 35 60 43 61 36 62 37 63 41 64 44 65
REMARK SMILES IDX 38 66 39 67 42 68 40 69 66 70 67 71 75 72 68 73 69 74 73 75
REMARK SMILES IDX 76 76 70 77 71 78 74 79 72 80 51 81 52 82 60 83 53 84 54 85
REMARK SMILES IDX 58 86 61 87 55 88 56 89 59 90 57 91
REMARK H PARENT 6 14 81 44 49 55
REMARK Flexibility Score: inf
ROOT
ATOM      1  C   UNL A   1      34.096  28.398  26.339  1.00  0.00     0.274 C 
ENDROOT
BRANCH   1   2
ATOM      2  O   UNL A   1      32.733  28.092  26.092  1.00  0.00    -0.462 OA
BRANCH   2   3
ATOM      3  C   UNL A   1      32.341  27.927  24.797  1.00  0.00     0.310 C 
ATOM      4  O   UNL A   1      31.201  27.848  24.405  1.00  0.00    -0.252 OA
BRANCH   3   5
ATOM      5  C   UNL A   1      33.582  27.847  23.930  1.00  0.00     0.160 C 
BRANCH   5   6
ATOM      6  C   UNL A   1      33.580  26.533  23.199  1.00  0.00    -0.013 A 
ATOM      7  C   UNL A   1      32.384  25.512  19.740  1.00  0.00     0.044 C 
ATOM      8  C   UNL A   1      32.913  25.429  21.137  1.00  0.00    -0.051 A 
ATOM      9  C   UNL A   1      33.080  24.197  21.772  1.00  0.00     0.005 A 
ATOM     10  C   UNL A   1      33.185  26.590  21.851  1.00  0.00     0.009 A 
ATOM     11  C   UNL A   1      33.511  24.130  23.100  1.00  0.00     0.026 A 
ATOM     12  C   UNL A   1      33.756  25.287  23.847  1.00  0.00     0.042 A 
BRANCH  12  13
ATOM     13  N   UNL A   1      34.112  25.184  25.205  1.00  0.00    -0.354 N 
ATOM     14  H   UNL A   1      34.450  26.016  25.609  1.00  0.00     0.167 HD
BRANCH  13  15
ATOM     15  C   UNL A   1      34.059  24.071  26.083  1.00  0.00     0.060 A 
ATOM     16  C   UNL A   1      32.839  23.703  26.685  1.00  0.00    -0.026 A 
ATOM     17  C   UNL A   1      35.151  23.185  26.204  1.00  0.00     0.064 A 
ATOM     18  C   UNL A   1      31.637  24.605  26.636  1.00  0.00     0.046 C 
ATOM     19  C   UNL A   1      32.749  22.491  27.394  1.00  0.00     0.005 A 
ATOM     20  C   UNL A   1      35.024  21.948  26.841  1.00  0.00     0.023 A 
ATOM     21  Cl  UNL A   1      36.741  23.640  25.723  1.00  0.00    -0.082 Cl
ATOM     22  C   UNL A   1      33.823  21.605  27.445  1.00  0.00     0.002 A 
ENDBRANCH  13  15
ENDBRANCH  12  13
ENDBRANCH   5   6
ENDBRANCH   3   5
ENDBRANCH   2   3
ENDBRANCH   1   2
BRANCH   1  23
ATOM     23  C   UNL A   1      34.185  29.701  27.150  1.00  0.00     0.275 C 
BRANCH  23  24
ATOM     24  O   UNL A   1      35.523  30.269  27.422  1.00  0.00    -0.458 OA
BRANCH  24  25
ATOM     25  C   UNL A   1      36.157  30.527  28.602  1.00  0.00     0.338 C 
ATOM     26  O   UNL A   1      35.712  31.300  29.440  1.00  0.00    -0.246 OA
BRANCH  25  27
ATOM     27  C   UNL A   1      37.375  29.759  28.887  1.00  0.00     0.060 A 
ATOM     28  C   UNL A   1      37.466  28.869  29.973  1.00  0.00     0.016 A 
ATOM     29  C   UNL A   1      38.362  29.807  27.930  1.00  0.00     0.016 A 
ATOM     30  C   UNL A   1      38.495  27.927  29.990  1.00  0.00     0.010 A 
ATOM     31  C   UNL A   1      39.135  28.700  27.771  1.00  0.00     0.010 A 
ATOM     32  C   UNL A   1      39.299  27.833  28.853  1.00  0.00    -0.014 A 
BRANCH  32  33
ATOM     33  C   UNL A   1      40.574  27.144  28.778  1.00  0.00     0.031 A 
ATOM     34  C   UNL A   1      40.688  25.727  28.435  1.00  0.00     0.074 A 
ATOM     35  C   UNL A   1      41.621  27.989  28.937  1.00  0.00     0.049 A 
ATOM     36  N   UNL A   1      41.520  24.927  29.005  1.00  0.00    -0.248 NA
ATOM     37  C   UNL A   1      39.872  25.079  27.412  1.00  0.00     0.031 C 
ATOM     38  C   UNL A   1      43.041  27.814  28.732  1.00  0.00     0.029 A 
ATOM     39  N   UNL A   1      41.520  29.306  29.438  1.00  0.00    -0.354 N 
ATOM     40  C   UNL A   1      41.602  23.817  28.193  1.00  0.00     0.074 A 
ATOM     41  C   UNL A   1      40.444  23.869  27.335  1.00  0.00     0.031 C 
ATOM     42  C   UNL A   1      43.684  28.796  29.402  1.00  0.00     0.029 A 
ATOM     43  C   UNL A   1      42.690  29.573  30.138  1.00  0.00     0.049 A 
ATOM     44  H   UNL A   1      40.761  29.920  29.315  1.00  0.00     0.167 HD
ATOM     45  C   UNL A   1      42.772  23.119  28.131  1.00  0.00     0.037 A 
ATOM     46  C   UNL A   1      42.574  29.722  31.489  1.00  0.00     0.037 A 
ATOM     47  C   UNL A   1      43.802  23.806  28.905  1.00  0.00     0.049 A 
ATOM     48  C   UNL A   1      43.225  28.563  32.190  1.00  0.00     0.074 A 
ATOM     49  C   UNL A   1      44.774  24.714  28.511  1.00  0.00     0.029 A 
ATOM     50  N   UNL A   1      43.659  23.960  30.280  1.00  0.00    -0.354 N 
ATOM     51  N   UNL A   1      43.369  27.382  31.652  1.00  0.00    -0.248 NA
ATOM     52  C   UNL A   1      43.808  28.658  33.520  1.00  0.00     0.031 C 
ATOM     53  C   UNL A   1      45.177  25.453  29.649  1.00  0.00     0.029 A 
ATOM     54  C   UNL A   1      44.452  24.998  30.735  1.00  0.00     0.049 A 
ATOM     55  H   UNL A   1      43.075  23.406  30.849  1.00  0.00     0.167 HD
ATOM     56  C   UNL A   1      44.112  26.597  32.488  1.00  0.00     0.074 A 
ATOM     57  C   UNL A   1      44.346  27.433  33.653  1.00  0.00     0.031 C 
ATOM     58  C   UNL A   1      44.504  25.335  32.147  1.00  0.00     0.037 A 
BRANCH  45  59
ATOM     59  C   UNL A   1      43.061  22.070  27.084  1.00  0.00     0.064 A 
ATOM     60  C   UNL A   1      42.438  20.804  27.113  1.00  0.00     0.173 A 
ATOM     61  C   UNL A   1      43.947  22.275  26.009  1.00  0.00     0.173 A 
ATOM     62  F   UNL A   1      41.530  20.487  28.045  1.00  0.00    -0.203 F 
ATOM     63  C   UNL A   1      42.728  19.800  26.187  1.00  0.00     0.198 A 
ATOM     64  C   UNL A   1      44.258  21.258  25.096  1.00  0.00     0.198 A 
ATOM     65  F   UNL A   1      44.518  23.472  25.808  1.00  0.00    -0.203 F 
ATOM     66  F   UNL A   1      42.108  18.614  26.278  1.00  0.00    -0.200 F 
ATOM     67  C   UNL A   1      43.652  20.019  25.188  1.00  0.00     0.200 A 
ATOM     68  F   UNL A   1      45.151  21.486  24.121  1.00  0.00    -0.200 F 
ATOM     69  F   UNL A   1      43.943  19.048  24.312  1.00  0.00    -0.200 F 
ENDBRANCH  45  59
BRANCH  46  70
ATOM     70  C   UNL A   1      41.310  30.418  31.914  1.00  0.00     0.064 A 
ATOM     71  C   UNL A   1      41.036  31.697  31.374  1.00  0.00     0.173 A 
ATOM     72  C   UNL A   1      40.248  29.776  32.565  1.00  0.00     0.173 A 
ATOM     73  F   UNL A   1      42.003  32.371  30.728  1.00  0.00    -0.203 F 
ATOM     74  C   UNL A   1      39.756  32.254  31.393  1.00  0.00     0.198 A 
ATOM     75  C   UNL A   1      38.967  30.350  32.605  1.00  0.00     0.198 A 
ATOM     76  F   UNL A   1      40.415  28.559  33.101  1.00  0.00    -0.203 F 
ATOM     77  F   UNL A   1      39.522  33.417  30.768  1.00  0.00    -0.200 F 
ATOM     78  C   UNL A   1      38.718  31.572  31.996  1.00  0.00     0.200 A 
ATOM     79  F   UNL A   1      37.952  29.683  33.177  1.00  0.00    -0.200 F 
ATOM     80  F   UNL A   1      37.474  32.072  31.958  1.00  0.00    -0.200 F 
ENDBRANCH  46  70
BRANCH  58  81
ATOM     81  C   UNL A   1      45.096  24.325  33.088  1.00  0.00     0.064 A 
ATOM     82  C   UNL A   1      44.418  23.170  33.502  1.00  0.00     0.173 A 
ATOM     83  C   UNL A   1      46.457  24.413  33.470  1.00  0.00     0.173 A 
ATOM     84  F   UNL A   1      43.167  22.912  33.098  1.00  0.00    -0.203 F 
ATOM     85  C   UNL A   1      45.034  22.207  34.300  1.00  0.00     0.198 A 
ATOM     86  C   UNL A   1      47.089  23.413  34.200  1.00  0.00     0.198 A 
ATOM     87  F   UNL A   1      47.225  25.456  33.119  1.00  0.00    -0.203 F 
ATOM     88  F   UNL A   1      44.329  21.148  34.717  1.00  0.00    -0.200 F 
ATOM     89  C   UNL A   1      46.370  22.320  34.634  1.00  0.00     0.200 A 
ATOM     90  F   UNL A   1      48.400  23.509  34.460  1.00  0.00    -0.200 F 
ATOM     91  F   UNL A   1      46.971  21.365  35.355  1.00  0.00    -0.200 F 
ENDBRANCH  58  81
ENDBRANCH  32  33
ENDBRANCH  25  27
ENDBRANCH  24  25
ENDBRANCH  23  24
ENDBRANCH   1  23
TORSDOF 14
ENDMDL
MODEL 2
REMARK VINA RESULT:     -13.0      3.754     10.251
REMARK SMILES Cc1ccc(Nc2c(C)cccc2Cl)c(CC(=O)OCCOC(=O)c2ccc(-c3c4nc(c(-c5c(F)c(F)c(F)c(F)c5F)c5ccc([nH]5)c(-c5c(F)c(F)c(F)c(F)c5F)c5nc(c(-c6c(F)c(F)c(F)c(F)c6F)c6ccc3[nH]6)C=C5)C=C4)cc2)c1
REMARK SMILES IDX 20 1 19 2 17 3 18 4 16 5 15 6 1 7 2 8 3 9 88 10 4 11 5 12
REMARK SMILES IDX 6 13 7 15 8 16 13 17 9 18 10 19 12 20 14 21 11 22 21 23
REMARK SMILES IDX 22 24 23 25 24 26 25 27 26 28 87 29 27 30 86 31 28 32 29 33
REMARK SMILES IDX 30 34 80 35 31 36 85 37 79 38 81 39 32 40 84 41 78 42 77 43
REMARK SMILES IDX 33 45 65 46 45 47 64 48 46 49 49 50 63 51 82 52 47 53 48 54
REMARK SMILES IDX 62 56 83 57 50 58 34 59 35 60 43 61 36 62 37 63 41 64 44 65
REMARK SMILES IDX 38 66 39 67 42 68 40 69 66 70 67 71 75 72 68 73 69 74 73 75
REMARK SMILES IDX 76 76 70 77 71 78 74 79 72 80 51 81 52 82 60 83 53 84 54 85
REMARK SMILES IDX 58 86 61 87 55 88 56 89 59 90 57 91
REMARK H PARENT 6 14 81 44 49 55
REMARK Flexibility Score: inf
ROOT
ATOM      1  C   UNL A   1      36.498  23.219  26.127  1.00  0.00     0.274 C 
ENDROOT
BRANCH   1   2
ATOM      2  O   UNL A   1      35.714  22.582  25.130  1.00  0.00    -0.462 OA
BRANCH   2   3
ATOM      3  C   UNL A   1      34.409  22.316  25.418  1.00  0.00     0.310 C 
ATOM      4  O   UNL A   1      33.630  21.730  24.706  1.00  0.00    -0.252 OA
BRANCH   3   5
ATOM      5  C   UNL A   1      34.096  22.891  26.786  1.00  0.00     0.160 C 
BRANCH   5   6
ATOM      6  C   UNL A   1      32.784  23.623  26.716  1.00  0.00    -0.013 A 
ATOM      7  C   UNL A   1      29.187  22.511  27.226  1.00  0.00     0.044 C 
ATOM      8  C   UNL A   1      30.373  23.357  26.887  1.00  0.00    -0.051 A 
ATOM      9  C   UNL A   1      30.217  24.599  26.269  1.00  0.00     0.005 A 
ATOM     10  C   UNL A   1      31.658  22.887  27.126  1.00  0.00     0.009 A 
ATOM     11  C   UNL A   1      31.331  25.356  25.895  1.00  0.00     0.026 A 
ATOM     12  C   UNL A   1      32.633  24.884  26.093  1.00  0.00     0.042 A 
BRANCH  12  13
ATOM     13  N   UNL A   1      33.730  25.636  25.632  1.00  0.00    -0.354 N 
ATOM     14  H   UNL A   1      34.603  25.363  25.997  1.00  0.00     0.167 HD
BRANCH  13  15
ATOM     15  C   UNL A   1      33.776  26.725  24.725  1.00  0.00     0.060 A 
ATOM     16  C   UNL A   1      33.692  26.493  23.337  1.00  0.00    -0.026 A 
ATOM     17  C   UNL A   1      33.686  28.058  25.179  1.00  0.00     0.064 A 
ATOM     18  C   UNL A   1      33.815  25.108  22.765  1.00  0.00     0.046 C 
ATOM     19  C   UNL A   1      33.541  27.580  22.456  1.00  0.00     0.005 A 
ATOM     20  C   UNL A   1      33.455  29.119  24.300  1.00  0.00     0.023 A 
ATOM     21  Cl  UNL A   1      34.020  28.479  26.816  1.00  0.00    -0.082 Cl
ATOM     22  C   UNL A   1      33.390  28.879  22.935  1.00  0.00     0.002 A 
ENDBRANCH  13  15
ENDBRANCH  12  13
ENDBRANCH   5   6
ENDBRANCH   3   5
ENDBRANCH   2   3
ENDBRANCH   1   2
BRANCH   1  23
ATOM     23  C   UNL A   1      37.988  23.043  25.791  1.00  0.00     0.275 C 
BRANCH  23  24
ATOM     24  O   UNL A   1      38.917  24.146  26.120  1.00  0.00    -0.458 OA
BRANCH  24  25
ATOM     25  C   UNL A   1      39.698  24.352  27.220  1.00  0.00     0.338 C 
ATOM     26  O   UNL A   1      40.341  23.459  27.754  1.00  0.00    -0.246 OA
BRANCH  25  27
ATOM     27  C   UNL A   1      39.820  25.733  27.702  1.00  0.00     0.060 A 
ATOM     28  C   UNL A   1      40.158  26.800  26.849  1.00  0.00     0.016 A 
ATOM     29  C   UNL A   1      39.404  25.967  28.992  1.00  0.00     0.016 A 
ATOM     30  C   UNL A   1      39.921  28.107  27.275  1.00  0.00     0.010 A 
ATOM     31  C   UNL A   1      38.863  27.183  29.265  1.00  0.00     0.010 A 
ATOM     32  C   UNL A   1      39.232  28.276  28.477  1.00  0.00    -0.014 A 
BRANCH  32  33
ATOM     33  C   UNL A   1      39.143  29.513  29.230  1.00  0.00     0.031 A 
ATOM     34  C   UNL A   1      38.113  30.520  28.977  1.00  0.00     0.074 A 
ATOM     35  C   UNL A   1      40.032  29.554  30.252  1.00  0.00     0.049 A 
ATOM     36  N   UNL A   1      38.341  31.786  29.007  1.00  0.00    -0.248 NA
ATOM     37  C   UNL A   1      36.724  30.191  28.667  1.00  0.00     0.031 C 
ATOM     38  C   UNL A   1      40.169  30.454  31.375  1.00  0.00     0.029 A 
ATOM     39  N   UNL A   1      41.132  28.680  30.394  1.00  0.00    -0.354 N 
ATOM     40  C   UNL A   1      37.109  32.397  29.094  1.00  0.00     0.074 A 
ATOM     41  C   UNL A   1      36.146  31.399  28.695  1.00  0.00     0.031 C 
ATOM     42  C   UNL A   1      41.420  30.321  31.867  1.00  0.00     0.029 A 
ATOM     43  C   UNL A   1      42.153  29.396  31.004  1.00  0.00     0.049 A 
ATOM     44  H   UNL A   1      41.168  27.738  30.111  1.00  0.00     0.167 HD
ATOM     45  C   UNL A   1      36.995  33.583  29.757  1.00  0.00     0.037 A 
ATOM     46  C   UNL A   1      43.259  29.652  30.248  1.00  0.00     0.037 A 
ATOM     47  C   UNL A   1      38.271  33.929  30.378  1.00  0.00     0.049 A 
ATOM     48  C   UNL A   1      43.337  31.120  29.937  1.00  0.00     0.074 A 
ATOM     49  C   UNL A   1      38.743  33.702  31.662  1.00  0.00     0.029 A 
ATOM     50  N   UNL A   1      39.390  34.173  29.588  1.00  0.00    -0.354 N 
ATOM     51  N   UNL A   1      42.297  31.908  29.898  1.00  0.00    -0.248 NA
ATOM     52  C   UNL A   1      44.591  31.821  29.702  1.00  0.00     0.031 C 
ATOM     53  C   UNL A   1      40.156  33.757  31.630  1.00  0.00     0.029 A 
ATOM     54  C   UNL A   1      40.548  34.018  30.330  1.00  0.00     0.049 A 
ATOM     55  H   UNL A   1      39.361  34.423  28.635  1.00  0.00     0.167 HD
ATOM     56  C   UNL A   1      42.716  33.196  29.723  1.00  0.00     0.074 A 
ATOM     57  C   UNL A   1      44.158  33.089  29.585  1.00  0.00     0.031 C 
ATOM     58  C   UNL A   1      41.853  34.253  29.737  1.00  0.00     0.037 A 
BRANCH  45  59
ATOM     59  C   UNL A   1      35.672  34.194  30.150  1.00  0.00     0.064 A 
ATOM     60  C   UNL A   1      34.821  34.792  29.196  1.00  0.00     0.173 A 
ATOM     61  C   UNL A   1      35.185  34.200  31.471  1.00  0.00     0.173 A 
ATOM     62  F   UNL A   1      35.126  34.810  27.893  1.00  0.00    -0.203 F 
ATOM     63  C   UNL A   1      33.617  35.410  29.542  1.00  0.00     0.198 A 
ATOM     64  C   UNL A   1      33.990  34.843  31.822  1.00  0.00     0.198 A 
ATOM     65  F   UNL A   1      35.848  33.566  32.450  1.00  0.00    -0.203 F 
ATOM     66  F   UNL A   1      32.860  35.970  28.588  1.00  0.00    -0.200 F 
ATOM     67  C   UNL A   1      33.209  35.451  30.858  1.00  0.00     0.200 A 
ATOM     68  F   UNL A   1      33.597  34.869  33.105  1.00  0.00    -0.200 F 
ATOM     69  F   UNL A   1      32.063  36.061  31.191  1.00  0.00    -0.200 F 
ENDBRANCH  45  59
BRANCH  46  70
ATOM     70  C   UNL A   1      43.628  28.529  29.317  1.00  0.00     0.064 A 
ATOM     71  C   UNL A   1      43.869  27.251  29.876  1.00  0.00     0.173 A 
ATOM     72  C   UNL A   1      43.461  28.580  27.928  1.00  0.00     0.173 A 
ATOM     73  F   UNL A   1      44.032  27.120  31.203  1.00  0.00    -0.203 F 
ATOM     74  C   UNL A   1      43.842  26.086  29.105  1.00  0.00     0.198 A 
ATOM     75  C   UNL A   1      43.459  27.410  27.152  1.00  0.00     0.198 A 
ATOM     76  F   UNL A   1      43.221  29.748  27.315  1.00  0.00    -0.203 F 
ATOM     77  F   UNL A   1      43.962  24.889  29.698  1.00  0.00    -0.200 F 
ATOM     78  C   UNL A   1      43.621  26.166  27.745  1.00  0.00     0.200 A 
ATOM     79  F   UNL A   1      43.230  27.483  25.831  1.00  0.00    -0.200 F 
ATOM     80  F   UNL A   1      43.528  25.046  27.013  1.00  0.00    -0.200 F 
ENDBRANCH  46  70
BRANCH  58  81
ATOM     81  C   UNL A   1      42.186  35.653  29.307  1.00  0.00     0.064 A 
ATOM     82  C   UNL A   1      43.049  36.492  30.024  1.00  0.00     0.173 A 
ATOM     83  C   UNL A   1      41.766  36.133  28.042  1.00  0.00     0.173 A 
ATOM     84  F   UNL A   1      43.613  36.097  31.174  1.00  0.00    -0.203 F 
ATOM     85  C   UNL A   1      43.410  37.751  29.547  1.00  0.00     0.198 A 
ATOM     86  C   UNL A   1      42.191  37.356  27.536  1.00  0.00     0.198 A 
ATOM     87  F   UNL A   1      40.958  35.417  27.245  1.00  0.00    -0.203 F 
ATOM     88  F   UNL A   1      44.192  38.541  30.294  1.00  0.00    -0.200 F 
ATOM     89  C   UNL A   1      42.995  38.175  28.298  1.00  0.00     0.200 A 
ATOM     90  F   UNL A   1      41.831  37.721  26.298  1.00  0.00    -0.200 F 
ATOM     91  F   UNL A   1      43.389  39.362  27.821  1.00  0.00    -0.200 F 
ENDBRANCH  58  81
ENDBRANCH  32  33
ENDBRANCH  25  27
ENDBRANCH  24  25
ENDBRANCH  23  24
ENDBRANCH   1  23
TORSDOF 14
ENDMDL
MODEL 3
REMARK VINA RESULT:     -12.9      3.782     10.047
REMARK SMILES Cc1ccc(Nc2c(C)cccc2Cl)c(CC(=O)OCCOC(=O)c2ccc(-c3c4nc(c(-c5c(F)c(F)c(F)c(F)c5F)c5ccc([nH]5)c(-c5c(F)c(F)c(F)c(F)c5F)c5nc(c(-c6c(F)c(F)c(F)c(F)c6F)c6ccc3[nH]6)C=C5)C=C4)cc2)c1
REMARK SMILES IDX 20 1 19 2 17 3 18 4 16 5 15 6 1 7 2 8 3 9 88 10 4 11 5 12
REMARK SMILES IDX 6 13 7 15 8 16 13 17 9 18 10 19 12 20 14 21 11 22 21 23
REMARK SMILES IDX 22 24 23 25 24 26 25 27 26 28 87 29 27 30 86 31 28 32 29 33
REMARK SMILES IDX 30 34 80 35 31 36 85 37 79 38 81 39 32 40 84 41 78 42 77 43
REMARK SMILES IDX 33 45 65 46 45 47 64 48 46 49 49 50 63 51 82 52 47 53 48 54
REMARK SMILES IDX 62 56 83 57 50 58 34 59 35 60 43 61 36 62 37 63 41 64 44 65
REMARK SMILES IDX 38 66 39 67 42 68 40 69 66 70 67 71 75 72 68 73 69 74 73 75
REMARK SMILES IDX 76 76 70 77 71 78 74 79 72 80 51 81 52 82 60 83 53 84 54 85
REMARK SMILES IDX 58 86 61 87 55 88 56 89 59 90 57 91
REMARK H PARENT 6 14 81 44 49 55
REMARK Flexibility Score: inf
ROOT
ATOM      1  C   UNL A   1      36.885  22.553  25.327  1.00  0.00     0.274 C 
ENDROOT
BRANCH   1   2
ATOM      2  O   UNL A   1      36.644  23.700  24.526  1.00  0.00    -0.462 OA
BRANCH   2   3
ATOM      3  C   UNL A   1      35.373  24.187  24.475  1.00  0.00     0.310 C 
ATOM      4  O   UNL A   1      34.699  24.308  23.480  1.00  0.00    -0.252 OA
BRANCH   3   5
ATOM      5  C   UNL A   1      34.948  24.562  25.881  1.00  0.00     0.160 C 
BRANCH   5   6
ATOM      6  C   UNL A   1      33.693  25.387  25.805  1.00  0.00    -0.013 A 
ATOM      7  C   UNL A   1      33.079  29.136  25.721  1.00  0.00     0.044 C 
ATOM      8  C   UNL A   1      32.833  27.662  25.790  1.00  0.00    -0.051 A 
ATOM      9  C   UNL A   1      31.563  27.158  26.073  1.00  0.00     0.005 A 
ATOM     10  C   UNL A   1      33.887  26.769  25.637  1.00  0.00     0.009 A 
ATOM     11  C   UNL A   1      31.353  25.781  26.201  1.00  0.00     0.026 A 
ATOM     12  C   UNL A   1      32.407  24.869  26.087  1.00  0.00     0.042 A 
BRANCH  12  13
ATOM     13  N   UNL A   1      32.174  23.497  26.302  1.00  0.00    -0.354 N 
ATOM     14  H   UNL A   1      31.663  23.286  27.117  1.00  0.00     0.167 HD
BRANCH  13  15
ATOM     15  C   UNL A   1      32.559  22.372  25.529  1.00  0.00     0.060 A 
ATOM     16  C   UNL A   1      33.307  21.332  26.117  1.00  0.00    -0.026 A 
ATOM     17  C   UNL A   1      32.030  22.158  24.238  1.00  0.00     0.064 A 
ATOM     18  C   UNL A   1      33.937  21.490  27.473  1.00  0.00     0.046 C 
ATOM     19  C   UNL A   1      33.516  20.136  25.407  1.00  0.00     0.005 A 
ATOM     20  C   UNL A   1      32.178  20.936  23.578  1.00  0.00     0.023 A 
ATOM     21  Cl  UNL A   1      31.317  23.437  23.330  1.00  0.00    -0.082 Cl
ATOM     22  C   UNL A   1      32.930  19.926  24.161  1.00  0.00     0.002 A 
ENDBRANCH  13  15
ENDBRANCH  12  13
ENDBRANCH   5   6
ENDBRANCH   3   5
ENDBRANCH   2   3
ENDBRANCH   1   2
BRANCH   1  23
ATOM     23  C   UNL A   1      38.301  22.634  25.919  1.00  0.00     0.275 C 
BRANCH  23  24
ATOM     24  O   UNL A   1      38.744  23.918  26.505  1.00  0.00    -0.458 OA
BRANCH  24  25
ATOM     25  C   UNL A   1      39.988  24.351  26.859  1.00  0.00     0.338 C 
ATOM     26  O   UNL A   1      40.999  23.687  26.678  1.00  0.00    -0.246 OA
BRANCH  25  27
ATOM     27  C   UNL A   1      40.093  25.714  27.395  1.00  0.00     0.060 A 
ATOM     28  C   UNL A   1      40.443  26.814  26.590  1.00  0.00     0.016 A 
ATOM     29  C   UNL A   1      39.647  25.898  28.683  1.00  0.00     0.016 A 
ATOM     30  C   UNL A   1      40.190  28.103  27.058  1.00  0.00     0.010 A 
ATOM     31  C   UNL A   1      39.094  27.101  28.989  1.00  0.00     0.010 A 
ATOM     32  C   UNL A   1      39.474  28.224  28.250  1.00  0.00    -0.014 A 
BRANCH  32  33
ATOM     33  C   UNL A   1      39.362  29.432  29.047  1.00  0.00     0.031 A 
ATOM     34  C   UNL A   1      38.311  30.426  28.831  1.00  0.00     0.074 A 
ATOM     35  C   UNL A   1      40.252  29.455  30.068  1.00  0.00     0.049 A 
ATOM     36  N   UNL A   1      38.514  31.695  28.905  1.00  0.00    -0.248 NA
ATOM     37  C   UNL A   1      36.929  30.080  28.512  1.00  0.00     0.031 C 
ATOM     38  C   UNL A   1      40.374  30.318  31.221  1.00  0.00     0.029 A 
ATOM     39  N   UNL A   1      41.370  28.599  30.177  1.00  0.00    -0.354 N 
ATOM     40  C   UNL A   1      37.269  32.277  29.016  1.00  0.00     0.074 A 
ATOM     41  C   UNL A   1      36.326  31.275  28.583  1.00  0.00     0.031 C 
ATOM     42  C   UNL A   1      41.629  30.193  31.706  1.00  0.00     0.029 A 
ATOM     43  C   UNL A   1      42.378  29.314  30.810  1.00  0.00     0.049 A 
ATOM     44  H   UNL A   1      41.424  27.669  29.861  1.00  0.00     0.167 HD
ATOM     45  C   UNL A   1      37.134  33.437  29.720  1.00  0.00     0.037 A 
ATOM     46  C   UNL A   1      43.477  29.619  30.061  1.00  0.00     0.037 A 
ATOM     47  C   UNL A   1      38.404  33.787  30.350  1.00  0.00     0.049 A 
ATOM     48  C   UNL A   1      43.524  31.098  29.801  1.00  0.00     0.074 A 
ATOM     49  C   UNL A   1      38.884  33.524  31.624  1.00  0.00     0.029 A 
ATOM     50  N   UNL A   1      39.516  34.081  29.567  1.00  0.00    -0.354 N 
ATOM     51  N   UNL A   1      42.468  31.866  29.792  1.00  0.00    -0.248 NA
ATOM     52  C   UNL A   1      44.764  31.832  29.588  1.00  0.00     0.031 C 
ATOM     53  C   UNL A   1      40.296  33.609  31.592  1.00  0.00     0.029 A 
ATOM     54  C   UNL A   1      40.678  33.923  30.301  1.00  0.00     0.049 A 
ATOM     55  H   UNL A   1      39.480  34.364  28.624  1.00  0.00     0.167 HD
ATOM     56  C   UNL A   1      42.861  33.167  29.662  1.00  0.00     0.074 A 
ATOM     57  C   UNL A   1      44.305  33.094  29.518  1.00  0.00     0.031 C 
ATOM     58  C   UNL A   1      41.977  34.205  29.714  1.00  0.00     0.037 A 
BRANCH  45  59
ATOM     59  C   UNL A   1      35.800  34.006  30.137  1.00  0.00     0.064 A 
ATOM     60  C   UNL A   1      34.920  34.592  29.200  1.00  0.00     0.173 A 
ATOM     61  C   UNL A   1      35.330  33.985  31.464  1.00  0.00     0.173 A 
ATOM     62  F   UNL A   1      35.208  34.632  27.894  1.00  0.00    -0.203 F 
ATOM     63  C   UNL A   1      33.704  35.172  29.569  1.00  0.00     0.198 A 
ATOM     64  C   UNL A   1      34.123  34.591  31.838  1.00  0.00     0.198 A 
ATOM     65  F   UNL A   1      36.023  33.359  32.428  1.00  0.00    -0.203 F 
ATOM     66  F   UNL A   1      32.920  35.721  28.631  1.00  0.00    -0.200 F 
ATOM     67  C   UNL A   1      33.313  35.188  30.890  1.00  0.00     0.200 A 
ATOM     68  F   UNL A   1      33.746  34.592  33.125  1.00  0.00    -0.200 F 
ATOM     69  F   UNL A   1      32.155  35.762  31.245  1.00  0.00    -0.200 F 
ENDBRANCH  45  59
BRANCH  46  70
ATOM     70  C   UNL A   1      43.866  28.536  29.091  1.00  0.00     0.064 A 
ATOM     71  C   UNL A   1      44.128  27.243  29.602  1.00  0.00     0.173 A 
ATOM     72  C   UNL A   1      43.700  28.636  27.703  1.00  0.00     0.173 A 
ATOM     73  F   UNL A   1      44.291  27.067  30.924  1.00  0.00    -0.203 F 
ATOM     74  C   UNL A   1      44.121  26.107  28.790  1.00  0.00     0.198 A 
ATOM     75  C   UNL A   1      43.719  27.495  26.886  1.00  0.00     0.198 A 
ATOM     76  F   UNL A   1      43.441  29.821  27.133  1.00  0.00    -0.203 F 
ATOM     77  F   UNL A   1      44.261  24.891  29.339  1.00  0.00    -0.200 F 
ATOM     78  C   UNL A   1      43.901  26.233  27.433  1.00  0.00     0.200 A 
ATOM     79  F   UNL A   1      43.490  27.611  25.568  1.00  0.00    -0.200 F 
ATOM     80  F   UNL A   1      43.828  25.139  26.661  1.00  0.00    -0.200 F 
ENDBRANCH  46  70
BRANCH  58  81
ATOM     81  C   UNL A   1      42.280  35.626  29.334  1.00  0.00     0.064 A 
ATOM     82  C   UNL A   1      43.146  36.450  30.065  1.00  0.00     0.173 A 
ATOM     83  C   UNL A   1      41.828  36.149  28.097  1.00  0.00     0.173 A 
ATOM     84  F   UNL A   1      43.740  36.018  31.187  1.00  0.00    -0.203 F 
ATOM     85  C   UNL A   1      43.479  37.732  29.630  1.00  0.00     0.198 A 
ATOM     86  C   UNL A   1      42.224  37.396  27.630  1.00  0.00     0.198 A 
ATOM     87  F   UNL A   1      41.013  35.452  27.289  1.00  0.00    -0.203 F 
ATOM     88  F   UNL A   1      44.264  38.503  30.392  1.00  0.00    -0.200 F 
ATOM     89  C   UNL A   1      43.032  38.197  28.408  1.00  0.00     0.200 A 
ATOM     90  F   UNL A   1      41.833  37.805  26.415  1.00  0.00    -0.200 F 
ATOM     91  F   UNL A   1      43.398  39.408  27.970  1.00  0.00    -0.200 F 
ENDBRANCH  58  81
ENDBRANCH  32  33
ENDBRANCH  25  27
ENDBRANCH  24  25
ENDBRANCH  23  24
ENDBRANCH   1  23
TORSDOF 14
ENDMDL
