MODEL 1
REMARK VINA RESULT:     -12.8      0.000      0.000
REMARK SMILES COc1ccc(S(=O)(=O)N(Cc2ccccc2)c2ccccc2C(=O)OCCOC(=O)c2ccc(-c3c4nc(c(-c5c(F)c(F)c(F)c(F)c5F)c5ccc([nH]5)c(-c5c(F)c(F)c(F)c(F)c5F)c5nc(c(-c6c(F)c(F)c(F)c(F)c6F)c6ccc3[nH]6)C=C5)C=C4)cc2)cc1
REMARK SMILES IDX 27 1 26 2 24 3 25 4 23 5 18 6 19 7 20 8 22 9 21 10 10 11
REMARK SMILES IDX 7 12 8 13 9 14 6 15 3 16 4 17 96 18 5 19 95 20 2 21 1 22
REMARK SMILES IDX 11 23 12 24 13 25 17 26 14 27 16 28 15 29 28 30 29 31 30 32
REMARK SMILES IDX 31 33 32 34 33 35 94 36 34 37 93 38 35 39 36 40 37 41 87 42
REMARK SMILES IDX 38 43 92 44 86 45 88 46 39 47 91 48 85 49 84 50 40 52 72 53
REMARK SMILES IDX 52 54 71 55 53 56 56 57 70 58 89 59 54 60 55 61 69 63 90 64
REMARK SMILES IDX 57 65 41 66 42 67 50 68 43 69 44 70 48 71 51 72 45 73 46 74
REMARK SMILES IDX 49 75 47 76 73 77 74 78 82 79 75 80 76 81 80 82 83 83 77 84
REMARK SMILES IDX 78 85 81 86 79 87 58 88 59 89 67 90 60 91 61 92 65 93 68 94
REMARK SMILES IDX 62 95 63 96 66 97 64 98
REMARK H PARENT 88 51 56 62
REMARK Flexibility Score: inf
ROOT
ATOM      1  C   UNL A   1      32.392  28.606  25.366  1.00  0.00     0.275 C 
ENDROOT
BRANCH   1   2
ATOM      2  O   UNL A   1      32.737  27.628  26.369  1.00  0.00    -0.458 OA
BRANCH   2   3
ATOM      3  C   UNL A   1      32.282  26.374  26.120  1.00  0.00     0.340 C 
ATOM      4  O   UNL A   1      31.168  25.946  26.390  1.00  0.00    -0.246 OA
BRANCH   3   5
ATOM      5  C   UNL A   1      33.249  25.561  25.345  1.00  0.00     0.084 A 
ATOM      6  C   UNL A   1      33.102  25.177  24.003  1.00  0.00     0.067 A 
ATOM      7  C   UNL A   1      34.182  24.489  23.412  1.00  0.00     0.028 A 
ATOM      8  C   UNL A   1      35.304  24.075  24.136  1.00  0.00     0.002 A 
ATOM      9  C   UNL A   1      34.422  25.192  26.049  1.00  0.00     0.018 A 
ATOM     10  C   UNL A   1      35.415  24.411  25.470  1.00  0.00     0.001 A 
BRANCH   6  11
ATOM     11  N   UNL A   1      31.888  25.396  23.215  1.00  0.00    -0.261 N 
BRANCH  11  12
ATOM     12  S   UNL A   1      31.902  26.636  22.037  1.00  0.00     0.264 S 
ATOM     13  O   UNL A   1      31.666  26.079  20.723  1.00  0.00    -0.201 OA
ATOM     14  O   UNL A   1      33.085  27.448  22.238  1.00  0.00    -0.201 OA
BRANCH  12  15
ATOM     15  C   UNL A   1      30.497  27.697  22.389  1.00  0.00     0.088 A 
ATOM     16  C   UNL A   1      28.331  29.372  23.010  1.00  0.00     0.118 A 
ATOM     17  C   UNL A   1      28.358  28.053  23.467  1.00  0.00     0.048 A 
ATOM     18  C   UNL A   1      29.417  29.872  22.295  1.00  0.00     0.048 A 
ATOM     19  C   UNL A   1      29.428  27.209  23.146  1.00  0.00     0.026 A 
ATOM     20  C   UNL A   1      30.514  29.048  22.022  1.00  0.00     0.026 A 
BRANCH  16  21
ATOM     21  O   UNL A   1      27.255  30.121  23.401  1.00  0.00    -0.497 OA
ATOM     22  C   UNL A   1      27.524  31.502  23.623  1.00  0.00     0.278 C 
ENDBRANCH  16  21
ENDBRANCH  12  15
ENDBRANCH  11  12
BRANCH  11  23
ATOM     23  C   UNL A   1      30.944  24.241  23.149  1.00  0.00     0.171 C 
BRANCH  23  24
ATOM     24  C   UNL A   1      31.394  22.854  23.590  1.00  0.00    -0.027 A 
ATOM     25  C   UNL A   1      31.887  21.874  22.717  1.00  0.00     0.005 A 
ATOM     26  C   UNL A   1      31.352  22.529  24.958  1.00  0.00     0.005 A 
ATOM     27  C   UNL A   1      32.403  20.663  23.182  1.00  0.00     0.000 A 
ATOM     28  C   UNL A   1      31.851  21.307  25.427  1.00  0.00     0.000 A 
ATOM     29  C   UNL A   1      32.393  20.382  24.540  1.00  0.00     0.000 A 
ENDBRANCH  23  24
ENDBRANCH  11  23
ENDBRANCH   6  11
ENDBRANCH   3   5
ENDBRANCH   2   3
ENDBRANCH   1   2
BRANCH   1  30
ATOM     30  C   UNL A   1      31.789  29.867  25.976  1.00  0.00     0.275 C 
BRANCH  30  31
ATOM     31  O   UNL A   1      32.429  30.164  27.226  1.00  0.00    -0.458 OA
BRANCH  31  32
ATOM     32  C   UNL A   1      33.074  31.350  27.278  1.00  0.00     0.338 C 
ATOM     33  O   UNL A   1      32.625  32.463  27.070  1.00  0.00    -0.246 OA
BRANCH  32  34
ATOM     34  C   UNL A   1      34.450  31.124  27.737  1.00  0.00     0.060 A 
ATOM     35  C   UNL A   1      34.824  29.820  28.040  1.00  0.00     0.016 A 
ATOM     36  C   UNL A   1      35.303  32.184  28.022  1.00  0.00     0.016 A 
ATOM     37  C   UNL A   1      36.006  29.562  28.719  1.00  0.00     0.010 A 
ATOM     38  C   UNL A   1      36.541  31.915  28.617  1.00  0.00     0.010 A 
ATOM     39  C   UNL A   1      36.888  30.607  29.012  1.00  0.00    -0.014 A 
BRANCH  39  40
ATOM     40  C   UNL A   1      38.131  30.352  29.791  1.00  0.00     0.031 A 
ATOM     41  C   UNL A   1      39.211  29.492  29.193  1.00  0.00     0.074 A 
ATOM     42  C   UNL A   1      38.306  30.885  31.016  1.00  0.00     0.049 A 
ATOM     43  N   UNL A   1      40.232  28.916  29.773  1.00  0.00    -0.248 NA
ATOM     44  C   UNL A   1      39.114  29.228  27.748  1.00  0.00     0.031 C 
ATOM     45  C   UNL A   1      37.384  31.803  31.686  1.00  0.00     0.029 A 
ATOM     46  N   UNL A   1      39.328  30.726  31.921  1.00  0.00    -0.354 N 
ATOM     47  C   UNL A   1      40.848  28.158  28.785  1.00  0.00     0.074 A 
ATOM     48  C   UNL A   1      40.096  28.358  27.566  1.00  0.00     0.031 C 
ATOM     49  C   UNL A   1      37.889  32.141  32.881  1.00  0.00     0.029 A 
ATOM     50  C   UNL A   1      39.114  31.383  33.108  1.00  0.00     0.049 A 
ATOM     51  H   UNL A   1      40.135  30.192  31.737  1.00  0.00     0.167 HD
ATOM     52  C   UNL A   1      41.937  27.360  28.897  1.00  0.00     0.037 A 
ATOM     53  C   UNL A   1      39.789  31.332  34.272  1.00  0.00     0.037 A 
ATOM     54  C   UNL A   1      42.717  27.230  30.100  1.00  0.00     0.049 A 
ATOM     55  C   UNL A   1      40.979  30.422  34.384  1.00  0.00     0.074 A 
ATOM     56  C   UNL A   1      43.851  26.468  30.319  1.00  0.00     0.029 A 
ATOM     57  N   UNL A   1      42.452  27.903  31.285  1.00  0.00    -0.354 N 
ATOM     58  N   UNL A   1      41.509  29.641  33.474  1.00  0.00    -0.248 NA
ATOM     59  C   UNL A   1      41.648  30.365  35.690  1.00  0.00     0.031 C 
ATOM     60  C   UNL A   1      44.251  26.652  31.646  1.00  0.00     0.029 A 
ATOM     61  C   UNL A   1      43.395  27.564  32.241  1.00  0.00     0.049 A 
ATOM     62  H   UNL A   1      41.706  28.529  31.424  1.00  0.00     0.167 HD
ATOM     63  C   UNL A   1      42.578  29.007  34.092  1.00  0.00     0.074 A 
ATOM     64  C   UNL A   1      42.633  29.510  35.449  1.00  0.00     0.031 C 
ATOM     65  C   UNL A   1      43.433  28.085  33.584  1.00  0.00     0.037 A 
BRANCH  52  66
ATOM     66  C   UNL A   1      42.317  26.526  27.708  1.00  0.00     0.064 A 
ATOM     67  C   UNL A   1      43.326  26.910  26.814  1.00  0.00     0.173 A 
ATOM     68  C   UNL A   1      41.669  25.302  27.477  1.00  0.00     0.173 A 
ATOM     69  F   UNL A   1      43.966  28.077  26.979  1.00  0.00    -0.203 F 
ATOM     70  C   UNL A   1      43.653  26.114  25.718  1.00  0.00     0.198 A 
ATOM     71  C   UNL A   1      42.018  24.494  26.398  1.00  0.00     0.198 A 
ATOM     72  F   UNL A   1      40.698  24.883  28.303  1.00  0.00    -0.203 F 
ATOM     73  F   UNL A   1      44.588  26.524  24.848  1.00  0.00    -0.200 F 
ATOM     74  C   UNL A   1      43.005  24.904  25.515  1.00  0.00     0.200 A 
ATOM     75  F   UNL A   1      41.398  23.320  26.211  1.00  0.00    -0.200 F 
ATOM     76  F   UNL A   1      43.325  24.137  24.463  1.00  0.00    -0.200 F 
ENDBRANCH  52  66
BRANCH  53  77
ATOM     77  C   UNL A   1      39.309  32.121  35.439  1.00  0.00     0.064 A 
ATOM     78  C   UNL A   1      38.473  31.546  36.405  1.00  0.00     0.173 A 
ATOM     79  C   UNL A   1      39.692  33.459  35.620  1.00  0.00     0.173 A 
ATOM     80  F   UNL A   1      38.056  30.280  36.263  1.00  0.00    -0.203 F 
ATOM     81  C   UNL A   1      38.036  32.280  37.506  1.00  0.00     0.198 A 
ATOM     82  C   UNL A   1      39.281  34.182  36.738  1.00  0.00     0.198 A 
ATOM     83  F   UNL A   1      40.488  34.058  34.722  1.00  0.00    -0.203 F 
ATOM     84  F   UNL A   1      37.208  31.719  38.397  1.00  0.00    -0.200 F 
ATOM     85  C   UNL A   1      38.449  33.594  37.678  1.00  0.00     0.200 A 
ATOM     86  F   UNL A   1      39.695  35.445  36.905  1.00  0.00    -0.200 F 
ATOM     87  F   UNL A   1      38.040  34.294  38.744  1.00  0.00    -0.200 F 
ENDBRANCH  53  77
BRANCH  65  88
ATOM     88  C   UNL A   1      44.519  27.591  34.491  1.00  0.00     0.064 A 
ATOM     89  C   UNL A   1      45.743  28.265  34.605  1.00  0.00     0.173 A 
ATOM     90  C   UNL A   1      44.316  26.451  35.282  1.00  0.00     0.173 A 
ATOM     91  F   UNL A   1      45.989  29.350  33.855  1.00  0.00    -0.203 F 
ATOM     92  C   UNL A   1      46.734  27.803  35.466  1.00  0.00     0.198 A 
ATOM     93  C   UNL A   1      45.299  26.007  36.162  1.00  0.00     0.198 A 
ATOM     94  F   UNL A   1      43.160  25.775  35.211  1.00  0.00    -0.203 F 
ATOM     95  F   UNL A   1      47.912  28.438  35.530  1.00  0.00    -0.200 F 
ATOM     96  C   UNL A   1      46.508  26.679  36.248  1.00  0.00     0.200 A 
ATOM     97  F   UNL A   1      45.076  24.928  36.924  1.00  0.00    -0.200 F 
ATOM     98  F   UNL A   1      47.462  26.240  37.082  1.00  0.00    -0.200 F 
ENDBRANCH  65  88
ENDBRANCH  39  40
ENDBRANCH  32  34
ENDBRANCH  31  32
ENDBRANCH  30  31
ENDBRANCH   1  30
TORSDOF 17
ENDMDL
MODEL 2
REMARK VINA RESULT:     -12.6      1.425      3.762
REMARK SMILES COc1ccc(S(=O)(=O)N(Cc2ccccc2)c2ccccc2C(=O)OCCOC(=O)c2ccc(-c3c4nc(c(-c5c(F)c(F)c(F)c(F)c5F)c5ccc([nH]5)c(-c5c(F)c(F)c(F)c(F)c5F)c5nc(c(-c6c(F)c(F)c(F)c(F)c6F)c6ccc3[nH]6)C=C5)C=C4)cc2)cc1
REMARK SMILES IDX 27 1 26 2 24 3 25 4 23 5 18 6 19 7 20 8 22 9 21 10 10 11
REMARK SMILES IDX 7 12 8 13 9 14 6 15 3 16 4 17 96 18 5 19 95 20 2 21 1 22
REMARK SMILES IDX 11 23 12 24 13 25 17 26 14 27 16 28 15 29 28 30 29 31 30 32
REMARK SMILES IDX 31 33 32 34 33 35 94 36 34 37 93 38 35 39 36 40 37 41 87 42
REMARK SMILES IDX 38 43 92 44 86 45 88 46 39 47 91 48 85 49 84 50 40 52 72 53
REMARK SMILES IDX 52 54 71 55 53 56 56 57 70 58 89 59 54 60 55 61 69 63 90 64
REMARK SMILES IDX 57 65 41 66 42 67 50 68 43 69 44 70 48 71 51 72 45 73 46 74
REMARK SMILES IDX 49 75 47 76 73 77 74 78 82 79 75 80 76 81 80 82 83 83 77 84
REMARK SMILES IDX 78 85 81 86 79 87 58 88 59 89 67 90 60 91 61 92 65 93 68 94
REMARK SMILES IDX 62 95 63 96 66 97 64 98
REMARK H PARENT 88 51 56 62
REMARK Flexibility Score: inf
ROOT
ATOM      1  C   UNL A   1      31.323  29.789  24.984  1.00  0.00     0.275 C 
ENDROOT
BRANCH   1   2
ATOM      2  O   UNL A   1      32.185  28.634  25.067  1.00  0.00    -0.458 OA
BRANCH   2   3
ATOM      3  C   UNL A   1      31.537  27.442  25.099  1.00  0.00     0.340 C 
ATOM      4  O   UNL A   1      30.666  27.118  25.894  1.00  0.00    -0.246 OA
BRANCH   3   5
ATOM      5  C   UNL A   1      31.902  26.566  23.961  1.00  0.00     0.084 A 
ATOM      6  C   UNL A   1      32.470  25.286  24.066  1.00  0.00     0.067 A 
ATOM      7  C   UNL A   1      32.652  24.566  22.867  1.00  0.00     0.028 A 
ATOM      8  C   UNL A   1      32.413  25.121  21.607  1.00  0.00     0.002 A 
ATOM      9  C   UNL A   1      31.603  27.090  22.680  1.00  0.00     0.018 A 
ATOM     10  C   UNL A   1      31.905  26.400  21.511  1.00  0.00     0.001 A 
BRANCH   6  11
ATOM     11  N   UNL A   1      32.931  24.693  25.323  1.00  0.00    -0.261 N 
BRANCH  11  12
ATOM     12  S   UNL A   1      31.952  23.499  26.059  1.00  0.00     0.264 S 
ATOM     13  O   UNL A   1      30.565  23.699  25.700  1.00  0.00    -0.201 OA
ATOM     14  O   UNL A   1      32.297  23.425  27.464  1.00  0.00    -0.201 OA
BRANCH  12  15
ATOM     15  C   UNL A   1      32.431  21.925  25.340  1.00  0.00     0.088 A 
ATOM     16  C   UNL A   1      33.117  19.431  24.247  1.00  0.00     0.118 A 
ATOM     17  C   UNL A   1      33.412  19.724  25.580  1.00  0.00     0.048 A 
ATOM     18  C   UNL A   1      32.423  20.363  23.479  1.00  0.00     0.048 A 
ATOM     19  C   UNL A   1      33.087  20.972  26.125  1.00  0.00     0.026 A 
ATOM     20  C   UNL A   1      32.046  21.590  24.037  1.00  0.00     0.026 A 
BRANCH  16  21
ATOM     21  O   UNL A   1      33.451  18.176  23.820  1.00  0.00    -0.497 OA
ATOM     22  C   UNL A   1      32.778  17.735  22.644  1.00  0.00     0.278 C 
ENDBRANCH  16  21
ENDBRANCH  12  15
ENDBRANCH  11  12
BRANCH  11  23
ATOM     23  C   UNL A   1      34.396  24.803  25.590  1.00  0.00     0.171 C 
BRANCH  23  24
ATOM     24  C   UNL A   1      35.348  23.714  25.112  1.00  0.00    -0.027 A 
ATOM     25  C   UNL A   1      35.658  23.478  23.766  1.00  0.00     0.005 A 
ATOM     26  C   UNL A   1      35.991  22.907  26.068  1.00  0.00     0.005 A 
ATOM     27  C   UNL A   1      36.630  22.551  23.384  1.00  0.00     0.000 A 
ATOM     28  C   UNL A   1      36.952  21.962  25.688  1.00  0.00     0.000 A 
ATOM     29  C   UNL A   1      37.285  21.798  24.347  1.00  0.00     0.000 A 
ENDBRANCH  23  24
ENDBRANCH  11  23
ENDBRANCH   6  11
ENDBRANCH   3   5
ENDBRANCH   2   3
ENDBRANCH   1   2
BRANCH   1  30
ATOM     30  C   UNL A   1      31.489  30.717  26.182  1.00  0.00     0.275 C 
BRANCH  30  31
ATOM     31  O   UNL A   1      32.801  30.564  26.746  1.00  0.00    -0.458 OA
BRANCH  31  32
ATOM     32  C   UNL A   1      33.346  31.690  27.254  1.00  0.00     0.338 C 
ATOM     33  O   UNL A   1      32.829  32.784  27.393  1.00  0.00    -0.246 OA
BRANCH  32  34
ATOM     34  C   UNL A   1      34.699  31.388  27.737  1.00  0.00     0.060 A 
ATOM     35  C   UNL A   1      34.982  30.072  28.085  1.00  0.00     0.016 A 
ATOM     36  C   UNL A   1      35.619  32.396  27.999  1.00  0.00     0.016 A 
ATOM     37  C   UNL A   1      36.137  29.757  28.787  1.00  0.00     0.010 A 
ATOM     38  C   UNL A   1      36.830  32.065  28.618  1.00  0.00     0.010 A 
ATOM     39  C   UNL A   1      37.084  30.749  29.058  1.00  0.00    -0.014 A 
BRANCH  39  40
ATOM     40  C   UNL A   1      38.299  30.437  29.860  1.00  0.00     0.031 A 
ATOM     41  C   UNL A   1      39.359  29.545  29.273  1.00  0.00     0.074 A 
ATOM     42  C   UNL A   1      38.467  30.946  31.096  1.00  0.00     0.049 A 
ATOM     43  N   UNL A   1      40.345  28.923  29.866  1.00  0.00    -0.248 NA
ATOM     44  C   UNL A   1      39.285  29.306  27.822  1.00  0.00     0.031 C 
ATOM     45  C   UNL A   1      37.564  31.888  31.759  1.00  0.00     0.029 A 
ATOM     46  N   UNL A   1      39.461  30.736  32.021  1.00  0.00    -0.354 N 
ATOM     47  C   UNL A   1      40.954  28.157  28.881  1.00  0.00     0.074 A 
ATOM     48  C   UNL A   1      40.237  28.401  27.648  1.00  0.00     0.031 C 
ATOM     49  C   UNL A   1      38.055  32.190  32.970  1.00  0.00     0.029 A 
ATOM     50  C   UNL A   1      39.246  31.384  33.212  1.00  0.00     0.049 A 
ATOM     51  H   UNL A   1      40.252  30.174  31.847  1.00  0.00     0.167 HD
ATOM     52  C   UNL A   1      42.009  27.316  29.005  1.00  0.00     0.037 A 
ATOM     53  C   UNL A   1      39.892  31.291  34.390  1.00  0.00     0.037 A 
ATOM     54  C   UNL A   1      42.757  27.141  30.222  1.00  0.00     0.049 A 
ATOM     55  C   UNL A   1      41.044  30.336  34.514  1.00  0.00     0.074 A 
ATOM     56  C   UNL A   1      43.856  26.333  30.454  1.00  0.00     0.029 A 
ATOM     57  N   UNL A   1      42.491  27.807  31.411  1.00  0.00    -0.354 N 
ATOM     58  N   UNL A   1      41.566  29.548  33.605  1.00  0.00    -0.248 NA
ATOM     59  C   UNL A   1      41.682  30.235  35.833  1.00  0.00     0.031 C 
ATOM     60  C   UNL A   1      44.234  26.483  31.793  1.00  0.00     0.029 A 
ATOM     61  C   UNL A   1      43.400  27.419  32.382  1.00  0.00     0.049 A 
ATOM     62  H   UNL A   1      41.766  28.459  31.543  1.00  0.00     0.167 HD
ATOM     63  C   UNL A   1      42.595  28.865  34.236  1.00  0.00     0.074 A 
ATOM     64  C   UNL A   1      42.639  29.347  35.601  1.00  0.00     0.031 C 
ATOM     65  C   UNL A   1      43.427  27.920  33.733  1.00  0.00     0.037 A 
BRANCH  52  66
ATOM     66  C   UNL A   1      42.385  26.486  27.811  1.00  0.00     0.064 A 
ATOM     67  C   UNL A   1      41.766  25.263  27.523  1.00  0.00     0.173 A 
ATOM     68  C   UNL A   1      43.373  26.944  26.925  1.00  0.00     0.173 A 
ATOM     69  F   UNL A   1      40.826  24.771  28.345  1.00  0.00    -0.203 F 
ATOM     70  C   UNL A   1      42.140  24.515  26.408  1.00  0.00     0.198 A 
ATOM     71  C   UNL A   1      43.725  26.210  25.796  1.00  0.00     0.198 A 
ATOM     72  F   UNL A   1      43.997  28.111  27.150  1.00  0.00    -0.203 F 
ATOM     73  F   UNL A   1      41.568  23.324  26.178  1.00  0.00    -0.200 F 
ATOM     74  C   UNL A   1      43.114  24.993  25.542  1.00  0.00     0.200 A 
ATOM     75  F   UNL A   1      44.657  26.679  24.954  1.00  0.00    -0.200 F 
ATOM     76  F   UNL A   1      43.468  24.274  24.467  1.00  0.00    -0.200 F 
ENDBRANCH  52  66
BRANCH  53  77
ATOM     77  C   UNL A   1      39.416  32.081  35.558  1.00  0.00     0.064 A 
ATOM     78  C   UNL A   1      38.494  31.545  36.465  1.00  0.00     0.173 A 
ATOM     79  C   UNL A   1      39.889  33.381  35.799  1.00  0.00     0.173 A 
ATOM     80  F   UNL A   1      37.990  30.319  36.263  1.00  0.00    -0.203 F 
ATOM     81  C   UNL A   1      38.060  32.279  37.567  1.00  0.00     0.198 A 
ATOM     82  C   UNL A   1      39.479  34.101  36.919  1.00  0.00     0.198 A 
ATOM     83  F   UNL A   1      40.771  33.942  34.958  1.00  0.00    -0.203 F 
ATOM     84  F   UNL A   1      37.149  31.758  38.400  1.00  0.00    -0.200 F 
ATOM     85  C   UNL A   1      38.560  33.552  37.799  1.00  0.00     0.200 A 
ATOM     86  F   UNL A   1      39.978  35.323  37.146  1.00  0.00    -0.200 F 
ATOM     87  F   UNL A   1      38.154  34.251  38.868  1.00  0.00    -0.200 F 
ENDBRANCH  53  77
BRANCH  65  88
ATOM     88  C   UNL A   1      44.473  27.372  34.656  1.00  0.00     0.064 A 
ATOM     89  C   UNL A   1      45.717  28.000  34.810  1.00  0.00     0.173 A 
ATOM     90  C   UNL A   1      44.212  26.227  35.423  1.00  0.00     0.173 A 
ATOM     91  F   UNL A   1      46.018  29.088  34.084  1.00  0.00    -0.203 F 
ATOM     92  C   UNL A   1      46.671  27.489  35.685  1.00  0.00     0.198 A 
ATOM     93  C   UNL A   1      45.158  25.734  36.316  1.00  0.00     0.198 A 
ATOM     94  F   UNL A   1      43.035  25.594  35.313  1.00  0.00    -0.203 F 
ATOM     95  F   UNL A   1      47.869  28.081  35.787  1.00  0.00    -0.200 F 
ATOM     96  C   UNL A   1      46.387  26.362  36.442  1.00  0.00     0.200 A 
ATOM     97  F   UNL A   1      44.878  24.651  37.055  1.00  0.00    -0.200 F 
ATOM     98  F   UNL A   1      47.305  25.875  37.290  1.00  0.00    -0.200 F 
ENDBRANCH  65  88
ENDBRANCH  39  40
ENDBRANCH  32  34
ENDBRANCH  31  32
ENDBRANCH  30  31
ENDBRANCH   1  30
TORSDOF 17
ENDMDL
MODEL 3
REMARK VINA RESULT:     -12.6      4.382      9.421
REMARK SMILES COc1ccc(S(=O)(=O)N(Cc2ccccc2)c2ccccc2C(=O)OCCOC(=O)c2ccc(-c3c4nc(c(-c5c(F)c(F)c(F)c(F)c5F)c5ccc([nH]5)c(-c5c(F)c(F)c(F)c(F)c5F)c5nc(c(-c6c(F)c(F)c(F)c(F)c6F)c6ccc3[nH]6)C=C5)C=C4)cc2)cc1
REMARK SMILES IDX 27 1 26 2 24 3 25 4 23 5 18 6 19 7 20 8 22 9 21 10 10 11
REMARK SMILES IDX 7 12 8 13 9 14 6 15 3 16 4 17 96 18 5 19 95 20 2 21 1 22
REMARK SMILES IDX 11 23 12 24 13 25 17 26 14 27 16 28 15 29 28 30 29 31 30 32
REMARK SMILES IDX 31 33 32 34 33 35 94 36 34 37 93 38 35 39 36 40 37 41 87 42
REMARK SMILES IDX 38 43 92 44 86 45 88 46 39 47 91 48 85 49 84 50 40 52 72 53
REMARK SMILES IDX 52 54 71 55 53 56 56 57 70 58 89 59 54 60 55 61 69 63 90 64
REMARK SMILES IDX 57 65 41 66 42 67 50 68 43 69 44 70 48 71 51 72 45 73 46 74
REMARK SMILES IDX 49 75 47 76 73 77 74 78 82 79 75 80 76 81 80 82 83 83 77 84
REMARK SMILES IDX 78 85 81 86 79 87 58 88 59 89 67 90 60 91 61 92 65 93 68 94
REMARK SMILES IDX 62 95 63 96 66 97 64 98
REMARK H PARENT 88 51 56 62
REMARK Flexibility Score: inf
ROOT
ATOM      1  C   UNL A   1      35.979  20.482  25.065  1.00  0.00     0.275 C 
ENDROOT
BRANCH   1   2
ATOM      2  O   UNL A   1      35.156  21.591  25.485  1.00  0.00    -0.458 OA
BRANCH   2   3
ATOM      3  C   UNL A   1      33.856  21.277  25.718  1.00  0.00     0.340 C 
ATOM      4  O   UNL A   1      33.207  21.590  26.707  1.00  0.00    -0.246 OA
BRANCH   3   5
ATOM      5  C   UNL A   1      33.219  20.597  24.565  1.00  0.00     0.084 A 
ATOM      6  C   UNL A   1      32.645  21.237  23.456  1.00  0.00     0.067 A 
ATOM      7  C   UNL A   1      32.180  20.412  22.411  1.00  0.00     0.028 A 
ATOM      8  C   UNL A   1      32.155  19.017  22.501  1.00  0.00     0.002 A 
ATOM      9  C   UNL A   1      33.247  19.182  24.614  1.00  0.00     0.018 A 
ATOM     10  C   UNL A   1      32.673  18.398  23.620  1.00  0.00     0.001 A 
BRANCH   6  11
ATOM     11  N   UNL A   1      32.452  22.684  23.352  1.00  0.00    -0.261 N 
BRANCH  11  12
ATOM     12  S   UNL A   1      33.682  23.612  22.609  1.00  0.00     0.264 S 
ATOM     13  O   UNL A   1      33.266  24.026  21.287  1.00  0.00    -0.201 OA
ATOM     14  O   UNL A   1      34.938  22.904  22.746  1.00  0.00    -0.201 OA
BRANCH  12  15
ATOM     15  C   UNL A   1      33.846  25.117  23.574  1.00  0.00     0.088 A 
ATOM     16  C   UNL A   1      34.026  27.470  25.096  1.00  0.00     0.118 A 
ATOM     17  C   UNL A   1      33.655  27.525  23.750  1.00  0.00     0.048 A 
ATOM     18  C   UNL A   1      34.246  26.233  25.696  1.00  0.00     0.048 A 
ATOM     19  C   UNL A   1      33.580  26.356  22.984  1.00  0.00     0.026 A 
ATOM     20  C   UNL A   1      34.116  25.058  24.946  1.00  0.00     0.026 A 
BRANCH  16  21
ATOM     21  O   UNL A   1      34.042  28.664  25.763  1.00  0.00    -0.497 OA
ATOM     22  C   UNL A   1      33.653  28.601  27.131  1.00  0.00     0.278 C 
ENDBRANCH  16  21
ENDBRANCH  12  15
ENDBRANCH  11  12
BRANCH  11  23
ATOM     23  C   UNL A   1      31.038  23.155  23.439  1.00  0.00     0.171 C 
BRANCH  23  24
ATOM     24  C   UNL A   1      30.696  24.426  24.208  1.00  0.00    -0.027 A 
ATOM     25  C   UNL A   1      30.835  24.563  25.597  1.00  0.00     0.005 A 
ATOM     26  C   UNL A   1      30.245  25.551  23.496  1.00  0.00     0.005 A 
ATOM     27  C   UNL A   1      30.629  25.784  26.241  1.00  0.00     0.000 A 
ATOM     28  C   UNL A   1      30.017  26.772  24.142  1.00  0.00     0.000 A 
ATOM     29  C   UNL A   1      30.227  26.893  25.512  1.00  0.00     0.000 A 
ENDBRANCH  23  24
ENDBRANCH  11  23
ENDBRANCH   6  11
ENDBRANCH   3   5
ENDBRANCH   2   3
ENDBRANCH   1   2
BRANCH   1  30
ATOM     30  C   UNL A   1      37.376  20.930  24.647  1.00  0.00     0.275 C 
BRANCH  30  31
ATOM     31  O   UNL A   1      37.896  21.872  25.598  1.00  0.00    -0.458 OA
BRANCH  31  32
ATOM     32  C   UNL A   1      39.090  21.549  26.138  1.00  0.00     0.338 C 
ATOM     33  O   UNL A   1      39.682  20.486  26.082  1.00  0.00    -0.246 OA
BRANCH  32  34
ATOM     34  C   UNL A   1      39.668  22.744  26.766  1.00  0.00     0.060 A 
ATOM     35  C   UNL A   1      39.193  23.984  26.354  1.00  0.00     0.016 A 
ATOM     36  C   UNL A   1      40.763  22.659  27.618  1.00  0.00     0.016 A 
ATOM     37  C   UNL A   1      39.861  25.150  26.701  1.00  0.00     0.010 A 
ATOM     38  C   UNL A   1      41.378  23.840  28.051  1.00  0.00     0.010 A 
ATOM     39  C   UNL A   1      40.961  25.096  27.563  1.00  0.00    -0.014 A 
BRANCH  39  40
ATOM     40  C   UNL A   1      41.721  26.331  27.897  1.00  0.00     0.031 A 
ATOM     41  C   UNL A   1      41.064  27.397  28.730  1.00  0.00     0.074 A 
ATOM     42  C   UNL A   1      42.988  26.505  27.473  1.00  0.00     0.049 A 
ATOM     43  N   UNL A   1      41.413  28.645  28.913  1.00  0.00    -0.248 NA
ATOM     44  C   UNL A   1      39.832  27.010  29.438  1.00  0.00     0.031 C 
ATOM     45  C   UNL A   1      43.780  25.524  26.729  1.00  0.00     0.029 A 
ATOM     46  N   UNL A   1      43.835  27.579  27.605  1.00  0.00    -0.354 N 
ATOM     47  C   UNL A   1      40.405  29.209  29.684  1.00  0.00     0.074 A 
ATOM     48  C   UNL A   1      39.437  28.167  29.947  1.00  0.00     0.031 C 
ATOM     49  C   UNL A   1      44.999  26.031  26.491  1.00  0.00     0.029 A 
ATOM     50  C   UNL A   1      45.039  27.407  26.968  1.00  0.00     0.049 A 
ATOM     51  H   UNL A   1      43.601  28.393  28.108  1.00  0.00     0.167 HD
ATOM     52  C   UNL A   1      40.298  30.488  30.118  1.00  0.00     0.037 A 
ATOM     53  C   UNL A   1      46.039  28.279  26.734  1.00  0.00     0.037 A 
ATOM     54  C   UNL A   1      41.307  31.494  29.909  1.00  0.00     0.049 A 
ATOM     55  C   UNL A   1      45.891  29.699  27.202  1.00  0.00     0.074 A 
ATOM     56  C   UNL A   1      41.313  32.814  30.323  1.00  0.00     0.029 A 
ATOM     57  N   UNL A   1      42.505  31.279  29.242  1.00  0.00    -0.354 N 
ATOM     58  N   UNL A   1      44.899  30.254  27.856  1.00  0.00    -0.248 NA
ATOM     59  C   UNL A   1      46.987  30.621  26.877  1.00  0.00     0.031 C 
ATOM     60  C   UNL A   1      42.498  33.407  29.877  1.00  0.00     0.029 A 
ATOM     61  C   UNL A   1      43.252  32.445  29.224  1.00  0.00     0.049 A 
ATOM     62  H   UNL A   1      42.783  30.424  28.842  1.00  0.00     0.167 HD
ATOM     63  C   UNL A   1      45.253  31.584  28.029  1.00  0.00     0.074 A 
ATOM     64  C   UNL A   1      46.561  31.749  27.429  1.00  0.00     0.031 C 
ATOM     65  C   UNL A   1      44.556  32.582  28.626  1.00  0.00     0.037 A 
BRANCH  52  66
ATOM     66  C   UNL A   1      39.029  30.886  30.814  1.00  0.00     0.064 A 
ATOM     67  C   UNL A   1      37.910  31.364  30.121  1.00  0.00     0.173 A 
ATOM     68  C   UNL A   1      38.929  30.758  32.210  1.00  0.00     0.173 A 
ATOM     69  F   UNL A   1      37.957  31.520  28.789  1.00  0.00    -0.203 F 
ATOM     70  C   UNL A   1      36.747  31.727  30.799  1.00  0.00     0.198 A 
ATOM     71  C   UNL A   1      37.757  31.093  32.882  1.00  0.00     0.198 A 
ATOM     72  F   UNL A   1      39.970  30.302  32.924  1.00  0.00    -0.203 F 
ATOM     73  F   UNL A   1      35.706  32.228  30.119  1.00  0.00    -0.200 F 
ATOM     74  C   UNL A   1      36.670  31.584  32.177  1.00  0.00     0.200 A 
ATOM     75  F   UNL A   1      37.680  30.943  34.212  1.00  0.00    -0.200 F 
ATOM     76  F   UNL A   1      35.548  31.928  32.826  1.00  0.00    -0.200 F 
ENDBRANCH  52  66
BRANCH  53  77
ATOM     77  C   UNL A   1      47.235  27.842  25.964  1.00  0.00     0.064 A 
ATOM     78  C   UNL A   1      48.402  27.425  26.616  1.00  0.00     0.173 A 
ATOM     79  C   UNL A   1      47.226  27.814  24.560  1.00  0.00     0.173 A 
ATOM     80  F   UNL A   1      48.470  27.460  27.955  1.00  0.00    -0.203 F 
ATOM     81  C   UNL A   1      49.516  27.000  25.895  1.00  0.00     0.198 A 
ATOM     82  C   UNL A   1      48.329  27.358  23.841  1.00  0.00     0.198 A 
ATOM     83  F   UNL A   1      46.135  28.207  23.887  1.00  0.00    -0.203 F 
ATOM     84  F   UNL A   1      50.633  26.641  26.541  1.00  0.00    -0.200 F 
ATOM     85  C   UNL A   1      49.475  26.957  24.509  1.00  0.00     0.200 A 
ATOM     86  F   UNL A   1      48.278  27.305  22.504  1.00  0.00    -0.200 F 
ATOM     87  F   UNL A   1      50.542  26.534  23.816  1.00  0.00    -0.200 F 
ENDBRANCH  53  77
BRANCH  65  88
ATOM     88  C   UNL A   1      45.210  33.929  28.687  1.00  0.00     0.064 A 
ATOM     89  C   UNL A   1      46.079  34.275  29.730  1.00  0.00     0.173 A 
ATOM     90  C   UNL A   1      44.994  34.868  27.668  1.00  0.00     0.173 A 
ATOM     91  F   UNL A   1      46.303  33.416  30.737  1.00  0.00    -0.203 F 
ATOM     92  C   UNL A   1      46.694  35.524  29.762  1.00  0.00     0.198 A 
ATOM     93  C   UNL A   1      45.630  36.105  27.688  1.00  0.00     0.198 A 
ATOM     94  F   UNL A   1      44.174  34.580  26.646  1.00  0.00    -0.203 F 
ATOM     95  F   UNL A   1      47.489  35.852  30.790  1.00  0.00    -0.200 F 
ATOM     96  C   UNL A   1      46.474  36.434  28.738  1.00  0.00     0.200 A 
ATOM     97  F   UNL A   1      45.426  36.978  26.692  1.00  0.00    -0.200 F 
ATOM     98  F   UNL A   1      47.072  37.633  28.766  1.00  0.00    -0.200 F 
ENDBRANCH  65  88
ENDBRANCH  39  40
ENDBRANCH  32  34
ENDBRANCH  31  32
ENDBRANCH  30  31
ENDBRANCH   1  30
TORSDOF 17
ENDMDL
