MODEL 1
REMARK VINA RESULT:     -11.3      0.000      0.000
REMARK SMILES C[N@H+]1CCO[C@@H](C[N@H+]2CCCC[C@@H]2CCC(=O)OCCOC(=O)c2ccc(-c3c4nc(c(-c5c(F)c(F)c(F)c(F)c5F)c5ccc([nH]5)c(-c5c(F)c(F)c(F)c(F)c5F)c5nc(c(-c6c(F)c(F)c(F)c(F)c6F)c6ccc3[nH]6)C=C5)C=C4)cc2)C1
REMARK SMILES IDX 19 1 18 2 16 3 17 4 15 5 14 6 13 7 8 8 9 9 10 11 12 12 11 13
REMARK SMILES IDX 7 14 6 15 1 16 2 17 3 18 87 19 4 21 5 22 20 23 21 24 22 25
REMARK SMILES IDX 23 26 24 27 25 28 86 29 26 30 85 31 27 32 28 33 29 34 79 35
REMARK SMILES IDX 30 36 84 37 78 38 80 39 31 40 83 41 77 42 76 43 32 45 64 46
REMARK SMILES IDX 44 47 63 48 45 49 48 50 62 51 81 52 46 53 47 54 61 56 82 57
REMARK SMILES IDX 49 58 33 59 34 60 42 61 35 62 36 63 40 64 43 65 37 66 38 67
REMARK SMILES IDX 41 68 39 69 65 70 66 71 74 72 67 73 68 74 72 75 75 76 69 77
REMARK SMILES IDX 70 78 73 79 71 80 50 81 51 82 59 83 52 84 53 85 57 86 60 87
REMARK SMILES IDX 54 88 55 89 58 90 56 91
REMARK H PARENT 8 10 2 20 80 44 48 55
REMARK Flexibility Score: inf
ROOT
ATOM      1  C   UNL A   1      31.505  31.386  26.460  1.00  0.00     0.274 C 
ENDROOT
BRANCH   1   2
ATOM      2  O   UNL A   1      32.621  30.660  27.001  1.00  0.00    -0.462 OA
BRANCH   2   3
ATOM      3  C   UNL A   1      32.510  29.312  27.058  1.00  0.00     0.306 C 
ATOM      4  O   UNL A   1      31.511  28.699  27.415  1.00  0.00    -0.252 OA
BRANCH   3   5
ATOM      5  C   UNL A   1      33.771  28.605  26.619  1.00  0.00     0.129 C 
BRANCH   5   6
ATOM      6  C   UNL A   1      33.693  27.872  25.275  1.00  0.00     0.077 C 
BRANCH   6   7
ATOM      7  C   UNL A   1      32.790  28.566  24.216  1.00  0.00     0.184 C 
ATOM      8  N   UNL A   1      31.474  27.916  24.176  1.00  0.00    -0.330 N 
ATOM      9  C   UNL A   1      31.450  26.575  23.604  1.00  0.00     0.262 C 
ATOM     10  H   UNL A   1      31.316  27.710  25.162  1.00  0.00     0.348 HD
ATOM     11  C   UNL A   1      32.285  26.357  22.335  1.00  0.00     0.062 C 
ATOM     12  C   UNL A   1      33.435  28.562  22.821  1.00  0.00     0.065 C 
ATOM     13  C   UNL A   1      33.590  27.148  22.277  1.00  0.00     0.012 C 
BRANCH   8  14
ATOM     14  C   UNL A   1      30.296  28.779  23.962  1.00  0.00     0.300 C 
BRANCH  14  15
ATOM     15  C   UNL A   1      29.389  28.560  22.719  1.00  0.00     0.228 C 
ATOM     16  C   UNL A   1      27.791  31.162  23.777  1.00  0.00     0.332 C 
ATOM     17  N   UNL A   1      27.444  30.260  22.686  1.00  0.00    -0.333 N 
ATOM     18  C   UNL A   1      27.992  30.702  21.397  1.00  0.00     0.290 C 
ATOM     19  C   UNL A   1      27.888  28.877  22.908  1.00  0.00     0.300 C 
ATOM     20  H   UNL A   1      26.425  30.282  22.661  1.00  0.00     0.348 HD
ATOM     21  C   UNL A   1      29.515  30.521  21.300  1.00  0.00     0.222 C 
ATOM     22  O   UNL A   1      29.930  29.171  21.526  1.00  0.00    -0.361 OA
ENDBRANCH  14  15
ENDBRANCH   8  14
ENDBRANCH   6   7
ENDBRANCH   5   6
ENDBRANCH   3   5
ENDBRANCH   2   3
ENDBRANCH   1   2
BRANCH   1  23
ATOM     23  C   UNL A   1      31.573  32.842  26.916  1.00  0.00     0.275 C 
BRANCH  23  24
ATOM     24  O   UNL A   1      32.950  33.215  27.117  1.00  0.00    -0.458 OA
BRANCH  24  25
ATOM     25  C   UNL A   1      33.203  34.020  28.174  1.00  0.00     0.338 C 
ATOM     26  O   UNL A   1      32.549  34.959  28.583  1.00  0.00    -0.246 OA
BRANCH  25  27
ATOM     27  C   UNL A   1      34.425  33.539  28.832  1.00  0.00     0.060 A 
ATOM     28  C   UNL A   1      34.348  32.415  29.653  1.00  0.00     0.016 A 
ATOM     29  C   UNL A   1      35.627  34.223  28.686  1.00  0.00     0.016 A 
ATOM     30  C   UNL A   1      35.469  31.960  30.338  1.00  0.00     0.010 A 
ATOM     31  C   UNL A   1      36.767  33.743  29.336  1.00  0.00     0.010 A 
ATOM     32  C   UNL A   1      36.695  32.608  30.167  1.00  0.00    -0.014 A 
BRANCH  32  33
ATOM     33  C   UNL A   1      37.905  32.106  30.860  1.00  0.00     0.031 A 
ATOM     34  C   UNL A   1      38.749  31.051  30.213  1.00  0.00     0.074 A 
ATOM     35  C   UNL A   1      38.233  32.591  32.073  1.00  0.00     0.049 A 
ATOM     36  N   UNL A   1      39.721  30.339  30.722  1.00  0.00    -0.248 NA
ATOM     37  C   UNL A   1      38.459  30.756  28.801  1.00  0.00     0.031 C 
ATOM     38  C   UNL A   1      37.527  33.665  32.774  1.00  0.00     0.029 A 
ATOM     39  N   UNL A   1      39.237  32.233  32.936  1.00  0.00    -0.354 N 
ATOM     40  C   UNL A   1      40.130  29.482  29.710  1.00  0.00     0.074 A 
ATOM     41  C   UNL A   1      39.303  29.763  28.556  1.00  0.00     0.031 C 
ATOM     42  C   UNL A   1      38.119  33.878  33.959  1.00  0.00     0.029 A 
ATOM     43  C   UNL A   1      39.194  32.907  34.132  1.00  0.00     0.049 A 
ATOM     44  H   UNL A   1      39.921  31.559  32.720  1.00  0.00     0.167 HD
ATOM     45  C   UNL A   1      41.105  28.545  29.752  1.00  0.00     0.037 A 
ATOM     46  C   UNL A   1      39.905  32.724  35.261  1.00  0.00     0.037 A 
ATOM     47  C   UNL A   1      41.938  28.295  30.899  1.00  0.00     0.049 A 
ATOM     48  C   UNL A   1      40.931  31.627  35.306  1.00  0.00     0.074 A 
ATOM     49  C   UNL A   1      42.965  27.379  31.040  1.00  0.00     0.029 A 
ATOM     50  N   UNL A   1      41.838  28.973  32.106  1.00  0.00    -0.354 N 
ATOM     51  N   UNL A   1      41.289  30.792  34.360  1.00  0.00    -0.248 NA
ATOM     52  C   UNL A   1      41.637  31.432  36.579  1.00  0.00     0.031 C 
ATOM     53  C   UNL A   1      43.459  27.474  32.346  1.00  0.00     0.029 A 
ATOM     54  C   UNL A   1      42.769  28.479  33.005  1.00  0.00     0.049 A 
ATOM     55  H   UNL A   1      41.199  29.698  32.296  1.00  0.00     0.167 HD
ATOM     56  C   UNL A   1      42.266  29.981  34.919  1.00  0.00     0.074 A 
ATOM     57  C   UNL A   1      42.459  30.436  36.281  1.00  0.00     0.031 C 
ATOM     58  C   UNL A   1      42.939  28.947  34.356  1.00  0.00     0.037 A 
BRANCH  45  59
ATOM     59  C   UNL A   1      41.297  27.690  28.534  1.00  0.00     0.064 A 
ATOM     60  C   UNL A   1      40.541  26.530  28.315  1.00  0.00     0.173 A 
ATOM     61  C   UNL A   1      42.237  28.056  27.558  1.00  0.00     0.173 A 
ATOM     62  F   UNL A   1      39.641  26.128  29.225  1.00  0.00    -0.203 F 
ATOM     63  C   UNL A   1      40.733  25.755  27.173  1.00  0.00     0.198 A 
ATOM     64  C   UNL A   1      42.409  27.294  26.406  1.00  0.00     0.198 A 
ATOM     65  F   UNL A   1      42.985  29.159  27.719  1.00  0.00    -0.203 F 
ATOM     66  F   UNL A   1      40.029  24.628  27.003  1.00  0.00    -0.200 F 
ATOM     67  C   UNL A   1      41.662  26.141  26.218  1.00  0.00     0.200 A 
ATOM     68  F   UNL A   1      43.301  27.674  25.480  1.00  0.00    -0.200 F 
ATOM     69  F   UNL A   1      41.843  25.397  25.117  1.00  0.00    -0.200 F 
ENDBRANCH  45  59
BRANCH  46  70
ATOM     70  C   UNL A   1      39.629  33.567  36.454  1.00  0.00     0.064 A 
ATOM     71  C   UNL A   1      40.258  34.807  36.622  1.00  0.00     0.173 A 
ATOM     72  C   UNL A   1      38.730  33.149  37.447  1.00  0.00     0.173 A 
ATOM     73  F   UNL A   1      41.145  35.236  35.713  1.00  0.00    -0.203 F 
ATOM     74  C   UNL A   1      40.002  35.595  37.742  1.00  0.00     0.198 A 
ATOM     75  C   UNL A   1      38.454  33.951  38.552  1.00  0.00     0.198 A 
ATOM     76  F   UNL A   1      38.106  31.967  37.336  1.00  0.00    -0.203 F 
ATOM     77  F   UNL A   1      40.645  36.761  37.899  1.00  0.00    -0.200 F 
ATOM     78  C   UNL A   1      39.096  35.171  38.702  1.00  0.00     0.200 A 
ATOM     79  F   UNL A   1      37.569  33.541  39.471  1.00  0.00    -0.200 F 
ATOM     80  F   UNL A   1      38.846  35.934  39.775  1.00  0.00    -0.200 F 
ENDBRANCH  46  70
BRANCH  58  81
ATOM     81  C   UNL A   1      43.958  28.253  35.211  1.00  0.00     0.064 A 
ATOM     82  C   UNL A   1      45.298  28.666  35.230  1.00  0.00     0.173 A 
ATOM     83  C   UNL A   1      43.581  27.190  36.044  1.00  0.00     0.173 A 
ATOM     84  F   UNL A   1      45.709  29.666  34.436  1.00  0.00    -0.203 F 
ATOM     85  C   UNL A   1      46.230  28.026  36.043  1.00  0.00     0.198 A 
ATOM     86  C   UNL A   1      44.510  26.569  36.873  1.00  0.00     0.198 A 
ATOM     87  F   UNL A   1      42.311  26.763  36.063  1.00  0.00    -0.203 F 
ATOM     88  F   UNL A   1      47.514  28.408  36.017  1.00  0.00    -0.200 F 
ATOM     89  C   UNL A   1      45.834  26.984  36.868  1.00  0.00     0.200 A 
ATOM     90  F   UNL A   1      44.125  25.569  37.679  1.00  0.00    -0.200 F 
ATOM     91  F   UNL A   1      46.732  26.372  37.654  1.00  0.00    -0.200 F 
ENDBRANCH  58  81
ENDBRANCH  32  33
ENDBRANCH  25  27
ENDBRANCH  24  25
ENDBRANCH  23  24
ENDBRANCH   1  23
TORSDOF 15
ENDMDL
MODEL 2
REMARK VINA RESULT:     -11.0      0.954      1.961
REMARK SMILES C[N@H+]1CCO[C@@H](C[N@H+]2CCCC[C@@H]2CCC(=O)OCCOC(=O)c2ccc(-c3c4nc(c(-c5c(F)c(F)c(F)c(F)c5F)c5ccc([nH]5)c(-c5c(F)c(F)c(F)c(F)c5F)c5nc(c(-c6c(F)c(F)c(F)c(F)c6F)c6ccc3[nH]6)C=C5)C=C4)cc2)C1
REMARK SMILES IDX 19 1 18 2 16 3 17 4 15 5 14 6 13 7 8 8 9 9 10 11 12 12 11 13
REMARK SMILES IDX 7 14 6 15 1 16 2 17 3 18 87 19 4 21 5 22 20 23 21 24 22 25
REMARK SMILES IDX 23 26 24 27 25 28 86 29 26 30 85 31 27 32 28 33 29 34 79 35
REMARK SMILES IDX 30 36 84 37 78 38 80 39 31 40 83 41 77 42 76 43 32 45 64 46
REMARK SMILES IDX 44 47 63 48 45 49 48 50 62 51 81 52 46 53 47 54 61 56 82 57
REMARK SMILES IDX 49 58 33 59 34 60 42 61 35 62 36 63 40 64 43 65 37 66 38 67
REMARK SMILES IDX 41 68 39 69 65 70 66 71 74 72 67 73 68 74 72 75 75 76 69 77
REMARK SMILES IDX 70 78 73 79 71 80 50 81 51 82 59 83 52 84 53 85 57 86 60 87
REMARK SMILES IDX 54 88 55 89 58 90 56 91
REMARK H PARENT 8 10 2 20 80 44 48 55
REMARK Flexibility Score: inf
ROOT
ATOM      1  C   UNL A   1      32.982  31.930  27.603  1.00  0.00     0.274 C 
ENDROOT
BRANCH   1   2
ATOM      2  O   UNL A   1      34.350  31.486  27.609  1.00  0.00    -0.462 OA
BRANCH   2   3
ATOM      3  C   UNL A   1      34.565  30.152  27.519  1.00  0.00     0.306 C 
ATOM      4  O   UNL A   1      35.629  29.591  27.745  1.00  0.00    -0.252 OA
BRANCH   3   5
ATOM      5  C   UNL A   1      33.327  29.391  27.104  1.00  0.00     0.129 C 
BRANCH   5   6
ATOM      6  C   UNL A   1      33.516  28.376  25.970  1.00  0.00     0.077 C 
BRANCH   6   7
ATOM      7  C   UNL A   1      32.833  28.774  24.632  1.00  0.00     0.184 C 
ATOM      8  N   UNL A   1      31.414  28.399  24.662  1.00  0.00    -0.330 N 
ATOM      9  C   UNL A   1      31.138  26.968  24.604  1.00  0.00     0.262 C 
ATOM     10  H   UNL A   1      31.167  28.606  25.630  1.00  0.00     0.348 HD
ATOM     11  C   UNL A   1      31.972  26.151  23.607  1.00  0.00     0.062 C 
ATOM     12  C   UNL A   1      33.532  28.139  23.420  1.00  0.00     0.065 C 
ATOM     13  C   UNL A   1      33.415  26.621  23.435  1.00  0.00     0.012 C 
BRANCH   8  14
ATOM     14  C   UNL A   1      30.455  29.314  24.012  1.00  0.00     0.300 C 
BRANCH  14  15
ATOM     15  C   UNL A   1      29.676  28.853  22.748  1.00  0.00     0.228 C 
ATOM     16  C   UNL A   1      27.511  31.092  23.609  1.00  0.00     0.332 C 
ATOM     17  N   UNL A   1      27.418  30.091  22.553  1.00  0.00    -0.333 N 
ATOM     18  C   UNL A   1      27.922  30.587  21.265  1.00  0.00     0.290 C 
ATOM     19  C   UNL A   1      28.136  28.847  22.863  1.00  0.00     0.300 C 
ATOM     20  H   UNL A   1      26.420  29.893  22.487  1.00  0.00     0.348 HD
ATOM     21  C   UNL A   1      29.451  30.734  21.236  1.00  0.00     0.222 C 
ATOM     22  O   UNL A   1      30.133  29.516  21.547  1.00  0.00    -0.361 OA
ENDBRANCH  14  15
ENDBRANCH   8  14
ENDBRANCH   6   7
ENDBRANCH   5   6
ENDBRANCH   3   5
ENDBRANCH   2   3
ENDBRANCH   1   2
BRANCH   1  23
ATOM     23  C   UNL A   1      32.930  33.420  27.271  1.00  0.00     0.275 C 
BRANCH  23  24
ATOM     24  O   UNL A   1      32.344  34.134  28.375  1.00  0.00    -0.458 OA
BRANCH  24  25
ATOM     25  C   UNL A   1      33.083  35.140  28.896  1.00  0.00     0.338 C 
ATOM     26  O   UNL A   1      32.849  36.333  28.890  1.00  0.00    -0.246 OA
BRANCH  25  27
ATOM     27  C   UNL A   1      34.254  34.550  29.560  1.00  0.00     0.060 A 
ATOM     28  C   UNL A   1      35.502  34.667  28.950  1.00  0.00     0.016 A 
ATOM     29  C   UNL A   1      34.114  33.837  30.747  1.00  0.00     0.016 A 
ATOM     30  C   UNL A   1      36.625  34.076  29.515  1.00  0.00     0.010 A 
ATOM     31  C   UNL A   1      35.248  33.280  31.342  1.00  0.00     0.010 A 
ATOM     32  C   UNL A   1      36.512  33.395  30.731  1.00  0.00    -0.014 A 
BRANCH  32  33
ATOM     33  C   UNL A   1      37.710  32.797  31.364  1.00  0.00     0.031 A 
ATOM     34  C   UNL A   1      38.434  31.678  30.680  1.00  0.00     0.074 A 
ATOM     35  C   UNL A   1      38.136  33.253  32.557  1.00  0.00     0.049 A 
ATOM     36  N   UNL A   1      39.370  30.891  31.143  1.00  0.00    -0.248 NA
ATOM     37  C   UNL A   1      38.051  31.408  29.285  1.00  0.00     0.031 C 
ATOM     38  C   UNL A   1      37.554  34.380  33.289  1.00  0.00     0.029 A 
ATOM     39  N   UNL A   1      39.150  32.816  33.371  1.00  0.00    -0.354 N 
ATOM     40  C   UNL A   1      39.658  30.004  30.114  1.00  0.00     0.074 A 
ATOM     41  C   UNL A   1      38.799  30.350  29.002  1.00  0.00     0.031 C 
ATOM     42  C   UNL A   1      38.219  34.544  34.443  1.00  0.00     0.029 A 
ATOM     43  C   UNL A   1      39.221  33.490  34.566  1.00  0.00     0.049 A 
ATOM     44  H   UNL A   1      39.766  32.090  33.124  1.00  0.00     0.167 HD
ATOM     45  C   UNL A   1      40.556  28.991  30.110  1.00  0.00     0.037 A 
ATOM     46  C   UNL A   1      39.970  33.250  35.658  1.00  0.00     0.037 A 
ATOM     47  C   UNL A   1      41.422  28.675  31.216  1.00  0.00     0.049 A 
ATOM     48  C   UNL A   1      40.906  32.075  35.655  1.00  0.00     0.074 A 
ATOM     49  C   UNL A   1      42.378  27.680  31.309  1.00  0.00     0.029 A 
ATOM     50  N   UNL A   1      41.438  29.358  32.424  1.00  0.00    -0.354 N 
ATOM     51  N   UNL A   1      41.149  31.215  34.696  1.00  0.00    -0.248 NA
ATOM     52  C   UNL A   1      41.656  31.823  36.893  1.00  0.00     0.031 C 
ATOM     53  C   UNL A   1      42.943  27.734  32.588  1.00  0.00     0.029 A 
ATOM     54  C   UNL A   1      42.369  28.791  33.278  1.00  0.00     0.049 A 
ATOM     55  H   UNL A   1      40.869  30.132  32.643  1.00  0.00     0.167 HD
ATOM     56  C   UNL A   1      42.084  30.327  35.209  1.00  0.00     0.074 A 
ATOM     57  C   UNL A   1      42.380  30.765  36.558  1.00  0.00     0.031 C 
ATOM     58  C   UNL A   1      42.644  29.243  34.617  1.00  0.00     0.037 A 
BRANCH  45  59
ATOM     59  C   UNL A   1      40.618  28.125  28.888  1.00  0.00     0.064 A 
ATOM     60  C   UNL A   1      39.863  26.949  28.772  1.00  0.00     0.173 A 
ATOM     61  C   UNL A   1      41.428  28.494  27.803  1.00  0.00     0.173 A 
ATOM     62  F   UNL A   1      39.085  26.543  29.787  1.00  0.00    -0.203 F 
ATOM     63  C   UNL A   1      39.933  26.163  27.624  1.00  0.00     0.198 A 
ATOM     64  C   UNL A   1      41.477  27.720  26.647  1.00  0.00     0.198 A 
ATOM     65  F   UNL A   1      42.169  29.612  27.862  1.00  0.00    -0.203 F 
ATOM     66  F   UNL A   1      39.235  25.021  27.551  1.00  0.00    -0.200 F 
ATOM     67  C   UNL A   1      40.735  26.553  26.561  1.00  0.00     0.200 A 
ATOM     68  F   UNL A   1      42.245  28.104  25.617  1.00  0.00    -0.200 F 
ATOM     69  F   UNL A   1      40.797  25.798  25.455  1.00  0.00    -0.200 F 
ENDBRANCH  45  59
BRANCH  46  70
ATOM     70  C   UNL A   1      39.822  34.112  36.861  1.00  0.00     0.064 A 
ATOM     71  C   UNL A   1      38.987  33.735  37.920  1.00  0.00     0.173 A 
ATOM     72  C   UNL A   1      40.516  35.326  36.975  1.00  0.00     0.173 A 
ATOM     73  F   UNL A   1      38.283  32.597  37.845  1.00  0.00    -0.203 F 
ATOM     74  C   UNL A   1      38.846  34.544  39.046  1.00  0.00     0.198 A 
ATOM     75  C   UNL A   1      40.396  36.120  38.113  1.00  0.00     0.198 A 
ATOM     76  F   UNL A   1      41.324  35.735  35.985  1.00  0.00    -0.203 F 
ATOM     77  F   UNL A   1      38.011  34.180  40.029  1.00  0.00    -0.200 F 
ATOM     78  C   UNL A   1      39.556  35.732  39.145  1.00  0.00     0.200 A 
ATOM     79  F   UNL A   1      41.093  37.261  38.208  1.00  0.00    -0.200 F 
ATOM     80  F   UNL A   1      39.424  36.505  40.231  1.00  0.00    -0.200 F 
ENDBRANCH  46  70
BRANCH  58  81
ATOM     81  C   UNL A   1      43.645  28.469  35.422  1.00  0.00     0.064 A 
ATOM     82  C   UNL A   1      43.245  27.463  36.313  1.00  0.00     0.173 A 
ATOM     83  C   UNL A   1      45.018  28.713  35.272  1.00  0.00     0.173 A 
ATOM     84  F   UNL A   1      41.942  27.208  36.503  1.00  0.00    -0.203 F 
ATOM     85  C   UNL A   1      44.186  26.739  37.040  1.00  0.00     0.198 A 
ATOM     86  C   UNL A   1      45.956  27.970  35.982  1.00  0.00     0.198 A 
ATOM     87  F   UNL A   1      45.449  29.663  34.429  1.00  0.00    -0.203 F 
ATOM     88  F   UNL A   1      43.782  25.809  37.916  1.00  0.00    -0.200 F 
ATOM     89  C   UNL A   1      45.540  26.988  36.868  1.00  0.00     0.200 A 
ATOM     90  F   UNL A   1      47.265  28.204  35.808  1.00  0.00    -0.200 F 
ATOM     91  F   UNL A   1      46.445  26.285  37.565  1.00  0.00    -0.200 F 
ENDBRANCH  58  81
ENDBRANCH  32  33
ENDBRANCH  25  27
ENDBRANCH  24  25
ENDBRANCH  23  24
ENDBRANCH   1  23
TORSDOF 15
ENDMDL
MODEL 3
REMARK VINA RESULT:     -11.0      6.354     11.506
REMARK SMILES C[N@H+]1CCO[C@@H](C[N@H+]2CCCC[C@@H]2CCC(=O)OCCOC(=O)c2ccc(-c3c4nc(c(-c5c(F)c(F)c(F)c(F)c5F)c5ccc([nH]5)c(-c5c(F)c(F)c(F)c(F)c5F)c5nc(c(-c6c(F)c(F)c(F)c(F)c6F)c6ccc3[nH]6)C=C5)C=C4)cc2)C1
REMARK SMILES IDX 19 1 18 2 16 3 17 4 15 5 14 6 13 7 8 8 9 9 10 11 12 12 11 13
REMARK SMILES IDX 7 14 6 15 1 16 2 17 3 18 87 19 4 21 5 22 20 23 21 24 22 25
REMARK SMILES IDX 23 26 24 27 25 28 86 29 26 30 85 31 27 32 28 33 29 34 79 35
REMARK SMILES IDX 30 36 84 37 78 38 80 39 31 40 83 41 77 42 76 43 32 45 64 46
REMARK SMILES IDX 44 47 63 48 45 49 48 50 62 51 81 52 46 53 47 54 61 56 82 57
REMARK SMILES IDX 49 58 33 59 34 60 42 61 35 62 36 63 40 64 43 65 37 66 38 67
REMARK SMILES IDX 41 68 39 69 65 70 66 71 74 72 67 73 68 74 72 75 75 76 69 77
REMARK SMILES IDX 70 78 73 79 71 80 50 81 51 82 59 83 52 84 53 85 57 86 60 87
REMARK SMILES IDX 54 88 55 89 58 90 56 91
REMARK H PARENT 8 10 2 20 80 44 48 55
REMARK Flexibility Score: inf
ROOT
ATOM      1  C   UNL A   1      38.092  20.831  25.075  1.00  0.00     0.274 C 
ENDROOT
BRANCH   1   2
ATOM      2  O   UNL A   1      38.409  21.762  26.124  1.00  0.00    -0.462 OA
BRANCH   2   3
ATOM      3  C   UNL A   1      38.011  23.044  25.951  1.00  0.00     0.306 C 
ATOM      4  O   UNL A   1      38.625  24.032  26.334  1.00  0.00    -0.252 OA
BRANCH   3   5
ATOM      5  C   UNL A   1      36.698  23.151  25.211  1.00  0.00     0.129 C 
BRANCH   5   6
ATOM      6  C   UNL A   1      35.439  23.186  26.085  1.00  0.00     0.077 C 
BRANCH   6   7
ATOM      7  C   UNL A   1      34.767  21.801  26.300  1.00  0.00     0.184 C 
ATOM      8  N   UNL A   1      33.986  21.434  25.112  1.00  0.00    -0.330 N 
ATOM      9  C   UNL A   1      32.770  22.209  24.892  1.00  0.00     0.262 C 
ATOM     10  H   UNL A   1      34.579  21.783  24.359  1.00  0.00     0.348 HD
ATOM     11  C   UNL A   1      31.911  22.501  26.130  1.00  0.00     0.062 C 
ATOM     12  C   UNL A   1      33.879  21.782  27.554  1.00  0.00     0.065 C 
ATOM     13  C   UNL A   1      32.696  22.730  27.420  1.00  0.00     0.012 C 
BRANCH   8  14
ATOM     14  C   UNL A   1      33.979  20.012  24.715  1.00  0.00     0.300 C 
BRANCH  14  15
ATOM     15  C   UNL A   1      32.642  19.219  24.690  1.00  0.00     0.228 C 
ATOM     16  C   UNL A   1      34.358  16.922  23.199  1.00  0.00     0.332 C 
ATOM     17  N   UNL A   1      32.919  16.984  23.425  1.00  0.00    -0.333 N 
ATOM     18  C   UNL A   1      32.522  16.343  24.686  1.00  0.00     0.290 C 
ATOM     19  C   UNL A   1      32.388  18.355  23.435  1.00  0.00     0.300 C 
ATOM     20  H   UNL A   1      32.522  16.479  22.634  1.00  0.00     0.348 HD
ATOM     21  C   UNL A   1      32.931  17.154  25.925  1.00  0.00     0.222 C 
ATOM     22  O   UNL A   1      32.412  18.486  25.915  1.00  0.00    -0.361 OA
ENDBRANCH  14  15
ENDBRANCH   8  14
ENDBRANCH   6   7
ENDBRANCH   5   6
ENDBRANCH   3   5
ENDBRANCH   2   3
ENDBRANCH   1   2
BRANCH   1  23
ATOM     23  C   UNL A   1      38.973  19.591  25.208  1.00  0.00     0.275 C 
BRANCH  23  24
ATOM     24  O   UNL A   1      39.805  19.721  26.377  1.00  0.00    -0.458 OA
BRANCH  24  25
ATOM     25  C   UNL A   1      41.141  19.712  26.163  1.00  0.00     0.338 C 
ATOM     26  O   UNL A   1      41.825  18.825  25.691  1.00  0.00    -0.246 OA
BRANCH  25  27
ATOM     27  C   UNL A   1      41.675  21.023  26.555  1.00  0.00     0.060 A 
ATOM     28  C   UNL A   1      41.787  22.020  25.587  1.00  0.00     0.016 A 
ATOM     29  C   UNL A   1      42.117  21.250  27.855  1.00  0.00     0.016 A 
ATOM     30  C   UNL A   1      42.339  23.255  25.903  1.00  0.00     0.010 A 
ATOM     31  C   UNL A   1      42.631  22.506  28.188  1.00  0.00     0.010 A 
ATOM     32  C   UNL A   1      42.746  23.517  27.214  1.00  0.00    -0.014 A 
BRANCH  32  33
ATOM     33  C   UNL A   1      43.297  24.845  27.571  1.00  0.00     0.031 A 
ATOM     34  C   UNL A   1      42.401  25.886  28.169  1.00  0.00     0.074 A 
ATOM     35  C   UNL A   1      44.596  25.115  27.345  1.00  0.00     0.049 A 
ATOM     36  N   UNL A   1      42.627  27.160  28.367  1.00  0.00    -0.248 NA
ATOM     37  C   UNL A   1      41.070  25.434  28.601  1.00  0.00     0.031 C 
ATOM     38  C   UNL A   1      45.581  24.162  26.829  1.00  0.00     0.029 A 
ATOM     39  N   UNL A   1      45.310  26.275  27.508  1.00  0.00    -0.354 N 
ATOM     40  C   UNL A   1      41.454  27.670  28.905  1.00  0.00     0.074 A 
ATOM     41  C   UNL A   1      40.518  26.570  29.005  1.00  0.00     0.031 C 
ATOM     42  C   UNL A   1      46.769  24.775  26.717  1.00  0.00     0.029 A 
ATOM     43  C   UNL A   1      46.612  26.180  27.079  1.00  0.00     0.049 A 
ATOM     44  H   UNL A   1      44.927  27.096  27.893  1.00  0.00     0.167 HD
ATOM     45  C   UNL A   1      41.189  28.945  29.275  1.00  0.00     0.037 A 
ATOM     46  C   UNL A   1      47.554  27.131  26.941  1.00  0.00     0.037 A 
ATOM     47  C   UNL A   1      42.139  30.024  29.195  1.00  0.00     0.049 A 
ATOM     48  C   UNL A   1      47.212  28.553  27.288  1.00  0.00     0.074 A 
ATOM     49  C   UNL A   1      41.977  31.349  29.558  1.00  0.00     0.029 A 
ATOM     50  N   UNL A   1      43.437  29.896  28.719  1.00  0.00    -0.354 N 
ATOM     51  N   UNL A   1      46.090  29.039  27.761  1.00  0.00    -0.248 NA
ATOM     52  C   UNL A   1      48.258  29.560  27.064  1.00  0.00     0.031 C 
ATOM     53  C   UNL A   1      43.162  32.031  29.263  1.00  0.00     0.029 A 
ATOM     54  C   UNL A   1      44.078  31.123  28.757  1.00  0.00     0.049 A 
ATOM     55  H   UNL A   1      43.842  29.056  28.401  1.00  0.00     0.167 HD
ATOM     56  C   UNL A   1      46.296  30.405  27.899  1.00  0.00     0.074 A 
ATOM     57  C   UNL A   1      47.658  30.666  27.479  1.00  0.00     0.031 C 
ATOM     58  C   UNL A   1      45.434  31.357  28.330  1.00  0.00     0.037 A 
BRANCH  45  59
ATOM     59  C   UNL A   1      39.804  29.252  29.761  1.00  0.00     0.064 A 
ATOM     60  C   UNL A   1      38.772  29.612  28.883  1.00  0.00     0.173 A 
ATOM     61  C   UNL A   1      39.500  29.158  31.128  1.00  0.00     0.173 A 
ATOM     62  F   UNL A   1      39.015  29.732  27.569  1.00  0.00    -0.203 F 
ATOM     63  C   UNL A   1      37.491  29.887  29.357  1.00  0.00     0.198 A 
ATOM     64  C   UNL A   1      38.213  29.409  31.596  1.00  0.00     0.198 A 
ATOM     65  F   UNL A   1      40.451  28.815  32.010  1.00  0.00    -0.203 F 
ATOM     66  F   UNL A   1      36.530  30.270  28.506  1.00  0.00    -0.200 F 
ATOM     67  C   UNL A   1      37.212  29.779  30.712  1.00  0.00     0.200 A 
ATOM     68  F   UNL A   1      37.943  29.295  32.905  1.00  0.00    -0.200 F 
ATOM     69  F   UNL A   1      35.978  30.040  31.166  1.00  0.00    -0.200 F 
ENDBRANCH  45  59
BRANCH  46  70
ATOM     70  C   UNL A   1      48.892  26.774  26.400  1.00  0.00     0.064 A 
ATOM     71  C   UNL A   1      49.185  26.926  25.039  1.00  0.00     0.173 A 
ATOM     72  C   UNL A   1      49.905  26.276  27.235  1.00  0.00     0.173 A 
ATOM     73  F   UNL A   1      48.241  27.372  24.198  1.00  0.00    -0.203 F 
ATOM     74  C   UNL A   1      50.438  26.588  24.532  1.00  0.00     0.198 A 
ATOM     75  C   UNL A   1      51.166  25.965  26.731  1.00  0.00     0.198 A 
ATOM     76  F   UNL A   1      49.674  26.107  28.545  1.00  0.00    -0.203 F 
ATOM     77  F   UNL A   1      50.681  26.707  23.219  1.00  0.00    -0.200 F 
ATOM     78  C   UNL A   1      51.429  26.115  25.379  1.00  0.00     0.200 A 
ATOM     79  F   UNL A   1      52.123  25.520  27.556  1.00  0.00    -0.200 F 
ATOM     80  F   UNL A   1      52.635  25.798  24.890  1.00  0.00    -0.200 F 
ENDBRANCH  46  70
BRANCH  58  81
ATOM     81  C   UNL A   1      45.947  32.766  28.384  1.00  0.00     0.064 A 
ATOM     82  C   UNL A   1      45.791  33.642  27.301  1.00  0.00     0.173 A 
ATOM     83  C   UNL A   1      46.567  33.252  29.545  1.00  0.00     0.173 A 
ATOM     84  F   UNL A   1      45.221  33.216  26.164  1.00  0.00    -0.203 F 
ATOM     85  C   UNL A   1      46.254  34.953  27.372  1.00  0.00     0.198 A 
ATOM     86  C   UNL A   1      47.005  34.570  29.621  1.00  0.00     0.198 A 
ATOM     87  F   UNL A   1      46.735  32.452  30.608  1.00  0.00    -0.203 F 
ATOM     88  F   UNL A   1      46.133  35.763  26.311  1.00  0.00    -0.200 F 
ATOM     89  C   UNL A   1      46.854  35.417  28.533  1.00  0.00     0.200 A 
ATOM     90  F   UNL A   1      47.576  35.021  30.747  1.00  0.00    -0.200 F 
ATOM     91  F   UNL A   1      47.294  36.682  28.601  1.00  0.00    -0.200 F 
ENDBRANCH  58  81
ENDBRANCH  32  33
ENDBRANCH  25  27
ENDBRANCH  24  25
ENDBRANCH  23  24
ENDBRANCH   1  23
TORSDOF 15
ENDMDL
