MODEL 1
REMARK VINA RESULT:     -12.7      0.000      0.000
REMARK SMILES COc1cccc(-c2cc(OCC(=O)OCCOC(=O)c3ccc(-c4c5nc(c(-c6c(F)c(F)c(F)c(F)c6F)c6ccc([nH]6)c(-c6c(F)c(F)c(F)c(F)c6F)c6nc(c(-c7c(F)c(F)c(F)c(F)c7F)c7ccc4[nH]7)C=C6)C=C5)cc3)nc(Nc3ccccc3Br)n2)c1
REMARK SMILES IDX 16 1 15 2 13 3 14 4 12 5 11 6 10 7 8 8 9 9 94 10 85 11 84 12
REMARK SMILES IDX 7 13 3 14 4 15 95 16 5 17 6 18 2 19 1 20 86 21 87 23 88 24
REMARK SMILES IDX 92 25 89 26 91 27 93 28 90 29 17 30 18 31 19 32 20 33 21 34
REMARK SMILES IDX 22 35 83 36 23 37 82 38 24 39 25 40 26 41 76 42 27 43 81 44
REMARK SMILES IDX 75 45 77 46 28 47 80 48 74 49 73 50 29 52 61 53 41 54 60 55
REMARK SMILES IDX 42 56 45 57 59 58 78 59 43 60 44 61 58 63 79 64 46 65 30 66
REMARK SMILES IDX 31 67 39 68 32 69 33 70 37 71 40 72 34 73 35 74 38 75 36 76
REMARK SMILES IDX 62 77 63 78 71 79 64 80 65 81 69 82 72 83 66 84 67 85 70 86
REMARK SMILES IDX 68 87 47 88 48 89 56 90 49 91 50 92 54 93 57 94 51 95 52 96
REMARK SMILES IDX 55 97 53 98
REMARK H PARENT 86 22 77 51 45 62
REMARK Flexibility Score: inf
ROOT
ATOM      1  C   UNL A   1      42.567  20.091  26.126  1.00  0.00     0.274 C 
ENDROOT
BRANCH   1   2
ATOM      2  O   UNL A   1      41.398  20.585  26.813  1.00  0.00    -0.460 OA
BRANCH   2   3
ATOM      3  C   UNL A   1      40.209  20.328  26.208  1.00  0.00     0.344 C 
ATOM      4  O   UNL A   1      39.886  19.238  25.744  1.00  0.00    -0.248 OA
BRANCH   3   5
ATOM      5  C   UNL A   1      39.264  21.528  26.169  1.00  0.00     0.353 C 
BRANCH   5   6
ATOM      6  O   UNL A   1      38.462  21.713  25.019  1.00  0.00    -0.466 OA
BRANCH   6   7
ATOM      7  C   UNL A   1      37.153  22.066  25.188  1.00  0.00     0.219 A 
ATOM      8  C   UNL A   1      35.295  23.486  25.133  1.00  0.00     0.080 A 
ATOM      9  C   UNL A   1      36.665  23.345  25.079  1.00  0.00     0.097 A 
ATOM     10  N   UNL A   1      34.489  22.442  25.341  1.00  0.00    -0.212 NA
ATOM     11  C   UNL A   1      35.040  21.226  25.425  1.00  0.00     0.231 A 
ATOM     12  N   UNL A   1      36.358  21.002  25.383  1.00  0.00    -0.177 NA
BRANCH   8  13
ATOM     13  C   UNL A   1      34.594  24.746  24.861  1.00  0.00     0.004 A 
ATOM     14  C   UNL A   1      33.534  26.251  23.249  1.00  0.00     0.119 A 
ATOM     15  C   UNL A   1      33.237  27.136  24.283  1.00  0.00     0.046 A 
ATOM     16  C   UNL A   1      34.180  25.052  23.551  1.00  0.00     0.056 A 
ATOM     17  C   UNL A   1      33.574  26.823  25.600  1.00  0.00     0.005 A 
ATOM     18  C   UNL A   1      34.253  25.636  25.887  1.00  0.00     0.010 A 
BRANCH  14  19
ATOM     19  O   UNL A   1      33.153  26.665  22.002  1.00  0.00    -0.497 OA
ATOM     20  C   UNL A   1      32.298  25.795  21.267  1.00  0.00     0.278 C 
ENDBRANCH  14  19
ENDBRANCH   8  13
BRANCH  11  21
ATOM     21  N   UNL A   1      34.200  20.128  25.583  1.00  0.00    -0.323 N 
ATOM     22  H   UNL A   1      33.749  20.025  26.452  1.00  0.00     0.170 HD
BRANCH  21  23
ATOM     23  C   UNL A   1      33.943  19.156  24.607  1.00  0.00     0.055 A 
ATOM     24  C   UNL A   1      34.577  17.911  24.723  1.00  0.00     0.027 A 
ATOM     25  C   UNL A   1      32.969  19.316  23.598  1.00  0.00     0.041 A 
ATOM     26  C   UNL A   1      34.228  16.847  23.888  1.00  0.00     0.002 A 
ATOM     27  C   UNL A   1      32.627  18.253  22.758  1.00  0.00     0.018 A 
ATOM     28  Br  UNL A   1      32.123  20.990  23.257  1.00  0.00    -0.049 Br
ATOM     29  C   UNL A   1      33.248  17.015  22.913  1.00  0.00     0.001 A 
ENDBRANCH  21  23
ENDBRANCH  11  21
ENDBRANCH   6   7
ENDBRANCH   5   6
ENDBRANCH   3   5
ENDBRANCH   2   3
ENDBRANCH   1   2
BRANCH   1  30
ATOM     30  C   UNL A   1      43.421  21.205  25.516  1.00  0.00     0.275 C 
BRANCH  30  31
ATOM     31  O   UNL A   1      42.629  22.351  25.144  1.00  0.00    -0.458 OA
BRANCH  31  32
ATOM     32  C   UNL A   1      43.353  23.485  25.074  1.00  0.00     0.338 C 
ATOM     33  O   UNL A   1      44.231  23.718  24.252  1.00  0.00    -0.246 OA
BRANCH  32  34
ATOM     34  C   UNL A   1      42.962  24.495  26.068  1.00  0.00     0.060 A 
ATOM     35  C   UNL A   1      43.545  25.764  26.049  1.00  0.00     0.016 A 
ATOM     36  C   UNL A   1      42.175  24.098  27.151  1.00  0.00     0.016 A 
ATOM     37  C   UNL A   1      43.360  26.629  27.129  1.00  0.00     0.010 A 
ATOM     38  C   UNL A   1      41.956  24.979  28.212  1.00  0.00     0.010 A 
ATOM     39  C   UNL A   1      42.552  26.249  28.213  1.00  0.00    -0.014 A 
BRANCH  39  40
ATOM     40  C   UNL A   1      42.221  27.215  29.288  1.00  0.00     0.031 A 
ATOM     41  C   UNL A   1      42.978  27.251  30.582  1.00  0.00     0.074 A 
ATOM     42  C   UNL A   1      41.171  28.032  29.099  1.00  0.00     0.049 A 
ATOM     43  N   UNL A   1      42.698  27.893  31.688  1.00  0.00    -0.248 NA
ATOM     44  C   UNL A   1      44.213  26.464  30.640  1.00  0.00     0.031 C 
ATOM     45  C   UNL A   1      40.370  28.098  27.877  1.00  0.00     0.029 A 
ATOM     46  N   UNL A   1      40.586  28.942  29.938  1.00  0.00    -0.354 N 
ATOM     47  C   UNL A   1      43.702  27.557  32.587  1.00  0.00     0.074 A 
ATOM     48  C   UNL A   1      44.603  26.660  31.894  1.00  0.00     0.031 C 
ATOM     49  C   UNL A   1      39.384  28.989  28.051  1.00  0.00     0.029 A 
ATOM     50  C   UNL A   1      39.460  29.519  29.408  1.00  0.00     0.049 A 
ATOM     51  H   UNL A   1      40.938  29.161  30.831  1.00  0.00     0.167 HD
ATOM     52  C   UNL A   1      43.849  27.964  33.872  1.00  0.00     0.037 A 
ATOM     53  C   UNL A   1      38.562  30.350  29.966  1.00  0.00     0.037 A 
ATOM     54  C   UNL A   1      42.970  28.893  34.538  1.00  0.00     0.049 A 
ATOM     55  C   UNL A   1      38.750  30.791  31.384  1.00  0.00     0.074 A 
ATOM     56  C   UNL A   1      43.054  29.392  35.828  1.00  0.00     0.029 A 
ATOM     57  N   UNL A   1      41.851  29.473  33.959  1.00  0.00    -0.354 N 
ATOM     58  N   UNL A   1      39.680  30.443  32.239  1.00  0.00    -0.248 NA
ATOM     59  C   UNL A   1      37.764  31.740  31.916  1.00  0.00     0.031 C 
ATOM     60  C   UNL A   1      41.976  30.261  36.035  1.00  0.00     0.029 A 
ATOM     61  C   UNL A   1      41.236  30.322  34.865  1.00  0.00     0.049 A 
ATOM     62  H   UNL A   1      41.540  29.306  33.041  1.00  0.00     0.167 HD
ATOM     63  C   UNL A   1      39.397  31.130  33.408  1.00  0.00     0.074 A 
ATOM     64  C   UNL A   1      38.215  31.929  33.149  1.00  0.00     0.031 C 
ATOM     65  C   UNL A   1      40.056  31.101  34.591  1.00  0.00     0.037 A 
BRANCH  52  66
ATOM     66  C   UNL A   1      44.995  27.407  34.663  1.00  0.00     0.064 A 
ATOM     67  C   UNL A   1      46.224  28.076  34.746  1.00  0.00     0.173 A 
ATOM     68  C   UNL A   1      44.828  26.240  35.424  1.00  0.00     0.173 A 
ATOM     69  F   UNL A   1      46.435  29.191  34.033  1.00  0.00    -0.203 F 
ATOM     70  C   UNL A   1      47.247  27.592  35.559  1.00  0.00     0.198 A 
ATOM     71  C   UNL A   1      45.847  25.769  36.249  1.00  0.00     0.198 A 
ATOM     72  F   UNL A   1      43.667  25.569  35.386  1.00  0.00    -0.203 F 
ATOM     73  F   UNL A   1      48.420  28.238  35.613  1.00  0.00    -0.200 F 
ATOM     74  C   UNL A   1      47.054  26.445  36.316  1.00  0.00     0.200 A 
ATOM     75  F   UNL A   1      45.654  24.667  36.988  1.00  0.00    -0.200 F 
ATOM     76  F   UNL A   1      48.034  25.992  37.110  1.00  0.00    -0.200 F 
ENDBRANCH  52  66
BRANCH  53  77
ATOM     77  C   UNL A   1      37.400  30.788  29.162  1.00  0.00     0.064 A 
ATOM     78  C   UNL A   1      36.345  29.911  28.886  1.00  0.00     0.173 A 
ATOM     79  C   UNL A   1      37.290  32.115  28.721  1.00  0.00     0.173 A 
ATOM     80  F   UNL A   1      36.419  28.631  29.280  1.00  0.00    -0.203 F 
ATOM     81  C   UNL A   1      35.216  30.346  28.198  1.00  0.00     0.198 A 
ATOM     82  C   UNL A   1      36.152  32.553  28.050  1.00  0.00     0.198 A 
ATOM     83  F   UNL A   1      38.274  32.990  28.973  1.00  0.00    -0.203 F 
ATOM     84  F   UNL A   1      34.224  29.486  27.935  1.00  0.00    -0.200 F 
ATOM     85  C   UNL A   1      35.117  31.668  27.788  1.00  0.00     0.200 A 
ATOM     86  F   UNL A   1      36.052  33.835  27.671  1.00  0.00    -0.200 F 
ATOM     87  F   UNL A   1      34.020  32.091  27.144  1.00  0.00    -0.200 F 
ENDBRANCH  53  77
BRANCH  65  88
ATOM     88  C   UNL A   1      39.517  31.968  35.684  1.00  0.00     0.064 A 
ATOM     89  C   UNL A   1      38.549  31.490  36.579  1.00  0.00     0.173 A 
ATOM     90  C   UNL A   1      39.978  33.282  35.844  1.00  0.00     0.173 A 
ATOM     91  F   UNL A   1      38.067  30.246  36.450  1.00  0.00    -0.203 F 
ATOM     92  C   UNL A   1      38.046  32.309  37.586  1.00  0.00     0.198 A 
ATOM     93  C   UNL A   1      39.484  34.092  36.861  1.00  0.00     0.198 A 
ATOM     94  F   UNL A   1      40.903  33.779  35.009  1.00  0.00    -0.203 F 
ATOM     95  F   UNL A   1      37.093  31.848  38.408  1.00  0.00    -0.200 F 
ATOM     96  C   UNL A   1      38.515  33.607  37.728  1.00  0.00     0.200 A 
ATOM     97  F   UNL A   1      39.938  35.345  36.999  1.00  0.00    -0.200 F 
ATOM     98  F   UNL A   1      38.024  34.395  38.693  1.00  0.00    -0.200 F 
ENDBRANCH  65  88
ENDBRANCH  39  40
ENDBRANCH  32  34
ENDBRANCH  31  32
ENDBRANCH  30  31
ENDBRANCH   1  30
TORSDOF 17
ENDMDL
MODEL 2
REMARK VINA RESULT:     -12.4      4.260      9.602
REMARK SMILES COc1cccc(-c2cc(OCC(=O)OCCOC(=O)c3ccc(-c4c5nc(c(-c6c(F)c(F)c(F)c(F)c6F)c6ccc([nH]6)c(-c6c(F)c(F)c(F)c(F)c6F)c6nc(c(-c7c(F)c(F)c(F)c(F)c7F)c7ccc4[nH]7)C=C6)C=C5)cc3)nc(Nc3ccccc3Br)n2)c1
REMARK SMILES IDX 16 1 15 2 13 3 14 4 12 5 11 6 10 7 8 8 9 9 94 10 85 11 84 12
REMARK SMILES IDX 7 13 3 14 4 15 95 16 5 17 6 18 2 19 1 20 86 21 87 23 88 24
REMARK SMILES IDX 92 25 89 26 91 27 93 28 90 29 17 30 18 31 19 32 20 33 21 34
REMARK SMILES IDX 22 35 83 36 23 37 82 38 24 39 25 40 26 41 76 42 27 43 81 44
REMARK SMILES IDX 75 45 77 46 28 47 80 48 74 49 73 50 29 52 61 53 41 54 60 55
REMARK SMILES IDX 42 56 45 57 59 58 78 59 43 60 44 61 58 63 79 64 46 65 30 66
REMARK SMILES IDX 31 67 39 68 32 69 33 70 37 71 40 72 34 73 35 74 38 75 36 76
REMARK SMILES IDX 62 77 63 78 71 79 64 80 65 81 69 82 72 83 66 84 67 85 70 86
REMARK SMILES IDX 68 87 47 88 48 89 56 90 49 91 50 92 54 93 57 94 51 95 52 96
REMARK SMILES IDX 55 97 53 98
REMARK H PARENT 86 22 77 51 45 62
REMARK Flexibility Score: inf
ROOT
ATOM      1  C   UNL A   1      33.284  34.607  28.761  1.00  0.00     0.274 C 
ENDROOT
BRANCH   1   2
ATOM      2  O   UNL A   1      34.196  33.678  29.385  1.00  0.00    -0.460 OA
BRANCH   2   3
ATOM      3  C   UNL A   1      34.782  32.781  28.550  1.00  0.00     0.344 C 
ATOM      4  O   UNL A   1      35.965  32.804  28.224  1.00  0.00    -0.248 OA
BRANCH   3   5
ATOM      5  C   UNL A   1      33.833  31.693  28.050  1.00  0.00     0.353 C 
BRANCH   5   6
ATOM      6  O   UNL A   1      34.383  30.450  27.662  1.00  0.00    -0.466 OA
BRANCH   6   7
ATOM      7  C   UNL A   1      33.841  29.804  26.586  1.00  0.00     0.219 A 
ATOM      8  C   UNL A   1      33.499  28.024  25.108  1.00  0.00     0.080 A 
ATOM      9  C   UNL A   1      34.263  28.588  26.106  1.00  0.00     0.097 A 
ATOM     10  N   UNL A   1      32.440  28.654  24.592  1.00  0.00    -0.212 NA
ATOM     11  C   UNL A   1      32.085  29.830  25.122  1.00  0.00     0.231 A 
ATOM     12  N   UNL A   1      32.770  30.445  26.091  1.00  0.00    -0.177 NA
BRANCH   8  13
ATOM     13  C   UNL A   1      33.697  26.661  24.602  1.00  0.00     0.004 A 
ATOM     14  C   UNL A   1      33.653  25.094  22.724  1.00  0.00     0.119 A 
ATOM     15  C   UNL A   1      34.076  24.074  23.574  1.00  0.00     0.046 A 
ATOM     16  C   UNL A   1      33.500  26.382  23.237  1.00  0.00     0.056 A 
ATOM     17  C   UNL A   1      34.347  24.342  24.916  1.00  0.00     0.005 A 
ATOM     18  C   UNL A   1      34.155  25.628  25.428  1.00  0.00     0.010 A 
BRANCH  14  19
ATOM     19  O   UNL A   1      33.421  24.712  21.431  1.00  0.00    -0.497 OA
ATOM     20  C   UNL A   1      32.590  25.563  20.647  1.00  0.00     0.278 C 
ENDBRANCH  14  19
ENDBRANCH   8  13
BRANCH  11  21
ATOM     21  N   UNL A   1      30.948  30.462  24.629  1.00  0.00    -0.323 N 
ATOM     22  H   UNL A   1      30.856  31.427  24.802  1.00  0.00     0.170 HD
BRANCH  21  23
ATOM     23  C   UNL A   1      29.923  29.840  23.904  1.00  0.00     0.055 A 
ATOM     24  C   UNL A   1      29.880  28.439  23.881  1.00  0.00     0.027 A 
ATOM     25  C   UNL A   1      28.851  30.549  23.320  1.00  0.00     0.041 A 
ATOM     26  C   UNL A   1      28.789  27.763  23.329  1.00  0.00     0.002 A 
ATOM     27  C   UNL A   1      27.765  29.871  22.761  1.00  0.00     0.018 A 
ATOM     28  Br  UNL A   1      28.847  32.450  23.178  1.00  0.00    -0.049 Br
ATOM     29  C   UNL A   1      27.729  28.478  22.778  1.00  0.00     0.001 A 
ENDBRANCH  21  23
ENDBRANCH  11  21
ENDBRANCH   6   7
ENDBRANCH   5   6
ENDBRANCH   3   5
ENDBRANCH   2   3
ENDBRANCH   1   2
BRANCH   1  30
ATOM     30  C   UNL A   1      32.925  35.791  29.662  1.00  0.00     0.275 C 
BRANCH  30  31
ATOM     31  O   UNL A   1      32.160  35.381  30.814  1.00  0.00    -0.458 OA
BRANCH  31  32
ATOM     32  C   UNL A   1      32.639  35.891  31.966  1.00  0.00     0.338 C 
ATOM     33  O   UNL A   1      32.164  36.842  32.573  1.00  0.00    -0.246 OA
BRANCH  32  34
ATOM     34  C   UNL A   1      33.795  35.157  32.498  1.00  0.00     0.060 A 
ATOM     35  C   UNL A   1      35.082  35.686  32.375  1.00  0.00     0.016 A 
ATOM     36  C   UNL A   1      33.615  33.838  32.921  1.00  0.00     0.016 A 
ATOM     37  C   UNL A   1      36.192  34.886  32.654  1.00  0.00     0.010 A 
ATOM     38  C   UNL A   1      34.723  33.051  33.240  1.00  0.00     0.010 A 
ATOM     39  C   UNL A   1      36.021  33.566  33.102  1.00  0.00    -0.014 A 
BRANCH  39  40
ATOM     40  C   UNL A   1      37.182  32.761  33.551  1.00  0.00     0.031 A 
ATOM     41  C   UNL A   1      37.880  33.030  34.850  1.00  0.00     0.074 A 
ATOM     42  C   UNL A   1      37.643  31.807  32.724  1.00  0.00     0.049 A 
ATOM     43  N   UNL A   1      39.014  32.554  35.297  1.00  0.00    -0.248 NA
ATOM     44  C   UNL A   1      37.213  33.956  35.772  1.00  0.00     0.031 C 
ATOM     45  C   UNL A   1      37.039  31.444  31.443  1.00  0.00     0.029 A 
ATOM     46  N   UNL A   1      38.736  30.987  32.829  1.00  0.00    -0.354 N 
ATOM     47  C   UNL A   1      39.218  33.151  36.534  1.00  0.00     0.074 A 
ATOM     48  C   UNL A   1      38.083  34.019  36.772  1.00  0.00     0.031 C 
ATOM     49  C   UNL A   1      37.778  30.484  30.869  1.00  0.00     0.029 A 
ATOM     50  C   UNL A   1      38.928  30.202  31.721  1.00  0.00     0.049 A 
ATOM     51  H   UNL A   1      39.322  30.963  33.619  1.00  0.00     0.167 HD
ATOM     52  C   UNL A   1      40.259  32.984  37.386  1.00  0.00     0.037 A 
ATOM     53  C   UNL A   1      39.941  29.376  31.405  1.00  0.00     0.037 A 
ATOM     54  C   UNL A   1      41.361  32.083  37.159  1.00  0.00     0.049 A 
ATOM     55  C   UNL A   1      41.077  29.202  32.365  1.00  0.00     0.074 A 
ATOM     56  C   UNL A   1      42.448  31.819  37.977  1.00  0.00     0.029 A 
ATOM     57  N   UNL A   1      41.509  31.287  36.033  1.00  0.00    -0.354 N 
ATOM     58  N   UNL A   1      41.280  29.796  33.515  1.00  0.00    -0.248 NA
ATOM     59  C   UNL A   1      42.124  28.247  31.984  1.00  0.00     0.031 C 
ATOM     60  C   UNL A   1      43.262  30.877  37.338  1.00  0.00     0.029 A 
ATOM     61  C   UNL A   1      42.669  30.535  36.134  1.00  0.00     0.049 A 
ATOM     62  H   UNL A   1      40.884  31.261  35.274  1.00  0.00     0.167 HD
ATOM     63  C   UNL A   1      42.474  29.285  34.000  1.00  0.00     0.074 A 
ATOM     64  C   UNL A   1      42.943  28.320  33.024  1.00  0.00     0.031 C 
ATOM     65  C   UNL A   1      43.123  29.589  35.149  1.00  0.00     0.037 A 
BRANCH  52  66
ATOM     66  C   UNL A   1      40.278  33.796  38.647  1.00  0.00     0.064 A 
ATOM     67  C   UNL A   1      39.622  33.364  39.808  1.00  0.00     0.173 A 
ATOM     68  C   UNL A   1      41.040  34.972  38.720  1.00  0.00     0.173 A 
ATOM     69  F   UNL A   1      38.876  32.251  39.788  1.00  0.00    -0.203 F 
ATOM     70  C   UNL A   1      39.727  34.085  40.997  1.00  0.00     0.198 A 
ATOM     71  C   UNL A   1      41.155  35.680  39.914  1.00  0.00     0.198 A 
ATOM     72  F   UNL A   1      41.693  35.422  37.637  1.00  0.00    -0.203 F 
ATOM     73  F   UNL A   1      39.081  33.663  42.093  1.00  0.00    -0.200 F 
ATOM     74  C   UNL A   1      40.499  35.235  41.051  1.00  0.00     0.200 A 
ATOM     75  F   UNL A   1      41.912  36.786  39.966  1.00  0.00    -0.200 F 
ATOM     76  F   UNL A   1      40.611  35.917  42.200  1.00  0.00    -0.200 F 
ENDBRANCH  52  66
BRANCH  53  77
ATOM     77  C   UNL A   1      39.911  28.676  30.101  1.00  0.00     0.064 A 
ATOM     78  C   UNL A   1      40.491  29.249  28.964  1.00  0.00     0.173 A 
ATOM     79  C   UNL A   1      39.367  27.388  29.989  1.00  0.00     0.173 A 
ATOM     80  F   UNL A   1      41.009  30.484  29.028  1.00  0.00    -0.203 F 
ATOM     81  C   UNL A   1      40.532  28.556  27.757  1.00  0.00     0.198 A 
ATOM     82  C   UNL A   1      39.426  26.689  28.787  1.00  0.00     0.198 A 
ATOM     83  F   UNL A   1      38.811  26.799  31.058  1.00  0.00    -0.203 F 
ATOM     84  F   UNL A   1      41.082  29.129  26.679  1.00  0.00    -0.200 F 
ATOM     85  C   UNL A   1      40.008  27.274  27.672  1.00  0.00     0.200 A 
ATOM     86  F   UNL A   1      38.935  25.445  28.713  1.00  0.00    -0.200 F 
ATOM     87  F   UNL A   1      40.067  26.601  26.516  1.00  0.00    -0.200 F 
ENDBRANCH  53  77
BRANCH  65  88
ATOM     88  C   UNL A   1      44.402  28.859  35.412  1.00  0.00     0.064 A 
ATOM     89  C   UNL A   1      45.634  29.377  34.989  1.00  0.00     0.173 A 
ATOM     90  C   UNL A   1      44.396  27.638  36.101  1.00  0.00     0.173 A 
ATOM     91  F   UNL A   1      45.682  30.532  34.311  1.00  0.00    -0.203 F 
ATOM     92  C   UNL A   1      46.817  28.685  35.230  1.00  0.00     0.198 A 
ATOM     93  C   UNL A   1      45.583  26.957  36.354  1.00  0.00     0.198 A 
ATOM     94  F   UNL A   1      43.239  27.106  36.524  1.00  0.00    -0.203 F 
ATOM     95  F   UNL A   1      47.982  29.177  34.785  1.00  0.00    -0.200 F 
ATOM     96  C   UNL A   1      46.792  27.478  35.914  1.00  0.00     0.200 A 
ATOM     97  F   UNL A   1      45.557  25.791  37.015  1.00  0.00    -0.200 F 
ATOM     98  F   UNL A   1      47.931  26.810  36.138  1.00  0.00    -0.200 F 
ENDBRANCH  65  88
ENDBRANCH  39  40
ENDBRANCH  32  34
ENDBRANCH  31  32
ENDBRANCH  30  31
ENDBRANCH   1  30
TORSDOF 17
ENDMDL
MODEL 3
REMARK VINA RESULT:     -12.4      4.751      9.036
REMARK SMILES COc1cccc(-c2cc(OCC(=O)OCCOC(=O)c3ccc(-c4c5nc(c(-c6c(F)c(F)c(F)c(F)c6F)c6ccc([nH]6)c(-c6c(F)c(F)c(F)c(F)c6F)c6nc(c(-c7c(F)c(F)c(F)c(F)c7F)c7ccc4[nH]7)C=C6)C=C5)cc3)nc(Nc3ccccc3Br)n2)c1
REMARK SMILES IDX 16 1 15 2 13 3 14 4 12 5 11 6 10 7 8 8 9 9 94 10 85 11 84 12
REMARK SMILES IDX 7 13 3 14 4 15 95 16 5 17 6 18 2 19 1 20 86 21 87 23 88 24
REMARK SMILES IDX 92 25 89 26 91 27 93 28 90 29 17 30 18 31 19 32 20 33 21 34
REMARK SMILES IDX 22 35 83 36 23 37 82 38 24 39 25 40 26 41 76 42 27 43 81 44
REMARK SMILES IDX 75 45 77 46 28 47 80 48 74 49 73 50 29 52 61 53 41 54 60 55
REMARK SMILES IDX 42 56 45 57 59 58 78 59 43 60 44 61 58 63 79 64 46 65 30 66
REMARK SMILES IDX 31 67 39 68 32 69 33 70 37 71 40 72 34 73 35 74 38 75 36 76
REMARK SMILES IDX 62 77 63 78 71 79 64 80 65 81 69 82 72 83 66 84 67 85 70 86
REMARK SMILES IDX 68 87 47 88 48 89 56 90 49 91 50 92 54 93 57 94 51 95 52 96
REMARK SMILES IDX 55 97 53 98
REMARK H PARENT 86 22 77 51 45 62
REMARK Flexibility Score: inf
ROOT
ATOM      1  C   UNL A   1      36.592  22.415  23.700  1.00  0.00     0.274 C 
ENDROOT
BRANCH   1   2
ATOM      2  O   UNL A   1      35.562  23.128  24.418  1.00  0.00    -0.460 OA
BRANCH   2   3
ATOM      3  C   UNL A   1      34.288  22.732  24.163  1.00  0.00     0.344 C 
ATOM      4  O   UNL A   1      33.711  21.823  24.753  1.00  0.00    -0.248 OA
BRANCH   3   5
ATOM      5  C   UNL A   1      33.596  23.545  23.069  1.00  0.00     0.353 C 
BRANCH   5   6
ATOM      6  O   UNL A   1      34.105  24.829  22.765  1.00  0.00    -0.466 OA
BRANCH   6   7
ATOM      7  C   UNL A   1      33.456  25.922  23.266  1.00  0.00     0.219 A 
ATOM      8  C   UNL A   1      33.155  27.784  24.650  1.00  0.00     0.080 A 
ATOM      9  C   UNL A   1      33.845  26.621  24.383  1.00  0.00     0.097 A 
ATOM     10  N   UNL A   1      32.124  28.179  23.897  1.00  0.00    -0.212 NA
ATOM     11  C   UNL A   1      31.815  27.450  22.819  1.00  0.00     0.231 A 
ATOM     12  N   UNL A   1      32.433  26.310  22.489  1.00  0.00    -0.177 NA
BRANCH   8  13
ATOM     13  C   UNL A   1      33.544  28.742  25.691  1.00  0.00     0.004 A 
ATOM     14  C   UNL A   1      33.082  30.804  26.923  1.00  0.00     0.119 A 
ATOM     15  C   UNL A   1      34.232  30.600  27.682  1.00  0.00     0.046 A 
ATOM     16  C   UNL A   1      32.731  29.858  25.959  1.00  0.00     0.056 A 
ATOM     17  C   UNL A   1      35.016  29.463  27.484  1.00  0.00     0.005 A 
ATOM     18  C   UNL A   1      34.676  28.541  26.491  1.00  0.00     0.010 A 
BRANCH  14  19
ATOM     19  O   UNL A   1      32.394  31.952  27.209  1.00  0.00    -0.497 OA
ATOM     20  C   UNL A   1      31.216  32.203  26.448  1.00  0.00     0.278 C 
ENDBRANCH  14  19
ENDBRANCH   8  13
BRANCH  11  21
ATOM     21  N   UNL A   1      30.780  27.887  21.998  1.00  0.00    -0.323 N 
ATOM     22  H   UNL A   1      30.758  27.543  21.076  1.00  0.00     0.170 HD
BRANCH  21  23
ATOM     23  C   UNL A   1      29.765  28.777  22.376  1.00  0.00     0.055 A 
ATOM     24  C   UNL A   1      29.834  30.099  21.917  1.00  0.00     0.027 A 
ATOM     25  C   UNL A   1      28.607  28.373  23.073  1.00  0.00     0.041 A 
ATOM     26  C   UNL A   1      28.769  30.982  22.110  1.00  0.00     0.002 A 
ATOM     27  C   UNL A   1      27.545  29.260  23.272  1.00  0.00     0.018 A 
ATOM     28  Br  UNL A   1      28.441  26.641  23.853  1.00  0.00    -0.049 Br
ATOM     29  C   UNL A   1      27.623  30.561  22.779  1.00  0.00     0.001 A 
ENDBRANCH  21  23
ENDBRANCH  11  21
ENDBRANCH   6   7
ENDBRANCH   5   6
ENDBRANCH   3   5
ENDBRANCH   2   3
ENDBRANCH   1   2
BRANCH   1  30
ATOM     30  C   UNL A   1      37.131  21.206  24.467  1.00  0.00     0.275 C 
BRANCH  30  31
ATOM     31  O   UNL A   1      37.453  21.533  25.834  1.00  0.00    -0.458 OA
BRANCH  31  32
ATOM     32  C   UNL A   1      38.766  21.405  26.106  1.00  0.00     0.338 C 
ATOM     33  O   UNL A   1      39.437  20.400  25.911  1.00  0.00    -0.246 OA
BRANCH  32  34
ATOM     34  C   UNL A   1      39.380  22.633  26.631  1.00  0.00     0.060 A 
ATOM     35  C   UNL A   1      38.986  23.881  26.142  1.00  0.00     0.016 A 
ATOM     36  C   UNL A   1      40.504  22.522  27.451  1.00  0.00     0.016 A 
ATOM     37  C   UNL A   1      39.734  25.018  26.455  1.00  0.00     0.010 A 
ATOM     38  C   UNL A   1      41.228  23.665  27.799  1.00  0.00     0.010 A 
ATOM     39  C   UNL A   1      40.853  24.920  27.298  1.00  0.00    -0.014 A 
BRANCH  39  40
ATOM     40  C   UNL A   1      41.559  26.138  27.764  1.00  0.00     0.031 A 
ATOM     41  C   UNL A   1      40.864  27.204  28.557  1.00  0.00     0.074 A 
ATOM     42  C   UNL A   1      42.843  26.298  27.402  1.00  0.00     0.049 A 
ATOM     43  N   UNL A   1      41.278  28.405  28.872  1.00  0.00    -0.248 NA
ATOM     44  C   UNL A   1      39.529  26.876  29.065  1.00  0.00     0.031 C 
ATOM     45  C   UNL A   1      43.628  25.324  26.645  1.00  0.00     0.029 A 
ATOM     46  N   UNL A   1      43.704  27.345  27.602  1.00  0.00    -0.354 N 
ATOM     47  C   UNL A   1      40.238  28.991  29.583  1.00  0.00     0.074 A 
ATOM     48  C   UNL A   1      39.176  28.009  29.660  1.00  0.00     0.031 C 
ATOM     49  C   UNL A   1      44.853  25.825  26.428  1.00  0.00     0.029 A 
ATOM     50  C   UNL A   1      44.918  27.170  26.990  1.00  0.00     0.049 A 
ATOM     51  H   UNL A   1      43.474  28.143  28.132  1.00  0.00     0.167 HD
ATOM     52  C   UNL A   1      40.183  30.235  30.117  1.00  0.00     0.037 A 
ATOM     53  C   UNL A   1      45.956  28.014  26.858  1.00  0.00     0.037 A 
ATOM     54  C   UNL A   1      41.263  31.190  30.074  1.00  0.00     0.049 A 
ATOM     55  C   UNL A   1      45.876  29.381  27.463  1.00  0.00     0.074 A 
ATOM     56  C   UNL A   1      41.316  32.464  30.614  1.00  0.00     0.029 A 
ATOM     57  N   UNL A   1      42.488  30.966  29.463  1.00  0.00    -0.354 N 
ATOM     58  N   UNL A   1      44.878  29.941  28.102  1.00  0.00    -0.248 NA
ATOM     59  C   UNL A   1      47.063  30.234  27.329  1.00  0.00     0.031 C 
ATOM     60  C   UNL A   1      42.567  33.018  30.316  1.00  0.00     0.029 A 
ATOM     61  C   UNL A   1      43.301  32.078  29.611  1.00  0.00     0.049 A 
ATOM     62  H   UNL A   1      42.742  30.140  28.992  1.00  0.00     0.167 HD
ATOM     63  C   UNL A   1      45.315  31.209  28.451  1.00  0.00     0.074 A 
ATOM     64  C   UNL A   1      46.675  31.332  27.965  1.00  0.00     0.031 C 
ATOM     65  C   UNL A   1      44.648  32.184  29.113  1.00  0.00     0.037 A 
BRANCH  52  66
ATOM     66  C   UNL A   1      38.912  30.660  30.793  1.00  0.00     0.064 A 
ATOM     67  C   UNL A   1      38.730  30.512  32.174  1.00  0.00     0.173 A 
ATOM     68  C   UNL A   1      37.905  31.309  30.061  1.00  0.00     0.173 A 
ATOM     69  F   UNL A   1      39.661  29.894  32.915  1.00  0.00    -0.203 F 
ATOM     70  C   UNL A   1      37.582  30.995  32.799  1.00  0.00     0.198 A 
ATOM     71  C   UNL A   1      36.767  31.805  30.692  1.00  0.00     0.198 A 
ATOM     72  F   UNL A   1      38.037  31.481  28.738  1.00  0.00    -0.203 F 
ATOM     73  F   UNL A   1      37.421  30.832  34.119  1.00  0.00    -0.200 F 
ATOM     74  C   UNL A   1      36.607  31.648  32.060  1.00  0.00     0.200 A 
ATOM     75  F   UNL A   1      35.831  32.445  29.976  1.00  0.00    -0.200 F 
ATOM     76  F   UNL A   1      35.511  32.127  32.666  1.00  0.00    -0.200 F 
ENDBRANCH  52  66
BRANCH  53  77
ATOM     77  C   UNL A   1      47.145  27.569  26.097  1.00  0.00     0.064 A 
ATOM     78  C   UNL A   1      47.194  27.693  24.704  1.00  0.00     0.173 A 
ATOM     79  C   UNL A   1      48.283  27.084  26.758  1.00  0.00     0.173 A 
ATOM     80  F   UNL A   1      46.122  28.141  24.034  1.00  0.00    -0.203 F 
ATOM     81  C   UNL A   1      48.342  27.349  23.996  1.00  0.00     0.198 A 
ATOM     82  C   UNL A   1      49.436  26.758  26.052  1.00  0.00     0.198 A 
ATOM     83  F   UNL A   1      48.281  26.960  28.094  1.00  0.00    -0.203 F 
ATOM     84  F   UNL A   1      48.363  27.464  22.662  1.00  0.00    -0.200 F 
ATOM     85  C   UNL A   1      49.465  26.890  24.671  1.00  0.00     0.200 A 
ATOM     86  F   UNL A   1      50.524  26.332  26.708  1.00  0.00    -0.200 F 
ATOM     87  F   UNL A   1      50.577  26.579  23.991  1.00  0.00    -0.200 F 
ENDBRANCH  53  77
BRANCH  65  88
ATOM     88  C   UNL A   1      45.389  33.460  29.357  1.00  0.00     0.064 A 
ATOM     89  C   UNL A   1      46.141  33.650  30.526  1.00  0.00     0.173 A 
ATOM     90  C   UNL A   1      45.357  34.495  28.412  1.00  0.00     0.173 A 
ATOM     91  F   UNL A   1      46.183  32.692  31.463  1.00  0.00    -0.203 F 
ATOM     92  C   UNL A   1      46.819  34.845  30.749  1.00  0.00     0.198 A 
ATOM     93  C   UNL A   1      46.049  35.682  28.632  1.00  0.00     0.198 A 
ATOM     94  F   UNL A   1      44.650  34.355  27.281  1.00  0.00    -0.203 F 
ATOM     95  F   UNL A   1      47.501  35.024  31.889  1.00  0.00    -0.200 F 
ATOM     96  C   UNL A   1      46.775  35.858  29.802  1.00  0.00     0.200 A 
ATOM     97  F   UNL A   1      46.007  36.660  27.717  1.00  0.00    -0.200 F 
ATOM     98  F   UNL A   1      47.422  37.010  30.022  1.00  0.00    -0.200 F 
ENDBRANCH  65  88
ENDBRANCH  39  40
ENDBRANCH  32  34
ENDBRANCH  31  32
ENDBRANCH  30  31
ENDBRANCH   1  30
TORSDOF 17
ENDMDL
