MODEL 1
REMARK VINA RESULT:     -13.7      0.000      0.000
REMARK SMILES Cc1ccc2occ(/C=N/NC(=O)CCC(=O)Nc3ccc(C(=O)OCCOC(=O)c4ccc(-c5c6nc(c(-c7c(F)c(F)c(F)c(F)c7F)c7ccc([nH]7)c(-c7c(F)c(F)c(F)c(F)c7F)c7nc(c(-c8c(F)c(F)c(F)c(F)c8F)c8ccc5[nH]8)C=C7)C=C6)cc4)cc3)c(=O)c2c1
REMARK SMILES IDX 23 1 24 2 22 3 19 4 20 5 95 6 21 7 94 8 18 9 16 10 17 11
REMARK SMILES IDX 15 13 14 14 12 15 11 16 13 18 10 19 9 20 8 21 1 22 2 23 3 24
REMARK SMILES IDX 99 25 4 26 98 27 5 28 96 29 6 30 97 31 7 32 25 33 26 34
REMARK SMILES IDX 27 35 28 36 29 37 30 38 31 39 32 40 93 41 33 42 92 43 34 44
REMARK SMILES IDX 35 45 36 46 86 47 37 48 91 49 85 50 87 51 38 52 90 53 84 54
REMARK SMILES IDX 83 55 39 57 71 58 51 59 70 60 52 61 55 62 69 63 88 64 53 65
REMARK SMILES IDX 54 66 68 68 89 69 56 70 40 71 41 72 49 73 42 74 43 75 47 76
REMARK SMILES IDX 50 77 44 78 45 79 48 80 46 81 72 82 73 83 81 84 74 85 75 86
REMARK SMILES IDX 79 87 82 88 76 89 77 90 80 91 78 92 57 93 58 94 66 95 59 96
REMARK SMILES IDX 60 97 64 98 67 99 61 100 62 101 65 102 63 103
REMARK H PARENT 18 12 11 17 87 56 55 67
REMARK Flexibility Score: inf
ROOT
ATOM      1  C   UNL A   1      31.415  27.374  26.823  1.00  0.00     0.338 C 
ATOM      2  O   UNL A   1      31.527  27.732  27.983  1.00  0.00    -0.246 OA
ENDROOT
BRANCH   1   3
ATOM      3  C   UNL A   1      31.444  25.957  26.453  1.00  0.00     0.060 A 
ATOM      4  C   UNL A   1      31.606  23.178  26.259  1.00  0.00     0.041 A 
ATOM      5  C   UNL A   1      30.367  23.816  26.151  1.00  0.00     0.027 A 
ATOM      6  C   UNL A   1      32.742  23.946  26.505  1.00  0.00     0.027 A 
ATOM      7  C   UNL A   1      30.287  25.207  26.226  1.00  0.00     0.018 A 
ATOM      8  C   UNL A   1      32.672  25.331  26.576  1.00  0.00     0.018 A 
BRANCH   4   9
ATOM      9  N   UNL A   1      31.615  21.794  26.060  1.00  0.00    -0.326 N 
ATOM     10  C   UNL A   1      32.103  21.007  25.067  1.00  0.00     0.224 C 
ATOM     11  O   UNL A   1      31.948  19.786  25.196  1.00  0.00    -0.275 OA
ATOM     12  H   UNL A   1      31.182  21.289  26.785  1.00  0.00     0.169 HD
BRANCH  10  13
ATOM     13  C   UNL A   1      32.828  21.540  23.852  1.00  0.00     0.110 C 
BRANCH  13  14
ATOM     14  C   UNL A   1      32.276  22.708  23.028  1.00  0.00     0.112 C 
BRANCH  14  15
ATOM     15  C   UNL A   1      33.146  23.685  22.235  1.00  0.00     0.240 C 
ATOM     16  N   UNL A   1      32.659  24.878  21.755  1.00  0.00    -0.247 N 
ATOM     17  H   UNL A   1      33.266  25.404  21.185  1.00  0.00     0.193 HD
ATOM     18  O   UNL A   1      34.316  23.382  21.972  1.00  0.00    -0.273 OA
BRANCH  16  19
ATOM     19  N   UNL A   1      31.427  25.409  21.982  1.00  0.00    -0.180 NA
ATOM     20  C   UNL A   1      31.435  26.475  22.710  1.00  0.00     0.148 C 
BRANCH  20  21
ATOM     21  C   UNL A   1      30.313  27.411  22.818  1.00  0.00     0.078 A 
ATOM     22  C   UNL A   1      28.904  33.474  22.992  1.00  0.00     0.044 C 
ATOM     23  C   UNL A   1      28.649  31.999  23.060  1.00  0.00    -0.050 A 
ATOM     24  C   UNL A   1      27.427  31.480  23.510  1.00  0.00     0.007 A 
ATOM     25  C   UNL A   1      29.659  31.120  22.669  1.00  0.00     0.019 A 
ATOM     26  C   UNL A   1      27.216  30.096  23.572  1.00  0.00     0.048 A 
ATOM     27  C   UNL A   1      29.455  29.744  22.777  1.00  0.00     0.066 A 
ATOM     28  C   UNL A   1      28.238  29.224  23.211  1.00  0.00     0.137 A 
ATOM     29  C   UNL A   1      30.566  28.830  22.523  1.00  0.00     0.201 A 
ATOM     30  O   UNL A   1      28.003  27.873  23.327  1.00  0.00    -0.463 OA
ATOM     31  O   UNL A   1      31.660  29.223  22.132  1.00  0.00    -0.288 OA
ATOM     32  C   UNL A   1      29.080  27.028  23.160  1.00  0.00     0.209 A 
ENDBRANCH  20  21
ENDBRANCH  16  19
ENDBRANCH  14  15
ENDBRANCH  13  14
ENDBRANCH  10  13
ENDBRANCH   4   9
ENDBRANCH   1   3
BRANCH   1  33
ATOM     33  O   UNL A   1      31.360  28.153  25.723  1.00  0.00    -0.458 OA
BRANCH  33  34
ATOM     34  C   UNL A   1      32.530  28.964  25.522  1.00  0.00     0.275 C 
BRANCH  34  35
ATOM     35  C   UNL A   1      32.266  30.432  25.859  1.00  0.00     0.275 C 
BRANCH  35  36
ATOM     36  O   UNL A   1      32.551  30.722  27.243  1.00  0.00    -0.458 OA
BRANCH  36  37
ATOM     37  C   UNL A   1      33.323  31.811  27.439  1.00  0.00     0.338 C 
ATOM     38  O   UNL A   1      32.963  32.979  27.487  1.00  0.00    -0.246 OA
BRANCH  37  39
ATOM     39  C   UNL A   1      34.722  31.448  27.705  1.00  0.00     0.060 A 
ATOM     40  C   UNL A   1      34.997  30.124  28.021  1.00  0.00     0.016 A 
ATOM     41  C   UNL A   1      35.675  32.431  27.958  1.00  0.00     0.016 A 
ATOM     42  C   UNL A   1      36.121  29.798  28.762  1.00  0.00     0.010 A 
ATOM     43  C   UNL A   1      36.891  32.068  28.554  1.00  0.00     0.010 A 
ATOM     44  C   UNL A   1      37.104  30.757  29.019  1.00  0.00    -0.014 A 
BRANCH  44  45
ATOM     45  C   UNL A   1      38.308  30.383  29.816  1.00  0.00     0.031 A 
ATOM     46  C   UNL A   1      39.358  29.481  29.218  1.00  0.00     0.074 A 
ATOM     47  C   UNL A   1      38.490  30.880  31.058  1.00  0.00     0.049 A 
ATOM     48  N   UNL A   1      40.350  28.859  29.805  1.00  0.00    -0.248 NA
ATOM     49  C   UNL A   1      39.272  29.229  27.770  1.00  0.00     0.031 C 
ATOM     50  C   UNL A   1      37.599  31.824  31.737  1.00  0.00     0.029 A 
ATOM     51  N   UNL A   1      39.493  30.667  31.973  1.00  0.00    -0.354 N 
ATOM     52  C   UNL A   1      40.951  28.086  28.819  1.00  0.00     0.074 A 
ATOM     53  C   UNL A   1      40.217  28.318  27.595  1.00  0.00     0.031 C 
ATOM     54  C   UNL A   1      38.118  32.149  32.929  1.00  0.00     0.029 A 
ATOM     55  C   UNL A   1      39.302  31.336  33.158  1.00  0.00     0.049 A 
ATOM     56  H   UNL A   1      40.272  30.091  31.795  1.00  0.00     0.167 HD
ATOM     57  C   UNL A   1      42.015  27.256  28.935  1.00  0.00     0.037 A 
ATOM     58  C   UNL A   1      39.960  31.254  34.329  1.00  0.00     0.037 A 
ATOM     59  C   UNL A   1      42.776  27.088  30.148  1.00  0.00     0.049 A 
ATOM     60  C   UNL A   1      41.107  30.292  34.445  1.00  0.00     0.074 A 
ATOM     61  C   UNL A   1      43.875  26.278  30.374  1.00  0.00     0.029 A 
ATOM     62  N   UNL A   1      42.525  27.761  31.336  1.00  0.00    -0.354 N 
ATOM     63  N   UNL A   1      41.618  29.501  33.534  1.00  0.00    -0.248 NA
ATOM     64  C   UNL A   1      41.755  30.197  35.759  1.00  0.00     0.031 C 
ATOM     65  C   UNL A   1      44.259  26.424  31.711  1.00  0.00     0.029 A 
ATOM     66  C   UNL A   1      43.441  27.375  32.301  1.00  0.00     0.049 A 
ATOM     67  H   UNL A   1      41.803  28.416  31.473  1.00  0.00     0.167 HD
ATOM     68  C   UNL A   1      42.663  28.833  34.155  1.00  0.00     0.074 A 
ATOM     69  C   UNL A   1      42.724  29.327  35.515  1.00  0.00     0.031 C 
ATOM     70  C   UNL A   1      43.496  27.892  33.645  1.00  0.00     0.037 A 
BRANCH  57  71
ATOM     71  C   UNL A   1      42.394  26.426  27.740  1.00  0.00     0.064 A 
ATOM     72  C   UNL A   1      43.398  26.814  26.841  1.00  0.00     0.173 A 
ATOM     73  C   UNL A   1      41.757  25.194  27.513  1.00  0.00     0.173 A 
ATOM     74  F   UNL A   1      44.030  27.988  27.002  1.00  0.00    -0.203 F 
ATOM     75  C   UNL A   1      43.732  26.017  25.748  1.00  0.00     0.198 A 
ATOM     76  C   UNL A   1      42.116  24.383  26.439  1.00  0.00     0.198 A 
ATOM     77  F   UNL A   1      40.792  24.768  28.342  1.00  0.00    -0.203 F 
ATOM     78  F   UNL A   1      44.659  26.434  24.875  1.00  0.00    -0.200 F 
ATOM     79  C   UNL A   1      43.098  24.799  25.553  1.00  0.00     0.200 A 
ATOM     80  F   UNL A   1      41.513  23.199  26.262  1.00  0.00    -0.200 F 
ATOM     81  F   UNL A   1      43.428  24.029  24.507  1.00  0.00    -0.200 F 
ENDBRANCH  57  71
BRANCH  58  82
ATOM     82  C   UNL A   1      39.506  32.058  35.498  1.00  0.00     0.064 A 
ATOM     83  C   UNL A   1      38.583  31.542  36.416  1.00  0.00     0.173 A 
ATOM     84  C   UNL A   1      39.983  33.361  35.717  1.00  0.00     0.173 A 
ATOM     85  F   UNL A   1      38.078  30.313  36.239  1.00  0.00    -0.203 F 
ATOM     86  C   UNL A   1      38.142  32.303  37.497  1.00  0.00     0.198 A 
ATOM     87  C   UNL A   1      39.572  34.104  36.820  1.00  0.00     0.198 A 
ATOM     88  F   UNL A   1      40.869  33.905  34.869  1.00  0.00    -0.203 F 
ATOM     89  F   UNL A   1      37.218  31.804  38.331  1.00  0.00    -0.200 F 
ATOM     90  C   UNL A   1      38.643  33.578  37.704  1.00  0.00     0.200 A 
ATOM     91  F   UNL A   1      40.076  35.329  37.025  1.00  0.00    -0.200 F 
ATOM     92  F   UNL A   1      38.225  34.305  38.749  1.00  0.00    -0.200 F 
ENDBRANCH  58  82
BRANCH  70  93
ATOM     93  C   UNL A   1      44.585  27.388  34.547  1.00  0.00     0.064 A 
ATOM     94  C   UNL A   1      45.830  28.029  34.636  1.00  0.00     0.173 A 
ATOM     95  C   UNL A   1      44.370  26.253  35.343  1.00  0.00     0.173 A 
ATOM     96  F   UNL A   1      46.091  29.106  33.881  1.00  0.00    -0.203 F 
ATOM     97  C   UNL A   1      46.832  27.529  35.463  1.00  0.00     0.198 A 
ATOM     98  C   UNL A   1      45.361  25.778  36.196  1.00  0.00     0.198 A 
ATOM     99  F   UNL A   1      43.194  25.609  35.298  1.00  0.00    -0.203 F 
ATOM    100  F   UNL A   1      48.035  28.118  35.486  1.00  0.00    -0.200 F 
ATOM    101  C   UNL A   1      46.595  26.408  36.247  1.00  0.00     0.200 A 
ATOM    102  F   UNL A   1      45.123  24.705  36.963  1.00  0.00    -0.200 F 
ATOM    103  F   UNL A   1      47.559  25.931  37.044  1.00  0.00    -0.200 F 
ENDBRANCH  70  93
ENDBRANCH  44  45
ENDBRANCH  37  39
ENDBRANCH  36  37
ENDBRANCH  35  36
ENDBRANCH  34  35
ENDBRANCH  33  34
ENDBRANCH   1  33
TORSDOF 17
ENDMDL
MODEL 2
REMARK VINA RESULT:     -13.4      1.736      2.695
REMARK SMILES Cc1ccc2occ(/C=N/NC(=O)CCC(=O)Nc3ccc(C(=O)OCCOC(=O)c4ccc(-c5c6nc(c(-c7c(F)c(F)c(F)c(F)c7F)c7ccc([nH]7)c(-c7c(F)c(F)c(F)c(F)c7F)c7nc(c(-c8c(F)c(F)c(F)c(F)c8F)c8ccc5[nH]8)C=C7)C=C6)cc4)cc3)c(=O)c2c1
REMARK SMILES IDX 23 1 24 2 22 3 19 4 20 5 95 6 21 7 94 8 18 9 16 10 17 11
REMARK SMILES IDX 15 13 14 14 12 15 11 16 13 18 10 19 9 20 8 21 1 22 2 23 3 24
REMARK SMILES IDX 99 25 4 26 98 27 5 28 96 29 6 30 97 31 7 32 25 33 26 34
REMARK SMILES IDX 27 35 28 36 29 37 30 38 31 39 32 40 93 41 33 42 92 43 34 44
REMARK SMILES IDX 35 45 36 46 86 47 37 48 91 49 85 50 87 51 38 52 90 53 84 54
REMARK SMILES IDX 83 55 39 57 71 58 51 59 70 60 52 61 55 62 69 63 88 64 53 65
REMARK SMILES IDX 54 66 68 68 89 69 56 70 40 71 41 72 49 73 42 74 43 75 47 76
REMARK SMILES IDX 50 77 44 78 45 79 48 80 46 81 72 82 73 83 81 84 74 85 75 86
REMARK SMILES IDX 79 87 82 88 76 89 77 90 80 91 78 92 57 93 58 94 66 95 59 96
REMARK SMILES IDX 60 97 64 98 67 99 61 100 62 101 65 102 63 103
REMARK H PARENT 18 12 11 17 87 56 55 67
REMARK Flexibility Score: inf
ROOT
ATOM      1  C   UNL A   1      31.989  26.337  26.360  1.00  0.00     0.338 C 
ATOM      2  O   UNL A   1      30.850  25.947  26.549  1.00  0.00    -0.246 OA
ENDROOT
BRANCH   1   3
ATOM      3  C   UNL A   1      33.102  25.400  26.194  1.00  0.00     0.060 A 
ATOM      4  C   UNL A   1      34.938  23.425  25.475  1.00  0.00     0.041 A 
ATOM      5  C   UNL A   1      35.227  24.771  25.234  1.00  0.00     0.027 A 
ATOM      6  C   UNL A   1      33.708  23.089  26.037  1.00  0.00     0.027 A 
ATOM      7  C   UNL A   1      34.319  25.761  25.613  1.00  0.00     0.018 A 
ATOM      8  C   UNL A   1      32.802  24.068  26.422  1.00  0.00     0.018 A 
BRANCH   4   9
ATOM      9  N   UNL A   1      35.946  22.505  25.170  1.00  0.00    -0.326 N 
ATOM     10  C   UNL A   1      35.963  21.150  25.082  1.00  0.00     0.224 C 
ATOM     11  O   UNL A   1      37.043  20.625  24.781  1.00  0.00    -0.275 OA
ATOM     12  H   UNL A   1      36.816  22.923  24.980  1.00  0.00     0.169 HD
BRANCH  10  13
ATOM     13  C   UNL A   1      34.750  20.277  25.310  1.00  0.00     0.110 C 
BRANCH  13  14
ATOM     14  C   UNL A   1      34.624  18.886  24.680  1.00  0.00     0.112 C 
BRANCH  14  15
ATOM     15  C   UNL A   1      33.374  18.381  23.959  1.00  0.00     0.240 C 
ATOM     16  N   UNL A   1      32.291  19.192  23.712  1.00  0.00    -0.247 N 
ATOM     17  H   UNL A   1      31.498  18.761  23.317  1.00  0.00     0.193 HD
ATOM     18  O   UNL A   1      33.304  17.192  23.621  1.00  0.00    -0.273 OA
BRANCH  16  19
ATOM     19  N   UNL A   1      32.197  20.527  23.956  1.00  0.00    -0.180 NA
ATOM     20  C   UNL A   1      32.330  21.268  22.907  1.00  0.00     0.148 C 
BRANCH  20  21
ATOM     21  C   UNL A   1      31.942  22.680  22.839  1.00  0.00     0.078 A 
ATOM     22  C   UNL A   1      34.232  28.430  22.147  1.00  0.00     0.044 C 
ATOM     23  C   UNL A   1      33.188  27.384  22.398  1.00  0.00    -0.050 A 
ATOM     24  C   UNL A   1      31.905  27.716  22.855  1.00  0.00     0.007 A 
ATOM     25  C   UNL A   1      33.505  26.044  22.172  1.00  0.00     0.019 A 
ATOM     26  C   UNL A   1      30.948  26.719  23.090  1.00  0.00     0.048 A 
ATOM     27  C   UNL A   1      32.560  25.057  22.452  1.00  0.00     0.066 A 
ATOM     28  C   UNL A   1      31.280  25.382  22.894  1.00  0.00     0.137 A 
ATOM     29  C   UNL A   1      32.945  23.649  22.371  1.00  0.00     0.201 A 
ATOM     30  O   UNL A   1      30.324  24.433  23.177  1.00  0.00    -0.463 OA
ATOM     31  O   UNL A   1      34.053  23.296  21.982  1.00  0.00    -0.288 OA
ATOM     32  C   UNL A   1      30.724  23.114  23.172  1.00  0.00     0.209 A 
ENDBRANCH  20  21
ENDBRANCH  16  19
ENDBRANCH  14  15
ENDBRANCH  13  14
ENDBRANCH  10  13
ENDBRANCH   4   9
ENDBRANCH   1   3
BRANCH   1  33
ATOM     33  O   UNL A   1      32.436  27.610  26.377  1.00  0.00    -0.458 OA
BRANCH  33  34
ATOM     34  C   UNL A   1      31.401  28.594  26.205  1.00  0.00     0.275 C 
BRANCH  34  35
ATOM     35  C   UNL A   1      31.970  30.012  26.165  1.00  0.00     0.275 C 
BRANCH  35  36
ATOM     36  O   UNL A   1      32.518  30.404  27.441  1.00  0.00    -0.458 OA
BRANCH  36  37
ATOM     37  C   UNL A   1      33.273  31.523  27.406  1.00  0.00     0.338 C 
ATOM     38  O   UNL A   1      32.889  32.675  27.261  1.00  0.00    -0.246 OA
BRANCH  37  39
ATOM     39  C   UNL A   1      34.689  31.234  27.671  1.00  0.00     0.060 A 
ATOM     40  C   UNL A   1      35.043  29.916  27.931  1.00  0.00     0.016 A 
ATOM     41  C   UNL A   1      35.578  32.260  27.978  1.00  0.00     0.016 A 
ATOM     42  C   UNL A   1      36.178  29.626  28.668  1.00  0.00     0.010 A 
ATOM     43  C   UNL A   1      36.809  31.946  28.571  1.00  0.00     0.010 A 
ATOM     44  C   UNL A   1      37.098  30.630  28.980  1.00  0.00    -0.014 A 
BRANCH  44  45
ATOM     45  C   UNL A   1      38.316  30.294  29.772  1.00  0.00     0.031 A 
ATOM     46  C   UNL A   1      39.384  29.413  29.177  1.00  0.00     0.074 A 
ATOM     47  C   UNL A   1      38.492  30.807  31.008  1.00  0.00     0.049 A 
ATOM     48  N   UNL A   1      40.395  28.822  29.763  1.00  0.00    -0.248 NA
ATOM     49  C   UNL A   1      39.296  29.145  27.732  1.00  0.00     0.031 C 
ATOM     50  C   UNL A   1      37.582  31.735  31.684  1.00  0.00     0.029 A 
ATOM     51  N   UNL A   1      39.506  30.628  31.919  1.00  0.00    -0.354 N 
ATOM     52  C   UNL A   1      41.010  28.055  28.781  1.00  0.00     0.074 A 
ATOM     53  C   UNL A   1      40.263  28.256  27.559  1.00  0.00     0.031 C 
ATOM     54  C   UNL A   1      38.100  32.085  32.869  1.00  0.00     0.029 A 
ATOM     55  C   UNL A   1      39.305  31.304  33.098  1.00  0.00     0.049 A 
ATOM     56  H   UNL A   1      40.298  30.071  31.742  1.00  0.00     0.167 HD
ATOM     57  C   UNL A   1      42.095  27.252  28.898  1.00  0.00     0.037 A 
ATOM     58  C   UNL A   1      39.973  31.251  34.267  1.00  0.00     0.037 A 
ATOM     59  C   UNL A   1      42.867  27.116  30.108  1.00  0.00     0.049 A 
ATOM     60  C   UNL A   1      41.144  30.319  34.385  1.00  0.00     0.074 A 
ATOM     61  C   UNL A   1      43.988  26.336  30.335  1.00  0.00     0.029 A 
ATOM     62  N   UNL A   1      42.607  27.794  31.291  1.00  0.00    -0.354 N 
ATOM     63  N   UNL A   1      41.669  29.532  33.478  1.00  0.00    -0.248 NA
ATOM     64  C   UNL A   1      41.802  30.253  35.695  1.00  0.00     0.031 C 
ATOM     65  C   UNL A   1      44.376  26.505  31.668  1.00  0.00     0.029 A 
ATOM     66  C   UNL A   1      43.538  27.441  32.254  1.00  0.00     0.049 A 
ATOM     67  H   UNL A   1      41.869  28.432  31.426  1.00  0.00     0.167 HD
ATOM     68  C   UNL A   1      42.734  28.896  34.098  1.00  0.00     0.074 A 
ATOM     69  C   UNL A   1      42.791  29.405  35.454  1.00  0.00     0.031 C 
ATOM     70  C   UNL A   1      43.588  27.971  33.592  1.00  0.00     0.037 A 
BRANCH  57  71
ATOM     71  C   UNL A   1      42.487  26.421  27.709  1.00  0.00     0.064 A 
ATOM     72  C   UNL A   1      43.481  26.822  26.804  1.00  0.00     0.173 A 
ATOM     73  C   UNL A   1      41.876  25.174  27.494  1.00  0.00     0.173 A 
ATOM     74  F   UNL A   1      44.089  28.010  26.953  1.00  0.00    -0.203 F 
ATOM     75  C   UNL A   1      43.828  26.023  25.717  1.00  0.00     0.198 A 
ATOM     76  C   UNL A   1      42.248  24.362  26.425  1.00  0.00     0.198 A 
ATOM     77  F   UNL A   1      40.921  24.735  28.329  1.00  0.00    -0.203 F 
ATOM     78  F   UNL A   1      44.744  26.452  24.837  1.00  0.00    -0.200 F 
ATOM     79  C   UNL A   1      43.218  24.790  25.533  1.00  0.00     0.200 A 
ATOM     80  F   UNL A   1      41.668  23.165  26.260  1.00  0.00    -0.200 F 
ATOM     81  F   UNL A   1      43.561  24.019  24.492  1.00  0.00    -0.200 F 
ENDBRANCH  57  71
BRANCH  58  82
ATOM     82  C   UNL A   1      39.506  32.054  35.430  1.00  0.00     0.064 A 
ATOM     83  C   UNL A   1      38.606  31.522  36.363  1.00  0.00     0.173 A 
ATOM     84  C   UNL A   1      39.946  33.373  35.630  1.00  0.00     0.173 A 
ATOM     85  F   UNL A   1      38.137  30.276  36.204  1.00  0.00    -0.203 F 
ATOM     86  C   UNL A   1      38.153  32.281  37.440  1.00  0.00     0.198 A 
ATOM     87  C   UNL A   1      39.523  34.116  36.729  1.00  0.00     0.198 A 
ATOM     88  F   UNL A   1      40.807  33.933  34.768  1.00  0.00    -0.203 F 
ATOM     89  F   UNL A   1      37.251  31.765  38.288  1.00  0.00    -0.200 F 
ATOM     90  C   UNL A   1      38.618  33.574  37.627  1.00  0.00     0.200 A 
ATOM     91  F   UNL A   1      39.992  35.358  36.915  1.00  0.00    -0.200 F 
ATOM     92  F   UNL A   1      38.187  34.299  38.668  1.00  0.00    -0.200 F 
ENDBRANCH  58  82
BRANCH  70  93
ATOM     93  C   UNL A   1      44.695  27.504  34.492  1.00  0.00     0.064 A 
ATOM     94  C   UNL A   1      45.926  28.173  34.563  1.00  0.00     0.173 A 
ATOM     95  C   UNL A   1      44.511  26.376  35.305  1.00  0.00     0.173 A 
ATOM     96  F   UNL A   1      46.157  29.246  33.792  1.00  0.00    -0.203 F 
ATOM     97  C   UNL A   1      46.945  27.707  35.389  1.00  0.00     0.198 A 
ATOM     98  C   UNL A   1      45.519  25.934  36.156  1.00  0.00     0.198 A 
ATOM     99  F   UNL A   1      43.349  25.705  35.278  1.00  0.00    -0.203 F 
ATOM    100  F   UNL A   1      48.135  28.323  35.394  1.00  0.00    -0.200 F 
ATOM    101  C   UNL A   1      46.738  26.592  36.189  1.00  0.00     0.200 A 
ATOM    102  F   UNL A   1      45.311  24.867  36.939  1.00  0.00    -0.200 F 
ATOM    103  F   UNL A   1      47.719  26.147  36.985  1.00  0.00    -0.200 F 
ENDBRANCH  70  93
ENDBRANCH  44  45
ENDBRANCH  37  39
ENDBRANCH  36  37
ENDBRANCH  35  36
ENDBRANCH  34  35
ENDBRANCH  33  34
ENDBRANCH   1  33
TORSDOF 17
ENDMDL
MODEL 3
REMARK VINA RESULT:     -13.2      1.328      2.980
REMARK SMILES Cc1ccc2occ(/C=N/NC(=O)CCC(=O)Nc3ccc(C(=O)OCCOC(=O)c4ccc(-c5c6nc(c(-c7c(F)c(F)c(F)c(F)c7F)c7ccc([nH]7)c(-c7c(F)c(F)c(F)c(F)c7F)c7nc(c(-c8c(F)c(F)c(F)c(F)c8F)c8ccc5[nH]8)C=C7)C=C6)cc4)cc3)c(=O)c2c1
REMARK SMILES IDX 23 1 24 2 22 3 19 4 20 5 95 6 21 7 94 8 18 9 16 10 17 11
REMARK SMILES IDX 15 13 14 14 12 15 11 16 13 18 10 19 9 20 8 21 1 22 2 23 3 24
REMARK SMILES IDX 99 25 4 26 98 27 5 28 96 29 6 30 97 31 7 32 25 33 26 34
REMARK SMILES IDX 27 35 28 36 29 37 30 38 31 39 32 40 93 41 33 42 92 43 34 44
REMARK SMILES IDX 35 45 36 46 86 47 37 48 91 49 85 50 87 51 38 52 90 53 84 54
REMARK SMILES IDX 83 55 39 57 71 58 51 59 70 60 52 61 55 62 69 63 88 64 53 65
REMARK SMILES IDX 54 66 68 68 89 69 56 70 40 71 41 72 49 73 42 74 43 75 47 76
REMARK SMILES IDX 50 77 44 78 45 79 48 80 46 81 72 82 73 83 81 84 74 85 75 86
REMARK SMILES IDX 79 87 82 88 76 89 77 90 80 91 78 92 57 93 58 94 66 95 59 96
REMARK SMILES IDX 60 97 64 98 67 99 61 100 62 101 65 102 63 103
REMARK H PARENT 18 12 11 17 87 56 55 67
REMARK Flexibility Score: inf
ROOT
ATOM      1  C   UNL A   1      31.762  26.605  26.272  1.00  0.00     0.338 C 
ATOM      2  O   UNL A   1      30.653  26.377  26.721  1.00  0.00    -0.246 OA
ENDROOT
BRANCH   1   3
ATOM      3  C   UNL A   1      32.796  25.568  26.223  1.00  0.00     0.060 A 
ATOM      4  C   UNL A   1      34.485  23.403  25.726  1.00  0.00     0.041 A 
ATOM      5  C   UNL A   1      34.902  24.701  25.419  1.00  0.00     0.027 A 
ATOM      6  C   UNL A   1      33.205  23.209  26.241  1.00  0.00     0.027 A 
ATOM      7  C   UNL A   1      34.067  25.786  25.687  1.00  0.00     0.018 A 
ATOM      8  C   UNL A   1      32.370  24.284  26.516  1.00  0.00     0.018 A 
BRANCH   4   9
ATOM      9  N   UNL A   1      35.422  22.383  25.533  1.00  0.00    -0.326 N 
ATOM     10  C   UNL A   1      35.312  21.033  25.439  1.00  0.00     0.224 C 
ATOM     11  O   UNL A   1      36.359  20.399  25.260  1.00  0.00    -0.275 OA
ATOM     12  H   UNL A   1      36.347  22.710  25.447  1.00  0.00     0.169 HD
BRANCH  10  13
ATOM     13  C   UNL A   1      33.998  20.290  25.521  1.00  0.00     0.110 C 
BRANCH  13  14
ATOM     14  C   UNL A   1      33.679  19.105  24.603  1.00  0.00     0.112 C 
BRANCH  14  15
ATOM     15  C   UNL A   1      32.632  19.140  23.489  1.00  0.00     0.240 C 
ATOM     16  N   UNL A   1      32.148  20.320  22.973  1.00  0.00    -0.247 N 
ATOM     17  H   UNL A   1      31.416  20.247  22.318  1.00  0.00     0.193 HD
ATOM     18  O   UNL A   1      32.162  18.078  23.062  1.00  0.00    -0.273 OA
BRANCH  16  19
ATOM     19  N   UNL A   1      32.573  21.577  23.272  1.00  0.00    -0.180 NA
ATOM     20  C   UNL A   1      32.528  22.402  22.280  1.00  0.00     0.148 C 
BRANCH  20  21
ATOM     21  C   UNL A   1      32.603  23.859  22.413  1.00  0.00     0.078 A 
ATOM     22  C   UNL A   1      29.106  28.968  23.092  1.00  0.00     0.044 C 
ATOM     23  C   UNL A   1      30.362  28.176  22.888  1.00  0.00    -0.050 A 
ATOM     24  C   UNL A   1      31.572  28.788  22.532  1.00  0.00     0.007 A 
ATOM     25  C   UNL A   1      30.323  26.791  23.055  1.00  0.00     0.019 A 
ATOM     26  C   UNL A   1      32.731  28.024  22.339  1.00  0.00     0.048 A 
ATOM     27  C   UNL A   1      31.472  26.036  22.818  1.00  0.00     0.066 A 
ATOM     28  C   UNL A   1      32.679  26.641  22.476  1.00  0.00     0.137 A 
ATOM     29  C   UNL A   1      31.389  24.577  22.833  1.00  0.00     0.201 A 
ATOM     30  O   UNL A   1      33.830  25.926  22.237  1.00  0.00    -0.463 OA
ATOM     31  O   UNL A   1      30.359  23.983  23.133  1.00  0.00    -0.288 OA
ATOM     32  C   UNL A   1      33.720  24.553  22.179  1.00  0.00     0.209 A 
ENDBRANCH  20  21
ENDBRANCH  16  19
ENDBRANCH  14  15
ENDBRANCH  13  14
ENDBRANCH  10  13
ENDBRANCH   4   9
ENDBRANCH   1   3
BRANCH   1  33
ATOM     33  O   UNL A   1      32.258  27.792  25.864  1.00  0.00    -0.458 OA
BRANCH  33  34
ATOM     34  C   UNL A   1      31.473  28.924  26.275  1.00  0.00     0.275 C 
BRANCH  34  35
ATOM     35  C   UNL A   1      32.272  30.225  26.196  1.00  0.00     0.275 C 
BRANCH  35  36
ATOM     36  O   UNL A   1      32.645  30.703  27.505  1.00  0.00    -0.458 OA
BRANCH  36  37
ATOM     37  C   UNL A   1      33.459  31.780  27.497  1.00  0.00     0.338 C 
ATOM     38  O   UNL A   1      33.140  32.953  27.366  1.00  0.00    -0.246 OA
BRANCH  37  39
ATOM     39  C   UNL A   1      34.854  31.410  27.771  1.00  0.00     0.060 A 
ATOM     40  C   UNL A   1      35.119  30.090  28.110  1.00  0.00     0.016 A 
ATOM     41  C   UNL A   1      35.815  32.389  28.010  1.00  0.00     0.016 A 
ATOM     42  C   UNL A   1      36.239  29.768  28.859  1.00  0.00     0.010 A 
ATOM     43  C   UNL A   1      37.027  32.028  28.615  1.00  0.00     0.010 A 
ATOM     44  C   UNL A   1      37.229  30.722  29.102  1.00  0.00    -0.014 A 
BRANCH  44  45
ATOM     45  C   UNL A   1      38.428  30.353  29.908  1.00  0.00     0.031 A 
ATOM     46  C   UNL A   1      39.486  29.457  29.317  1.00  0.00     0.074 A 
ATOM     47  C   UNL A   1      38.597  30.848  31.152  1.00  0.00     0.049 A 
ATOM     48  N   UNL A   1      40.477  28.839  29.910  1.00  0.00    -0.248 NA
ATOM     49  C   UNL A   1      39.413  29.208  27.868  1.00  0.00     0.031 C 
ATOM     50  C   UNL A   1      37.696  31.786  31.827  1.00  0.00     0.029 A 
ATOM     51  N   UNL A   1      39.594  30.637  32.075  1.00  0.00    -0.354 N 
ATOM     52  C   UNL A   1      41.090  28.071  28.928  1.00  0.00     0.074 A 
ATOM     53  C   UNL A   1      40.364  28.301  27.698  1.00  0.00     0.031 C 
ATOM     54  C   UNL A   1      38.205  32.111  33.023  1.00  0.00     0.029 A 
ATOM     55  C   UNL A   1      39.390  31.303  33.259  1.00  0.00     0.049 A 
ATOM     56  H   UNL A   1      40.377  30.066  31.902  1.00  0.00     0.167 HD
ATOM     57  C   UNL A   1      42.157  27.245  29.050  1.00  0.00     0.037 A 
ATOM     58  C   UNL A   1      40.039  31.222  34.436  1.00  0.00     0.037 A 
ATOM     59  C   UNL A   1      42.909  27.079  30.269  1.00  0.00     0.049 A 
ATOM     60  C   UNL A   1      41.190  30.265  34.559  1.00  0.00     0.074 A 
ATOM     61  C   UNL A   1      44.010  26.274  30.502  1.00  0.00     0.029 A 
ATOM     62  N   UNL A   1      42.645  27.748  31.456  1.00  0.00    -0.354 N 
ATOM     63  N   UNL A   1      41.712  29.478  33.651  1.00  0.00    -0.248 NA
ATOM     64  C   UNL A   1      41.828  30.170  35.878  1.00  0.00     0.031 C 
ATOM     65  C   UNL A   1      44.383  26.419  31.842  1.00  0.00     0.029 A 
ATOM     66  C   UNL A   1      43.556  27.364  32.428  1.00  0.00     0.049 A 
ATOM     67  H   UNL A   1      41.919  28.399  31.588  1.00  0.00     0.167 HD
ATOM     68  C   UNL A   1      42.755  28.814  34.278  1.00  0.00     0.074 A 
ATOM     69  C   UNL A   1      42.803  29.305  35.640  1.00  0.00     0.031 C 
ATOM     70  C   UNL A   1      43.597  27.878  33.773  1.00  0.00     0.037 A 
BRANCH  57  71
ATOM     71  C   UNL A   1      42.549  26.420  27.856  1.00  0.00     0.064 A 
ATOM     72  C   UNL A   1      41.988  25.162  27.593  1.00  0.00     0.173 A 
ATOM     73  C   UNL A   1      43.484  26.921  26.935  1.00  0.00     0.173 A 
ATOM     74  F   UNL A   1      41.100  24.628  28.446  1.00  0.00    -0.203 F 
ATOM     75  C   UNL A   1      42.366  24.426  26.472  1.00  0.00     0.198 A 
ATOM     76  C   UNL A   1      43.835  26.199  25.798  1.00  0.00     0.198 A 
ATOM     77  F   UNL A   1      44.051  28.121  27.132  1.00  0.00    -0.203 F 
ATOM     78  F   UNL A   1      41.854  23.204  26.270  1.00  0.00    -0.200 F 
ATOM     79  C   UNL A   1      43.282  24.948  25.571  1.00  0.00     0.200 A 
ATOM     80  F   UNL A   1      44.709  26.713  24.921  1.00  0.00    -0.200 F 
ATOM     81  F   UNL A   1      43.637  24.243  24.488  1.00  0.00    -0.200 F 
ENDBRANCH  57  71
BRANCH  58  82
ATOM     82  C   UNL A   1      39.572  32.021  35.602  1.00  0.00     0.064 A 
ATOM     83  C   UNL A   1      40.108  33.287  35.874  1.00  0.00     0.173 A 
ATOM     84  C   UNL A   1      38.584  31.533  36.473  1.00  0.00     0.173 A 
ATOM     85  F   UNL A   1      41.072  33.788  35.087  1.00  0.00    -0.203 F 
ATOM     86  C   UNL A   1      39.686  34.025  36.978  1.00  0.00     0.198 A 
ATOM     87  C   UNL A   1      38.135  32.289  37.552  1.00  0.00     0.198 A 
ATOM     88  F   UNL A   1      38.037  30.327  36.261  1.00  0.00    -0.203 F 
ATOM     89  F   UNL A   1      40.254  35.211  37.244  1.00  0.00    -0.200 F 
ATOM     90  C   UNL A   1      38.694  33.531  37.810  1.00  0.00     0.200 A 
ATOM     91  F   UNL A   1      37.161  31.814  38.341  1.00  0.00    -0.200 F 
ATOM     92  F   UNL A   1      38.284  34.246  38.866  1.00  0.00    -0.200 F 
ENDBRANCH  58  82
BRANCH  70  93
ATOM     93  C   UNL A   1      44.681  27.378  34.682  1.00  0.00     0.064 A 
ATOM     94  C   UNL A   1      44.511  26.239  35.484  1.00  0.00     0.173 A 
ATOM     95  C   UNL A   1      45.914  28.045  34.740  1.00  0.00     0.173 A 
ATOM     96  F   UNL A   1      43.345  25.577  35.479  1.00  0.00    -0.203 F 
ATOM     97  C   UNL A   1      45.525  25.808  36.336  1.00  0.00     0.198 A 
ATOM     98  C   UNL A   1      46.937  27.591  35.565  1.00  0.00     0.198 A 
ATOM     99  F   UNL A   1      46.128  29.136  33.988  1.00  0.00    -0.203 F 
ATOM    100  F   UNL A   1      45.319  24.756  37.140  1.00  0.00    -0.200 F 
ATOM    101  C   UNL A   1      46.738  26.480  36.371  1.00  0.00     0.200 A 
ATOM    102  F   UNL A   1      48.113  28.232  35.585  1.00  0.00    -0.200 F 
ATOM    103  F   UNL A   1      47.712  26.063  37.190  1.00  0.00    -0.200 F 
ENDBRANCH  70  93
ENDBRANCH  44  45
ENDBRANCH  37  39
ENDBRANCH  36  37
ENDBRANCH  35  36
ENDBRANCH  34  35
ENDBRANCH  33  34
ENDBRANCH   1  33
TORSDOF 17
ENDMDL
