MODEL 1
REMARK VINA RESULT:     -11.2      0.000      0.000
REMARK SMILES O=C(OCCOC(=O)[C@H]1Sc2[nH]c(=O)sc2[C@H]2c3cc(Br)cc(Br)c3OC(=O)[C@H]21)c1ccc(-c2c3nc(c(-c4c(F)c(F)c(F)c(F)c4F)c4ccc([nH]4)c(-c4c(F)c(F)c(F)c(F)c4F)c4nc(c(-c5c(F)c(F)c(F)c(F)c5F)c5ccc2[nH]5)C=C4)C=C3)cc1
REMARK SMILES IDX 4 1 3 2 2 3 1 4 30 5 31 6 92 7 32 8 91 9 33 10 34 11 35 12
REMARK SMILES IDX 85 13 36 14 90 15 84 16 86 17 37 18 89 19 83 20 82 21 38 23
REMARK SMILES IDX 70 24 50 25 69 26 51 27 54 28 68 29 87 30 52 31 53 32 67 34
REMARK SMILES IDX 88 35 55 36 39 37 40 38 48 39 41 40 42 41 46 42 49 43 43 44
REMARK SMILES IDX 44 45 47 46 45 47 71 48 72 49 80 50 73 51 74 52 78 53 81 54
REMARK SMILES IDX 75 55 76 56 79 57 77 58 56 59 57 60 65 61 58 62 59 63 63 64
REMARK SMILES IDX 66 65 60 66 61 67 64 68 62 69 5 70 6 71 7 72 8 73 9 74 10 75
REMARK SMILES IDX 29 76 11 77 17 78 27 79 12 80 16 81 18 82 26 83 28 84 13 85
REMARK SMILES IDX 15 87 19 88 25 89 14 90 20 91 23 92 21 93 22 94 24 95
REMARK H PARENT 86 22 54 33 12 86
REMARK Flexibility Score: inf
ROOT
ATOM      1  C   UNL A   1      42.314  21.368  25.892  1.00  0.00     0.275 C 
ENDROOT
BRANCH   1   2
ATOM      2  O   UNL A   1      41.525  22.570  25.763  1.00  0.00    -0.458 OA
BRANCH   2   3
ATOM      3  C   UNL A   1      40.599  22.976  26.654  1.00  0.00     0.338 C 
ATOM      4  O   UNL A   1      39.985  22.184  27.358  1.00  0.00    -0.246 OA
BRANCH   3   5
ATOM      5  C   UNL A   1      40.586  24.423  27.006  1.00  0.00     0.060 A 
ATOM      6  C   UNL A   1      40.722  25.469  26.091  1.00  0.00     0.016 A 
ATOM      7  C   UNL A   1      40.458  24.726  28.376  1.00  0.00     0.016 A 
ATOM      8  C   UNL A   1      40.790  26.784  26.547  1.00  0.00     0.010 A 
ATOM      9  C   UNL A   1      40.533  26.033  28.834  1.00  0.00     0.010 A 
ATOM     10  C   UNL A   1      40.738  27.057  27.921  1.00  0.00    -0.014 A 
BRANCH  10  11
ATOM     11  C   UNL A   1      40.787  28.443  28.369  1.00  0.00     0.031 A 
ATOM     12  C   UNL A   1      42.011  29.172  27.944  1.00  0.00     0.074 A 
ATOM     13  C   UNL A   1      39.798  29.067  29.044  1.00  0.00     0.049 A 
ATOM     14  N   UNL A   1      43.059  29.411  28.660  1.00  0.00    -0.248 NA
ATOM     15  C   UNL A   1      42.164  29.531  26.529  1.00  0.00     0.031 C 
ATOM     16  C   UNL A   1      38.435  28.609  29.319  1.00  0.00     0.029 A 
ATOM     17  N   UNL A   1      39.824  30.301  29.626  1.00  0.00    -0.354 N 
ATOM     18  C   UNL A   1      43.916  30.160  27.857  1.00  0.00     0.074 A 
ATOM     19  C   UNL A   1      43.399  30.040  26.519  1.00  0.00     0.031 C 
ATOM     20  C   UNL A   1      37.710  29.628  29.844  1.00  0.00     0.029 A 
ATOM     21  C   UNL A   1      38.594  30.753  30.096  1.00  0.00     0.049 A 
ATOM     22  H   UNL A   1      40.649  30.831  29.708  1.00  0.00     0.167 HD
ATOM     23  C   UNL A   1      44.828  31.006  28.420  1.00  0.00     0.037 A 
ATOM     24  C   UNL A   1      38.335  31.959  30.669  1.00  0.00     0.037 A 
ATOM     25  C   UNL A   1      44.995  30.706  29.823  1.00  0.00     0.049 A 
ATOM     26  C   UNL A   1      39.623  32.463  31.206  1.00  0.00     0.074 A 
ATOM     27  C   UNL A   1      45.419  29.609  30.548  1.00  0.00     0.029 A 
ATOM     28  N   UNL A   1      44.339  31.507  30.726  1.00  0.00    -0.354 N 
ATOM     29  N   UNL A   1      40.257  31.899  32.197  1.00  0.00    -0.248 NA
ATOM     30  C   UNL A   1      40.432  33.295  30.329  1.00  0.00     0.031 C 
ATOM     31  C   UNL A   1      44.565  29.572  31.692  1.00  0.00     0.029 A 
ATOM     32  C   UNL A   1      43.731  30.689  31.640  1.00  0.00     0.049 A 
ATOM     33  H   UNL A   1      44.311  32.491  30.717  1.00  0.00     0.167 HD
ATOM     34  C   UNL A   1      41.590  31.940  31.825  1.00  0.00     0.074 A 
ATOM     35  C   UNL A   1      41.644  32.865  30.692  1.00  0.00     0.031 C 
ATOM     36  C   UNL A   1      42.474  31.004  32.275  1.00  0.00     0.037 A 
BRANCH  23  37
ATOM     37  C   UNL A   1      45.262  32.340  27.842  1.00  0.00     0.064 A 
ATOM     38  C   UNL A   1      44.271  33.309  27.561  1.00  0.00     0.173 A 
ATOM     39  C   UNL A   1      46.524  32.594  27.268  1.00  0.00     0.173 A 
ATOM     40  F   UNL A   1      43.028  33.184  28.049  1.00  0.00    -0.203 F 
ATOM     41  C   UNL A   1      44.497  34.371  26.681  1.00  0.00     0.198 A 
ATOM     42  C   UNL A   1      46.760  33.683  26.430  1.00  0.00     0.198 A 
ATOM     43  F   UNL A   1      47.554  31.752  27.392  1.00  0.00    -0.203 F 
ATOM     44  F   UNL A   1      43.482  35.172  26.331  1.00  0.00    -0.200 F 
ATOM     45  C   UNL A   1      45.740  34.550  26.106  1.00  0.00     0.200 A 
ATOM     46  F   UNL A   1      47.969  33.829  25.867  1.00  0.00    -0.200 F 
ATOM     47  F   UNL A   1      45.942  35.521  25.204  1.00  0.00    -0.200 F 
ENDBRANCH  23  37
BRANCH  24  48
ATOM     48  C   UNL A   1      37.173  32.862  30.451  1.00  0.00     0.064 A 
ATOM     49  C   UNL A   1      36.805  33.274  29.156  1.00  0.00     0.173 A 
ATOM     50  C   UNL A   1      36.219  33.077  31.464  1.00  0.00     0.173 A 
ATOM     51  F   UNL A   1      37.634  33.069  28.122  1.00  0.00    -0.203 F 
ATOM     52  C   UNL A   1      35.547  33.827  28.885  1.00  0.00     0.198 A 
ATOM     53  C   UNL A   1      34.964  33.629  31.192  1.00  0.00     0.198 A 
ATOM     54  F   UNL A   1      36.445  32.662  32.718  1.00  0.00    -0.203 F 
ATOM     55  F   UNL A   1      35.208  34.141  27.626  1.00  0.00    -0.200 F 
ATOM     56  C   UNL A   1      34.622  33.989  29.902  1.00  0.00     0.200 A 
ATOM     57  F   UNL A   1      34.063  33.746  32.178  1.00  0.00    -0.200 F 
ATOM     58  F   UNL A   1      33.391  34.449  29.634  1.00  0.00    -0.200 F 
ENDBRANCH  24  48
BRANCH  36  59
ATOM     59  C   UNL A   1      42.026  30.070  33.365  1.00  0.00     0.064 A 
ATOM     60  C   UNL A   1      41.491  28.792  33.128  1.00  0.00     0.173 A 
ATOM     61  C   UNL A   1      42.340  30.404  34.688  1.00  0.00     0.173 A 
ATOM     62  F   UNL A   1      41.241  28.368  31.885  1.00  0.00    -0.203 F 
ATOM     63  C   UNL A   1      41.273  27.895  34.175  1.00  0.00     0.198 A 
ATOM     64  C   UNL A   1      42.152  29.496  35.726  1.00  0.00     0.198 A 
ATOM     65  F   UNL A   1      42.899  31.592  34.964  1.00  0.00    -0.203 F 
ATOM     66  F   UNL A   1      40.778  26.674  33.923  1.00  0.00    -0.200 F 
ATOM     67  C   UNL A   1      41.618  28.243  35.470  1.00  0.00     0.200 A 
ATOM     68  F   UNL A   1      42.531  29.820  36.969  1.00  0.00    -0.200 F 
ATOM     69  F   UNL A   1      41.468  27.360  36.467  1.00  0.00    -0.200 F 
ENDBRANCH  36  59
ENDBRANCH  10  11
ENDBRANCH   3   5
ENDBRANCH   2   3
ENDBRANCH   1   2
BRANCH   1  70
ATOM     70  C   UNL A   1      43.834  21.457  25.751  1.00  0.00     0.274 C 
BRANCH  70  71
ATOM     71  O   UNL A   1      44.330  22.808  25.698  1.00  0.00    -0.461 OA
BRANCH  71  72
ATOM     72  C   UNL A   1      44.918  23.237  26.850  1.00  0.00     0.320 C 
ATOM     73  O   UNL A   1      46.098  23.060  27.118  1.00  0.00    -0.251 OA
BRANCH  72  74
ATOM     74  C   UNL A   1      43.973  24.001  27.771  1.00  0.00     0.178 C 
ATOM     75  S   UNL A   1      43.571  22.979  29.243  1.00  0.00    -0.091 SA
ATOM     76  C   UNL A   1      44.213  25.514  27.960  1.00  0.00     0.137 C 
ATOM     77  C   UNL A   1      44.114  23.896  30.549  1.00  0.00     0.091 A 
ATOM     78  C   UNL A   1      44.813  25.994  29.312  1.00  0.00     0.082 C 
ATOM     79  C   UNL A   1      44.989  26.178  26.806  1.00  0.00     0.317 C 
ATOM     80  N   UNL A   1      44.153  23.326  31.785  1.00  0.00    -0.307 N 
ATOM     81  C   UNL A   1      44.546  25.156  30.518  1.00  0.00     0.049 A 
ATOM     82  C   UNL A   1      46.286  26.300  29.086  1.00  0.00     0.007 A 
ATOM     83  O   UNL A   1      45.488  27.415  27.148  1.00  0.00    -0.425 OA
ATOM     84  O   UNL A   1      45.115  25.741  25.674  1.00  0.00    -0.251 OA
ATOM     85  C   UNL A   1      44.574  24.125  32.821  1.00  0.00     0.305 A 
ATOM     86  H   UNL A   1      43.891  22.389  31.930  1.00  0.00     0.171 HD
ATOM     87  S   UNL A   1      44.837  25.740  32.155  1.00  0.00    -0.078 S 
ATOM     88  C   UNL A   1      47.365  25.833  29.839  1.00  0.00     0.024 A 
ATOM     89  C   UNL A   1      46.558  27.098  27.968  1.00  0.00     0.148 A 
ATOM     90  O   UNL A   1      44.743  23.810  33.976  1.00  0.00    -0.257 OA
ATOM     91  C   UNL A   1      48.668  26.203  29.496  1.00  0.00     0.019 A 
ATOM     92  C   UNL A   1      47.852  27.497  27.640  1.00  0.00     0.062 A 
ATOM     93  Br  UNL A   1      50.114  25.517  30.503  1.00  0.00    -0.051 Br
ATOM     94  C   UNL A   1      48.917  27.044  28.411  1.00  0.00     0.035 A 
ATOM     95  Br  UNL A   1      48.200  28.578  26.126  1.00  0.00    -0.047 Br
ENDBRANCH  72  74
ENDBRANCH  71  72
ENDBRANCH  70  71
ENDBRANCH   1  70
TORSDOF 11
ENDMDL
MODEL 2
REMARK VINA RESULT:     -11.0      1.617      1.949
REMARK SMILES O=C(OCCOC(=O)[C@H]1Sc2[nH]c(=O)sc2[C@H]2c3cc(Br)cc(Br)c3OC(=O)[C@H]21)c1ccc(-c2c3nc(c(-c4c(F)c(F)c(F)c(F)c4F)c4ccc([nH]4)c(-c4c(F)c(F)c(F)c(F)c4F)c4nc(c(-c5c(F)c(F)c(F)c(F)c5F)c5ccc2[nH]5)C=C4)C=C3)cc1
REMARK SMILES IDX 4 1 3 2 2 3 1 4 30 5 31 6 92 7 32 8 91 9 33 10 34 11 35 12
REMARK SMILES IDX 85 13 36 14 90 15 84 16 86 17 37 18 89 19 83 20 82 21 38 23
REMARK SMILES IDX 70 24 50 25 69 26 51 27 54 28 68 29 87 30 52 31 53 32 67 34
REMARK SMILES IDX 88 35 55 36 39 37 40 38 48 39 41 40 42 41 46 42 49 43 43 44
REMARK SMILES IDX 44 45 47 46 45 47 71 48 72 49 80 50 73 51 74 52 78 53 81 54
REMARK SMILES IDX 75 55 76 56 79 57 77 58 56 59 57 60 65 61 58 62 59 63 63 64
REMARK SMILES IDX 66 65 60 66 61 67 64 68 62 69 5 70 6 71 7 72 8 73 9 74 10 75
REMARK SMILES IDX 29 76 11 77 17 78 27 79 12 80 16 81 18 82 26 83 28 84 13 85
REMARK SMILES IDX 15 87 19 88 25 89 14 90 20 91 23 92 21 93 22 94 24 95
REMARK H PARENT 86 22 54 33 12 86
REMARK Flexibility Score: inf
ROOT
ATOM      1  C   UNL A   1      43.081  21.610  26.159  1.00  0.00     0.275 C 
ENDROOT
BRANCH   1   2
ATOM      2  O   UNL A   1      41.779  22.228  26.086  1.00  0.00    -0.458 OA
BRANCH   2   3
ATOM      3  C   UNL A   1      41.001  22.502  27.153  1.00  0.00     0.338 C 
ATOM      4  O   UNL A   1      40.623  21.627  27.922  1.00  0.00    -0.246 OA
BRANCH   3   5
ATOM      5  C   UNL A   1      40.898  23.928  27.568  1.00  0.00     0.060 A 
ATOM      6  C   UNL A   1      39.968  24.841  27.068  1.00  0.00     0.016 A 
ATOM      7  C   UNL A   1      41.846  24.368  28.514  1.00  0.00     0.016 A 
ATOM      8  C   UNL A   1      40.026  26.177  27.460  1.00  0.00     0.010 A 
ATOM      9  C   UNL A   1      41.912  25.698  28.901  1.00  0.00     0.010 A 
ATOM     10  C   UNL A   1      41.026  26.608  28.344  1.00  0.00    -0.014 A 
BRANCH  10  11
ATOM     11  C   UNL A   1      41.049  28.006  28.758  1.00  0.00     0.031 A 
ATOM     12  C   UNL A   1      42.245  28.754  28.287  1.00  0.00     0.074 A 
ATOM     13  C   UNL A   1      40.061  28.620  29.440  1.00  0.00     0.049 A 
ATOM     14  N   UNL A   1      43.302  29.037  28.972  1.00  0.00    -0.248 NA
ATOM     15  C   UNL A   1      42.357  29.083  26.861  1.00  0.00     0.031 C 
ATOM     16  C   UNL A   1      38.716  28.136  29.758  1.00  0.00     0.029 A 
ATOM     17  N   UNL A   1      40.069  29.869  29.993  1.00  0.00    -0.354 N 
ATOM     18  C   UNL A   1      44.122  29.788  28.133  1.00  0.00     0.074 A 
ATOM     19  C   UNL A   1      43.578  29.622  26.810  1.00  0.00     0.031 C 
ATOM     20  C   UNL A   1      37.978  29.148  30.276  1.00  0.00     0.029 A 
ATOM     21  C   UNL A   1      38.838  30.301  30.480  1.00  0.00     0.049 A 
ATOM     22  H   UNL A   1      40.881  30.422  30.043  1.00  0.00     0.167 HD
ATOM     23  C   UNL A   1      45.024  30.669  28.654  1.00  0.00     0.037 A 
ATOM     24  C   UNL A   1      38.561  31.513  31.030  1.00  0.00     0.037 A 
ATOM     25  C   UNL A   1      45.230  30.408  30.060  1.00  0.00     0.049 A 
ATOM     26  C   UNL A   1      39.848  32.063  31.525  1.00  0.00     0.074 A 
ATOM     27  C   UNL A   1      45.698  29.339  30.800  1.00  0.00     0.029 A 
ATOM     28  N   UNL A   1      44.575  31.214  30.958  1.00  0.00    -0.354 N 
ATOM     29  N   UNL A   1      40.518  31.539  32.514  1.00  0.00    -0.248 NA
ATOM     30  C   UNL A   1      40.615  32.893  30.610  1.00  0.00     0.031 C 
ATOM     31  C   UNL A   1      44.871  29.309  31.964  1.00  0.00     0.029 A 
ATOM     32  C   UNL A   1      44.009  30.403  31.906  1.00  0.00     0.049 A 
ATOM     33  H   UNL A   1      44.521  32.196  30.927  1.00  0.00     0.167 HD
ATOM     34  C   UNL A   1      41.842  31.605  32.110  1.00  0.00     0.074 A 
ATOM     35  C   UNL A   1      41.846  32.503  30.955  1.00  0.00     0.031 C 
ATOM     36  C   UNL A   1      42.758  30.701  32.562  1.00  0.00     0.037 A 
BRANCH  23  37
ATOM     37  C   UNL A   1      45.410  32.000  28.035  1.00  0.00     0.064 A 
ATOM     38  C   UNL A   1      44.390  32.941  27.765  1.00  0.00     0.173 A 
ATOM     39  C   UNL A   1      46.648  32.267  27.416  1.00  0.00     0.173 A 
ATOM     40  F   UNL A   1      43.166  32.800  28.295  1.00  0.00    -0.203 F 
ATOM     41  C   UNL A   1      44.566  33.988  26.856  1.00  0.00     0.198 A 
ATOM     42  C   UNL A   1      46.834  33.343  26.548  1.00  0.00     0.198 A 
ATOM     43  F   UNL A   1      47.699  31.450  27.524  1.00  0.00    -0.203 F 
ATOM     44  F   UNL A   1      43.523  34.760  26.522  1.00  0.00    -0.200 F 
ATOM     45  C   UNL A   1      45.785  34.181  26.238  1.00  0.00     0.200 A 
ATOM     46  F   UNL A   1      48.021  33.502  25.944  1.00  0.00    -0.200 F 
ATOM     47  F   UNL A   1      45.938  35.136  25.310  1.00  0.00    -0.200 F 
ENDBRANCH  23  37
BRANCH  24  48
ATOM     48  C   UNL A   1      37.372  32.382  30.818  1.00  0.00     0.064 A 
ATOM     49  C   UNL A   1      37.111  32.963  29.562  1.00  0.00     0.173 A 
ATOM     50  C   UNL A   1      36.309  32.398  31.741  1.00  0.00     0.173 A 
ATOM     51  F   UNL A   1      38.050  32.954  28.606  1.00  0.00    -0.203 F 
ATOM     52  C   UNL A   1      35.853  33.488  29.237  1.00  0.00     0.198 A 
ATOM     53  C   UNL A   1      35.055  32.924  31.416  1.00  0.00     0.198 A 
ATOM     54  F   UNL A   1      36.435  31.814  32.940  1.00  0.00    -0.203 F 
ATOM     55  F   UNL A   1      35.624  33.968  28.007  1.00  0.00    -0.200 F 
ATOM     56  C   UNL A   1      34.823  33.453  30.161  1.00  0.00     0.200 A 
ATOM     57  F   UNL A   1      34.054  32.849  32.305  1.00  0.00    -0.200 F 
ATOM     58  F   UNL A   1      33.598  33.888  29.829  1.00  0.00    -0.200 F 
ENDBRANCH  24  48
BRANCH  36  59
ATOM     59  C   UNL A   1      42.360  29.784  33.683  1.00  0.00     0.064 A 
ATOM     60  C   UNL A   1      41.785  28.515  33.489  1.00  0.00     0.173 A 
ATOM     61  C   UNL A   1      42.761  30.119  34.982  1.00  0.00     0.173 A 
ATOM     62  F   UNL A   1      41.451  28.090  32.267  1.00  0.00    -0.203 F 
ATOM     63  C   UNL A   1      41.614  27.630  34.553  1.00  0.00     0.198 A 
ATOM     64  C   UNL A   1      42.618  29.221  36.036  1.00  0.00     0.198 A 
ATOM     65  F   UNL A   1      43.359  31.297  35.215  1.00  0.00    -0.203 F 
ATOM     66  F   UNL A   1      41.079  26.417  34.341  1.00  0.00    -0.200 F 
ATOM     67  C   UNL A   1      42.044  27.978  35.823  1.00  0.00     0.200 A 
ATOM     68  F   UNL A   1      43.080  29.544  37.252  1.00  0.00    -0.200 F 
ATOM     69  F   UNL A   1      41.938  27.103  36.833  1.00  0.00    -0.200 F 
ENDBRANCH  36  59
ENDBRANCH  10  11
ENDBRANCH   3   5
ENDBRANCH   2   3
ENDBRANCH   1   2
BRANCH   1  70
ATOM     70  C   UNL A   1      44.317  22.434  25.796  1.00  0.00     0.274 C 
BRANCH  70  71
ATOM     71  O   UNL A   1      44.307  23.764  26.347  1.00  0.00    -0.461 OA
BRANCH  71  72
ATOM     72  C   UNL A   1      45.519  24.198  26.790  1.00  0.00     0.320 C 
ATOM     73  O   UNL A   1      46.578  23.645  26.528  1.00  0.00    -0.251 OA
BRANCH  72  74
ATOM     74  C   UNL A   1      45.445  25.475  27.622  1.00  0.00     0.178 C 
ATOM     75  S   UNL A   1      45.853  25.105  29.374  1.00  0.00    -0.091 SA
ATOM     76  C   UNL A   1      45.978  26.780  26.995  1.00  0.00     0.137 C 
ATOM     77  C   UNL A   1      47.203  26.062  29.700  1.00  0.00     0.091 A 
ATOM     78  C   UNL A   1      47.333  27.339  27.515  1.00  0.00     0.082 C 
ATOM     79  C   UNL A   1      45.999  26.775  25.454  1.00  0.00     0.317 C 
ATOM     80  N   UNL A   1      47.886  25.867  30.861  1.00  0.00    -0.307 N 
ATOM     81  C   UNL A   1      47.716  27.012  28.920  1.00  0.00     0.049 A 
ATOM     82  C   UNL A   1      48.403  27.000  26.488  1.00  0.00     0.007 A 
ATOM     83  O   UNL A   1      46.786  27.779  24.933  1.00  0.00    -0.425 OA
ATOM     84  O   UNL A   1      45.354  26.041  24.725  1.00  0.00    -0.251 OA
ATOM     85  C   UNL A   1      48.959  26.693  31.093  1.00  0.00     0.305 A 
ATOM     86  H   UNL A   1      47.623  25.169  31.504  1.00  0.00     0.171 HD
ATOM     87  S   UNL A   1      49.015  27.854  29.762  1.00  0.00    -0.078 S 
ATOM     88  C   UNL A   1      49.630  26.379  26.728  1.00  0.00     0.024 A 
ATOM     89  C   UNL A   1      48.069  27.313  25.164  1.00  0.00     0.148 A 
ATOM     90  O   UNL A   1      49.735  26.654  32.019  1.00  0.00    -0.257 OA
ATOM     91  C   UNL A   1      50.506  26.131  25.668  1.00  0.00     0.019 A 
ATOM     92  C   UNL A   1      48.952  27.096  24.107  1.00  0.00     0.062 A 
ATOM     93  Br  UNL A   1      52.141  25.246  26.015  1.00  0.00    -0.051 Br
ATOM     94  C   UNL A   1      50.182  26.500  24.363  1.00  0.00     0.035 A 
ATOM     95  Br  UNL A   1      48.485  27.528  22.325  1.00  0.00    -0.047 Br
ENDBRANCH  72  74
ENDBRANCH  71  72
ENDBRANCH  70  71
ENDBRANCH   1  70
TORSDOF 11
ENDMDL
MODEL 3
REMARK VINA RESULT:     -11.0      5.027      7.381
REMARK SMILES O=C(OCCOC(=O)[C@H]1Sc2[nH]c(=O)sc2[C@H]2c3cc(Br)cc(Br)c3OC(=O)[C@H]21)c1ccc(-c2c3nc(c(-c4c(F)c(F)c(F)c(F)c4F)c4ccc([nH]4)c(-c4c(F)c(F)c(F)c(F)c4F)c4nc(c(-c5c(F)c(F)c(F)c(F)c5F)c5ccc2[nH]5)C=C4)C=C3)cc1
REMARK SMILES IDX 4 1 3 2 2 3 1 4 30 5 31 6 92 7 32 8 91 9 33 10 34 11 35 12
REMARK SMILES IDX 85 13 36 14 90 15 84 16 86 17 37 18 89 19 83 20 82 21 38 23
REMARK SMILES IDX 70 24 50 25 69 26 51 27 54 28 68 29 87 30 52 31 53 32 67 34
REMARK SMILES IDX 88 35 55 36 39 37 40 38 48 39 41 40 42 41 46 42 49 43 43 44
REMARK SMILES IDX 44 45 47 46 45 47 71 48 72 49 80 50 73 51 74 52 78 53 81 54
REMARK SMILES IDX 75 55 76 56 79 57 77 58 56 59 57 60 65 61 58 62 59 63 63 64
REMARK SMILES IDX 66 65 60 66 61 67 64 68 62 69 5 70 6 71 7 72 8 73 9 74 10 75
REMARK SMILES IDX 29 76 11 77 17 78 27 79 12 80 16 81 18 82 26 83 28 84 13 85
REMARK SMILES IDX 15 87 19 88 25 89 14 90 20 91 23 92 21 93 22 94 24 95
REMARK H PARENT 86 22 54 33 12 86
REMARK Flexibility Score: inf
ROOT
ATOM      1  C   UNL A   1      39.035  21.846  26.127  1.00  0.00     0.275 C 
ENDROOT
BRANCH   1   2
ATOM      2  O   UNL A   1      39.920  22.344  27.153  1.00  0.00    -0.458 OA
BRANCH   2   3
ATOM      3  C   UNL A   1      41.083  22.982  26.916  1.00  0.00     0.338 C 
ATOM      4  O   UNL A   1      41.914  22.546  26.129  1.00  0.00    -0.246 OA
BRANCH   3   5
ATOM      5  C   UNL A   1      41.184  24.397  27.371  1.00  0.00     0.060 A 
ATOM      6  C   UNL A   1      42.039  24.855  28.376  1.00  0.00     0.016 A 
ATOM      7  C   UNL A   1      40.315  25.312  26.744  1.00  0.00     0.016 A 
ATOM      8  C   UNL A   1      41.979  26.185  28.783  1.00  0.00     0.010 A 
ATOM      9  C   UNL A   1      40.248  26.636  27.152  1.00  0.00     0.010 A 
ATOM     10  C   UNL A   1      41.053  27.061  28.198  1.00  0.00    -0.014 A 
BRANCH  10  11
ATOM     11  C   UNL A   1      41.029  28.455  28.626  1.00  0.00     0.031 A 
ATOM     12  C   UNL A   1      42.216  29.239  28.192  1.00  0.00     0.074 A 
ATOM     13  C   UNL A   1      40.008  29.036  29.289  1.00  0.00     0.049 A 
ATOM     14  N   UNL A   1      43.248  29.543  28.907  1.00  0.00    -0.248 NA
ATOM     15  C   UNL A   1      42.354  29.585  26.773  1.00  0.00     0.031 C 
ATOM     16  C   UNL A   1      38.669  28.513  29.568  1.00  0.00     0.029 A 
ATOM     17  N   UNL A   1      39.969  30.278  29.853  1.00  0.00    -0.354 N 
ATOM     18  C   UNL A   1      44.068  30.323  28.095  1.00  0.00     0.074 A 
ATOM     19  C   UNL A   1      43.561  30.156  26.758  1.00  0.00     0.031 C 
ATOM     20  C   UNL A   1      37.892  29.500  30.077  1.00  0.00     0.029 A 
ATOM     21  C   UNL A   1      38.715  30.673  30.314  1.00  0.00     0.049 A 
ATOM     22  H   UNL A   1      40.765  30.852  29.929  1.00  0.00     0.167 HD
ATOM     23  C   UNL A   1      44.933  31.223  28.647  1.00  0.00     0.037 A 
ATOM     24  C   UNL A   1      38.393  31.872  30.869  1.00  0.00     0.037 A 
ATOM     25  C   UNL A   1      45.111  30.952  30.055  1.00  0.00     0.049 A 
ATOM     26  C   UNL A   1      39.652  32.450  31.401  1.00  0.00     0.074 A 
ATOM     27  C   UNL A   1      45.589  29.889  30.797  1.00  0.00     0.029 A 
ATOM     28  N   UNL A   1      44.412  31.731  30.945  1.00  0.00    -0.354 N 
ATOM     29  N   UNL A   1      40.311  31.934  32.401  1.00  0.00    -0.248 NA
ATOM     30  C   UNL A   1      40.420  33.309  30.514  1.00  0.00     0.031 C 
ATOM     31  C   UNL A   1      44.735  29.825  31.939  1.00  0.00     0.029 A 
ATOM     32  C   UNL A   1      43.845  30.896  31.870  1.00  0.00     0.049 A 
ATOM     33  H   UNL A   1      44.334  32.712  30.921  1.00  0.00     0.167 HD
ATOM     34  C   UNL A   1      41.642  32.038  32.032  1.00  0.00     0.074 A 
ATOM     35  C   UNL A   1      41.651  32.948  30.885  1.00  0.00     0.031 C 
ATOM     36  C   UNL A   1      42.571  31.155  32.497  1.00  0.00     0.037 A 
BRANCH  23  37
ATOM     37  C   UNL A   1      45.299  32.569  28.051  1.00  0.00     0.064 A 
ATOM     38  C   UNL A   1      44.264  33.494  27.784  1.00  0.00     0.173 A 
ATOM     39  C   UNL A   1      46.538  32.869  27.447  1.00  0.00     0.173 A 
ATOM     40  F   UNL A   1      43.037  33.321  28.300  1.00  0.00    -0.203 F 
ATOM     41  C   UNL A   1      44.427  34.557  26.892  1.00  0.00     0.198 A 
ATOM     42  C   UNL A   1      46.710  33.961  26.597  1.00  0.00     0.198 A 
ATOM     43  F   UNL A   1      47.603  32.071  27.555  1.00  0.00    -0.203 F 
ATOM     44  F   UNL A   1      43.373  35.313  26.558  1.00  0.00    -0.200 F 
ATOM     45  C   UNL A   1      45.649  34.783  26.289  1.00  0.00     0.200 A 
ATOM     46  F   UNL A   1      47.900  34.152  26.007  1.00  0.00    -0.200 F 
ATOM     47  F   UNL A   1      45.791  35.753  25.376  1.00  0.00    -0.200 F 
ENDBRANCH  23  37
BRANCH  24  48
ATOM     48  C   UNL A   1      37.187  32.711  30.635  1.00  0.00     0.064 A 
ATOM     49  C   UNL A   1      36.886  33.211  29.354  1.00  0.00     0.173 A 
ATOM     50  C   UNL A   1      36.148  32.771  31.583  1.00  0.00     0.173 A 
ATOM     51  F   UNL A   1      37.801  33.155  28.375  1.00  0.00    -0.203 F 
ATOM     52  C   UNL A   1      35.613  33.700  29.030  1.00  0.00     0.198 A 
ATOM     53  C   UNL A   1      34.879  33.260  31.259  1.00  0.00     0.198 A 
ATOM     54  F   UNL A   1      36.312  32.262  32.812  1.00  0.00    -0.203 F 
ATOM     55  F   UNL A   1      35.346  34.101  27.779  1.00  0.00    -0.200 F 
ATOM     56  C   UNL A   1      34.607  33.709  29.981  1.00  0.00     0.200 A 
ATOM     57  F   UNL A   1      33.901  33.227  32.177  1.00  0.00    -0.200 F 
ATOM     58  F   UNL A   1      33.368  34.107  29.655  1.00  0.00    -0.200 F 
ENDBRANCH  24  48
BRANCH  36  59
ATOM     59  C   UNL A   1      42.169  30.216  33.599  1.00  0.00     0.064 A 
ATOM     60  C   UNL A   1      41.704  28.907  33.381  1.00  0.00     0.173 A 
ATOM     61  C   UNL A   1      42.458  30.586  34.918  1.00  0.00     0.173 A 
ATOM     62  F   UNL A   1      41.483  28.451  32.143  1.00  0.00    -0.203 F 
ATOM     63  C   UNL A   1      41.530  28.016  34.440  1.00  0.00     0.198 A 
ATOM     64  C   UNL A   1      42.315  29.685  35.969  1.00  0.00     0.198 A 
ATOM     65  F   UNL A   1      42.951  31.807  35.178  1.00  0.00    -0.203 F 
ATOM     66  F   UNL A   1      41.102  26.766  34.205  1.00  0.00    -0.200 F 
ATOM     67  C   UNL A   1      41.849  28.402  35.731  1.00  0.00     0.200 A 
ATOM     68  F   UNL A   1      42.670  30.049  37.210  1.00  0.00    -0.200 F 
ATOM     69  F   UNL A   1      41.742  27.527  36.742  1.00  0.00    -0.200 F 
ENDBRANCH  36  59
ENDBRANCH  10  11
ENDBRANCH   3   5
ENDBRANCH   2   3
ENDBRANCH   1   2
BRANCH   1  70
ATOM     70  C   UNL A   1      38.186  22.839  25.331  1.00  0.00     0.274 C 
BRANCH  70  71
ATOM     71  O   UNL A   1      37.191  23.513  26.124  1.00  0.00    -0.461 OA
BRANCH  71  72
ATOM     72  C   UNL A   1      35.942  22.977  26.032  1.00  0.00     0.320 C 
ATOM     73  O   UNL A   1      35.055  23.174  26.850  1.00  0.00    -0.251 OA
BRANCH  72  74
ATOM     74  C   UNL A   1      35.731  22.128  24.782  1.00  0.00     0.178 C 
ATOM     75  S   UNL A   1      35.775  20.346  25.220  1.00  0.00    -0.091 SA
ATOM     76  C   UNL A   1      34.696  22.613  23.744  1.00  0.00     0.137 C 
ATOM     77  C   UNL A   1      34.262  19.764  24.757  1.00  0.00     0.091 A 
ATOM     78  C   UNL A   1      33.343  21.851  23.653  1.00  0.00     0.082 C 
ATOM     79  C   UNL A   1      34.414  24.127  23.796  1.00  0.00     0.317 C 
ATOM     80  N   UNL A   1      33.892  18.510  25.137  1.00  0.00    -0.307 N 
ATOM     81  C   UNL A   1      33.337  20.413  24.052  1.00  0.00     0.049 A 
ATOM     82  C   UNL A   1      32.287  22.692  24.354  1.00  0.00     0.007 A 
ATOM     83  O   UNL A   1      33.262  24.473  23.124  1.00  0.00    -0.425 OA
ATOM     84  O   UNL A   1      35.131  24.979  24.293  1.00  0.00    -0.251 OA
ATOM     85  C   UNL A   1      32.662  18.072  24.709  1.00  0.00     0.305 A 
ATOM     86  H   UNL A   1      34.477  17.945  25.691  1.00  0.00     0.171 HD
ATOM     87  S   UNL A   1      31.998  19.334  23.666  1.00  0.00    -0.078 S 
ATOM     88  C   UNL A   1      31.395  22.266  25.341  1.00  0.00     0.024 A 
ATOM     89  C   UNL A   1      32.265  24.042  23.983  1.00  0.00     0.148 A 
ATOM     90  O   UNL A   1      32.114  17.028  24.978  1.00  0.00    -0.257 OA
ATOM     91  C   UNL A   1      30.483  23.169  25.893  1.00  0.00     0.019 A 
ATOM     92  C   UNL A   1      31.337  24.939  24.508  1.00  0.00     0.062 A 
ATOM     93  Br  UNL A   1      29.318  22.578  27.261  1.00  0.00    -0.051 Br
ATOM     94  C   UNL A   1      30.437  24.498  25.472  1.00  0.00     0.035 A 
ATOM     95  Br  UNL A   1      31.322  26.760  23.992  1.00  0.00    -0.047 Br
ENDBRANCH  72  74
ENDBRANCH  71  72
ENDBRANCH  70  71
ENDBRANCH   1  70
TORSDOF 11
ENDMDL
