MODEL 1
REMARK VINA RESULT:     -12.6      0.000      0.000
REMARK SMILES CC[C@H](C(=O)OCCOC(=O)c1ccc(-c2c3nc(c(-c4c(F)c(F)c(F)c(F)c4F)c4ccc([nH]4)c(-c4c(F)c(F)c(F)c(F)c4F)c4nc(c(-c5c(F)c(F)c(F)c(F)c5F)c5ccc2[nH]5)C=C4)C=C3)cc1)N1C(=O)/C(=C/c2ccc(-c3ccc(C)cc3Br)o2)SC1=S
REMARK SMILES IDX 7 1 6 2 4 3 5 4 3 5 2 6 1 7 75 8 76 9 94 10 77 11 78 12
REMARK SMILES IDX 93 13 95 14 79 15 80 16 81 17 92 18 82 19 83 20 84 21 85 22
REMARK SMILES IDX 90 23 86 24 89 25 91 26 87 27 88 28 8 29 9 30 10 31 11 32
REMARK SMILES IDX 12 33 13 34 74 35 14 36 73 37 15 38 16 39 17 40 67 41 18 42
REMARK SMILES IDX 72 43 66 44 68 45 19 46 71 47 65 48 64 49 20 51 52 52 32 53
REMARK SMILES IDX 51 54 33 55 36 56 50 57 69 58 34 59 35 60 49 62 70 63 37 64
REMARK SMILES IDX 21 65 22 66 30 67 23 68 24 69 28 70 31 71 25 72 26 73 29 74
REMARK SMILES IDX 27 75 53 76 54 77 62 78 55 79 56 80 60 81 63 82 57 83 58 84
REMARK SMILES IDX 61 85 59 86 38 87 39 88 47 89 40 90 41 91 45 92 48 93 42 94
REMARK SMILES IDX 43 95 46 96 44 97
REMARK H PARENT 68 50 36 61
REMARK Flexibility Score: inf
ROOT
ATOM      1  C   UNL A   1      30.986  31.050  25.606  1.00  0.00     0.274 C 
ENDROOT
BRANCH   1   2
ATOM      2  O   UNL A   1      32.019  30.057  25.492  1.00  0.00    -0.461 OA
BRANCH   2   3
ATOM      3  C   UNL A   1      32.070  29.296  24.370  1.00  0.00     0.329 C 
ATOM      4  O   UNL A   1      33.002  29.324  23.573  1.00  0.00    -0.250 OA
BRANCH   3   5
ATOM      5  C   UNL A   1      30.809  28.372  24.268  1.00  0.00     0.201 C 
BRANCH   5   6
ATOM      6  C   UNL A   1      30.015  28.815  23.018  1.00  0.00     0.034 C 
ATOM      7  C   UNL A   1      28.501  28.617  23.116  1.00  0.00     0.007 C 
ENDBRANCH   5   6
BRANCH   5   8
ATOM      8  N   UNL A   1      31.300  26.950  24.324  1.00  0.00    -0.278 N 
ATOM      9  C   UNL A   1      30.905  26.208  25.438  1.00  0.00     0.267 C 
ATOM     10  C   UNL A   1      31.861  26.152  23.350  1.00  0.00     0.149 C 
ATOM     11  O   UNL A   1      29.977  26.478  26.190  1.00  0.00    -0.268 OA
ATOM     12  C   UNL A   1      31.718  24.973  25.565  1.00  0.00     0.084 C 
ATOM     13  S   UNL A   1      32.528  24.694  24.085  1.00  0.00    -0.054 SA
ATOM     14  S   UNL A   1      31.927  26.301  21.694  1.00  0.00    -0.052 S 
ATOM     15  C   UNL A   1      31.751  24.254  26.695  1.00  0.00     0.068 C 
BRANCH  15  16
ATOM     16  C   UNL A   1      32.554  23.095  26.875  1.00  0.00     0.128 A 
ATOM     17  C   UNL A   1      33.448  22.765  27.890  1.00  0.00     0.051 A 
ATOM     18  O   UNL A   1      32.526  22.034  25.994  1.00  0.00    -0.457 OA
ATOM     19  C   UNL A   1      34.024  21.516  27.579  1.00  0.00     0.051 A 
ATOM     20  C   UNL A   1      33.450  21.119  26.394  1.00  0.00     0.135 A 
BRANCH  20  21
ATOM     21  C   UNL A   1      33.642  19.951  25.551  1.00  0.00     0.031 A 
ATOM     22  C   UNL A   1      32.578  19.041  25.433  1.00  0.00     0.013 A 
ATOM     23  C   UNL A   1      34.861  19.637  24.931  1.00  0.00     0.029 A 
ATOM     24  C   UNL A   1      32.728  17.841  24.736  1.00  0.00     0.004 A 
ATOM     25  C   UNL A   1      35.016  18.421  24.251  1.00  0.00     0.019 A 
ATOM     26  Br  UNL A   1      36.385  20.774  25.001  1.00  0.00    -0.050 Br
ATOM     27  C   UNL A   1      33.954  17.515  24.151  1.00  0.00    -0.050 A 
ATOM     28  C   UNL A   1      34.124  16.203  23.445  1.00  0.00     0.044 C 
ENDBRANCH  20  21
ENDBRANCH  15  16
ENDBRANCH   5   8
ENDBRANCH   3   5
ENDBRANCH   2   3
ENDBRANCH   1   2
BRANCH   1  29
ATOM     29  C   UNL A   1      31.499  32.180  26.503  1.00  0.00     0.275 C 
BRANCH  29  30
ATOM     30  O   UNL A   1      32.680  31.785  27.235  1.00  0.00    -0.458 OA
BRANCH  30  31
ATOM     31  C   UNL A   1      33.485  32.799  27.637  1.00  0.00     0.338 C 
ATOM     32  O   UNL A   1      33.216  33.993  27.623  1.00  0.00    -0.246 OA
BRANCH  31  33
ATOM     33  C   UNL A   1      34.747  32.287  28.207  1.00  0.00     0.060 A 
ATOM     34  C   UNL A   1      34.758  30.971  28.683  1.00  0.00     0.016 A 
ATOM     35  C   UNL A   1      35.889  33.082  28.334  1.00  0.00     0.016 A 
ATOM     36  C   UNL A   1      35.907  30.435  29.254  1.00  0.00     0.010 A 
ATOM     37  C   UNL A   1      37.040  32.549  28.929  1.00  0.00     0.010 A 
ATOM     38  C   UNL A   1      37.054  31.222  29.393  1.00  0.00    -0.014 A 
BRANCH  38  39
ATOM     39  C   UNL A   1      38.229  30.652  30.092  1.00  0.00     0.031 A 
ATOM     40  C   UNL A   1      38.495  31.021  31.522  1.00  0.00     0.074 A 
ATOM     41  C   UNL A   1      39.008  29.748  29.471  1.00  0.00     0.049 A 
ATOM     42  N   UNL A   1      39.446  30.613  32.323  1.00  0.00    -0.248 NA
ATOM     43  C   UNL A   1      37.558  31.974  32.136  1.00  0.00     0.031 C 
ATOM     44  C   UNL A   1      38.816  29.268  28.102  1.00  0.00     0.029 A 
ATOM     45  N   UNL A   1      40.112  29.066  29.916  1.00  0.00    -0.354 N 
ATOM     46  C   UNL A   1      39.222  31.255  33.533  1.00  0.00     0.074 A 
ATOM     47  C   UNL A   1      38.067  32.107  33.351  1.00  0.00     0.031 C 
ATOM     48  C   UNL A   1      39.772  28.367  27.820  1.00  0.00     0.029 A 
ATOM     49  C   UNL A   1      40.660  28.234  28.972  1.00  0.00     0.049 A 
ATOM     50  H   UNL A   1      40.476  29.164  30.825  1.00  0.00     0.167 HD
ATOM     51  C   UNL A   1      39.913  31.134  34.692  1.00  0.00     0.037 A 
ATOM     52  C   UNL A   1      41.767  27.468  29.028  1.00  0.00     0.037 A 
ATOM     53  C   UNL A   1      41.067  30.288  34.867  1.00  0.00     0.049 A 
ATOM     54  C   UNL A   1      42.569  27.421  30.303  1.00  0.00     0.074 A 
ATOM     55  C   UNL A   1      41.829  30.092  36.005  1.00  0.00     0.029 A 
ATOM     56  N   UNL A   1      41.630  29.503  33.871  1.00  0.00    -0.354 N 
ATOM     57  N   UNL A   1      42.341  28.014  31.451  1.00  0.00    -0.248 NA
ATOM     58  C   UNL A   1      43.782  26.592  30.293  1.00  0.00     0.031 C 
ATOM     59  C   UNL A   1      42.890  29.241  35.682  1.00  0.00     0.029 A 
ATOM     60  C   UNL A   1      42.750  28.847  34.361  1.00  0.00     0.049 A 
ATOM     61  H   UNL A   1      41.286  29.423  32.952  1.00  0.00     0.167 HD
ATOM     62  C   UNL A   1      43.357  27.602  32.305  1.00  0.00     0.074 A 
ATOM     63  C   UNL A   1      44.195  26.696  31.548  1.00  0.00     0.031 C 
ATOM     64  C   UNL A   1      43.574  27.942  33.600  1.00  0.00     0.037 A 
BRANCH  51  65
ATOM     65  C   UNL A   1      39.459  31.964  35.858  1.00  0.00     0.064 A 
ATOM     66  C   UNL A   1      38.431  31.542  36.714  1.00  0.00     0.173 A 
ATOM     67  C   UNL A   1      40.085  33.189  36.141  1.00  0.00     0.173 A 
ATOM     68  F   UNL A   1      37.791  30.386  36.482  1.00  0.00    -0.203 F 
ATOM     69  C   UNL A   1      38.027  32.327  37.792  1.00  0.00     0.198 A 
ATOM     70  C   UNL A   1      39.701  33.955  37.238  1.00  0.00     0.198 A 
ATOM     71  F   UNL A   1      41.077  33.638  35.358  1.00  0.00    -0.203 F 
ATOM     72  F   UNL A   1      37.008  31.927  38.565  1.00  0.00    -0.200 F 
ATOM     73  C   UNL A   1      38.667  33.528  38.057  1.00  0.00     0.200 A 
ATOM     74  F   UNL A   1      40.330  35.108  37.501  1.00  0.00    -0.200 F 
ATOM     75  F   UNL A   1      38.282  34.279  39.099  1.00  0.00    -0.200 F 
ENDBRANCH  51  65
BRANCH  52  76
ATOM     76  C   UNL A   1      42.198  26.694  27.833  1.00  0.00     0.064 A 
ATOM     77  C   UNL A   1      41.715  25.402  27.590  1.00  0.00     0.173 A 
ATOM     78  C   UNL A   1      43.141  27.217  26.934  1.00  0.00     0.173 A 
ATOM     79  F   UNL A   1      40.833  24.845  28.433  1.00  0.00    -0.203 F 
ATOM     80  C   UNL A   1      42.188  24.647  26.518  1.00  0.00     0.198 A 
ATOM     81  C   UNL A   1      43.584  26.477  25.841  1.00  0.00     0.198 A 
ATOM     82  F   UNL A   1      43.646  28.444  27.127  1.00  0.00    -0.203 F 
ATOM     83  F   UNL A   1      41.769  23.385  26.356  1.00  0.00    -0.200 F 
ATOM     84  C   UNL A   1      43.119  25.187  25.643  1.00  0.00     0.200 A 
ATOM     85  F   UNL A   1      44.479  27.003  24.995  1.00  0.00    -0.200 F 
ATOM     86  F   UNL A   1      43.589  24.452  24.626  1.00  0.00    -0.200 F 
ENDBRANCH  52  76
BRANCH  64  87
ATOM     87  C   UNL A   1      44.741  27.296  34.298  1.00  0.00     0.064 A 
ATOM     88  C   UNL A   1      44.639  26.033  34.901  1.00  0.00     0.173 A 
ATOM     89  C   UNL A   1      45.988  27.939  34.338  1.00  0.00     0.173 A 
ATOM     90  F   UNL A   1      43.469  25.377  34.903  1.00  0.00    -0.203 F 
ATOM     91  C   UNL A   1      45.729  25.457  35.551  1.00  0.00     0.198 A 
ATOM     92  C   UNL A   1      47.085  27.345  34.955  1.00  0.00     0.198 A 
ATOM     93  F   UNL A   1      46.147  29.144  33.769  1.00  0.00    -0.203 F 
ATOM     94  F   UNL A   1      45.591  24.278  36.172  1.00  0.00    -0.200 F 
ATOM     95  C   UNL A   1      46.953  26.111  35.570  1.00  0.00     0.200 A 
ATOM     96  F   UNL A   1      48.271  27.970  34.956  1.00  0.00    -0.200 F 
ATOM     97  F   UNL A   1      48.002  25.553  36.190  1.00  0.00    -0.200 F 
ENDBRANCH  64  87
ENDBRANCH  38  39
ENDBRANCH  31  33
ENDBRANCH  30  31
ENDBRANCH  29  30
ENDBRANCH   1  29
TORSDOF 15
ENDMDL
MODEL 2
REMARK VINA RESULT:     -12.3      1.324      2.203
REMARK SMILES CC[C@H](C(=O)OCCOC(=O)c1ccc(-c2c3nc(c(-c4c(F)c(F)c(F)c(F)c4F)c4ccc([nH]4)c(-c4c(F)c(F)c(F)c(F)c4F)c4nc(c(-c5c(F)c(F)c(F)c(F)c5F)c5ccc2[nH]5)C=C4)C=C3)cc1)N1C(=O)/C(=C/c2ccc(-c3ccc(C)cc3Br)o2)SC1=S
REMARK SMILES IDX 7 1 6 2 4 3 5 4 3 5 2 6 1 7 75 8 76 9 94 10 77 11 78 12
REMARK SMILES IDX 93 13 95 14 79 15 80 16 81 17 92 18 82 19 83 20 84 21 85 22
REMARK SMILES IDX 90 23 86 24 89 25 91 26 87 27 88 28 8 29 9 30 10 31 11 32
REMARK SMILES IDX 12 33 13 34 74 35 14 36 73 37 15 38 16 39 17 40 67 41 18 42
REMARK SMILES IDX 72 43 66 44 68 45 19 46 71 47 65 48 64 49 20 51 52 52 32 53
REMARK SMILES IDX 51 54 33 55 36 56 50 57 69 58 34 59 35 60 49 62 70 63 37 64
REMARK SMILES IDX 21 65 22 66 30 67 23 68 24 69 28 70 31 71 25 72 26 73 29 74
REMARK SMILES IDX 27 75 53 76 54 77 62 78 55 79 56 80 60 81 63 82 57 83 58 84
REMARK SMILES IDX 61 85 59 86 38 87 39 88 47 89 40 90 41 91 45 92 48 93 42 94
REMARK SMILES IDX 43 95 46 96 44 97
REMARK H PARENT 68 50 36 61
REMARK Flexibility Score: inf
ROOT
ATOM      1  C   UNL A   1      31.783  31.781  26.971  1.00  0.00     0.274 C 
ENDROOT
BRANCH   1   2
ATOM      2  O   UNL A   1      32.296  31.104  25.812  1.00  0.00    -0.461 OA
BRANCH   2   3
ATOM      3  C   UNL A   1      32.633  29.794  25.918  1.00  0.00     0.329 C 
ATOM      4  O   UNL A   1      33.704  29.404  26.369  1.00  0.00    -0.250 OA
BRANCH   3   5
ATOM      5  C   UNL A   1      31.461  28.878  25.425  1.00  0.00     0.201 C 
BRANCH   5   6
ATOM      6  C   UNL A   1      30.826  29.569  24.196  1.00  0.00     0.034 C 
ATOM      7  C   UNL A   1      29.834  28.702  23.416  1.00  0.00     0.007 C 
ENDBRANCH   5   6
BRANCH   5   8
ATOM      8  N   UNL A   1      32.031  27.496  25.241  1.00  0.00    -0.278 N 
ATOM      9  C   UNL A   1      31.376  26.469  25.922  1.00  0.00     0.267 C 
ATOM     10  C   UNL A   1      32.930  27.008  24.319  1.00  0.00     0.149 C 
ATOM     11  O   UNL A   1      30.243  26.518  26.381  1.00  0.00    -0.268 OA
ATOM     12  C   UNL A   1      32.212  25.243  25.957  1.00  0.00     0.084 C 
ATOM     13  S   UNL A   1      33.460  25.395  24.798  1.00  0.00    -0.054 SA
ATOM     14  S   UNL A   1      33.489  27.627  22.878  1.00  0.00    -0.052 S 
ATOM     15  C   UNL A   1      31.956  24.229  26.795  1.00  0.00     0.068 C 
BRANCH  15  16
ATOM     16  C   UNL A   1      32.761  23.061  26.897  1.00  0.00     0.128 A 
ATOM     17  C   UNL A   1      33.693  22.688  27.862  1.00  0.00     0.051 A 
ATOM     18  O   UNL A   1      32.694  22.037  25.975  1.00  0.00    -0.457 OA
ATOM     19  C   UNL A   1      34.251  21.451  27.477  1.00  0.00     0.051 A 
ATOM     20  C   UNL A   1      33.628  21.104  26.301  1.00  0.00     0.135 A 
BRANCH  20  21
ATOM     21  C   UNL A   1      33.781  19.971  25.405  1.00  0.00     0.031 A 
ATOM     22  C   UNL A   1      32.644  19.196  25.121  1.00  0.00     0.013 A 
ATOM     23  C   UNL A   1      35.018  19.554  24.890  1.00  0.00     0.029 A 
ATOM     24  C   UNL A   1      32.737  18.027  24.363  1.00  0.00     0.004 A 
ATOM     25  C   UNL A   1      35.112  18.368  24.149  1.00  0.00     0.019 A 
ATOM     26  Br  UNL A   1      36.640  20.504  25.188  1.00  0.00    -0.050 Br
ATOM     27  C   UNL A   1      33.975  17.597  23.883  1.00  0.00    -0.050 A 
ATOM     28  C   UNL A   1      34.077  16.315  23.110  1.00  0.00     0.044 C 
ENDBRANCH  20  21
ENDBRANCH  15  16
ENDBRANCH   5   8
ENDBRANCH   3   5
ENDBRANCH   2   3
ENDBRANCH   1   2
BRANCH   1  29
ATOM     29  C   UNL A   1      32.815  32.820  27.419  1.00  0.00     0.275 C 
BRANCH  29  30
ATOM     30  O   UNL A   1      32.185  34.052  27.835  1.00  0.00    -0.458 OA
BRANCH  30  31
ATOM     31  C   UNL A   1      32.939  34.858  28.623  1.00  0.00     0.338 C 
ATOM     32  O   UNL A   1      32.651  35.986  29.000  1.00  0.00    -0.246 OA
BRANCH  31  33
ATOM     33  C   UNL A   1      34.163  34.168  29.077  1.00  0.00     0.060 A 
ATOM     34  C   UNL A   1      34.026  33.182  30.060  1.00  0.00     0.016 A 
ATOM     35  C   UNL A   1      35.433  34.506  28.604  1.00  0.00     0.016 A 
ATOM     36  C   UNL A   1      35.141  32.511  30.550  1.00  0.00     0.010 A 
ATOM     37  C   UNL A   1      36.559  33.846  29.113  1.00  0.00     0.010 A 
ATOM     38  C   UNL A   1      36.418  32.845  30.089  1.00  0.00    -0.014 A 
BRANCH  38  39
ATOM     39  C   UNL A   1      37.592  32.179  30.701  1.00  0.00     0.031 A 
ATOM     40  C   UNL A   1      38.034  32.570  32.081  1.00  0.00     0.074 A 
ATOM     41  C   UNL A   1      38.211  31.177  30.052  1.00  0.00     0.049 A 
ATOM     42  N   UNL A   1      39.012  32.093  32.807  1.00  0.00    -0.248 NA
ATOM     43  C   UNL A   1      37.262  33.638  32.735  1.00  0.00     0.031 C 
ATOM     44  C   UNL A   1      37.838  30.670  28.731  1.00  0.00     0.029 A 
ATOM     45  N   UNL A   1      39.278  30.399  30.422  1.00  0.00    -0.354 N 
ATOM     46  C   UNL A   1      38.974  32.798  34.002  1.00  0.00     0.074 A 
ATOM     47  C   UNL A   1      37.899  33.761  33.890  1.00  0.00     0.031 C 
ATOM     48  C   UNL A   1      38.664  29.664  28.402  1.00  0.00     0.029 A 
ATOM     49  C   UNL A   1      39.644  29.480  29.471  1.00  0.00     0.049 A 
ATOM     50  H   UNL A   1      39.737  30.490  31.288  1.00  0.00     0.167 HD
ATOM     51  C   UNL A   1      39.760  32.648  35.095  1.00  0.00     0.037 A 
ATOM     52  C   UNL A   1      40.666  28.604  29.457  1.00  0.00     0.037 A 
ATOM     53  C   UNL A   1      40.833  31.691  35.200  1.00  0.00     0.049 A 
ATOM     54  C   UNL A   1      41.581  28.519  30.653  1.00  0.00     0.074 A 
ATOM     55  C   UNL A   1      41.680  31.457  36.270  1.00  0.00     0.029 A 
ATOM     56  N   UNL A   1      41.213  30.816  34.193  1.00  0.00    -0.354 N 
ATOM     57  N   UNL A   1      41.528  29.174  31.788  1.00  0.00    -0.248 NA
ATOM     58  C   UNL A   1      42.696  27.566  30.567  1.00  0.00     0.031 C 
ATOM     59  C   UNL A   1      42.612  30.488  35.888  1.00  0.00     0.029 A 
ATOM     60  C   UNL A   1      42.303  30.064  34.605  1.00  0.00     0.049 A 
ATOM     61  H   UNL A   1      40.774  30.740  33.315  1.00  0.00     0.167 HD
ATOM     62  C   UNL A   1      42.577  28.688  32.562  1.00  0.00     0.074 A 
ATOM     63  C   UNL A   1      43.239  27.672  31.771  1.00  0.00     0.031 C 
ATOM     64  C   UNL A   1      42.953  29.049  33.813  1.00  0.00     0.037 A 
BRANCH  51  65
ATOM     65  C   UNL A   1      39.509  33.563  36.259  1.00  0.00     0.064 A 
ATOM     66  C   UNL A   1      38.689  33.188  37.334  1.00  0.00     0.173 A 
ATOM     67  C   UNL A   1      40.125  34.824  36.314  1.00  0.00     0.173 A 
ATOM     68  F   UNL A   1      38.066  32.001  37.327  1.00  0.00    -0.203 F 
ATOM     69  C   UNL A   1      38.472  34.053  38.405  1.00  0.00     0.198 A 
ATOM     70  C   UNL A   1      39.933  35.670  37.401  1.00  0.00     0.198 A 
ATOM     71  F   UNL A   1      40.924  35.230  35.315  1.00  0.00    -0.203 F 
ATOM     72  F   UNL A   1      37.643  33.694  39.396  1.00  0.00    -0.200 F 
ATOM     73  C   UNL A   1      39.099  35.289  38.442  1.00  0.00     0.200 A 
ATOM     74  F   UNL A   1      40.551  36.858  37.441  1.00  0.00    -0.200 F 
ATOM     75  F   UNL A   1      38.895  36.116  39.476  1.00  0.00    -0.200 F 
ENDBRANCH  51  65
BRANCH  52  76
ATOM     76  C   UNL A   1      40.897  27.746  28.264  1.00  0.00     0.064 A 
ATOM     77  C   UNL A   1      41.677  28.190  27.189  1.00  0.00     0.173 A 
ATOM     78  C   UNL A   1      40.299  26.481  28.156  1.00  0.00     0.173 A 
ATOM     79  F   UNL A   1      42.248  29.403  27.229  1.00  0.00    -0.203 F 
ATOM     80  C   UNL A   1      41.818  27.420  26.036  1.00  0.00     0.198 A 
ATOM     81  C   UNL A   1      40.473  25.694  27.020  1.00  0.00     0.198 A 
ATOM     82  F   UNL A   1      39.531  26.012  29.152  1.00  0.00    -0.203 F 
ATOM     83  F   UNL A   1      42.504  27.903  24.991  1.00  0.00    -0.200 F 
ATOM     84  C   UNL A   1      41.219  26.171  25.955  1.00  0.00     0.200 A 
ATOM     85  F   UNL A   1      39.897  24.487  26.947  1.00  0.00    -0.200 F 
ATOM     86  F   UNL A   1      41.338  25.441  24.838  1.00  0.00    -0.200 F 
ENDBRANCH  52  76
BRANCH  64  87
ATOM     87  C   UNL A   1      44.110  28.309  34.428  1.00  0.00     0.064 A 
ATOM     88  C   UNL A   1      45.427  28.786  34.343  1.00  0.00     0.173 A 
ATOM     89  C   UNL A   1      43.893  27.119  35.139  1.00  0.00     0.173 A 
ATOM     90  F   UNL A   1      45.695  29.914  33.666  1.00  0.00    -0.203 F 
ATOM     91  C   UNL A   1      46.485  28.080  34.911  1.00  0.00     0.198 A 
ATOM     92  C   UNL A   1      44.947  26.435  35.738  1.00  0.00     0.198 A 
ATOM     93  F   UNL A   1      42.653  26.620  35.263  1.00  0.00    -0.203 F 
ATOM     94  F   UNL A   1      47.741  28.525  34.764  1.00  0.00    -0.200 F 
ATOM     95  C   UNL A   1      46.243  26.909  35.615  1.00  0.00     0.200 A 
ATOM     96  F   UNL A   1      44.708  25.314  36.433  1.00  0.00    -0.200 F 
ATOM     97  F   UNL A   1      47.261  26.235  36.167  1.00  0.00    -0.200 F 
ENDBRANCH  64  87
ENDBRANCH  38  39
ENDBRANCH  31  33
ENDBRANCH  30  31
ENDBRANCH  29  30
ENDBRANCH   1  29
TORSDOF 15
ENDMDL
MODEL 3
REMARK VINA RESULT:     -12.0      4.094      9.582
REMARK SMILES CC[C@H](C(=O)OCCOC(=O)c1ccc(-c2c3nc(c(-c4c(F)c(F)c(F)c(F)c4F)c4ccc([nH]4)c(-c4c(F)c(F)c(F)c(F)c4F)c4nc(c(-c5c(F)c(F)c(F)c(F)c5F)c5ccc2[nH]5)C=C4)C=C3)cc1)N1C(=O)/C(=C/c2ccc(-c3ccc(C)cc3Br)o2)SC1=S
REMARK SMILES IDX 7 1 6 2 4 3 5 4 3 5 2 6 1 7 75 8 76 9 94 10 77 11 78 12
REMARK SMILES IDX 93 13 95 14 79 15 80 16 81 17 92 18 82 19 83 20 84 21 85 22
REMARK SMILES IDX 90 23 86 24 89 25 91 26 87 27 88 28 8 29 9 30 10 31 11 32
REMARK SMILES IDX 12 33 13 34 74 35 14 36 73 37 15 38 16 39 17 40 67 41 18 42
REMARK SMILES IDX 72 43 66 44 68 45 19 46 71 47 65 48 64 49 20 51 52 52 32 53
REMARK SMILES IDX 51 54 33 55 36 56 50 57 69 58 34 59 35 60 49 62 70 63 37 64
REMARK SMILES IDX 21 65 22 66 30 67 23 68 24 69 28 70 31 71 25 72 26 73 29 74
REMARK SMILES IDX 27 75 53 76 54 77 62 78 55 79 56 80 60 81 63 82 57 83 58 84
REMARK SMILES IDX 61 85 59 86 38 87 39 88 47 89 40 90 41 91 45 92 48 93 42 94
REMARK SMILES IDX 43 95 46 96 44 97
REMARK H PARENT 68 50 36 61
REMARK Flexibility Score: inf
ROOT
ATOM      1  C   UNL A   1      45.491  23.161  25.635  1.00  0.00     0.274 C 
ENDROOT
BRANCH   1   2
ATOM      2  O   UNL A   1      44.117  23.507  25.870  1.00  0.00    -0.461 OA
BRANCH   2   3
ATOM      3  C   UNL A   1      43.198  22.511  25.954  1.00  0.00     0.329 C 
ATOM      4  O   UNL A   1      43.006  21.690  25.064  1.00  0.00    -0.250 OA
BRANCH   3   5
ATOM      5  C   UNL A   1      42.466  22.547  27.339  1.00  0.00     0.201 C 
BRANCH   5   6
ATOM      6  C   UNL A   1      43.296  23.457  28.273  1.00  0.00     0.034 C 
ATOM      7  C   UNL A   1      43.417  22.955  29.714  1.00  0.00     0.007 C 
ENDBRANCH   5   6
BRANCH   5   8
ATOM      8  N   UNL A   1      41.035  22.930  27.070  1.00  0.00    -0.278 N 
ATOM      9  C   UNL A   1      40.168  21.882  26.759  1.00  0.00     0.267 C 
ATOM     10  C   UNL A   1      40.354  24.101  27.323  1.00  0.00     0.149 C 
ATOM     11  O   UNL A   1      40.365  20.695  26.983  1.00  0.00    -0.268 OA
ATOM     12  C   UNL A   1      38.904  22.398  26.177  1.00  0.00     0.084 C 
ATOM     13  S   UNL A   1      38.795  24.074  26.498  1.00  0.00    -0.054 SA
ATOM     14  S   UNL A   1      40.713  25.409  28.287  1.00  0.00    -0.052 S 
ATOM     15  C   UNL A   1      38.045  21.605  25.523  1.00  0.00     0.068 C 
BRANCH  15  16
ATOM     16  C   UNL A   1      36.849  22.067  24.907  1.00  0.00     0.128 A 
ATOM     17  C   UNL A   1      36.635  22.595  23.636  1.00  0.00     0.051 A 
ATOM     18  O   UNL A   1      35.627  22.022  25.544  1.00  0.00    -0.457 OA
ATOM     19  C   UNL A   1      35.272  22.942  23.531  1.00  0.00     0.051 A 
ATOM     20  C   UNL A   1      34.699  22.599  24.733  1.00  0.00     0.135 A 
BRANCH  20  21
ATOM     21  C   UNL A   1      33.348  22.729  25.251  1.00  0.00     0.031 A 
ATOM     22  C   UNL A   1      33.091  23.758  26.173  1.00  0.00     0.013 A 
ATOM     23  C   UNL A   1      32.316  21.826  24.956  1.00  0.00     0.029 A 
ATOM     24  C   UNL A   1      31.849  23.873  26.800  1.00  0.00     0.004 A 
ATOM     25  C   UNL A   1      31.078  21.929  25.604  1.00  0.00     0.019 A 
ATOM     26  Br  UNL A   1      32.516  20.387  23.725  1.00  0.00    -0.050 Br
ATOM     27  C   UNL A   1      30.837  22.950  26.531  1.00  0.00    -0.050 A 
ATOM     28  C   UNL A   1      29.521  23.049  27.244  1.00  0.00     0.044 C 
ENDBRANCH  20  21
ENDBRANCH  15  16
ENDBRANCH   5   8
ENDBRANCH   3   5
ENDBRANCH   2   3
ENDBRANCH   1   2
BRANCH   1  29
ATOM     29  C   UNL A   1      46.187  24.359  24.984  1.00  0.00     0.275 C 
BRANCH  29  30
ATOM     30  O   UNL A   1      46.422  25.421  25.936  1.00  0.00    -0.458 OA
BRANCH  30  31
ATOM     31  C   UNL A   1      45.903  26.629  25.604  1.00  0.00     0.338 C 
ATOM     32  O   UNL A   1      45.832  27.108  24.480  1.00  0.00    -0.246 OA
BRANCH  31  33
ATOM     33  C   UNL A   1      45.322  27.303  26.781  1.00  0.00     0.060 A 
ATOM     34  C   UNL A   1      44.591  26.523  27.682  1.00  0.00     0.016 A 
ATOM     35  C   UNL A   1      45.433  28.681  26.986  1.00  0.00     0.016 A 
ATOM     36  C   UNL A   1      43.996  27.100  28.799  1.00  0.00     0.010 A 
ATOM     37  C   UNL A   1      44.816  29.267  28.099  1.00  0.00     0.010 A 
ATOM     38  C   UNL A   1      44.094  28.478  29.011  1.00  0.00    -0.014 A 
BRANCH  38  39
ATOM     39  C   UNL A   1      43.369  29.075  30.157  1.00  0.00     0.031 A 
ATOM     40  C   UNL A   1      41.948  29.527  29.985  1.00  0.00     0.074 A 
ATOM     41  C   UNL A   1      43.957  29.141  31.365  1.00  0.00     0.049 A 
ATOM     42  N   UNL A   1      41.128  30.045  30.863  1.00  0.00    -0.248 NA
ATOM     43  C   UNL A   1      41.370  29.365  28.642  1.00  0.00     0.031 C 
ATOM     44  C   UNL A   1      45.313  28.682  31.669  1.00  0.00     0.029 A 
ATOM     45  N   UNL A   1      43.484  29.611  32.563  1.00  0.00    -0.354 N 
ATOM     46  C   UNL A   1      39.939  30.270  30.183  1.00  0.00     0.074 A 
ATOM     47  C   UNL A   1      40.155  29.865  28.811  1.00  0.00     0.031 C 
ATOM     48  C   UNL A   1      45.561  28.892  32.972  1.00  0.00     0.029 A 
ATOM     49  C   UNL A   1      44.399  29.532  33.584  1.00  0.00     0.049 A 
ATOM     50  H   UNL A   1      42.575  29.970  32.681  1.00  0.00     0.167 HD
ATOM     51  C   UNL A   1      38.771  30.760  30.665  1.00  0.00     0.037 A 
ATOM     52  C   UNL A   1      44.312  29.949  34.861  1.00  0.00     0.037 A 
ATOM     53  C   UNL A   1      38.563  31.166  32.032  1.00  0.00     0.049 A 
ATOM     54  C   UNL A   1      43.029  30.573  35.349  1.00  0.00     0.074 A 
ATOM     55  C   UNL A   1      37.414  31.668  32.618  1.00  0.00     0.029 A 
ATOM     56  N   UNL A   1      39.531  31.128  33.025  1.00  0.00    -0.354 N 
ATOM     57  N   UNL A   1      41.901  30.764  34.707  1.00  0.00    -0.248 NA
ATOM     58  C   UNL A   1      43.006  31.035  36.744  1.00  0.00     0.031 C 
ATOM     59  C   UNL A   1      37.704  31.992  33.947  1.00  0.00     0.029 A 
ATOM     60  C   UNL A   1      39.014  31.627  34.211  1.00  0.00     0.049 A 
ATOM     61  H   UNL A   1      40.450  30.796  32.906  1.00  0.00     0.167 HD
ATOM     62  C   UNL A   1      41.027  31.333  35.627  1.00  0.00     0.074 A 
ATOM     63  C   UNL A   1      41.751  31.441  36.876  1.00  0.00     0.031 C 
ATOM     64  C   UNL A   1      39.741  31.726  35.452  1.00  0.00     0.037 A 
BRANCH  51  65
ATOM     65  C   UNL A   1      37.634  30.915  29.698  1.00  0.00     0.064 A 
ATOM     66  C   UNL A   1      36.786  29.846  29.372  1.00  0.00     0.173 A 
ATOM     67  C   UNL A   1      37.370  32.162  29.109  1.00  0.00     0.173 A 
ATOM     68  F   UNL A   1      37.000  28.630  29.895  1.00  0.00    -0.203 F 
ATOM     69  C   UNL A   1      35.734  30.013  28.473  1.00  0.00     0.198 A 
ATOM     70  C   UNL A   1      36.298  32.333  28.238  1.00  0.00     0.198 A 
ATOM     71  F   UNL A   1      38.146  33.219  29.389  1.00  0.00    -0.203 F 
ATOM     72  F   UNL A   1      34.969  28.964  28.139  1.00  0.00    -0.200 F 
ATOM     73  C   UNL A   1      35.487  31.257  27.913  1.00  0.00     0.200 A 
ATOM     74  F   UNL A   1      36.053  33.539  27.709  1.00  0.00    -0.200 F 
ATOM     75  F   UNL A   1      34.471  31.417  27.054  1.00  0.00    -0.200 F 
ENDBRANCH  51  65
BRANCH  52  76
ATOM     76  C   UNL A   1      45.480  29.809  35.771  1.00  0.00     0.064 A 
ATOM     77  C   UNL A   1      45.629  28.688  36.597  1.00  0.00     0.173 A 
ATOM     78  C   UNL A   1      46.448  30.822  35.866  1.00  0.00     0.173 A 
ATOM     79  F   UNL A   1      44.717  27.705  36.566  1.00  0.00    -0.203 F 
ATOM     80  C   UNL A   1      46.678  28.603  37.512  1.00  0.00     0.198 A 
ATOM     81  C   UNL A   1      47.518  30.717  36.752  1.00  0.00     0.198 A 
ATOM     82  F   UNL A   1      46.347  31.923  35.107  1.00  0.00    -0.203 F 
ATOM     83  F   UNL A   1      46.751  27.556  38.345  1.00  0.00    -0.200 F 
ATOM     84  C   UNL A   1      47.623  29.615  37.585  1.00  0.00     0.200 A 
ATOM     85  F   UNL A   1      48.431  31.695  36.817  1.00  0.00    -0.200 F 
ATOM     86  F   UNL A   1      48.618  29.541  38.479  1.00  0.00    -0.200 F 
ENDBRANCH  52  76
BRANCH  64  87
ATOM     87  C   UNL A   1      39.015  32.270  36.653  1.00  0.00     0.064 A 
ATOM     88  C   UNL A   1      39.202  33.586  37.101  1.00  0.00     0.173 A 
ATOM     89  C   UNL A   1      38.095  31.469  37.348  1.00  0.00     0.173 A 
ATOM     90  F   UNL A   1      40.077  34.393  36.481  1.00  0.00    -0.203 F 
ATOM     91  C   UNL A   1      38.527  34.067  38.221  1.00  0.00     0.198 A 
ATOM     92  C   UNL A   1      37.394  31.963  38.444  1.00  0.00     0.198 A 
ATOM     93  F   UNL A   1      37.867  30.205  36.959  1.00  0.00    -0.203 F 
ATOM     94  F   UNL A   1      38.768  35.308  38.665  1.00  0.00    -0.200 F 
ATOM     95  C   UNL A   1      37.618  33.257  38.886  1.00  0.00     0.200 A 
ATOM     96  F   UNL A   1      36.502  31.185  39.074  1.00  0.00    -0.200 F 
ATOM     97  F   UNL A   1      36.964  33.723  39.960  1.00  0.00    -0.200 F 
ENDBRANCH  64  87
ENDBRANCH  38  39
ENDBRANCH  31  33
ENDBRANCH  30  31
ENDBRANCH  29  30
ENDBRANCH   1  29
TORSDOF 15
ENDMDL
