MODEL 1
REMARK VINA RESULT:     -14.4      0.000      0.000
REMARK SMILES C[C@]12c3ccccc3[C@](C)(c3ccccc31)[C@@H]1C(=O)N(c3ccc(C(=O)OCCOC(=O)c4ccc(-c5c6nc(c(-c7c(F)c(F)c(F)c(F)c7F)c7ccc([nH]7)c(-c7c(F)c(F)c(F)c(F)c7F)c7nc(c(-c8c(F)c(F)c(F)c(F)c8F)c8ccc5[nH]8)C=C7)C=C6)cc4)cc3)C(=O)[C@H]12
REMARK SMILES IDX 29 1 28 2 27 3 25 4 26 5 24 6 21 7 22 8 97 9 23 10 96 11
REMARK SMILES IDX 20 12 1 13 2 14 16 15 3 16 100 17 15 18 11 19 8 20 4 21
REMARK SMILES IDX 17 22 98 23 14 24 12 25 9 26 7 27 5 28 18 29 99 30 13 31
REMARK SMILES IDX 10 32 6 33 19 34 30 35 31 36 32 37 33 38 34 39 95 40 35 41
REMARK SMILES IDX 94 42 36 43 37 44 38 45 88 46 39 47 93 48 87 49 89 50 40 51
REMARK SMILES IDX 92 52 86 53 85 54 41 56 73 57 53 58 72 59 54 60 57 61 71 62
REMARK SMILES IDX 90 63 55 64 56 65 70 67 91 68 58 69 42 70 43 71 51 72 44 73
REMARK SMILES IDX 45 74 49 75 52 76 46 77 47 78 50 79 48 80 74 81 75 82 83 83
REMARK SMILES IDX 76 84 77 85 81 86 84 87 78 88 79 89 82 90 80 91 59 92 60 93
REMARK SMILES IDX 68 94 61 95 62 96 66 97 69 98 63 99 64 100 67 101 65 102
REMARK H PARENT 89 55 57 66
REMARK Flexibility Score: inf
ROOT
ATOM      1  C   UNL A   1      46.796  23.040  37.603  1.00  0.00     0.275 C 
ENDROOT
BRANCH   1   2
ATOM      2  C   UNL A   1      46.217  21.663  37.266  1.00  0.00     0.275 C 
BRANCH   2   3
ATOM      3  O   UNL A   1      46.028  20.869  38.456  1.00  0.00    -0.458 OA
BRANCH   3   4
ATOM      4  C   UNL A   1      46.813  19.771  38.581  1.00  0.00     0.338 C 
ATOM      5  O   UNL A   1      47.890  19.579  38.038  1.00  0.00    -0.246 OA
BRANCH   4   6
ATOM      6  C   UNL A   1      46.260  18.861  39.615  1.00  0.00     0.060 A 
ATOM      7  C   UNL A   1      45.422  16.993  41.519  1.00  0.00     0.052 A 
ATOM      8  C   UNL A   1      45.658  16.584  40.210  1.00  0.00     0.028 A 
ATOM      9  C   UNL A   1      45.556  18.344  41.870  1.00  0.00     0.028 A 
ATOM     10  C   UNL A   1      46.000  17.532  39.251  1.00  0.00     0.018 A 
ATOM     11  C   UNL A   1      46.020  19.271  40.930  1.00  0.00     0.018 A 
BRANCH   7  12
ATOM     12  N   UNL A   1      45.009  16.049  42.463  1.00  0.00    -0.250 N 
ATOM     13  C   UNL A   1      41.258  14.146  44.126  1.00  0.00     0.022 C 
ATOM     14  C   UNL A   1      42.709  13.858  44.507  1.00  0.00     0.030 C 
ATOM     15  C   UNL A   1      43.208  12.424  44.186  1.00  0.00    -0.033 A 
ATOM     16  C   UNL A   1      43.024  14.033  46.026  1.00  0.00    -0.033 A 
ATOM     17  C   UNL A   1      43.686  14.919  43.938  1.00  0.00     0.108 C 
ATOM     18  C   UNL A   1      42.471  11.415  43.576  1.00  0.00     0.005 A 
ATOM     19  C   UNL A   1      44.559  12.156  44.609  1.00  0.00    -0.033 A 
ATOM     20  C   UNL A   1      44.420  13.886  46.339  1.00  0.00    -0.033 A 
ATOM     21  C   UNL A   1      42.102  14.328  47.028  1.00  0.00     0.005 A 
ATOM     22  C   UNL A   1      45.094  14.315  43.906  1.00  0.00     0.108 C 
ATOM     23  C   UNL A   1      43.685  15.627  42.618  1.00  0.00     0.238 C 
ATOM     24  C   UNL A   1      43.060  10.162  43.381  1.00  0.00     0.000 A 
ATOM     25  C   UNL A   1      45.129  10.902  44.420  1.00  0.00     0.005 A 
ATOM     26  C   UNL A   1      45.298  13.423  45.148  1.00  0.00     0.030 C 
ATOM     27  C   UNL A   1      44.849  14.063  47.651  1.00  0.00     0.005 A 
ATOM     28  C   UNL A   1      42.554  14.490  48.336  1.00  0.00     0.000 A 
ATOM     29  C   UNL A   1      45.880  15.473  43.391  1.00  0.00     0.238 C 
ATOM     30  O   UNL A   1      42.710  15.877  41.932  1.00  0.00    -0.274 OA
ATOM     31  C   UNL A   1      44.372   9.907  43.803  1.00  0.00     0.000 A 
ATOM     32  C   UNL A   1      46.778  13.230  45.468  1.00  0.00     0.022 C 
ATOM     33  C   UNL A   1      43.914  14.367  48.644  1.00  0.00     0.000 A 
ATOM     34  O   UNL A   1      47.034  15.749  43.646  1.00  0.00    -0.274 OA
ENDBRANCH   7  12
ENDBRANCH   4   6
ENDBRANCH   3   4
ENDBRANCH   2   3
ENDBRANCH   1   2
BRANCH   1  35
ATOM     35  O   UNL A   1      46.639  23.945  36.494  1.00  0.00    -0.458 OA
BRANCH  35  36
ATOM     36  C   UNL A   1      46.867  25.251  36.764  1.00  0.00     0.338 C 
ATOM     37  O   UNL A   1      47.767  25.732  37.430  1.00  0.00    -0.246 OA
BRANCH  36  38
ATOM     38  C   UNL A   1      45.905  26.063  36.005  1.00  0.00     0.060 A 
ATOM     39  C   UNL A   1      46.274  27.228  35.341  1.00  0.00     0.016 A 
ATOM     40  C   UNL A   1      44.607  25.580  35.897  1.00  0.00     0.016 A 
ATOM     41  C   UNL A   1      45.308  27.918  34.596  1.00  0.00     0.010 A 
ATOM     42  C   UNL A   1      43.666  26.221  35.097  1.00  0.00     0.010 A 
ATOM     43  C   UNL A   1      43.995  27.419  34.457  1.00  0.00    -0.014 A 
BRANCH  43  44
ATOM     44  C   UNL A   1      42.973  28.134  33.644  1.00  0.00     0.031 A 
ATOM     45  C   UNL A   1      42.800  27.835  32.175  1.00  0.00     0.074 A 
ATOM     46  C   UNL A   1      42.216  29.088  34.220  1.00  0.00     0.049 A 
ATOM     47  N   UNL A   1      41.936  28.334  31.326  1.00  0.00    -0.248 NA
ATOM     48  C   UNL A   1      43.737  26.874  31.569  1.00  0.00     0.031 C 
ATOM     49  C   UNL A   1      42.348  29.545  35.604  1.00  0.00     0.029 A 
ATOM     50  N   UNL A   1      41.179  29.836  33.721  1.00  0.00    -0.354 N 
ATOM     51  C   UNL A   1      42.230  27.758  30.096  1.00  0.00     0.074 A 
ATOM     52  C   UNL A   1      43.394  26.923  30.289  1.00  0.00     0.031 C 
ATOM     53  C   UNL A   1      41.386  30.444  35.864  1.00  0.00     0.029 A 
ATOM     54  C   UNL A   1      40.589  30.652  34.658  1.00  0.00     0.049 A 
ATOM     55  H   UNL A   1      40.884  29.793  32.783  1.00  0.00     0.167 HD
ATOM     56  C   UNL A   1      41.568  27.880  28.920  1.00  0.00     0.037 A 
ATOM     57  C   UNL A   1      39.515  31.460  34.562  1.00  0.00     0.037 A 
ATOM     58  C   UNL A   1      40.382  28.674  28.737  1.00  0.00     0.049 A 
ATOM     59  C   UNL A   1      38.771  31.547  33.258  1.00  0.00     0.074 A 
ATOM     60  C   UNL A   1      39.595  28.801  27.606  1.00  0.00     0.029 A 
ATOM     61  N   UNL A   1      39.809  29.473  29.714  1.00  0.00    -0.354 N 
ATOM     62  N   UNL A   1      39.008  30.927  32.128  1.00  0.00    -0.248 NA
ATOM     63  C   UNL A   1      37.606  32.442  33.217  1.00  0.00     0.031 C 
ATOM     64  C   UNL A   1      38.565  29.703  27.887  1.00  0.00     0.029 A 
ATOM     65  C   UNL A   1      38.686  30.107  29.207  1.00  0.00     0.049 A 
ATOM     66  H   UNL A   1      40.149  29.576  30.633  1.00  0.00     0.167 HD
ATOM     67  C   UNL A   1      38.018  31.342  31.250  1.00  0.00     0.074 A 
ATOM     68  C   UNL A   1      37.161  32.250  31.983  1.00  0.00     0.031 C 
ATOM     69  C   UNL A   1      37.839  31.005  29.949  1.00  0.00     0.037 A 
BRANCH  56  70
ATOM     70  C   UNL A   1      42.079  27.103  27.740  1.00  0.00     0.064 A 
ATOM     71  C   UNL A   1      43.053  27.637  26.881  1.00  0.00     0.173 A 
ATOM     72  C   UNL A   1      41.656  25.784  27.511  1.00  0.00     0.173 A 
ATOM     73  F   UNL A   1      43.489  28.894  27.054  1.00  0.00    -0.203 F 
ATOM     74  C   UNL A   1      43.568  26.888  25.827  1.00  0.00     0.198 A 
ATOM     75  C   UNL A   1      42.196  25.029  26.473  1.00  0.00     0.198 A 
ATOM     76  F   UNL A   1      40.737  25.219  28.308  1.00  0.00    -0.203 F 
ATOM     77  F   UNL A   1      44.473  27.432  25.001  1.00  0.00    -0.200 F 
ATOM     78  C   UNL A   1      43.148  25.582  25.629  1.00  0.00     0.200 A 
ATOM     79  F   UNL A   1      41.802  23.760  26.294  1.00  0.00    -0.200 F 
ATOM     80  F   UNL A   1      43.660  24.857  24.626  1.00  0.00    -0.200 F 
ENDBRANCH  56  70
BRANCH  57  81
ATOM     81  C   UNL A   1      39.042  32.196  35.763  1.00  0.00     0.064 A 
ATOM     82  C   UNL A   1      38.205  31.574  36.699  1.00  0.00     0.173 A 
ATOM     83  C   UNL A   1      39.435  33.519  36.015  1.00  0.00     0.173 A 
ATOM     84  F   UNL A   1      37.787  30.317  36.492  1.00  0.00    -0.203 F 
ATOM     85  C   UNL A   1      37.771  32.250  37.838  1.00  0.00     0.198 A 
ATOM     86  C   UNL A   1      39.022  34.184  37.168  1.00  0.00     0.198 A 
ATOM     87  F   UNL A   1      40.239  34.157  35.152  1.00  0.00    -0.203 F 
ATOM     88  F   UNL A   1      36.944  31.642  38.700  1.00  0.00    -0.200 F 
ATOM     89  C   UNL A   1      38.186  33.551  38.076  1.00  0.00     0.200 A 
ATOM     90  F   UNL A   1      39.436  35.437  37.401  1.00  0.00    -0.200 F 
ATOM     91  F   UNL A   1      37.778  34.195  39.177  1.00  0.00    -0.200 F 
ENDBRANCH  57  81
BRANCH  69  92
ATOM     92  C   UNL A   1      36.671  31.609  29.228  1.00  0.00     0.064 A 
ATOM     93  C   UNL A   1      35.538  30.848  28.909  1.00  0.00     0.173 A 
ATOM     94  C   UNL A   1      36.653  32.979  28.923  1.00  0.00     0.173 A 
ATOM     95  F   UNL A   1      35.513  29.532  29.169  1.00  0.00    -0.203 F 
ATOM     96  C   UNL A   1      34.432  31.434  28.298  1.00  0.00     0.198 A 
ATOM     97  C   UNL A   1      35.536  33.566  28.337  1.00  0.00     0.198 A 
ATOM     98  F   UNL A   1      37.710  33.751  29.216  1.00  0.00    -0.203 F 
ATOM     99  F   UNL A   1      33.373  30.681  27.972  1.00  0.00    -0.200 F 
ATOM    100  C   UNL A   1      34.429  32.793  28.021  1.00  0.00     0.200 A 
ATOM    101  F   UNL A   1      35.527  34.883  28.085  1.00  0.00    -0.200 F 
ATOM    102  F   UNL A   1      33.357  33.358  27.449  1.00  0.00    -0.200 F 
ENDBRANCH  69  92
ENDBRANCH  43  44
ENDBRANCH  36  38
ENDBRANCH  35  36
ENDBRANCH   1  35
TORSDOF 12
ENDMDL
MODEL 2
REMARK VINA RESULT:     -14.2      0.463      2.509
REMARK SMILES C[C@]12c3ccccc3[C@](C)(c3ccccc31)[C@@H]1C(=O)N(c3ccc(C(=O)OCCOC(=O)c4ccc(-c5c6nc(c(-c7c(F)c(F)c(F)c(F)c7F)c7ccc([nH]7)c(-c7c(F)c(F)c(F)c(F)c7F)c7nc(c(-c8c(F)c(F)c(F)c(F)c8F)c8ccc5[nH]8)C=C7)C=C6)cc4)cc3)C(=O)[C@H]12
REMARK SMILES IDX 29 1 28 2 27 3 25 4 26 5 24 6 21 7 22 8 97 9 23 10 96 11
REMARK SMILES IDX 20 12 1 13 2 14 16 15 3 16 100 17 15 18 11 19 8 20 4 21
REMARK SMILES IDX 17 22 98 23 14 24 12 25 9 26 7 27 5 28 18 29 99 30 13 31
REMARK SMILES IDX 10 32 6 33 19 34 30 35 31 36 32 37 33 38 34 39 95 40 35 41
REMARK SMILES IDX 94 42 36 43 37 44 38 45 88 46 39 47 93 48 87 49 89 50 40 51
REMARK SMILES IDX 92 52 86 53 85 54 41 56 73 57 53 58 72 59 54 60 57 61 71 62
REMARK SMILES IDX 90 63 55 64 56 65 70 67 91 68 58 69 42 70 43 71 51 72 44 73
REMARK SMILES IDX 45 74 49 75 52 76 46 77 47 78 50 79 48 80 74 81 75 82 83 83
REMARK SMILES IDX 76 84 77 85 81 86 84 87 78 88 79 89 82 90 80 91 59 92 60 93
REMARK SMILES IDX 68 94 61 95 62 96 66 97 69 98 63 99 64 100 67 101 65 102
REMARK H PARENT 89 55 57 66
REMARK Flexibility Score: inf
ROOT
ATOM      1  C   UNL A   1      46.927  23.852  38.890  1.00  0.00     0.275 C 
ENDROOT
BRANCH   1   2
ATOM      2  C   UNL A   1      45.998  22.877  39.618  1.00  0.00     0.275 C 
BRANCH   2   3
ATOM      3  O   UNL A   1      46.695  21.671  39.995  1.00  0.00    -0.458 OA
BRANCH   3   4
ATOM      4  C   UNL A   1      46.453  20.572  39.239  1.00  0.00     0.338 C 
ATOM      5  O   UNL A   1      46.559  20.484  38.026  1.00  0.00    -0.246 OA
BRANCH   4   6
ATOM      6  C   UNL A   1      46.181  19.401  40.111  1.00  0.00     0.060 A 
ATOM      7  C   UNL A   1      45.424  17.280  41.766  1.00  0.00     0.052 A 
ATOM      8  C   UNL A   1      45.208  18.590  42.182  1.00  0.00     0.028 A 
ATOM      9  C   UNL A   1      46.065  17.026  40.545  1.00  0.00     0.028 A 
ATOM     10  C   UNL A   1      45.656  19.641  41.388  1.00  0.00     0.018 A 
ATOM     11  C   UNL A   1      46.401  18.085  39.695  1.00  0.00     0.018 A 
BRANCH   7  12
ATOM     12  N   UNL A   1      45.037  16.228  42.600  1.00  0.00    -0.250 N 
ATOM     13  C   UNL A   1      46.778  13.143  45.412  1.00  0.00     0.022 C 
ATOM     14  C   UNL A   1      45.310  13.376  45.062  1.00  0.00     0.030 C 
ATOM     15  C   UNL A   1      44.412  13.839  46.242  1.00  0.00    -0.033 A 
ATOM     16  C   UNL A   1      44.572  12.120  44.501  1.00  0.00    -0.033 A 
ATOM     17  C   UNL A   1      45.140  14.317  43.842  1.00  0.00     0.108 C 
ATOM     18  C   UNL A   1      44.828  14.074  47.547  1.00  0.00     0.005 A 
ATOM     19  C   UNL A   1      43.020  13.995  45.903  1.00  0.00    -0.033 A 
ATOM     20  C   UNL A   1      43.233  12.397  44.057  1.00  0.00    -0.033 A 
ATOM     21  C   UNL A   1      45.105  10.838  44.387  1.00  0.00     0.005 A 
ATOM     22  C   UNL A   1      43.725  14.904  43.874  1.00  0.00     0.108 C 
ATOM     23  C   UNL A   1      45.911  15.539  43.447  1.00  0.00     0.238 C 
ATOM     24  C   UNL A   1      43.885  14.461  48.504  1.00  0.00     0.000 A 
ATOM     25  C   UNL A   1      42.091  14.369  46.867  1.00  0.00     0.005 A 
ATOM     26  C   UNL A   1      42.737  13.831  44.376  1.00  0.00     0.030 C 
ATOM     27  C   UNL A   1      42.476  11.377  43.489  1.00  0.00     0.005 A 
ATOM     28  C   UNL A   1      44.324   9.829  43.826  1.00  0.00     0.000 A 
ATOM     29  C   UNL A   1      43.736  15.720  42.626  1.00  0.00     0.238 C 
ATOM     30  O   UNL A   1      47.076  15.777  43.711  1.00  0.00    -0.274 OA
ATOM     31  C   UNL A   1      42.531  14.603  48.169  1.00  0.00     0.000 A 
ATOM     32  C   UNL A   1      41.305  14.134  43.941  1.00  0.00     0.022 C 
ATOM     33  C   UNL A   1      43.026  10.097  43.374  1.00  0.00     0.000 A 
ATOM     34  O   UNL A   1      42.795  15.962  41.899  1.00  0.00    -0.274 OA
ENDBRANCH   7  12
ENDBRANCH   4   6
ENDBRANCH   3   4
ENDBRANCH   2   3
ENDBRANCH   1   2
BRANCH   1  35
ATOM     35  O   UNL A   1      46.173  24.740  38.043  1.00  0.00    -0.458 OA
BRANCH  35  36
ATOM     36  C   UNL A   1      46.690  24.960  36.813  1.00  0.00     0.338 C 
ATOM     37  O   UNL A   1      47.701  24.482  36.329  1.00  0.00    -0.246 OA
BRANCH  36  38
ATOM     38  C   UNL A   1      45.755  25.802  36.053  1.00  0.00     0.060 A 
ATOM     39  C   UNL A   1      46.167  26.937  35.363  1.00  0.00     0.016 A 
ATOM     40  C   UNL A   1      44.434  25.380  35.974  1.00  0.00     0.016 A 
ATOM     41  C   UNL A   1      45.223  27.658  34.619  1.00  0.00     0.010 A 
ATOM     42  C   UNL A   1      43.511  26.050  35.177  1.00  0.00     0.010 A 
ATOM     43  C   UNL A   1      43.886  27.219  34.509  1.00  0.00    -0.014 A 
BRANCH  43  44
ATOM     44  C   UNL A   1      42.885  27.966  33.699  1.00  0.00     0.031 A 
ATOM     45  C   UNL A   1      42.723  27.696  32.223  1.00  0.00     0.074 A 
ATOM     46  C   UNL A   1      42.139  28.922  34.284  1.00  0.00     0.049 A 
ATOM     47  N   UNL A   1      41.877  28.226  31.373  1.00  0.00    -0.248 NA
ATOM     48  C   UNL A   1      43.649  26.730  31.610  1.00  0.00     0.031 C 
ATOM     49  C   UNL A   1      42.264  29.352  35.677  1.00  0.00     0.029 A 
ATOM     50  N   UNL A   1      41.120  29.698  33.788  1.00  0.00    -0.354 N 
ATOM     51  C   UNL A   1      42.175  27.667  30.137  1.00  0.00     0.074 A 
ATOM     52  C   UNL A   1      43.322  26.808  30.327  1.00  0.00     0.031 C 
ATOM     53  C   UNL A   1      41.315  30.264  35.943  1.00  0.00     0.029 A 
ATOM     54  C   UNL A   1      40.535  30.507  34.733  1.00  0.00     0.049 A 
ATOM     55  H   UNL A   1      40.835  29.677  32.846  1.00  0.00     0.167 HD
ATOM     56  C   UNL A   1      41.527  27.822  28.956  1.00  0.00     0.037 A 
ATOM     57  C   UNL A   1      39.476  31.336  34.640  1.00  0.00     0.037 A 
ATOM     58  C   UNL A   1      40.358  28.640  28.775  1.00  0.00     0.049 A 
ATOM     59  C   UNL A   1      38.748  31.459  33.330  1.00  0.00     0.074 A 
ATOM     60  C   UNL A   1      39.585  28.800  27.638  1.00  0.00     0.029 A 
ATOM     61  N   UNL A   1      39.788  29.431  29.760  1.00  0.00    -0.354 N 
ATOM     62  N   UNL A   1      38.987  30.855  32.192  1.00  0.00    -0.248 NA
ATOM     63  C   UNL A   1      37.599  32.375  33.293  1.00  0.00     0.031 C 
ATOM     64  C   UNL A   1      38.569  29.716  27.924  1.00  0.00     0.029 A 
ATOM     65  C   UNL A   1      38.682  30.093  29.253  1.00  0.00     0.049 A 
ATOM     66  H   UNL A   1      40.119  29.511  30.684  1.00  0.00     0.167 HD
ATOM     67  C   UNL A   1      38.014  31.303  31.311  1.00  0.00     0.074 A 
ATOM     68  C   UNL A   1      37.164  32.213  32.051  1.00  0.00     0.031 C 
ATOM     69  C   UNL A   1      37.843  30.993  30.002  1.00  0.00     0.037 A 
BRANCH  56  70
ATOM     70  C   UNL A   1      42.037  27.057  27.768  1.00  0.00     0.064 A 
ATOM     71  C   UNL A   1      42.993  27.609  26.900  1.00  0.00     0.173 A 
ATOM     72  C   UNL A   1      41.634  25.732  27.539  1.00  0.00     0.173 A 
ATOM     73  F   UNL A   1      43.410  28.872  27.073  1.00  0.00    -0.203 F 
ATOM     74  C   UNL A   1      43.508  26.873  25.838  1.00  0.00     0.198 A 
ATOM     75  C   UNL A   1      42.174  24.989  26.492  1.00  0.00     0.198 A 
ATOM     76  F   UNL A   1      40.732  25.150  28.345  1.00  0.00    -0.203 F 
ATOM     77  F   UNL A   1      44.395  27.434  25.003  1.00  0.00    -0.200 F 
ATOM     78  C   UNL A   1      43.107  25.560  25.640  1.00  0.00     0.200 A 
ATOM     79  F   UNL A   1      41.799  23.715  26.313  1.00  0.00    -0.200 F 
ATOM     80  F   UNL A   1      43.620  24.847  24.628  1.00  0.00    -0.200 F 
ENDBRANCH  56  70
BRANCH  57  81
ATOM     81  C   UNL A   1      39.003  32.059  35.849  1.00  0.00     0.064 A 
ATOM     82  C   UNL A   1      39.368  33.394  36.072  1.00  0.00     0.173 A 
ATOM     83  C   UNL A   1      38.160  31.446  36.788  1.00  0.00     0.173 A 
ATOM     84  F   UNL A   1      40.187  34.016  35.212  1.00  0.00    -0.203 F 
ATOM     85  C   UNL A   1      38.915  34.087  37.192  1.00  0.00     0.198 A 
ATOM     86  C   UNL A   1      37.686  32.150  37.894  1.00  0.00     0.198 A 
ATOM     87  F   UNL A   1      37.779  30.172  36.618  1.00  0.00    -0.203 F 
ATOM     88  F   UNL A   1      39.306  35.352  37.398  1.00  0.00    -0.200 F 
ATOM     89  C   UNL A   1      38.068  33.467  38.098  1.00  0.00     0.200 A 
ATOM     90  F   UNL A   1      36.857  31.551  38.760  1.00  0.00    -0.200 F 
ATOM     91  F   UNL A   1      37.623  34.138  39.169  1.00  0.00    -0.200 F 
ENDBRANCH  57  81
BRANCH  69  92
ATOM     92  C   UNL A   1      36.694  31.630  29.279  1.00  0.00     0.064 A 
ATOM     93  C   UNL A   1      35.562  30.890  28.912  1.00  0.00     0.173 A 
ATOM     94  C   UNL A   1      36.691  33.010  29.022  1.00  0.00     0.173 A 
ATOM     95  F   UNL A   1      35.523  29.565  29.126  1.00  0.00    -0.203 F 
ATOM     96  C   UNL A   1      34.473  31.504  28.300  1.00  0.00     0.198 A 
ATOM     97  C   UNL A   1      35.590  33.626  28.436  1.00  0.00     0.198 A 
ATOM     98  F   UNL A   1      37.747  33.764  29.364  1.00  0.00    -0.203 F 
ATOM     99  F   UNL A   1      33.415  30.772  27.928  1.00  0.00    -0.200 F 
ATOM    100  C   UNL A   1      34.484  32.872  28.072  1.00  0.00     0.200 A 
ATOM    101  F   UNL A   1      35.594  34.950  28.230  1.00  0.00    -0.200 F 
ATOM    102  F   UNL A   1      33.427  33.465  27.498  1.00  0.00    -0.200 F 
ENDBRANCH  69  92
ENDBRANCH  43  44
ENDBRANCH  36  38
ENDBRANCH  35  36
ENDBRANCH   1  35
TORSDOF 12
ENDMDL
MODEL 3
REMARK VINA RESULT:     -13.8     11.473     23.839
REMARK SMILES C[C@]12c3ccccc3[C@](C)(c3ccccc31)[C@@H]1C(=O)N(c3ccc(C(=O)OCCOC(=O)c4ccc(-c5c6nc(c(-c7c(F)c(F)c(F)c(F)c7F)c7ccc([nH]7)c(-c7c(F)c(F)c(F)c(F)c7F)c7nc(c(-c8c(F)c(F)c(F)c(F)c8F)c8ccc5[nH]8)C=C7)C=C6)cc4)cc3)C(=O)[C@H]12
REMARK SMILES IDX 29 1 28 2 27 3 25 4 26 5 24 6 21 7 22 8 97 9 23 10 96 11
REMARK SMILES IDX 20 12 1 13 2 14 16 15 3 16 100 17 15 18 11 19 8 20 4 21
REMARK SMILES IDX 17 22 98 23 14 24 12 25 9 26 7 27 5 28 18 29 99 30 13 31
REMARK SMILES IDX 10 32 6 33 19 34 30 35 31 36 32 37 33 38 34 39 95 40 35 41
REMARK SMILES IDX 94 42 36 43 37 44 38 45 88 46 39 47 93 48 87 49 89 50 40 51
REMARK SMILES IDX 92 52 86 53 85 54 41 56 73 57 53 58 72 59 54 60 57 61 71 62
REMARK SMILES IDX 90 63 55 64 56 65 70 67 91 68 58 69 42 70 43 71 51 72 44 73
REMARK SMILES IDX 45 74 49 75 52 76 46 77 47 78 50 79 48 80 74 81 75 82 83 83
REMARK SMILES IDX 76 84 77 85 81 86 84 87 78 88 79 89 82 90 80 91 59 92 60 93
REMARK SMILES IDX 68 94 61 95 62 96 66 97 69 98 63 99 64 100 67 101 65 102
REMARK H PARENT 89 55 57 66
REMARK Flexibility Score: inf
ROOT
ATOM      1  C   UNL A   1      45.054  39.211  28.090  1.00  0.00     0.275 C 
ENDROOT
BRANCH   1   2
ATOM      2  C   UNL A   1      43.780  39.295  27.245  1.00  0.00     0.275 C 
BRANCH   2   3
ATOM      3  O   UNL A   1      43.943  40.212  26.142  1.00  0.00    -0.458 OA
BRANCH   3   4
ATOM      4  C   UNL A   1      42.833  40.881  25.745  1.00  0.00     0.338 C 
ATOM      5  O   UNL A   1      41.718  40.799  26.234  1.00  0.00    -0.246 OA
BRANCH   4   6
ATOM      6  C   UNL A   1      43.183  41.880  24.703  1.00  0.00     0.060 A 
ATOM      7  C   UNL A   1      43.982  43.573  22.628  1.00  0.00     0.052 A 
ATOM      8  C   UNL A   1      44.944  42.922  23.395  1.00  0.00     0.028 A 
ATOM      9  C   UNL A   1      42.621  43.420  22.927  1.00  0.00     0.028 A 
ATOM     10  C   UNL A   1      44.542  42.141  24.474  1.00  0.00     0.018 A 
ATOM     11  C   UNL A   1      42.218  42.537  23.934  1.00  0.00     0.018 A 
BRANCH   7  12
ATOM     12  N   UNL A   1      44.394  44.413  21.590  1.00  0.00    -0.250 N 
ATOM     13  C   UNL A   1      44.074  44.873  17.101  1.00  0.00     0.022 C 
ATOM     14  C   UNL A   1      44.788  45.789  18.094  1.00  0.00     0.030 C 
ATOM     15  C   UNL A   1      44.206  47.224  18.210  1.00  0.00    -0.033 A 
ATOM     16  C   UNL A   1      46.300  46.022  17.784  1.00  0.00    -0.033 A 
ATOM     17  C   UNL A   1      44.929  45.139  19.494  1.00  0.00     0.108 C 
ATOM     18  C   UNL A   1      43.106  47.722  17.522  1.00  0.00     0.005 A 
ATOM     19  C   UNL A   1      44.932  48.088  19.106  1.00  0.00    -0.033 A 
ATOM     20  C   UNL A   1      46.980  46.777  18.801  1.00  0.00    -0.033 A 
ATOM     21  C   UNL A   1      46.992  45.552  16.670  1.00  0.00     0.005 A 
ATOM     22  C   UNL A   1      45.160  46.250  20.525  1.00  0.00     0.108 C 
ATOM     23  C   UNL A   1      43.974  44.277  20.262  1.00  0.00     0.238 C 
ATOM     24  C   UNL A   1      42.724  49.052  17.718  1.00  0.00     0.000 A 
ATOM     25  C   UNL A   1      44.549  49.413  19.283  1.00  0.00     0.005 A 
ATOM     26  C   UNL A   1      46.051  47.346  19.905  1.00  0.00     0.030 C 
ATOM     27  C   UNL A   1      48.345  47.019  18.677  1.00  0.00     0.005 A 
ATOM     28  C   UNL A   1      48.357  45.816  16.562  1.00  0.00     0.000 A 
ATOM     29  C   UNL A   1      45.318  45.444  21.769  1.00  0.00     0.238 C 
ATOM     30  O   UNL A   1      43.129  43.537  19.792  1.00  0.00    -0.274 OA
ATOM     31  C   UNL A   1      43.440  49.889  18.586  1.00  0.00     0.000 A 
ATOM     32  C   UNL A   1      46.750  48.179  20.977  1.00  0.00     0.022 C 
ATOM     33  C   UNL A   1      49.028  46.535  17.558  1.00  0.00     0.000 A 
ATOM     34  O   UNL A   1      46.003  45.712  22.734  1.00  0.00    -0.274 OA
ENDBRANCH   7  12
ENDBRANCH   4   6
ENDBRANCH   3   4
ENDBRANCH   2   3
ENDBRANCH   1   2
BRANCH   1  35
ATOM     35  O   UNL A   1      45.751  37.975  27.843  1.00  0.00    -0.458 OA
BRANCH  35  36
ATOM     36  C   UNL A   1      46.258  37.357  28.933  1.00  0.00     0.338 C 
ATOM     37  O   UNL A   1      46.859  37.859  29.867  1.00  0.00    -0.246 OA
BRANCH  36  38
ATOM     38  C   UNL A   1      45.860  35.943  28.901  1.00  0.00     0.060 A 
ATOM     39  C   UNL A   1      46.140  35.065  29.942  1.00  0.00     0.016 A 
ATOM     40  C   UNL A   1      45.107  35.516  27.814  1.00  0.00     0.016 A 
ATOM     41  C   UNL A   1      45.681  33.743  29.858  1.00  0.00     0.010 A 
ATOM     42  C   UNL A   1      44.586  34.227  27.762  1.00  0.00     0.010 A 
ATOM     43  C   UNL A   1      44.890  33.311  28.772  1.00  0.00    -0.014 A 
BRANCH  43  44
ATOM     44  C   UNL A   1      44.377  31.915  28.690  1.00  0.00     0.031 A 
ATOM     45  C   UNL A   1      43.043  31.542  29.290  1.00  0.00     0.074 A 
ATOM     46  C   UNL A   1      45.131  30.965  28.105  1.00  0.00     0.049 A 
ATOM     47  N   UNL A   1      42.426  30.386  29.278  1.00  0.00    -0.248 NA
ATOM     48  C   UNL A   1      42.319  32.591  30.026  1.00  0.00     0.031 C 
ATOM     49  C   UNL A   1      46.479  31.168  27.575  1.00  0.00     0.029 A 
ATOM     50  N   UNL A   1      44.869  29.642  27.846  1.00  0.00    -0.354 N 
ATOM     51  C   UNL A   1      41.256  30.568  30.006  1.00  0.00     0.074 A 
ATOM     52  C   UNL A   1      41.277  31.924  30.504  1.00  0.00     0.031 C 
ATOM     53  C   UNL A   1      46.900  30.032  26.995  1.00  0.00     0.029 A 
ATOM     54  C   UNL A   1      45.865  29.012  27.139  1.00  0.00     0.049 A 
ATOM     55  H   UNL A   1      44.045  29.187  28.138  1.00  0.00     0.167 HD
ATOM     56  C   UNL A   1      40.236  29.698  30.207  1.00  0.00     0.037 A 
ATOM     57  C   UNL A   1      45.930  27.760  26.645  1.00  0.00     0.037 A 
ATOM     58  C   UNL A   1      40.193  28.364  29.672  1.00  0.00     0.049 A 
ATOM     59  C   UNL A   1      44.768  26.826  26.845  1.00  0.00     0.074 A 
ATOM     60  C   UNL A   1      39.171  27.434  29.756  1.00  0.00     0.029 A 
ATOM     61  N   UNL A   1      41.215  27.769  28.949  1.00  0.00    -0.354 N 
ATOM     62  N   UNL A   1      43.630  27.043  27.459  1.00  0.00    -0.248 NA
ATOM     63  C   UNL A   1      44.896  25.476  26.279  1.00  0.00     0.031 C 
ATOM     64  C   UNL A   1      39.588  26.265  29.113  1.00  0.00     0.029 A 
ATOM     65  C   UNL A   1      40.854  26.480  28.593  1.00  0.00     0.049 A 
ATOM     66  H   UNL A   1      42.072  28.199  28.722  1.00  0.00     0.167 HD
ATOM     67  C   UNL A   1      42.903  25.867  27.340  1.00  0.00     0.074 A 
ATOM     68  C   UNL A   1      43.717  24.946  26.575  1.00  0.00     0.031 C 
ATOM     69  C   UNL A   1      41.673  25.576  27.827  1.00  0.00     0.037 A 
BRANCH  56  70
ATOM     70  C   UNL A   1      39.054  30.172  31.004  1.00  0.00     0.064 A 
ATOM     71  C   UNL A   1      39.004  30.014  32.398  1.00  0.00     0.173 A 
ATOM     72  C   UNL A   1      38.002  30.864  30.386  1.00  0.00     0.173 A 
ATOM     73  F   UNL A   1      39.984  29.357  33.038  1.00  0.00    -0.203 F 
ATOM     74  C   UNL A   1      37.936  30.510  33.139  1.00  0.00     0.198 A 
ATOM     75  C   UNL A   1      36.949  31.386  31.135  1.00  0.00     0.198 A 
ATOM     76  F   UNL A   1      38.005  31.056  29.058  1.00  0.00    -0.203 F 
ATOM     77  F   UNL A   1      37.894  30.316  34.465  1.00  0.00    -0.200 F 
ATOM     78  C   UNL A   1      36.914  31.205  32.509  1.00  0.00     0.200 A 
ATOM     79  F   UNL A   1      35.972  32.072  30.527  1.00  0.00    -0.200 F 
ATOM     80  F   UNL A   1      35.897  31.700  33.227  1.00  0.00    -0.200 F 
ENDBRANCH  56  70
BRANCH  57  81
ATOM     81  C   UNL A   1      47.116  27.346  25.851  1.00  0.00     0.064 A 
ATOM     82  C   UNL A   1      47.155  27.549  24.465  1.00  0.00     0.173 A 
ATOM     83  C   UNL A   1      48.239  26.766  26.458  1.00  0.00     0.173 A 
ATOM     84  F   UNL A   1      46.097  28.082  23.837  1.00  0.00    -0.203 F 
ATOM     85  C   UNL A   1      48.269  27.182  23.714  1.00  0.00     0.198 A 
ATOM     86  C   UNL A   1      49.365  26.424  25.710  1.00  0.00     0.198 A 
ATOM     87  F   UNL A   1      48.254  26.555  27.782  1.00  0.00    -0.203 F 
ATOM     88  F   UNL A   1      48.267  27.357  22.386  1.00  0.00    -0.200 F 
ATOM     89  C   UNL A   1      49.376  26.627  24.338  1.00  0.00     0.200 A 
ATOM     90  F   UNL A   1      50.437  25.900  26.318  1.00  0.00    -0.200 F 
ATOM     91  F   UNL A   1      50.452  26.285  23.617  1.00  0.00    -0.200 F 
ENDBRANCH  57  81
BRANCH  69  92
ATOM     92  C   UNL A   1      41.118  24.210  27.548  1.00  0.00     0.064 A 
ATOM     93  C   UNL A   1      40.088  24.017  26.618  1.00  0.00     0.173 A 
ATOM     94  C   UNL A   1      41.677  23.076  28.157  1.00  0.00     0.173 A 
ATOM     95  F   UNL A   1      39.513  25.072  26.019  1.00  0.00    -0.203 F 
ATOM     96  C   UNL A   1      39.625  22.739  26.317  1.00  0.00     0.198 A 
ATOM     97  C   UNL A   1      41.232  21.798  27.834  1.00  0.00     0.198 A 
ATOM     98  F   UNL A   1      42.673  23.207  29.047  1.00  0.00    -0.203 F 
ATOM     99  F   UNL A   1      38.617  22.580  25.450  1.00  0.00    -0.200 F 
ATOM    100  C   UNL A   1      40.204  21.631  26.918  1.00  0.00     0.200 A 
ATOM    101  F   UNL A   1      41.802  20.727  28.403  1.00  0.00    -0.200 F 
ATOM    102  F   UNL A   1      39.769  20.400  26.614  1.00  0.00    -0.200 F 
ENDBRANCH  69  92
ENDBRANCH  43  44
ENDBRANCH  36  38
ENDBRANCH  35  36
ENDBRANCH   1  35
TORSDOF 12
ENDMDL
