MODEL 1
REMARK VINA RESULT:     -12.6      0.000      0.000
REMARK SMILES C/C=C(\C)[C@@H]1C(C)=C[C@@H]2[C@H]([C@@H]1/C=C/C=C/C(=O)OCCOC(=O)c1ccc(-c3c4nc(c(-c5c(F)c(F)c(F)c(F)c5F)c5ccc([nH]5)c(-c5c(F)c(F)c(F)c(F)c5F)c5nc(c(-c6c(F)c(F)c(F)c(F)c6F)c6ccc3[nH]6)C=C5)C=C4)cc1)[C@@H](C)CC[C@@H]2O
REMARK SMILES IDX 19 1 18 2 16 3 17 4 15 5 14 6 13 7 12 8 11 9 5 10 6 11 7 12
REMARK SMILES IDX 8 13 10 14 9 15 87 16 91 17 88 18 89 19 90 20 3 21 1 22 2 23
REMARK SMILES IDX 4 24 92 25 20 27 21 28 22 29 23 30 24 31 25 32 86 33 26 34
REMARK SMILES IDX 85 35 27 36 28 37 29 38 79 39 30 40 84 41 78 42 80 43 31 44
REMARK SMILES IDX 83 45 77 46 76 47 32 49 64 50 44 51 63 52 45 53 48 54 62 55
REMARK SMILES IDX 81 56 46 57 47 58 61 60 82 61 49 62 33 63 34 64 42 65 35 66
REMARK SMILES IDX 36 67 40 68 43 69 37 70 38 71 41 72 39 73 65 74 66 75 74 76
REMARK SMILES IDX 67 77 68 78 72 79 75 80 69 81 70 82 73 83 71 84 50 85 51 86
REMARK SMILES IDX 59 87 52 88 53 89 57 90 60 91 54 92 55 93 58 94 56 95
REMARK H PARENT 92 26 80 48 48 59
REMARK Flexibility Score: inf
ROOT
ATOM      1  C   UNL A   1      41.472  20.893  26.149  1.00  0.00     0.275 C 
ENDROOT
BRANCH   1   2
ATOM      2  O   UNL A   1      40.309  21.716  25.963  1.00  0.00    -0.459 OA
BRANCH   2   3
ATOM      3  C   UNL A   1      39.154  21.065  25.688  1.00  0.00     0.330 C 
ATOM      4  O   UNL A   1      39.040  19.889  25.378  1.00  0.00    -0.247 OA
BRANCH   3   5
ATOM      5  C   UNL A   1      37.976  21.946  25.807  1.00  0.00     0.093 C 
ATOM      6  C   UNL A   1      38.032  23.256  26.083  1.00  0.00     0.007 C 
BRANCH   6   7
ATOM      7  C   UNL A   1      36.844  24.076  26.122  1.00  0.00    -0.004 C 
ATOM      8  C   UNL A   1      35.793  23.859  25.316  1.00  0.00    -0.022 C 
BRANCH   8   9
ATOM      9  C   UNL A   1      34.454  24.551  25.513  1.00  0.00     0.027 C 
ATOM     10  C   UNL A   1      33.269  23.554  25.874  1.00  0.00     0.047 C 
ATOM     11  C   UNL A   1      31.990  23.792  25.086  1.00  0.00    -0.069 C 
ATOM     12  C   UNL A   1      30.701  23.371  25.737  1.00  0.00     0.040 C 
ATOM     13  C   UNL A   1      32.014  24.350  23.865  1.00  0.00    -0.021 C 
ATOM     14  C   UNL A   1      34.163  25.533  24.322  1.00  0.00     0.009 C 
ATOM     15  C   UNL A   1      33.304  24.832  23.238  1.00  0.00     0.044 C 
ATOM     16  C   UNL A   1      33.504  26.891  24.751  1.00  0.00    -0.010 C 
ATOM     17  C   UNL A   1      33.097  25.774  22.034  1.00  0.00     0.121 C 
ATOM     18  C   UNL A   1      34.380  27.703  25.715  1.00  0.00     0.008 C 
ATOM     19  C   UNL A   1      33.203  27.782  23.524  1.00  0.00     0.006 C 
ATOM     20  C   UNL A   1      32.411  27.073  22.434  1.00  0.00     0.033 C 
BRANCH  10  21
ATOM     21  C   UNL A   1      33.568  22.036  25.898  1.00  0.00    -0.070 C 
ATOM     22  C   UNL A   1      33.849  19.849  24.636  1.00  0.00     0.035 C 
ATOM     23  C   UNL A   1      33.556  21.313  24.758  1.00  0.00    -0.031 C 
ATOM     24  C   UNL A   1      33.960  21.400  27.211  1.00  0.00     0.040 C 
ENDBRANCH  10  21
BRANCH  17  25
ATOM     25  O   UNL A   1      32.383  25.134  20.978  1.00  0.00    -0.393 OA
ATOM     26  H   UNL A   1      31.498  25.526  20.903  1.00  0.00     0.210 HD
ENDBRANCH  17  25
ENDBRANCH   8   9
ENDBRANCH   6   7
ENDBRANCH   3   5
ENDBRANCH   2   3
ENDBRANCH   1   2
BRANCH   1  27
ATOM     27  C   UNL A   1      42.748  21.653  25.777  1.00  0.00     0.275 C 
BRANCH  27  28
ATOM     28  O   UNL A   1      42.454  22.863  25.057  1.00  0.00    -0.458 OA
BRANCH  28  29
ATOM     29  C   UNL A   1      43.340  23.870  25.230  1.00  0.00     0.338 C 
ATOM     30  O   UNL A   1      44.383  24.054  24.615  1.00  0.00    -0.246 OA
BRANCH  29  31
ATOM     31  C   UNL A   1      42.820  24.826  26.221  1.00  0.00     0.060 A 
ATOM     32  C   UNL A   1      43.462  26.063  26.352  1.00  0.00     0.016 A 
ATOM     33  C   UNL A   1      41.754  24.488  27.056  1.00  0.00     0.016 A 
ATOM     34  C   UNL A   1      43.043  26.966  27.327  1.00  0.00     0.010 A 
ATOM     35  C   UNL A   1      41.340  25.391  28.039  1.00  0.00     0.010 A 
ATOM     36  C   UNL A   1      41.992  26.627  28.189  1.00  0.00    -0.014 A 
BRANCH  36  37
ATOM     37  C   UNL A   1      41.618  27.530  29.302  1.00  0.00     0.031 A 
ATOM     38  C   UNL A   1      42.381  27.464  30.592  1.00  0.00     0.074 A 
ATOM     39  C   UNL A   1      40.600  28.397  29.159  1.00  0.00     0.049 A 
ATOM     40  N   UNL A   1      42.159  28.088  31.721  1.00  0.00    -0.248 NA
ATOM     41  C   UNL A   1      43.550  26.571  30.616  1.00  0.00     0.031 C 
ATOM     42  C   UNL A   1      39.813  28.579  27.941  1.00  0.00     0.029 A 
ATOM     43  N   UNL A   1      40.047  29.277  30.055  1.00  0.00    -0.354 N 
ATOM     44  C   UNL A   1      43.149  27.653  32.592  1.00  0.00     0.074 A 
ATOM     45  C   UNL A   1      43.964  26.701  31.868  1.00  0.00     0.031 C 
ATOM     46  C   UNL A   1      38.868  29.505  28.169  1.00  0.00     0.029 A 
ATOM     47  C   UNL A   1      38.960  29.951  29.558  1.00  0.00     0.049 A 
ATOM     48  H   UNL A   1      40.397  29.412  30.965  1.00  0.00     0.167 HD
ATOM     49  C   UNL A   1      43.358  28.019  33.879  1.00  0.00     0.037 A 
ATOM     50  C   UNL A   1      38.119  30.809  30.166  1.00  0.00     0.037 A 
ATOM     51  C   UNL A   1      42.549  28.972  34.594  1.00  0.00     0.049 A 
ATOM     52  C   UNL A   1      38.339  31.158  31.615  1.00  0.00     0.074 A 
ATOM     53  C   UNL A   1      42.686  29.417  35.897  1.00  0.00     0.029 A 
ATOM     54  N   UNL A   1      41.448  29.626  34.062  1.00  0.00    -0.354 N 
ATOM     55  N   UNL A   1      39.279  30.747  32.431  1.00  0.00    -0.248 NA
ATOM     56  C   UNL A   1      37.378  32.087  32.226  1.00  0.00     0.031 C 
ATOM     57  C   UNL A   1      41.645  30.312  36.166  1.00  0.00     0.029 A 
ATOM     58  C   UNL A   1      40.885  30.458  35.016  1.00  0.00     0.049 A 
ATOM     59  H   UNL A   1      41.115  29.515  33.141  1.00  0.00     0.167 HD
ATOM     60  C   UNL A   1      39.041  31.386  33.640  1.00  0.00     0.074 A 
ATOM     61  C   UNL A   1      37.872  32.218  33.450  1.00  0.00     0.031 C 
ATOM     62  C   UNL A   1      39.729  31.290  34.804  1.00  0.00     0.037 A 
BRANCH  49  63
ATOM     63  C   UNL A   1      44.493  27.365  34.607  1.00  0.00     0.064 A 
ATOM     64  C   UNL A   1      45.772  27.941  34.646  1.00  0.00     0.173 A 
ATOM     65  C   UNL A   1      44.292  26.163  35.302  1.00  0.00     0.173 A 
ATOM     66  F   UNL A   1      46.019  29.083  33.986  1.00  0.00    -0.203 F 
ATOM     67  C   UNL A   1      46.813  27.325  35.337  1.00  0.00     0.198 A 
ATOM     68  C   UNL A   1      45.328  25.563  36.011  1.00  0.00     0.198 A 
ATOM     69  F   UNL A   1      43.086  25.575  35.299  1.00  0.00    -0.203 F 
ATOM     70  F   UNL A   1      48.037  27.870  35.327  1.00  0.00    -0.200 F 
ATOM     71  C   UNL A   1      46.589  26.141  36.024  1.00  0.00     0.200 A 
ATOM     72  F   UNL A   1      45.107  24.424  36.683  1.00  0.00    -0.200 F 
ATOM     73  F   UNL A   1      47.590  25.551  36.692  1.00  0.00    -0.200 F 
ENDBRANCH  49  63
BRANCH  50  74
ATOM     74  C   UNL A   1      36.979  31.388  29.410  1.00  0.00     0.064 A 
ATOM     75  C   UNL A   1      36.973  32.738  29.035  1.00  0.00     0.173 A 
ATOM     76  C   UNL A   1      35.870  30.606  29.057  1.00  0.00     0.173 A 
ATOM     77  F   UNL A   1      38.000  33.532  29.375  1.00  0.00    -0.203 F 
ATOM     78  C   UNL A   1      35.894  33.287  28.345  1.00  0.00     0.198 A 
ATOM     79  C   UNL A   1      34.804  31.150  28.346  1.00  0.00     0.198 A 
ATOM     80  F   UNL A   1      35.825  29.309  29.398  1.00  0.00    -0.203 F 
ATOM     81  F   UNL A   1      35.895  34.591  28.034  1.00  0.00    -0.200 F 
ATOM     82  C   UNL A   1      34.814  32.492  27.996  1.00  0.00     0.200 A 
ATOM     83  F   UNL A   1      33.764  30.377  28.003  1.00  0.00    -0.200 F 
ATOM     84  F   UNL A   1      33.777  33.021  27.331  1.00  0.00    -0.200 F 
ENDBRANCH  50  74
BRANCH  62  85
ATOM     85  C   UNL A   1      39.264  32.138  35.951  1.00  0.00     0.064 A 
ATOM     86  C   UNL A   1      38.330  31.665  36.883  1.00  0.00     0.173 A 
ATOM     87  C   UNL A   1      39.797  33.422  36.144  1.00  0.00     0.173 A 
ATOM     88  F   UNL A   1      37.781  30.451  36.733  1.00  0.00    -0.203 F 
ATOM     89  C   UNL A   1      37.930  32.456  37.958  1.00  0.00     0.198 A 
ATOM     90  C   UNL A   1      39.415  34.199  37.233  1.00  0.00     0.198 A 
ATOM     91  F   UNL A   1      40.698  33.916  35.282  1.00  0.00    -0.203 F 
ATOM     92  F   UNL A   1      37.007  32.001  38.817  1.00  0.00    -0.200 F 
ATOM     93  C   UNL A   1      38.479  33.719  38.135  1.00  0.00     0.200 A 
ATOM     94  F   UNL A   1      39.952  35.414  37.409  1.00  0.00    -0.200 F 
ATOM     95  F   UNL A   1      38.099  34.474  39.175  1.00  0.00    -0.200 F 
ENDBRANCH  62  85
ENDBRANCH  36  37
ENDBRANCH  29  31
ENDBRANCH  28  29
ENDBRANCH  27  28
ENDBRANCH   1  27
TORSDOF 15
ENDMDL
MODEL 2
REMARK VINA RESULT:     -12.4      3.165      8.638
REMARK SMILES C/C=C(\C)[C@@H]1C(C)=C[C@@H]2[C@H]([C@@H]1/C=C/C=C/C(=O)OCCOC(=O)c1ccc(-c3c4nc(c(-c5c(F)c(F)c(F)c(F)c5F)c5ccc([nH]5)c(-c5c(F)c(F)c(F)c(F)c5F)c5nc(c(-c6c(F)c(F)c(F)c(F)c6F)c6ccc3[nH]6)C=C5)C=C4)cc1)[C@@H](C)CC[C@@H]2O
REMARK SMILES IDX 19 1 18 2 16 3 17 4 15 5 14 6 13 7 12 8 11 9 5 10 6 11 7 12
REMARK SMILES IDX 8 13 10 14 9 15 87 16 91 17 88 18 89 19 90 20 3 21 1 22 2 23
REMARK SMILES IDX 4 24 92 25 20 27 21 28 22 29 23 30 24 31 25 32 86 33 26 34
REMARK SMILES IDX 85 35 27 36 28 37 29 38 79 39 30 40 84 41 78 42 80 43 31 44
REMARK SMILES IDX 83 45 77 46 76 47 32 49 64 50 44 51 63 52 45 53 48 54 62 55
REMARK SMILES IDX 81 56 46 57 47 58 61 60 82 61 49 62 33 63 34 64 42 65 35 66
REMARK SMILES IDX 36 67 40 68 43 69 37 70 38 71 41 72 39 73 65 74 66 75 74 76
REMARK SMILES IDX 67 77 68 78 72 79 75 80 69 81 70 82 73 83 71 84 50 85 51 86
REMARK SMILES IDX 59 87 52 88 53 89 57 90 60 91 54 92 55 93 58 94 56 95
REMARK H PARENT 92 26 80 48 48 59
REMARK Flexibility Score: inf
ROOT
ATOM      1  C   UNL A   1      32.355  31.415  26.878  1.00  0.00     0.275 C 
ENDROOT
BRANCH   1   2
ATOM      2  O   UNL A   1      33.206  30.861  27.895  1.00  0.00    -0.459 OA
BRANCH   2   3
ATOM      3  C   UNL A   1      34.398  30.374  27.476  1.00  0.00     0.330 C 
ATOM      4  O   UNL A   1      35.434  31.008  27.340  1.00  0.00    -0.247 OA
BRANCH   3   5
ATOM      5  C   UNL A   1      34.338  28.929  27.184  1.00  0.00     0.093 C 
ATOM      6  C   UNL A   1      34.001  28.406  25.997  1.00  0.00     0.007 C 
BRANCH   6   7
ATOM      7  C   UNL A   1      34.024  26.982  25.759  1.00  0.00    -0.004 C 
ATOM      8  C   UNL A   1      33.671  26.443  24.582  1.00  0.00    -0.022 C 
BRANCH   8   9
ATOM      9  C   UNL A   1      33.923  24.983  24.242  1.00  0.00     0.027 C 
ATOM     10  C   UNL A   1      32.816  24.350  23.292  1.00  0.00     0.047 C 
ATOM     11  C   UNL A   1      32.320  22.982  23.735  1.00  0.00    -0.069 C 
ATOM     12  C   UNL A   1      31.791  22.070  22.663  1.00  0.00     0.040 C 
ATOM     13  C   UNL A   1      32.352  22.610  25.025  1.00  0.00    -0.021 C 
ATOM     14  C   UNL A   1      34.236  24.163  25.544  1.00  0.00     0.009 C 
ATOM     15  C   UNL A   1      32.945  23.503  26.094  1.00  0.00     0.044 C 
ATOM     16  C   UNL A   1      35.371  23.092  25.376  1.00  0.00    -0.010 C 
ATOM     17  C   UNL A   1      33.245  22.772  27.419  1.00  0.00     0.121 C 
ATOM     18  C   UNL A   1      36.718  23.706  24.974  1.00  0.00     0.008 C 
ATOM     19  C   UNL A   1      35.587  22.293  26.682  1.00  0.00     0.006 C 
ATOM     20  C   UNL A   1      34.308  21.696  27.252  1.00  0.00     0.033 C 
BRANCH  10  21
ATOM     21  C   UNL A   1      31.599  25.222  22.901  1.00  0.00    -0.070 C 
ATOM     22  C   UNL A   1      29.345  26.221  23.514  1.00  0.00     0.035 C 
ATOM     23  C   UNL A   1      30.567  25.390  23.756  1.00  0.00    -0.031 C 
ATOM     24  C   UNL A   1      31.631  25.950  21.577  1.00  0.00     0.040 C 
ENDBRANCH  10  21
BRANCH  17  25
ATOM     25  O   UNL A   1      32.063  22.224  28.000  1.00  0.00    -0.393 OA
ATOM     26  H   UNL A   1      31.332  22.288  27.365  1.00  0.00     0.210 HD
ENDBRANCH  17  25
ENDBRANCH   8   9
ENDBRANCH   6   7
ENDBRANCH   3   5
ENDBRANCH   2   3
ENDBRANCH   1   2
BRANCH   1  27
ATOM     27  C   UNL A   1      31.982  32.863  27.203  1.00  0.00     0.275 C 
BRANCH  27  28
ATOM     28  O   UNL A   1      33.143  33.712  27.251  1.00  0.00    -0.458 OA
BRANCH  28  29
ATOM     29  C   UNL A   1      33.274  34.450  28.376  1.00  0.00     0.338 C 
ATOM     30  O   UNL A   1      32.529  35.339  28.772  1.00  0.00    -0.246 OA
BRANCH  29  31
ATOM     31  C   UNL A   1      34.415  33.958  29.165  1.00  0.00     0.060 A 
ATOM     32  C   UNL A   1      35.707  34.303  28.752  1.00  0.00     0.016 A 
ATOM     33  C   UNL A   1      34.222  33.114  30.260  1.00  0.00     0.016 A 
ATOM     34  C   UNL A   1      36.815  33.798  29.431  1.00  0.00     0.010 A 
ATOM     35  C   UNL A   1      35.333  32.601  30.935  1.00  0.00     0.010 A 
ATOM     36  C   UNL A   1      36.634  32.928  30.515  1.00  0.00    -0.014 A 
BRANCH  36  37
ATOM     37  C   UNL A   1      37.803  32.295  31.166  1.00  0.00     0.031 A 
ATOM     38  C   UNL A   1      38.552  31.212  30.446  1.00  0.00     0.074 A 
ATOM     39  C   UNL A   1      38.186  32.682  32.396  1.00  0.00     0.049 A 
ATOM     40  N   UNL A   1      39.534  30.458  30.869  1.00  0.00    -0.248 NA
ATOM     41  C   UNL A   1      38.133  30.937  29.063  1.00  0.00     0.031 C 
ATOM     42  C   UNL A   1      37.562  33.749  33.176  1.00  0.00     0.029 A 
ATOM     43  N   UNL A   1      39.186  32.209  33.207  1.00  0.00    -0.354 N 
ATOM     44  C   UNL A   1      39.841  29.612  29.812  1.00  0.00     0.074 A 
ATOM     45  C   UNL A   1      38.932  29.932  28.733  1.00  0.00     0.031 C 
ATOM     46  C   UNL A   1      38.186  33.842  34.361  1.00  0.00     0.029 A 
ATOM     47  C   UNL A   1      39.225  32.818  34.437  1.00  0.00     0.049 A 
ATOM     48  H   UNL A   1      39.815  31.503  32.934  1.00  0.00     0.167 HD
ATOM     49  C   UNL A   1      40.799  28.658  29.751  1.00  0.00     0.037 A 
ATOM     50  C   UNL A   1      39.995  32.556  35.511  1.00  0.00     0.037 A 
ATOM     51  C   UNL A   1      41.707  28.347  30.824  1.00  0.00     0.049 A 
ATOM     52  C   UNL A   1      41.016  31.450  35.436  1.00  0.00     0.074 A 
ATOM     53  C   UNL A   1      42.719  27.403  30.855  1.00  0.00     0.029 A 
ATOM     54  N   UNL A   1      41.709  28.975  32.060  1.00  0.00    -0.354 N 
ATOM     55  N   UNL A   1      41.304  30.657  34.433  1.00  0.00    -0.248 NA
ATOM     56  C   UNL A   1      41.813  31.202  36.645  1.00  0.00     0.031 C 
ATOM     57  C   UNL A   1      43.308  27.434  32.124  1.00  0.00     0.029 A 
ATOM     58  C   UNL A   1      42.693  28.428  32.868  1.00  0.00     0.049 A 
ATOM     59  H   UNL A   1      41.101  29.703  32.325  1.00  0.00     0.167 HD
ATOM     60  C   UNL A   1      42.332  29.837  34.878  1.00  0.00     0.074 A 
ATOM     61  C   UNL A   1      42.623  30.233  36.239  1.00  0.00     0.031 C 
ATOM     62  C   UNL A   1      42.976  28.844  34.217  1.00  0.00     0.037 A 
BRANCH  49  63
ATOM     63  C   UNL A   1      40.897  27.859  28.486  1.00  0.00     0.064 A 
ATOM     64  C   UNL A   1      41.756  28.234  27.442  1.00  0.00     0.173 A 
ATOM     65  C   UNL A   1      40.145  26.684  28.329  1.00  0.00     0.173 A 
ATOM     66  F   UNL A   1      42.485  29.356  27.539  1.00  0.00    -0.203 F 
ATOM     67  C   UNL A   1      41.842  27.474  26.279  1.00  0.00     0.198 A 
ATOM     68  C   UNL A   1      40.251  25.914  27.175  1.00  0.00     0.198 A 
ATOM     69  F   UNL A   1      39.313  26.280  29.300  1.00  0.00    -0.203 F 
ATOM     70  F   UNL A   1      42.637  27.872  25.277  1.00  0.00    -0.200 F 
ATOM     71  C   UNL A   1      41.095  26.312  26.148  1.00  0.00     0.200 A 
ATOM     72  F   UNL A   1      39.538  24.786  27.055  1.00  0.00    -0.200 F 
ATOM     73  F   UNL A   1      41.182  25.579  25.029  1.00  0.00    -0.200 F 
ENDBRANCH  49  63
BRANCH  50  74
ATOM     74  C   UNL A   1      39.821  33.345  36.756  1.00  0.00     0.064 A 
ATOM     75  C   UNL A   1      40.612  34.472  37.013  1.00  0.00     0.173 A 
ATOM     76  C   UNL A   1      38.867  32.982  37.718  1.00  0.00     0.173 A 
ATOM     77  F   UNL A   1      41.556  34.842  36.134  1.00  0.00    -0.203 F 
ATOM     78  C   UNL A   1      40.463  35.201  38.192  1.00  0.00     0.198 A 
ATOM     79  C   UNL A   1      38.702  33.726  38.884  1.00  0.00     0.198 A 
ATOM     80  F   UNL A   1      38.088  31.907  37.521  1.00  0.00    -0.203 F 
ATOM     81  F   UNL A   1      41.260  36.251  38.432  1.00  0.00    -0.200 F 
ATOM     82  C   UNL A   1      39.505  34.831  39.122  1.00  0.00     0.200 A 
ATOM     83  F   UNL A   1      37.770  33.370  39.778  1.00  0.00    -0.200 F 
ATOM     84  F   UNL A   1      39.363  35.533  40.255  1.00  0.00    -0.200 F 
ENDBRANCH  50  74
BRANCH  62  85
ATOM     85  C   UNL A   1      44.090  28.145  34.940  1.00  0.00     0.064 A 
ATOM     86  C   UNL A   1      45.402  28.642  34.924  1.00  0.00     0.173 A 
ATOM     87  C   UNL A   1      43.831  26.992  35.694  1.00  0.00     0.173 A 
ATOM     88  F   UNL A   1      45.702  29.733  34.205  1.00  0.00    -0.203 F 
ATOM     89  C   UNL A   1      46.418  27.996  35.624  1.00  0.00     0.198 A 
ATOM     90  C   UNL A   1      44.844  26.363  36.412  1.00  0.00     0.198 A 
ATOM     91  F   UNL A   1      42.592  26.481  35.744  1.00  0.00    -0.203 F 
ATOM     92  F   UNL A   1      47.673  28.465  35.565  1.00  0.00    -0.200 F 
ATOM     93  C   UNL A   1      46.136  26.862  36.372  1.00  0.00     0.200 A 
ATOM     94  F   UNL A   1      44.569  25.274  37.143  1.00  0.00    -0.200 F 
ATOM     95  F   UNL A   1      47.115  26.247  37.051  1.00  0.00    -0.200 F 
ENDBRANCH  62  85
ENDBRANCH  36  37
ENDBRANCH  29  31
ENDBRANCH  28  29
ENDBRANCH  27  28
ENDBRANCH   1  27
TORSDOF 15
ENDMDL
MODEL 3
REMARK VINA RESULT:     -12.3      4.654      8.942
REMARK SMILES C/C=C(\C)[C@@H]1C(C)=C[C@@H]2[C@H]([C@@H]1/C=C/C=C/C(=O)OCCOC(=O)c1ccc(-c3c4nc(c(-c5c(F)c(F)c(F)c(F)c5F)c5ccc([nH]5)c(-c5c(F)c(F)c(F)c(F)c5F)c5nc(c(-c6c(F)c(F)c(F)c(F)c6F)c6ccc3[nH]6)C=C5)C=C4)cc1)[C@@H](C)CC[C@@H]2O
REMARK SMILES IDX 19 1 18 2 16 3 17 4 15 5 14 6 13 7 12 8 11 9 5 10 6 11 7 12
REMARK SMILES IDX 8 13 10 14 9 15 87 16 91 17 88 18 89 19 90 20 3 21 1 22 2 23
REMARK SMILES IDX 4 24 92 25 20 27 21 28 22 29 23 30 24 31 25 32 86 33 26 34
REMARK SMILES IDX 85 35 27 36 28 37 29 38 79 39 30 40 84 41 78 42 80 43 31 44
REMARK SMILES IDX 83 45 77 46 76 47 32 49 64 50 44 51 63 52 45 53 48 54 62 55
REMARK SMILES IDX 81 56 46 57 47 58 61 60 82 61 49 62 33 63 34 64 42 65 35 66
REMARK SMILES IDX 36 67 40 68 43 69 37 70 38 71 41 72 39 73 65 74 66 75 74 76
REMARK SMILES IDX 67 77 68 78 72 79 75 80 69 81 70 82 73 83 71 84 50 85 51 86
REMARK SMILES IDX 59 87 52 88 53 89 57 90 60 91 54 92 55 93 58 94 56 95
REMARK H PARENT 92 26 80 48 48 59
REMARK Flexibility Score: inf
ROOT
ATOM      1  C   UNL A   1      38.059  20.297  25.365  1.00  0.00     0.275 C 
ENDROOT
BRANCH   1   2
ATOM      2  O   UNL A   1      38.693  21.534  25.001  1.00  0.00    -0.459 OA
BRANCH   2   3
ATOM      3  C   UNL A   1      38.490  22.578  25.839  1.00  0.00     0.330 C 
ATOM      4  O   UNL A   1      39.116  22.822  26.860  1.00  0.00    -0.247 OA
BRANCH   3   5
ATOM      5  C   UNL A   1      37.390  23.450  25.386  1.00  0.00     0.093 C 
ATOM      6  C   UNL A   1      36.188  23.527  25.976  1.00  0.00     0.007 C 
BRANCH   6   7
ATOM      7  C   UNL A   1      35.175  24.449  25.521  1.00  0.00    -0.004 C 
ATOM      8  C   UNL A   1      33.999  24.593  26.150  1.00  0.00    -0.022 C 
BRANCH   8   9
ATOM      9  C   UNL A   1      33.034  25.724  25.831  1.00  0.00     0.027 C 
ATOM     10  C   UNL A   1      31.528  25.245  25.652  1.00  0.00     0.047 C 
ATOM     11  C   UNL A   1      30.828  25.826  24.433  1.00  0.00    -0.069 C 
ATOM     12  C   UNL A   1      29.330  25.950  24.504  1.00  0.00     0.040 C 
ATOM     13  C   UNL A   1      31.517  26.207  23.345  1.00  0.00    -0.021 C 
ATOM     14  C   UNL A   1      33.597  26.613  24.665  1.00  0.00     0.009 C 
ATOM     15  C   UNL A   1      33.028  26.142  23.301  1.00  0.00     0.044 C 
ATOM     16  C   UNL A   1      33.361  28.153  24.855  1.00  0.00    -0.010 C 
ATOM     17  C   UNL A   1      33.653  26.963  22.154  1.00  0.00     0.121 C 
ATOM     18  C   UNL A   1      34.030  28.709  26.119  1.00  0.00     0.008 C 
ATOM     19  C   UNL A   1      33.897  28.956  23.647  1.00  0.00     0.006 C 
ATOM     20  C   UNL A   1      33.384  28.454  22.304  1.00  0.00     0.033 C 
BRANCH  10  21
ATOM     21  C   UNL A   1      31.227  23.729  25.728  1.00  0.00    -0.070 C 
ATOM     22  C   UNL A   1      31.647  21.376  24.867  1.00  0.00     0.035 C 
ATOM     23  C   UNL A   1      31.830  22.862  24.886  1.00  0.00    -0.031 C 
ATOM     24  C   UNL A   1      30.310  23.231  26.821  1.00  0.00     0.040 C 
ENDBRANCH  10  21
BRANCH  17  25
ATOM     25  O   UNL A   1      33.219  26.502  20.876  1.00  0.00    -0.393 OA
ATOM     26  H   UNL A   1      32.834  25.616  20.966  1.00  0.00     0.210 HD
ENDBRANCH  17  25
ENDBRANCH   8   9
ENDBRANCH   6   7
ENDBRANCH   3   5
ENDBRANCH   2   3
ENDBRANCH   1   2
BRANCH   1  27
ATOM     27  C   UNL A   1      39.096  19.197  25.606  1.00  0.00     0.275 C 
BRANCH  27  28
ATOM     28  O   UNL A   1      40.034  19.570  26.632  1.00  0.00    -0.458 OA
BRANCH  28  29
ATOM     29  C   UNL A   1      41.337  19.503  26.277  1.00  0.00     0.338 C 
ATOM     30  O   UNL A   1      41.915  18.560  25.751  1.00  0.00    -0.246 OA
BRANCH  29  31
ATOM     31  C   UNL A   1      41.983  20.806  26.506  1.00  0.00     0.060 A 
ATOM     32  C   UNL A   1      42.308  21.165  27.820  1.00  0.00     0.016 A 
ATOM     33  C   UNL A   1      42.209  21.693  25.452  1.00  0.00     0.016 A 
ATOM     34  C   UNL A   1      42.856  22.419  28.085  1.00  0.00     0.010 A 
ATOM     35  C   UNL A   1      42.751  22.952  25.720  1.00  0.00     0.010 A 
ATOM     36  C   UNL A   1      43.062  23.327  27.038  1.00  0.00    -0.014 A 
BRANCH  36  37
ATOM     37  C   UNL A   1      43.533  24.702  27.326  1.00  0.00     0.031 A 
ATOM     38  C   UNL A   1      42.568  25.711  27.875  1.00  0.00     0.074 A 
ATOM     39  C   UNL A   1      44.812  25.043  27.090  1.00  0.00     0.049 A 
ATOM     40  N   UNL A   1      42.741  26.988  28.101  1.00  0.00    -0.248 NA
ATOM     41  C   UNL A   1      41.224  25.216  28.209  1.00  0.00     0.031 C 
ATOM     42  C   UNL A   1      45.848  24.139  26.596  1.00  0.00     0.029 A 
ATOM     43  N   UNL A   1      45.450  26.251  27.223  1.00  0.00    -0.354 N 
ATOM     44  C   UNL A   1      41.527  27.452  28.590  1.00  0.00     0.074 A 
ATOM     45  C   UNL A   1      40.620  26.325  28.613  1.00  0.00     0.031 C 
ATOM     46  C   UNL A   1      46.993  24.827  26.455  1.00  0.00     0.029 A 
ATOM     47  C   UNL A   1      46.759  26.225  26.812  1.00  0.00     0.049 A 
ATOM     48  H   UNL A   1      45.012  27.057  27.581  1.00  0.00     0.167 HD
ATOM     49  C   UNL A   1      41.203  28.705  28.986  1.00  0.00     0.037 A 
ATOM     50  C   UNL A   1      47.656  27.224  26.708  1.00  0.00     0.037 A 
ATOM     51  C   UNL A   1      42.111  29.823  28.968  1.00  0.00     0.049 A 
ATOM     52  C   UNL A   1      47.254  28.621  27.102  1.00  0.00     0.074 A 
ATOM     53  C   UNL A   1      41.880  31.131  29.358  1.00  0.00     0.029 A 
ATOM     54  N   UNL A   1      43.426  29.762  28.532  1.00  0.00    -0.354 N 
ATOM     55  N   UNL A   1      46.107  29.052  27.568  1.00  0.00    -0.248 NA
ATOM     56  C   UNL A   1      48.272  29.671  26.951  1.00  0.00     0.031 C 
ATOM     57  C   UNL A   1      43.045  31.870  29.123  1.00  0.00     0.029 A 
ATOM     58  C   UNL A   1      44.015  31.013  28.627  1.00  0.00     0.049 A 
ATOM     59  H   UNL A   1      43.875  28.950  28.204  1.00  0.00     0.167 HD
ATOM     60  C   UNL A   1      46.272  30.412  27.791  1.00  0.00     0.074 A 
ATOM     61  C   UNL A   1      47.633  30.735  27.418  1.00  0.00     0.031 C 
ATOM     62  C   UNL A   1      45.375  31.312  28.263  1.00  0.00     0.037 A 
BRANCH  49  63
ATOM     63  C   UNL A   1      39.797  28.942  29.448  1.00  0.00     0.064 A 
ATOM     64  C   UNL A   1      38.779  29.303  28.554  1.00  0.00     0.173 A 
ATOM     65  C   UNL A   1      39.456  28.772  30.799  1.00  0.00     0.173 A 
ATOM     66  F   UNL A   1      39.057  29.490  27.254  1.00  0.00    -0.203 F 
ATOM     67  C   UNL A   1      37.476  29.508  28.998  1.00  0.00     0.198 A 
ATOM     68  C   UNL A   1      38.148  28.955  31.236  1.00  0.00     0.198 A 
ATOM     69  F   UNL A   1      40.393  28.423  31.693  1.00  0.00    -0.203 F 
ATOM     70  F   UNL A   1      36.527  29.894  28.134  1.00  0.00    -0.200 F 
ATOM     71  C   UNL A   1      37.159  29.328  30.337  1.00  0.00     0.200 A 
ATOM     72  F   UNL A   1      37.841  28.770  32.528  1.00  0.00    -0.200 F 
ATOM     73  F   UNL A   1      35.903  29.522  30.763  1.00  0.00    -0.200 F 
ENDBRANCH  49  63
BRANCH  50  74
ATOM     74  C   UNL A   1      49.021  26.943  26.195  1.00  0.00     0.064 A 
ATOM     75  C   UNL A   1      49.322  27.081  24.834  1.00  0.00     0.173 A 
ATOM     76  C   UNL A   1      50.047  26.521  27.053  1.00  0.00     0.173 A 
ATOM     77  F   UNL A   1      48.366  27.454  23.971  1.00  0.00    -0.203 F 
ATOM     78  C   UNL A   1      50.597  26.795  24.348  1.00  0.00     0.198 A 
ATOM     79  C   UNL A   1      51.327  26.262  26.570  1.00  0.00     0.198 A 
ATOM     80  F   UNL A   1      49.807  26.369  28.364  1.00  0.00    -0.203 F 
ATOM     81  F   UNL A   1      50.848  26.896  23.035  1.00  0.00    -0.200 F 
ATOM     82  C   UNL A   1      51.599  26.393  25.217  1.00  0.00     0.200 A 
ATOM     83  F   UNL A   1      52.295  25.880  27.414  1.00  0.00    -0.200 F 
ATOM     84  F   UNL A   1      52.825  26.120  24.749  1.00  0.00    -0.200 F 
ENDBRANCH  50  74
BRANCH  62  85
ATOM     85  C   UNL A   1      45.848  32.725  28.446  1.00  0.00     0.064 A 
ATOM     86  C   UNL A   1      45.702  33.685  27.434  1.00  0.00     0.173 A 
ATOM     87  C   UNL A   1      46.411  33.131  29.665  1.00  0.00     0.173 A 
ATOM     88  F   UNL A   1      45.183  33.340  26.246  1.00  0.00    -0.203 F 
ATOM     89  C   UNL A   1      46.121  34.998  27.630  1.00  0.00     0.198 A 
ATOM     90  C   UNL A   1      46.805  34.451  29.866  1.00  0.00     0.198 A 
ATOM     91  F   UNL A   1      46.567  32.252  30.664  1.00  0.00    -0.203 F 
ATOM     92  F   UNL A   1      46.008  35.892  26.637  1.00  0.00    -0.200 F 
ATOM     93  C   UNL A   1      46.665  35.381  28.848  1.00  0.00     0.200 A 
ATOM     94  F   UNL A   1      47.321  34.823  31.046  1.00  0.00    -0.200 F 
ATOM     95  F   UNL A   1      47.060  36.648  29.037  1.00  0.00    -0.200 F 
ENDBRANCH  62  85
ENDBRANCH  36  37
ENDBRANCH  29  31
ENDBRANCH  28  29
ENDBRANCH  27  28
ENDBRANCH   1  27
TORSDOF 15
ENDMDL
