MODEL 1
REMARK VINA RESULT:     -13.0      0.000      0.000
REMARK SMILES Cc1c(CC(=O)OCCOC(=O)c2ccc(-c3c4nc(c(-c5c(F)c(F)c(F)c(F)c5F)c5ccc([nH]5)c(-c5c(F)c(F)c(F)c(F)c5F)c5nc(c(-c6c(F)c(F)c(F)c(F)c6F)c6ccc3[nH]6)C=C5)C=C4)cc2)c2ccccc2n1C(=O)c1ccc(Cl)cc1
REMARK SMILES IDX 8 1 7 2 5 3 6 4 4 5 3 6 1 7 2 8 82 9 76 10 81 11 77 12 80 13
REMARK SMILES IDX 78 14 79 15 83 16 84 17 85 18 86 19 91 20 87 21 90 22 88 23
REMARK SMILES IDX 89 24 9 25 10 26 11 27 12 28 13 29 14 30 75 31 15 32 74 33
REMARK SMILES IDX 16 34 17 35 18 36 68 37 19 38 73 39 67 40 69 41 20 42 72 43
REMARK SMILES IDX 66 44 65 45 21 47 53 48 33 49 52 50 34 51 37 52 51 53 70 54
REMARK SMILES IDX 35 55 36 56 50 58 71 59 38 60 22 61 23 62 31 63 24 64 25 65
REMARK SMILES IDX 29 66 32 67 26 68 27 69 30 70 28 71 54 72 55 73 63 74 56 75
REMARK SMILES IDX 57 76 61 77 64 78 58 79 59 80 62 81 60 82 39 83 40 84 48 85
REMARK SMILES IDX 41 86 42 87 46 88 49 89 43 90 44 91 47 92 45 93
REMARK H PARENT 69 46 37 57
REMARK Flexibility Score: inf
ROOT
ATOM      1  C   UNL A   1      37.348  21.334  25.163  1.00  0.00     0.274 C 
ENDROOT
BRANCH   1   2
ATOM      2  O   UNL A   1      37.234  22.620  24.513  1.00  0.00    -0.462 OA
BRANCH   2   3
ATOM      3  C   UNL A   1      36.378  22.663  23.466  1.00  0.00     0.310 C 
ATOM      4  O   UNL A   1      36.718  22.898  22.307  1.00  0.00    -0.252 OA
BRANCH   3   5
ATOM      5  C   UNL A   1      34.927  22.504  23.809  1.00  0.00     0.160 C 
BRANCH   5   6
ATOM      6  C   UNL A   1      34.000  23.674  23.988  1.00  0.00    -0.008 A 
ATOM      7  C   UNL A   1      34.649  24.053  26.467  1.00  0.00     0.065 C 
ATOM      8  C   UNL A   1      33.900  24.341  25.204  1.00  0.00     0.028 A 
ATOM      9  N   UNL A   1      32.946  25.346  25.090  1.00  0.00    -0.280 N 
ATOM     10  C   UNL A   1      33.279  24.471  23.039  1.00  0.00     0.004 A 
ATOM     11  C   UNL A   1      32.756  25.579  23.723  1.00  0.00     0.056 A 
ATOM     12  C   UNL A   1      33.054  24.410  21.646  1.00  0.00     0.010 A 
ATOM     13  C   UNL A   1      32.144  26.646  23.021  1.00  0.00     0.027 A 
ATOM     14  C   UNL A   1      32.453  25.466  20.949  1.00  0.00     0.001 A 
ATOM     15  C   UNL A   1      32.009  26.580  21.635  1.00  0.00     0.002 A 
BRANCH   9  16
ATOM     16  C   UNL A   1      32.308  26.007  26.170  1.00  0.00     0.262 C 
ATOM     17  O   UNL A   1      31.414  25.429  26.785  1.00  0.00    -0.268 OA
BRANCH  16  18
ATOM     18  C   UNL A   1      32.619  27.369  26.612  1.00  0.00     0.040 A 
ATOM     19  C   UNL A   1      31.602  28.219  27.061  1.00  0.00     0.015 A 
ATOM     20  C   UNL A   1      33.944  27.803  26.519  1.00  0.00     0.015 A 
ATOM     21  C   UNL A   1      31.916  29.543  27.369  1.00  0.00     0.021 A 
ATOM     22  C   UNL A   1      34.249  29.125  26.833  1.00  0.00     0.021 A 
ATOM     23  C   UNL A   1      33.233  29.991  27.245  1.00  0.00     0.041 A 
ATOM     24  Cl  UNL A   1      33.606  31.636  27.583  1.00  0.00    -0.084 Cl
ENDBRANCH  16  18
ENDBRANCH   9  16
ENDBRANCH   5   6
ENDBRANCH   3   5
ENDBRANCH   2   3
ENDBRANCH   1   2
BRANCH   1  25
ATOM     25  C   UNL A   1      38.745  21.147  25.761  1.00  0.00     0.275 C 
BRANCH  25  26
ATOM     26  O   UNL A   1      39.261  22.429  26.152  1.00  0.00    -0.458 OA
BRANCH  26  27
ATOM     27  C   UNL A   1      40.154  22.452  27.171  1.00  0.00     0.338 C 
ATOM     28  O   UNL A   1      40.780  21.516  27.636  1.00  0.00    -0.246 OA
BRANCH  27  29
ATOM     29  C   UNL A   1      40.503  23.872  27.351  1.00  0.00     0.060 A 
ATOM     30  C   UNL A   1      41.531  24.250  28.217  1.00  0.00     0.016 A 
ATOM     31  C   UNL A   1      39.602  24.818  26.853  1.00  0.00     0.016 A 
ATOM     32  C   UNL A   1      41.553  25.551  28.697  1.00  0.00     0.010 A 
ATOM     33  C   UNL A   1      39.588  26.095  27.379  1.00  0.00     0.010 A 
ATOM     34  C   UNL A   1      40.528  26.439  28.340  1.00  0.00    -0.014 A 
BRANCH  34  35
ATOM     35  C   UNL A   1      40.579  27.805  28.816  1.00  0.00     0.031 A 
ATOM     36  C   UNL A   1      41.713  28.575  28.265  1.00  0.00     0.074 A 
ATOM     37  C   UNL A   1      39.668  28.446  29.568  1.00  0.00     0.049 A 
ATOM     38  N   UNL A   1      42.784  28.922  28.892  1.00  0.00    -0.248 NA
ATOM     39  C   UNL A   1      41.706  28.908  26.836  1.00  0.00     0.031 C 
ATOM     40  C   UNL A   1      38.314  28.059  29.951  1.00  0.00     0.029 A 
ATOM     41  N   UNL A   1      39.805  29.688  30.110  1.00  0.00    -0.354 N 
ATOM     42  C   UNL A   1      43.554  29.624  27.976  1.00  0.00     0.074 A 
ATOM     43  C   UNL A   1      42.902  29.481  26.698  1.00  0.00     0.031 C 
ATOM     44  C   UNL A   1      37.690  29.129  30.507  1.00  0.00     0.029 A 
ATOM     45  C   UNL A   1      38.649  30.216  30.652  1.00  0.00     0.049 A 
ATOM     46  H   UNL A   1      40.662  30.173  30.115  1.00  0.00     0.167 HD
ATOM     47  C   UNL A   1      44.589  30.408  28.377  1.00  0.00     0.037 A 
ATOM     48  C   UNL A   1      38.513  31.476  31.135  1.00  0.00     0.037 A 
ATOM     49  C   UNL A   1      44.970  30.132  29.739  1.00  0.00     0.049 A 
ATOM     50  C   UNL A   1      39.875  31.966  31.493  1.00  0.00     0.074 A 
ATOM     51  C   UNL A   1      45.389  28.991  30.401  1.00  0.00     0.029 A 
ATOM     52  N   UNL A   1      44.562  30.996  30.729  1.00  0.00    -0.354 N 
ATOM     53  N   UNL A   1      40.587  31.497  32.480  1.00  0.00    -0.248 NA
ATOM     54  C   UNL A   1      40.625  32.701  30.483  1.00  0.00     0.031 C 
ATOM     55  C   UNL A   1      44.725  29.034  31.663  1.00  0.00     0.029 A 
ATOM     56  C   UNL A   1      43.990  30.219  31.706  1.00  0.00     0.049 A 
ATOM     57  H   UNL A   1      44.661  31.975  30.734  1.00  0.00     0.167 HD
ATOM     58  C   UNL A   1      41.893  31.501  32.011  1.00  0.00     0.074 A 
ATOM     59  C   UNL A   1      41.866  32.342  30.819  1.00  0.00     0.031 C 
ATOM     60  C   UNL A   1      42.821  30.607  32.463  1.00  0.00     0.037 A 
BRANCH  47  61
ATOM     61  C   UNL A   1      45.073  31.611  27.626  1.00  0.00     0.064 A 
ATOM     62  C   UNL A   1      46.375  31.619  27.095  1.00  0.00     0.173 A 
ATOM     63  C   UNL A   1      44.400  32.850  27.633  1.00  0.00     0.173 A 
ATOM     64  F   UNL A   1      47.111  30.498  27.074  1.00  0.00    -0.203 F 
ATOM     65  C   UNL A   1      46.976  32.796  26.648  1.00  0.00     0.198 A 
ATOM     66  C   UNL A   1      44.981  34.012  27.132  1.00  0.00     0.198 A 
ATOM     67  F   UNL A   1      43.205  33.004  28.220  1.00  0.00    -0.203 F 
ATOM     68  F   UNL A   1      48.257  32.781  26.256  1.00  0.00    -0.200 F 
ATOM     69  C   UNL A   1      46.279  33.991  26.666  1.00  0.00     0.200 A 
ATOM     70  F   UNL A   1      44.297  35.164  27.178  1.00  0.00    -0.200 F 
ATOM     71  F   UNL A   1      46.871  35.130  26.285  1.00  0.00    -0.200 F 
ENDBRANCH  47  61
BRANCH  48  72
ATOM     72  C   UNL A   1      37.340  32.377  31.040  1.00  0.00     0.064 A 
ATOM     73  C   UNL A   1      37.075  33.099  29.864  1.00  0.00     0.173 A 
ATOM     74  C   UNL A   1      36.302  32.337  31.992  1.00  0.00     0.173 A 
ATOM     75  F   UNL A   1      37.990  33.154  28.884  1.00  0.00    -0.203 F 
ATOM     76  C   UNL A   1      35.838  33.713  29.640  1.00  0.00     0.198 A 
ATOM     77  C   UNL A   1      35.072  32.958  31.772  1.00  0.00     0.198 A 
ATOM     78  F   UNL A   1      36.421  31.614  33.114  1.00  0.00    -0.203 F 
ATOM     79  F   UNL A   1      35.600  34.332  28.474  1.00  0.00    -0.200 F 
ATOM     80  C   UNL A   1      34.833  33.632  30.588  1.00  0.00     0.200 A 
ATOM     81  F   UNL A   1      34.096  32.842  32.685  1.00  0.00    -0.200 F 
ATOM     82  F   UNL A   1      33.627  34.164  30.348  1.00  0.00    -0.200 F 
ENDBRANCH  48  72
BRANCH  60  83
ATOM     83  C   UNL A   1      42.490  29.765  33.665  1.00  0.00     0.064 A 
ATOM     84  C   UNL A   1      41.842  28.520  33.596  1.00  0.00     0.173 A 
ATOM     85  C   UNL A   1      43.009  30.149  34.911  1.00  0.00     0.173 A 
ATOM     86  F   UNL A   1      41.409  28.029  32.428  1.00  0.00    -0.203 F 
ATOM     87  C   UNL A   1      41.691  27.718  34.726  1.00  0.00     0.198 A 
ATOM     88  C   UNL A   1      42.892  29.328  36.030  1.00  0.00     0.198 A 
ATOM     89  F   UNL A   1      43.686  31.303  35.032  1.00  0.00    -0.203 F 
ATOM     90  F   UNL A   1      41.064  26.535  34.632  1.00  0.00    -0.200 F 
ATOM     91  C   UNL A   1      42.226  28.117  35.939  1.00  0.00     0.200 A 
ATOM     92  F   UNL A   1      43.456  29.695  37.189  1.00  0.00    -0.200 F 
ATOM     93  F   UNL A   1      42.128  27.321  37.014  1.00  0.00    -0.200 F 
ENDBRANCH  60  83
ENDBRANCH  34  35
ENDBRANCH  27  29
ENDBRANCH  26  27
ENDBRANCH  25  26
ENDBRANCH   1  25
TORSDOF 14
ENDMDL
MODEL 2
REMARK VINA RESULT:     -12.9      3.253      8.737
REMARK SMILES Cc1c(CC(=O)OCCOC(=O)c2ccc(-c3c4nc(c(-c5c(F)c(F)c(F)c(F)c5F)c5ccc([nH]5)c(-c5c(F)c(F)c(F)c(F)c5F)c5nc(c(-c6c(F)c(F)c(F)c(F)c6F)c6ccc3[nH]6)C=C5)C=C4)cc2)c2ccccc2n1C(=O)c1ccc(Cl)cc1
REMARK SMILES IDX 8 1 7 2 5 3 6 4 4 5 3 6 1 7 2 8 82 9 76 10 81 11 77 12 80 13
REMARK SMILES IDX 78 14 79 15 83 16 84 17 85 18 86 19 91 20 87 21 90 22 88 23
REMARK SMILES IDX 89 24 9 25 10 26 11 27 12 28 13 29 14 30 75 31 15 32 74 33
REMARK SMILES IDX 16 34 17 35 18 36 68 37 19 38 73 39 67 40 69 41 20 42 72 43
REMARK SMILES IDX 66 44 65 45 21 47 53 48 33 49 52 50 34 51 37 52 51 53 70 54
REMARK SMILES IDX 35 55 36 56 50 58 71 59 38 60 22 61 23 62 31 63 24 64 25 65
REMARK SMILES IDX 29 66 32 67 26 68 27 69 30 70 28 71 54 72 55 73 63 74 56 75
REMARK SMILES IDX 57 76 61 77 64 78 58 79 59 80 62 81 60 82 39 83 40 84 48 85
REMARK SMILES IDX 41 86 42 87 46 88 49 89 43 90 44 91 47 92 45 93
REMARK H PARENT 69 46 37 57
REMARK Flexibility Score: inf
ROOT
ATOM      1  C   UNL A   1      32.987  30.284  26.709  1.00  0.00     0.274 C 
ENDROOT
BRANCH   1   2
ATOM      2  O   UNL A   1      31.648  29.842  27.029  1.00  0.00    -0.462 OA
BRANCH   2   3
ATOM      3  C   UNL A   1      31.473  28.500  27.045  1.00  0.00     0.310 C 
ATOM      4  O   UNL A   1      31.545  27.808  28.060  1.00  0.00    -0.252 OA
BRANCH   3   5
ATOM      5  C   UNL A   1      31.280  27.856  25.705  1.00  0.00     0.160 C 
BRANCH   5   6
ATOM      6  C   UNL A   1      31.821  26.493  25.371  1.00  0.00    -0.008 A 
ATOM      7  C   UNL A   1      34.095  27.395  24.519  1.00  0.00     0.065 C 
ATOM      8  C   UNL A   1      33.091  26.329  24.832  1.00  0.00     0.028 A 
ATOM      9  N   UNL A   1      33.308  24.977  24.591  1.00  0.00    -0.280 N 
ATOM     10  C   UNL A   1      31.361  25.178  25.711  1.00  0.00     0.004 A 
ATOM     11  C   UNL A   1      32.366  24.268  25.346  1.00  0.00     0.056 A 
ATOM     12  C   UNL A   1      30.215  24.651  26.347  1.00  0.00     0.010 A 
ATOM     13  C   UNL A   1      32.284  22.905  25.719  1.00  0.00     0.027 A 
ATOM     14  C   UNL A   1      30.135  23.303  26.720  1.00  0.00     0.001 A 
ATOM     15  C   UNL A   1      31.168  22.440  26.414  1.00  0.00     0.002 A 
BRANCH   9  16
ATOM     16  C   UNL A   1      34.309  24.437  23.744  1.00  0.00     0.262 C 
ATOM     17  O   UNL A   1      34.168  24.511  22.525  1.00  0.00    -0.268 OA
BRANCH  16  18
ATOM     18  C   UNL A   1      35.521  23.761  24.216  1.00  0.00     0.040 A 
ATOM     19  C   UNL A   1      36.068  22.698  23.489  1.00  0.00     0.015 A 
ATOM     20  C   UNL A   1      36.075  24.177  25.429  1.00  0.00     0.015 A 
ATOM     21  C   UNL A   1      37.155  22.005  24.022  1.00  0.00     0.021 A 
ATOM     22  C   UNL A   1      37.163  23.483  25.951  1.00  0.00     0.021 A 
ATOM     23  C   UNL A   1      37.691  22.394  25.252  1.00  0.00     0.041 A 
ATOM     24  Cl  UNL A   1      39.003  21.510  25.925  1.00  0.00    -0.084 Cl
ENDBRANCH  16  18
ENDBRANCH   9  16
ENDBRANCH   5   6
ENDBRANCH   3   5
ENDBRANCH   2   3
ENDBRANCH   1   2
BRANCH   1  25
ATOM     25  C   UNL A   1      33.247  31.684  27.272  1.00  0.00     0.275 C 
BRANCH  25  26
ATOM     26  O   UNL A   1      34.290  31.605  28.257  1.00  0.00    -0.458 OA
BRANCH  26  27
ATOM     27  C   UNL A   1      35.464  32.216  27.965  1.00  0.00     0.338 C 
ATOM     28  O   UNL A   1      35.639  33.371  27.621  1.00  0.00    -0.246 OA
BRANCH  27  29
ATOM     29  C   UNL A   1      36.509  31.330  28.507  1.00  0.00     0.060 A 
ATOM     30  C   UNL A   1      37.615  31.857  29.175  1.00  0.00     0.016 A 
ATOM     31  C   UNL A   1      36.494  29.996  28.088  1.00  0.00     0.016 A 
ATOM     32  C   UNL A   1      38.761  31.081  29.282  1.00  0.00     0.010 A 
ATOM     33  C   UNL A   1      37.653  29.247  28.139  1.00  0.00     0.010 A 
ATOM     34  C   UNL A   1      38.797  29.813  28.685  1.00  0.00    -0.014 A 
BRANCH  34  35
ATOM     35  C   UNL A   1      39.983  28.996  28.834  1.00  0.00     0.031 A 
ATOM     36  C   UNL A   1      40.320  28.704  30.242  1.00  0.00     0.074 A 
ATOM     37  C   UNL A   1      40.695  28.400  27.863  1.00  0.00     0.049 A 
ATOM     38  N   UNL A   1      41.286  29.218  30.924  1.00  0.00    -0.248 NA
ATOM     39  C   UNL A   1      39.429  27.826  31.009  1.00  0.00     0.031 C 
ATOM     40  C   UNL A   1      40.399  28.220  26.445  1.00  0.00     0.029 A 
ATOM     41  N   UNL A   1      41.880  27.747  28.021  1.00  0.00    -0.354 N 
ATOM     42  C   UNL A   1      41.209  28.647  32.186  1.00  0.00     0.074 A 
ATOM     43  C   UNL A   1      39.979  27.894  32.222  1.00  0.00     0.031 C 
ATOM     44  C   UNL A   1      41.292  27.346  25.915  1.00  0.00     0.029 A 
ATOM     45  C   UNL A   1      42.300  27.030  26.918  1.00  0.00     0.049 A 
ATOM     46  H   UNL A   1      42.398  27.783  28.858  1.00  0.00     0.167 HD
ATOM     47  C   UNL A   1      42.252  28.710  33.055  1.00  0.00     0.037 A 
ATOM     48  C   UNL A   1      43.379  26.208  26.880  1.00  0.00     0.037 A 
ATOM     49  C   UNL A   1      43.225  29.692  32.648  1.00  0.00     0.049 A 
ATOM     50  C   UNL A   1      44.301  26.632  27.971  1.00  0.00     0.074 A 
ATOM     51  C   UNL A   1      43.162  31.052  32.400  1.00  0.00     0.029 A 
ATOM     52  N   UNL A   1      44.383  29.266  32.040  1.00  0.00    -0.354 N 
ATOM     53  N   UNL A   1      44.962  27.758  27.977  1.00  0.00    -0.248 NA
ATOM     54  C   UNL A   1      44.167  25.987  29.270  1.00  0.00     0.031 C 
ATOM     55  C   UNL A   1      43.973  31.252  31.243  1.00  0.00     0.029 A 
ATOM     56  C   UNL A   1      44.514  30.014  30.896  1.00  0.00     0.049 A 
ATOM     57  H   UNL A   1      44.994  28.565  32.361  1.00  0.00     0.167 HD
ATOM     58  C   UNL A   1      44.953  28.170  29.301  1.00  0.00     0.074 A 
ATOM     59  C   UNL A   1      44.537  26.996  30.062  1.00  0.00     0.031 C 
ATOM     60  C   UNL A   1      45.010  29.491  29.643  1.00  0.00     0.037 A 
BRANCH  47  61
ATOM     61  C   UNL A   1      42.522  27.692  34.120  1.00  0.00     0.064 A 
ATOM     62  C   UNL A   1      43.191  26.500  33.788  1.00  0.00     0.173 A 
ATOM     63  C   UNL A   1      41.922  27.728  35.396  1.00  0.00     0.173 A 
ATOM     64  F   UNL A   1      43.766  26.353  32.585  1.00  0.00    -0.203 F 
ATOM     65  C   UNL A   1      43.212  25.406  34.653  1.00  0.00     0.198 A 
ATOM     66  C   UNL A   1      41.995  26.656  36.280  1.00  0.00     0.198 A 
ATOM     67  F   UNL A   1      41.153  28.754  35.787  1.00  0.00    -0.203 F 
ATOM     68  F   UNL A   1      43.762  24.252  34.252  1.00  0.00    -0.200 F 
ATOM     69  C   UNL A   1      42.616  25.485  35.899  1.00  0.00     0.200 A 
ATOM     70  F   UNL A   1      41.393  26.745  37.475  1.00  0.00    -0.200 F 
ATOM     71  F   UNL A   1      42.593  24.420  36.711  1.00  0.00    -0.200 F 
ENDBRANCH  47  61
BRANCH  48  72
ATOM     72  C   UNL A   1      43.531  24.921  26.161  1.00  0.00     0.064 A 
ATOM     73  C   UNL A   1      44.562  24.733  25.224  1.00  0.00     0.173 A 
ATOM     74  C   UNL A   1      42.850  23.760  26.577  1.00  0.00     0.173 A 
ATOM     75  F   UNL A   1      45.293  25.777  24.805  1.00  0.00    -0.203 F 
ATOM     76  C   UNL A   1      44.911  23.460  24.759  1.00  0.00     0.198 A 
ATOM     77  C   UNL A   1      43.192  22.492  26.105  1.00  0.00     0.198 A 
ATOM     78  F   UNL A   1      41.902  23.817  27.523  1.00  0.00    -0.203 F 
ATOM     79  F   UNL A   1      45.946  23.315  23.920  1.00  0.00    -0.200 F 
ATOM     80  C   UNL A   1      44.234  22.339  25.209  1.00  0.00     0.200 A 
ATOM     81  F   UNL A   1      42.550  21.413  26.576  1.00  0.00    -0.200 F 
ATOM     82  F   UNL A   1      44.608  21.115  24.814  1.00  0.00    -0.200 F 
ENDBRANCH  48  72
BRANCH  60  83
ATOM     83  C   UNL A   1      45.338  30.501  28.577  1.00  0.00     0.064 A 
ATOM     84  C   UNL A   1      44.387  31.055  27.703  1.00  0.00     0.173 A 
ATOM     85  C   UNL A   1      46.625  31.060  28.561  1.00  0.00     0.173 A 
ATOM     86  F   UNL A   1      43.110  30.653  27.726  1.00  0.00    -0.203 F 
ATOM     87  C   UNL A   1      44.720  32.092  26.833  1.00  0.00     0.198 A 
ATOM     88  C   UNL A   1      46.945  32.122  27.718  1.00  0.00     0.198 A 
ATOM     89  F   UNL A   1      47.565  30.611  29.409  1.00  0.00    -0.203 F 
ATOM     90  F   UNL A   1      43.793  32.599  26.005  1.00  0.00    -0.200 F 
ATOM     91  C   UNL A   1      45.995  32.632  26.849  1.00  0.00     0.200 A 
ATOM     92  F   UNL A   1      48.164  32.675  27.775  1.00  0.00    -0.200 F 
ATOM     93  F   UNL A   1      46.300  33.665  26.050  1.00  0.00    -0.200 F 
ENDBRANCH  60  83
ENDBRANCH  34  35
ENDBRANCH  27  29
ENDBRANCH  26  27
ENDBRANCH  25  26
ENDBRANCH   1  25
TORSDOF 14
ENDMDL
MODEL 3
REMARK VINA RESULT:     -12.8      3.998      7.216
REMARK SMILES Cc1c(CC(=O)OCCOC(=O)c2ccc(-c3c4nc(c(-c5c(F)c(F)c(F)c(F)c5F)c5ccc([nH]5)c(-c5c(F)c(F)c(F)c(F)c5F)c5nc(c(-c6c(F)c(F)c(F)c(F)c6F)c6ccc3[nH]6)C=C5)C=C4)cc2)c2ccccc2n1C(=O)c1ccc(Cl)cc1
REMARK SMILES IDX 8 1 7 2 5 3 6 4 4 5 3 6 1 7 2 8 82 9 76 10 81 11 77 12 80 13
REMARK SMILES IDX 78 14 79 15 83 16 84 17 85 18 86 19 91 20 87 21 90 22 88 23
REMARK SMILES IDX 89 24 9 25 10 26 11 27 12 28 13 29 14 30 75 31 15 32 74 33
REMARK SMILES IDX 16 34 17 35 18 36 68 37 19 38 73 39 67 40 69 41 20 42 72 43
REMARK SMILES IDX 66 44 65 45 21 47 53 48 33 49 52 50 34 51 37 52 51 53 70 54
REMARK SMILES IDX 35 55 36 56 50 58 71 59 38 60 22 61 23 62 31 63 24 64 25 65
REMARK SMILES IDX 29 66 32 67 26 68 27 69 30 70 28 71 54 72 55 73 63 74 56 75
REMARK SMILES IDX 57 76 61 77 64 78 58 79 59 80 62 81 60 82 39 83 40 84 48 85
REMARK SMILES IDX 41 86 42 87 46 88 49 89 43 90 44 91 47 92 45 93
REMARK H PARENT 69 46 37 57
REMARK Flexibility Score: inf
ROOT
ATOM      1  C   UNL A   1      42.557  20.371  26.942  1.00  0.00     0.274 C 
ENDROOT
BRANCH   1   2
ATOM      2  O   UNL A   1      42.533  20.901  25.597  1.00  0.00    -0.462 OA
BRANCH   2   3
ATOM      3  C   UNL A   1      43.317  21.984  25.392  1.00  0.00     0.310 C 
ATOM      4  O   UNL A   1      43.039  22.900  24.618  1.00  0.00    -0.252 OA
BRANCH   3   5
ATOM      5  C   UNL A   1      44.639  21.971  26.100  1.00  0.00     0.160 C 
BRANCH   5   6
ATOM      6  C   UNL A   1      45.123  23.119  26.942  1.00  0.00    -0.008 A 
ATOM      7  C   UNL A   1      45.969  24.496  24.917  1.00  0.00     0.065 C 
ATOM      8  C   UNL A   1      45.723  24.235  26.371  1.00  0.00     0.028 A 
ATOM      9  N   UNL A   1      46.102  25.111  27.382  1.00  0.00    -0.280 N 
ATOM     10  C   UNL A   1      44.897  23.451  28.318  1.00  0.00     0.004 A 
ATOM     11  C   UNL A   1      45.385  24.751  28.529  1.00  0.00     0.056 A 
ATOM     12  C   UNL A   1      44.273  22.813  29.413  1.00  0.00     0.010 A 
ATOM     13  C   UNL A   1      45.144  25.431  29.746  1.00  0.00     0.027 A 
ATOM     14  C   UNL A   1      44.029  23.486  30.617  1.00  0.00     0.001 A 
ATOM     15  C   UNL A   1      44.456  24.790  30.777  1.00  0.00     0.002 A 
BRANCH   9  16
ATOM     16  C   UNL A   1      47.035  26.171  27.251  1.00  0.00     0.262 C 
ATOM     17  O   UNL A   1      46.644  27.332  27.358  1.00  0.00    -0.268 OA
BRANCH  16  18
ATOM     18  C   UNL A   1      48.462  25.992  26.970  1.00  0.00     0.040 A 
ATOM     19  C   UNL A   1      49.011  26.456  25.770  1.00  0.00     0.015 A 
ATOM     20  C   UNL A   1      49.235  25.304  27.909  1.00  0.00     0.015 A 
ATOM     21  C   UNL A   1      50.347  26.171  25.485  1.00  0.00     0.021 A 
ATOM     22  C   UNL A   1      50.569  25.029  27.618  1.00  0.00     0.021 A 
ATOM     23  C   UNL A   1      51.115  25.454  26.405  1.00  0.00     0.041 A 
ATOM     24  Cl  UNL A   1      52.749  25.067  26.029  1.00  0.00    -0.084 Cl
ENDBRANCH  16  18
ENDBRANCH   9  16
ENDBRANCH   5   6
ENDBRANCH   3   5
ENDBRANCH   2   3
ENDBRANCH   1   2
BRANCH   1  25
ATOM     25  C   UNL A   1      41.164  20.429  27.576  1.00  0.00     0.275 C 
BRANCH  25  26
ATOM     26  O   UNL A   1      40.854  21.795  27.898  1.00  0.00    -0.458 OA
BRANCH  26  27
ATOM     27  C   UNL A   1      40.026  22.456  27.054  1.00  0.00     0.338 C 
ATOM     28  O   UNL A   1      39.022  22.033  26.509  1.00  0.00    -0.246 OA
BRANCH  27  29
ATOM     29  C   UNL A   1      40.356  23.883  27.223  1.00  0.00     0.060 A 
ATOM     30  C   UNL A   1      41.487  24.273  27.941  1.00  0.00     0.016 A 
ATOM     31  C   UNL A   1      39.364  24.810  26.888  1.00  0.00     0.016 A 
ATOM     32  C   UNL A   1      41.541  25.563  28.450  1.00  0.00     0.010 A 
ATOM     33  C   UNL A   1      39.389  26.072  27.448  1.00  0.00     0.010 A 
ATOM     34  C   UNL A   1      40.449  26.424  28.272  1.00  0.00    -0.014 A 
BRANCH  34  35
ATOM     35  C   UNL A   1      40.528  27.779  28.775  1.00  0.00     0.031 A 
ATOM     36  C   UNL A   1      41.671  28.540  28.229  1.00  0.00     0.074 A 
ATOM     37  C   UNL A   1      39.636  28.420  29.548  1.00  0.00     0.049 A 
ATOM     38  N   UNL A   1      42.754  28.855  28.853  1.00  0.00    -0.248 NA
ATOM     39  C   UNL A   1      41.657  28.902  26.807  1.00  0.00     0.031 C 
ATOM     40  C   UNL A   1      38.279  28.050  29.936  1.00  0.00     0.029 A 
ATOM     41  N   UNL A   1      39.800  29.648  30.113  1.00  0.00    -0.354 N 
ATOM     42  C   UNL A   1      43.528  29.562  27.944  1.00  0.00     0.074 A 
ATOM     43  C   UNL A   1      42.862  29.456  26.669  1.00  0.00     0.031 C 
ATOM     44  C   UNL A   1      37.680  29.119  30.519  1.00  0.00     0.029 A 
ATOM     45  C   UNL A   1      38.659  30.186  30.677  1.00  0.00     0.049 A 
ATOM     46  H   UNL A   1      40.666  30.118  30.121  1.00  0.00     0.167 HD
ATOM     47  C   UNL A   1      44.580  30.319  28.351  1.00  0.00     0.037 A 
ATOM     48  C   UNL A   1      38.550  31.438  31.186  1.00  0.00     0.037 A 
ATOM     49  C   UNL A   1      44.968  30.008  29.703  1.00  0.00     0.049 A 
ATOM     50  C   UNL A   1      39.923  31.897  31.541  1.00  0.00     0.074 A 
ATOM     51  C   UNL A   1      45.373  28.848  30.338  1.00  0.00     0.029 A 
ATOM     52  N   UNL A   1      44.586  30.859  30.714  1.00  0.00    -0.354 N 
ATOM     53  N   UNL A   1      40.636  31.395  32.512  1.00  0.00    -0.248 NA
ATOM     54  C   UNL A   1      40.677  32.639  30.539  1.00  0.00     0.031 C 
ATOM     55  C   UNL A   1      44.721  28.877  31.607  1.00  0.00     0.029 A 
ATOM     56  C   UNL A   1      44.008  30.073  31.681  1.00  0.00     0.049 A 
ATOM     57  H   UNL A   1      44.702  31.836  30.739  1.00  0.00     0.167 HD
ATOM     58  C   UNL A   1      41.937  31.386  32.032  1.00  0.00     0.074 A 
ATOM     59  C   UNL A   1      41.914  32.251  30.856  1.00  0.00     0.031 C 
ATOM     60  C   UNL A   1      42.853  30.466  32.456  1.00  0.00     0.037 A 
BRANCH  47  61
ATOM     61  C   UNL A   1      45.079  31.528  27.620  1.00  0.00     0.064 A 
ATOM     62  C   UNL A   1      46.390  31.540  27.112  1.00  0.00     0.173 A 
ATOM     63  C   UNL A   1      44.407  32.768  27.626  1.00  0.00     0.173 A 
ATOM     64  F   UNL A   1      47.126  30.418  27.094  1.00  0.00    -0.203 F 
ATOM     65  C   UNL A   1      47.001  32.720  26.687  1.00  0.00     0.198 A 
ATOM     66  C   UNL A   1      44.999  33.933  27.147  1.00  0.00     0.198 A 
ATOM     67  F   UNL A   1      43.202  32.918  28.193  1.00  0.00    -0.203 F 
ATOM     68  F   UNL A   1      48.288  32.707  26.318  1.00  0.00    -0.200 F 
ATOM     69  C   UNL A   1      46.305  33.916  26.703  1.00  0.00     0.200 A 
ATOM     70  F   UNL A   1      44.315  35.086  27.190  1.00  0.00    -0.200 F 
ATOM     71  F   UNL A   1      46.905  35.057  26.343  1.00  0.00    -0.200 F 
ENDBRANCH  47  61
BRANCH  48  72
ATOM     72  C   UNL A   1      37.392  32.361  31.121  1.00  0.00     0.064 A 
ATOM     73  C   UNL A   1      37.131  33.113  29.962  1.00  0.00     0.173 A 
ATOM     74  C   UNL A   1      36.361  32.319  32.081  1.00  0.00     0.173 A 
ATOM     75  F   UNL A   1      38.038  33.173  28.977  1.00  0.00    -0.203 F 
ATOM     76  C   UNL A   1      35.902  33.753  29.762  1.00  0.00     0.198 A 
ATOM     77  C   UNL A   1      35.140  32.966  31.884  1.00  0.00     0.198 A 
ATOM     78  F   UNL A   1      36.477  31.570  33.186  1.00  0.00    -0.203 F 
ATOM     79  F   UNL A   1      35.666  34.401  28.612  1.00  0.00    -0.200 F 
ATOM     80  C   UNL A   1      34.904  33.670  30.717  1.00  0.00     0.200 A 
ATOM     81  F   UNL A   1      34.171  32.848  32.802  1.00  0.00    -0.200 F 
ATOM     82  F   UNL A   1      33.706  34.228  30.499  1.00  0.00    -0.200 F 
ENDBRANCH  48  72
BRANCH  60  83
ATOM     83  C   UNL A   1      42.518  29.606  33.644  1.00  0.00     0.064 A 
ATOM     84  C   UNL A   1      41.857  28.369  33.555  1.00  0.00     0.173 A 
ATOM     85  C   UNL A   1      43.046  29.962  34.895  1.00  0.00     0.173 A 
ATOM     86  F   UNL A   1      41.415  27.903  32.380  1.00  0.00    -0.203 F 
ATOM     87  C   UNL A   1      41.702  27.548  34.671  1.00  0.00     0.198 A 
ATOM     88  C   UNL A   1      42.924  29.122  35.999  1.00  0.00     0.198 A 
ATOM     89  F   UNL A   1      43.734  31.106  35.034  1.00  0.00    -0.203 F 
ATOM     90  F   UNL A   1      41.063  26.373  34.559  1.00  0.00    -0.200 F 
ATOM     91  C   UNL A   1      42.245  27.919  35.889  1.00  0.00     0.200 A 
ATOM     92  F   UNL A   1      43.496  29.463  37.162  1.00  0.00    -0.200 F 
ATOM     93  F   UNL A   1      42.143  27.106  36.950  1.00  0.00    -0.200 F 
ENDBRANCH  60  83
ENDBRANCH  34  35
ENDBRANCH  27  29
ENDBRANCH  26  27
ENDBRANCH  25  26
ENDBRANCH   1  25
TORSDOF 14
ENDMDL
