MODEL 1
REMARK VINA RESULT:     -12.2      0.000      0.000
REMARK SMILES COc1ccc(-c2nc(NCC(=O)OCCOC(=O)c3ccc(-c4c5nc(c(-c6c(F)c(F)c(F)c(F)c6F)c6ccc([nH]6)c(-c6c(F)c(F)c(F)c(F)c6F)c6nc(c(-c7c(F)c(F)c(F)c(F)c7F)c7ccc4[nH]7)C=C6)C=C5)cc3)sc2-c2ccc(OC)cc2)cc1
REMARK SMILES IDX 15 1 14 2 12 3 13 4 11 5 10 6 9 8 7 9 8 10 84 11 83 12 6 13
REMARK SMILES IDX 3 14 4 15 94 16 5 17 93 18 2 19 1 20 85 21 86 22 92 23 87 24
REMARK SMILES IDX 91 25 88 26 89 27 90 28 16 29 17 30 18 31 19 32 20 33 21 34
REMARK SMILES IDX 82 35 22 36 81 37 23 38 24 39 25 40 75 41 26 42 80 43 74 44
REMARK SMILES IDX 76 45 27 46 79 47 73 48 72 49 28 51 60 52 40 53 59 54 41 55
REMARK SMILES IDX 44 56 58 57 77 58 42 59 43 60 57 62 78 63 45 64 29 65 30 66
REMARK SMILES IDX 38 67 31 68 32 69 36 70 39 71 33 72 34 73 37 74 35 75 61 76
REMARK SMILES IDX 62 77 70 78 63 79 64 80 68 81 71 82 65 83 66 84 69 85 67 86
REMARK SMILES IDX 46 87 47 88 55 89 48 90 49 91 53 92 56 93 50 94 51 95 54 96
REMARK SMILES IDX 52 97
REMARK H PARENT 10 7 76 50 44 61
REMARK Flexibility Score: inf
ROOT
ATOM      1  C   UNL A   1      31.794  29.288  24.256  1.00  0.00     0.274 C 
ENDROOT
BRANCH   1   2
ATOM      2  O   UNL A   1      30.436  28.930  23.953  1.00  0.00    -0.461 OA
BRANCH   2   3
ATOM      3  C   UNL A   1      30.184  28.541  22.674  1.00  0.00     0.325 C 
ATOM      4  O   UNL A   1      29.471  29.150  21.882  1.00  0.00    -0.250 OA
BRANCH   3   5
ATOM      5  C   UNL A   1      30.856  27.222  22.330  1.00  0.00     0.238 C 
BRANCH   5   6
ATOM      6  N   UNL A   1      30.617  26.171  23.313  1.00  0.00    -0.351 N 
ATOM      7  H   UNL A   1      29.830  26.256  23.900  1.00  0.00     0.163 HD
BRANCH   6   8
ATOM      8  C   UNL A   1      31.409  25.090  23.466  1.00  0.00     0.184 A 
ATOM      9  C   UNL A   1      33.217  23.900  23.982  1.00  0.00     0.091 A 
ATOM     10  N   UNL A   1      32.667  25.170  23.840  1.00  0.00    -0.220 NA
ATOM     11  C   UNL A   1      32.331  22.853  23.779  1.00  0.00     0.064 A 
ATOM     12  S   UNL A   1      30.850  23.480  23.212  1.00  0.00    -0.096 S 
BRANCH   9  13
ATOM     13  C   UNL A   1      34.602  23.701  24.389  1.00  0.00     0.002 A 
ATOM     14  C   UNL A   1      37.212  23.118  25.255  1.00  0.00     0.118 A 
ATOM     15  C   UNL A   1      36.800  22.752  23.974  1.00  0.00     0.047 A 
ATOM     16  C   UNL A   1      36.341  23.829  26.083  1.00  0.00     0.047 A 
ATOM     17  C   UNL A   1      35.502  23.036  23.544  1.00  0.00     0.014 A 
ATOM     18  C   UNL A   1      35.041  24.125  25.648  1.00  0.00     0.014 A 
BRANCH  14  19
ATOM     19  O   UNL A   1      38.493  22.764  25.579  1.00  0.00    -0.497 OA
ATOM     20  C   UNL A   1      38.734  21.363  25.658  1.00  0.00     0.278 C 
ENDBRANCH  14  19
ENDBRANCH   9  13
BRANCH  11  21
ATOM     21  C   UNL A   1      32.427  21.418  24.033  1.00  0.00    -0.006 A 
ATOM     22  C   UNL A   1      32.795  20.924  25.289  1.00  0.00     0.013 A 
ATOM     23  C   UNL A   1      32.218  20.515  22.982  1.00  0.00     0.013 A 
ATOM     24  C   UNL A   1      32.973  19.552  25.478  1.00  0.00     0.047 A 
ATOM     25  C   UNL A   1      32.393  19.143  23.176  1.00  0.00     0.047 A 
ATOM     26  C   UNL A   1      32.776  18.657  24.425  1.00  0.00     0.118 A 
BRANCH  26  27
ATOM     27  O   UNL A   1      33.001  17.346  24.740  1.00  0.00    -0.497 OA
ATOM     28  C   UNL A   1      33.833  16.612  23.852  1.00  0.00     0.278 C 
ENDBRANCH  26  27
ENDBRANCH  11  21
ENDBRANCH   6   8
ENDBRANCH   5   6
ENDBRANCH   3   5
ENDBRANCH   2   3
ENDBRANCH   1   2
BRANCH   1  29
ATOM     29  C   UNL A   1      31.887  30.024  25.596  1.00  0.00     0.275 C 
BRANCH  29  30
ATOM     30  O   UNL A   1      33.250  30.193  26.035  1.00  0.00    -0.458 OA
BRANCH  30  31
ATOM     31  C   UNL A   1      33.451  31.176  26.945  1.00  0.00     0.338 C 
ATOM     32  O   UNL A   1      32.675  32.060  27.262  1.00  0.00    -0.246 OA
BRANCH  31  33
ATOM     33  C   UNL A   1      34.714  30.930  27.665  1.00  0.00     0.060 A 
ATOM     34  C   UNL A   1      34.958  29.632  28.125  1.00  0.00     0.016 A 
ATOM     35  C   UNL A   1      35.624  31.955  27.925  1.00  0.00     0.016 A 
ATOM     36  C   UNL A   1      36.119  29.345  28.833  1.00  0.00     0.010 A 
ATOM     37  C   UNL A   1      36.790  31.669  28.645  1.00  0.00     0.010 A 
ATOM     38  C   UNL A   1      37.043  30.362  29.101  1.00  0.00    -0.014 A 
BRANCH  38  39
ATOM     39  C   UNL A   1      38.264  30.054  29.878  1.00  0.00     0.031 A 
ATOM     40  C   UNL A   1      39.291  29.117  29.318  1.00  0.00     0.074 A 
ATOM     41  C   UNL A   1      38.456  30.637  31.075  1.00  0.00     0.049 A 
ATOM     42  N   UNL A   1      40.373  28.641  29.879  1.00  0.00    -0.248 NA
ATOM     43  C   UNL A   1      39.073  28.654  27.939  1.00  0.00     0.031 C 
ATOM     44  C   UNL A   1      37.553  31.609  31.691  1.00  0.00     0.029 A 
ATOM     45  N   UNL A   1      39.469  30.492  31.988  1.00  0.00    -0.354 N 
ATOM     46  C   UNL A   1      40.955  27.811  28.932  1.00  0.00     0.074 A 
ATOM     47  C   UNL A   1      40.102  27.838  27.763  1.00  0.00     0.031 C 
ATOM     48  C   UNL A   1      38.049  31.967  32.887  1.00  0.00     0.029 A 
ATOM     49  C   UNL A   1      39.273  31.213  33.140  1.00  0.00     0.049 A 
ATOM     50  H   UNL A   1      40.260  29.927  31.832  1.00  0.00     0.167 HD
ATOM     51  C   UNL A   1      42.100  27.095  29.036  1.00  0.00     0.037 A 
ATOM     52  C   UNL A   1      39.981  31.231  34.285  1.00  0.00     0.037 A 
ATOM     53  C   UNL A   1      42.947  27.082  30.200  1.00  0.00     0.049 A 
ATOM     54  C   UNL A   1      41.208  30.367  34.401  1.00  0.00     0.074 A 
ATOM     55  C   UNL A   1      44.131  26.394  30.401  1.00  0.00     0.029 A 
ATOM     56  N   UNL A   1      42.695  27.793  31.365  1.00  0.00    -0.354 N 
ATOM     57  N   UNL A   1      41.745  29.570  33.508  1.00  0.00    -0.248 NA
ATOM     58  C   UNL A   1      41.920  30.398  35.684  1.00  0.00     0.031 C 
ATOM     59  C   UNL A   1      44.574  26.656  31.703  1.00  0.00     0.029 A 
ATOM     60  C   UNL A   1      43.689  27.541  32.298  1.00  0.00     0.049 A 
ATOM     61  H   UNL A   1      41.923  28.388  31.508  1.00  0.00     0.167 HD
ATOM     62  C   UNL A   1      42.861  29.013  34.117  1.00  0.00     0.074 A 
ATOM     63  C   UNL A   1      42.937  29.580  35.448  1.00  0.00     0.031 C 
ATOM     64  C   UNL A   1      43.742  28.111  33.620  1.00  0.00     0.037 A 
BRANCH  51  65
ATOM     65  C   UNL A   1      42.485  26.236  27.868  1.00  0.00     0.064 A 
ATOM     66  C   UNL A   1      41.960  24.948  27.693  1.00  0.00     0.173 A 
ATOM     67  C   UNL A   1      43.369  26.723  26.893  1.00  0.00     0.173 A 
ATOM     68  F   UNL A   1      41.122  24.431  28.606  1.00  0.00    -0.203 F 
ATOM     69  C   UNL A   1      42.321  24.171  26.595  1.00  0.00     0.198 A 
ATOM     70  C   UNL A   1      43.709  25.953  25.785  1.00  0.00     0.198 A 
ATOM     71  F   UNL A   1      43.897  27.950  27.013  1.00  0.00    -0.203 F 
ATOM     72  F   UNL A   1      41.837  22.927  26.468  1.00  0.00    -0.200 F 
ATOM     73  C   UNL A   1      43.190  24.676  25.639  1.00  0.00     0.200 A 
ATOM     74  F   UNL A   1      44.541  26.447  24.857  1.00  0.00    -0.200 F 
ATOM     75  F   UNL A   1      43.532  23.929  24.581  1.00  0.00    -0.200 F 
ENDBRANCH  51  65
BRANCH  52  76
ATOM     76  C   UNL A   1      39.520  32.063  35.425  1.00  0.00     0.064 A 
ATOM     77  C   UNL A   1      38.647  31.551  36.392  1.00  0.00     0.173 A 
ATOM     78  C   UNL A   1      39.946  33.393  35.567  1.00  0.00     0.173 A 
ATOM     79  F   UNL A   1      38.191  30.294  36.282  1.00  0.00    -0.203 F 
ATOM     80  C   UNL A   1      38.208  32.339  37.454  1.00  0.00     0.198 A 
ATOM     81  C   UNL A   1      39.529  34.171  36.645  1.00  0.00     0.198 A 
ATOM     82  F   UNL A   1      40.780  33.933  34.666  1.00  0.00    -0.203 F 
ATOM     83  F   UNL A   1      37.342  31.836  38.344  1.00  0.00    -0.200 F 
ATOM     84  C   UNL A   1      38.656  33.645  37.584  1.00  0.00     0.200 A 
ATOM     85  F   UNL A   1      39.973  35.429  36.772  1.00  0.00    -0.200 F 
ATOM     86  F   UNL A   1      38.239  34.399  38.610  1.00  0.00    -0.200 F 
ENDBRANCH  52  76
BRANCH  64  87
ATOM     87  C   UNL A   1      44.869  27.694  34.516  1.00  0.00     0.064 A 
ATOM     88  C   UNL A   1      46.072  28.413  34.563  1.00  0.00     0.173 A 
ATOM     89  C   UNL A   1      44.734  26.582  35.360  1.00  0.00     0.173 A 
ATOM     90  F   UNL A   1      46.256  29.474  33.761  1.00  0.00    -0.203 F 
ATOM     91  C   UNL A   1      47.107  28.021  35.408  1.00  0.00     0.198 A 
ATOM     92  C   UNL A   1      45.760  26.208  36.222  1.00  0.00     0.198 A 
ATOM     93  F   UNL A   1      43.601  25.863  35.355  1.00  0.00    -0.203 F 
ATOM     94  F   UNL A   1      48.264  28.697  35.405  1.00  0.00    -0.200 F 
ATOM     95  C   UNL A   1      46.948  26.924  36.241  1.00  0.00     0.200 A 
ATOM     96  F   UNL A   1      45.602  25.153  37.033  1.00  0.00    -0.200 F 
ATOM     97  F   UNL A   1      47.944  26.550  37.056  1.00  0.00    -0.200 F 
ENDBRANCH  64  87
ENDBRANCH  38  39
ENDBRANCH  31  33
ENDBRANCH  30  31
ENDBRANCH  29  30
ENDBRANCH   1  29
TORSDOF 17
ENDMDL
MODEL 2
REMARK VINA RESULT:     -12.2      0.550      2.759
REMARK SMILES COc1ccc(-c2nc(NCC(=O)OCCOC(=O)c3ccc(-c4c5nc(c(-c6c(F)c(F)c(F)c(F)c6F)c6ccc([nH]6)c(-c6c(F)c(F)c(F)c(F)c6F)c6nc(c(-c7c(F)c(F)c(F)c(F)c7F)c7ccc4[nH]7)C=C6)C=C5)cc3)sc2-c2ccc(OC)cc2)cc1
REMARK SMILES IDX 15 1 14 2 12 3 13 4 11 5 10 6 9 8 7 9 8 10 84 11 83 12 6 13
REMARK SMILES IDX 3 14 4 15 94 16 5 17 93 18 2 19 1 20 85 21 86 22 92 23 87 24
REMARK SMILES IDX 91 25 88 26 89 27 90 28 16 29 17 30 18 31 19 32 20 33 21 34
REMARK SMILES IDX 82 35 22 36 81 37 23 38 24 39 25 40 75 41 26 42 80 43 74 44
REMARK SMILES IDX 76 45 27 46 79 47 73 48 72 49 28 51 60 52 40 53 59 54 41 55
REMARK SMILES IDX 44 56 58 57 77 58 42 59 43 60 57 62 78 63 45 64 29 65 30 66
REMARK SMILES IDX 38 67 31 68 32 69 36 70 39 71 33 72 34 73 37 74 35 75 61 76
REMARK SMILES IDX 62 77 70 78 63 79 64 80 68 81 71 82 65 83 66 84 69 85 67 86
REMARK SMILES IDX 46 87 47 88 55 89 48 90 49 91 53 92 56 93 50 94 51 95 54 96
REMARK SMILES IDX 52 97
REMARK H PARENT 10 7 76 50 44 61
REMARK Flexibility Score: inf
ROOT
ATOM      1  C   UNL A   1      31.794  29.253  24.321  1.00  0.00     0.274 C 
ENDROOT
BRANCH   1   2
ATOM      2  O   UNL A   1      30.455  28.899  23.941  1.00  0.00    -0.461 OA
BRANCH   2   3
ATOM      3  C   UNL A   1      30.259  28.588  22.632  1.00  0.00     0.325 C 
ATOM      4  O   UNL A   1      29.517  29.197  21.868  1.00  0.00    -0.250 OA
BRANCH   3   5
ATOM      5  C   UNL A   1      31.041  27.354  22.211  1.00  0.00     0.238 C 
BRANCH   5   6
ATOM      6  N   UNL A   1      30.620  26.135  22.893  1.00  0.00    -0.351 N 
ATOM      7  H   UNL A   1      29.655  25.989  23.027  1.00  0.00     0.163 HD
BRANCH   6   8
ATOM      8  C   UNL A   1      31.474  25.197  23.351  1.00  0.00     0.184 A 
ATOM      9  C   UNL A   1      32.301  23.176  23.778  1.00  0.00     0.091 A 
ATOM     10  N   UNL A   1      31.218  23.908  23.302  1.00  0.00    -0.220 NA
ATOM     11  C   UNL A   1      33.411  23.930  24.121  1.00  0.00     0.064 A 
ATOM     12  S   UNL A   1      33.010  25.586  24.029  1.00  0.00    -0.096 S 
BRANCH   9  13
ATOM     13  C   UNL A   1      32.281  21.720  23.833  1.00  0.00     0.002 A 
ATOM     14  C   UNL A   1      32.466  18.916  23.920  1.00  0.00     0.118 A 
ATOM     15  C   UNL A   1      32.528  19.660  25.098  1.00  0.00     0.047 A 
ATOM     16  C   UNL A   1      32.252  19.567  22.704  1.00  0.00     0.047 A 
ATOM     17  C   UNL A   1      32.441  21.054  25.057  1.00  0.00     0.014 A 
ATOM     18  C   UNL A   1      32.154  20.966  22.662  1.00  0.00     0.014 A 
BRANCH  14  19
ATOM     19  O   UNL A   1      32.591  17.563  24.079  1.00  0.00    -0.497 OA
ATOM     20  C   UNL A   1      33.559  16.940  23.241  1.00  0.00     0.278 C 
ENDBRANCH  14  19
ENDBRANCH   9  13
BRANCH  11  21
ATOM     21  C   UNL A   1      34.789  23.567  24.444  1.00  0.00    -0.006 A 
ATOM     22  C   UNL A   1      35.621  22.957  23.499  1.00  0.00     0.013 A 
ATOM     23  C   UNL A   1      35.268  23.763  25.746  1.00  0.00     0.013 A 
ATOM     24  C   UNL A   1      36.900  22.532  23.862  1.00  0.00     0.047 A 
ATOM     25  C   UNL A   1      36.550  23.339  26.104  1.00  0.00     0.047 A 
ATOM     26  C   UNL A   1      37.369  22.717  25.164  1.00  0.00     0.118 A 
BRANCH  26  27
ATOM     27  O   UNL A   1      38.630  22.239  25.390  1.00  0.00    -0.497 OA
ATOM     28  C   UNL A   1      39.273  22.679  26.579  1.00  0.00     0.278 C 
ENDBRANCH  26  27
ENDBRANCH  11  21
ENDBRANCH   6   8
ENDBRANCH   5   6
ENDBRANCH   3   5
ENDBRANCH   2   3
ENDBRANCH   1   2
BRANCH   1  29
ATOM     29  C   UNL A   1      31.805  30.078  25.611  1.00  0.00     0.275 C 
BRANCH  29  30
ATOM     30  O   UNL A   1      33.085  30.043  26.275  1.00  0.00    -0.458 OA
BRANCH  30  31
ATOM     31  C   UNL A   1      33.414  31.161  26.965  1.00  0.00     0.338 C 
ATOM     32  O   UNL A   1      32.744  32.169  27.103  1.00  0.00    -0.246 OA
BRANCH  31  33
ATOM     33  C   UNL A   1      34.666  30.930  27.709  1.00  0.00     0.060 A 
ATOM     34  C   UNL A   1      34.924  29.632  28.159  1.00  0.00     0.016 A 
ATOM     35  C   UNL A   1      35.552  31.969  27.999  1.00  0.00     0.016 A 
ATOM     36  C   UNL A   1      36.075  29.359  28.889  1.00  0.00     0.010 A 
ATOM     37  C   UNL A   1      36.707  31.696  28.740  1.00  0.00     0.010 A 
ATOM     38  C   UNL A   1      36.975  30.390  29.187  1.00  0.00    -0.014 A 
BRANCH  38  39
ATOM     39  C   UNL A   1      38.185  30.096  29.986  1.00  0.00     0.031 A 
ATOM     40  C   UNL A   1      39.259  29.217  29.421  1.00  0.00     0.074 A 
ATOM     41  C   UNL A   1      38.324  30.640  31.209  1.00  0.00     0.049 A 
ATOM     42  N   UNL A   1      40.342  28.758  29.994  1.00  0.00    -0.248 NA
ATOM     43  C   UNL A   1      39.095  28.799  28.020  1.00  0.00     0.031 C 
ATOM     44  C   UNL A   1      37.371  31.556  31.834  1.00  0.00     0.029 A 
ATOM     45  N   UNL A   1      39.317  30.496  32.143  1.00  0.00    -0.354 N 
ATOM     46  C   UNL A   1      40.980  27.985  29.034  1.00  0.00     0.074 A 
ATOM     47  C   UNL A   1      40.157  28.026  27.843  1.00  0.00     0.031 C 
ATOM     48  C   UNL A   1      37.821  31.885  33.055  1.00  0.00     0.029 A 
ATOM     49  C   UNL A   1      39.065  31.166  33.315  1.00  0.00     0.049 A 
ATOM     50  H   UNL A   1      40.132  29.964  31.989  1.00  0.00     0.167 HD
ATOM     51  C   UNL A   1      42.146  27.306  29.143  1.00  0.00     0.037 A 
ATOM     52  C   UNL A   1      39.741  31.165  34.479  1.00  0.00     0.037 A 
ATOM     53  C   UNL A   1      42.962  27.279  30.330  1.00  0.00     0.049 A 
ATOM     54  C   UNL A   1      40.994  30.341  34.597  1.00  0.00     0.074 A 
ATOM     55  C   UNL A   1      44.164  26.626  30.538  1.00  0.00     0.029 A 
ATOM     56  N   UNL A   1      42.653  27.936  31.512  1.00  0.00    -0.354 N 
ATOM     57  N   UNL A   1      41.583  29.597  33.692  1.00  0.00    -0.248 NA
ATOM     58  C   UNL A   1      41.670  30.348  35.901  1.00  0.00     0.031 C 
ATOM     59  C   UNL A   1      44.562  26.853  31.861  1.00  0.00     0.029 A 
ATOM     60  C   UNL A   1      43.630  27.684  32.462  1.00  0.00     0.049 A 
ATOM     61  H   UNL A   1      41.857  28.498  31.655  1.00  0.00     0.167 HD
ATOM     62  C   UNL A   1      42.702  29.057  34.311  1.00  0.00     0.074 A 
ATOM     63  C   UNL A   1      42.722  29.576  35.663  1.00  0.00     0.031 C 
ATOM     64  C   UNL A   1      43.628  28.206  33.805  1.00  0.00     0.037 A 
BRANCH  51  65
ATOM     65  C   UNL A   1      42.593  26.506  27.956  1.00  0.00     0.064 A 
ATOM     66  C   UNL A   1      42.240  25.158  27.798  1.00  0.00     0.173 A 
ATOM     67  C   UNL A   1      43.360  27.107  26.946  1.00  0.00     0.173 A 
ATOM     68  F   UNL A   1      41.519  24.534  28.743  1.00  0.00    -0.203 F 
ATOM     69  C   UNL A   1      42.654  24.435  26.682  1.00  0.00     0.198 A 
ATOM     70  C   UNL A   1      43.752  26.388  25.821  1.00  0.00     0.198 A 
ATOM     71  F   UNL A   1      43.722  28.394  27.048  1.00  0.00    -0.203 F 
ATOM     72  F   UNL A   1      42.338  23.138  26.570  1.00  0.00    -0.200 F 
ATOM     73  C   UNL A   1      43.405  25.052  25.692  1.00  0.00     0.200 A 
ATOM     74  F   UNL A   1      44.469  26.989  24.861  1.00  0.00    -0.200 F 
ATOM     75  F   UNL A   1      43.799  24.357  24.616  1.00  0.00    -0.200 F 
ENDBRANCH  51  65
BRANCH  52  76
ATOM     76  C   UNL A   1      39.220  31.937  35.635  1.00  0.00     0.064 A 
ATOM     77  C   UNL A   1      38.359  31.351  36.571  1.00  0.00     0.173 A 
ATOM     78  C   UNL A   1      39.575  33.282  35.825  1.00  0.00     0.173 A 
ATOM     79  F   UNL A   1      37.970  30.077  36.416  1.00  0.00    -0.203 F 
ATOM     80  C   UNL A   1      37.864  32.083  37.649  1.00  0.00     0.198 A 
ATOM     81  C   UNL A   1      39.102  34.004  36.918  1.00  0.00     0.198 A 
ATOM     82  F   UNL A   1      40.394  33.891  34.955  1.00  0.00    -0.203 F 
ATOM     83  F   UNL A   1      37.010  31.510  38.508  1.00  0.00    -0.200 F 
ATOM     84  C   UNL A   1      38.242  33.405  37.827  1.00  0.00     0.200 A 
ATOM     85  F   UNL A   1      39.479  35.278  37.091  1.00  0.00    -0.200 F 
ATOM     86  F   UNL A   1      37.771  34.106  38.867  1.00  0.00    -0.200 F 
ENDBRANCH  52  76
BRANCH  64  87
ATOM     87  C   UNL A   1      44.745  27.794  34.717  1.00  0.00     0.064 A 
ATOM     88  C   UNL A   1      44.661  26.634  35.501  1.00  0.00     0.173 A 
ATOM     89  C   UNL A   1      45.924  28.551  34.785  1.00  0.00     0.173 A 
ATOM     90  F   UNL A   1      43.546  25.888  35.483  1.00  0.00    -0.203 F 
ATOM     91  C   UNL A   1      45.710  26.258  36.335  1.00  0.00     0.198 A 
ATOM     92  C   UNL A   1      46.980  28.158  35.601  1.00  0.00     0.198 A 
ATOM     93  F   UNL A   1      46.054  29.667  34.053  1.00  0.00    -0.203 F 
ATOM     94  F   UNL A   1      45.591  25.169  37.107  1.00  0.00    -0.200 F 
ATOM     95  C   UNL A   1      46.870  27.015  36.380  1.00  0.00     0.200 A 
ATOM     96  F   UNL A   1      48.105  28.885  35.636  1.00  0.00    -0.200 F 
ATOM     97  F   UNL A   1      47.881  26.650  37.181  1.00  0.00    -0.200 F 
ENDBRANCH  64  87
ENDBRANCH  38  39
ENDBRANCH  31  33
ENDBRANCH  30  31
ENDBRANCH  29  30
ENDBRANCH   1  29
TORSDOF 17
ENDMDL
MODEL 3
REMARK VINA RESULT:     -12.1      2.953      8.543
REMARK SMILES COc1ccc(-c2nc(NCC(=O)OCCOC(=O)c3ccc(-c4c5nc(c(-c6c(F)c(F)c(F)c(F)c6F)c6ccc([nH]6)c(-c6c(F)c(F)c(F)c(F)c6F)c6nc(c(-c7c(F)c(F)c(F)c(F)c7F)c7ccc4[nH]7)C=C6)C=C5)cc3)sc2-c2ccc(OC)cc2)cc1
REMARK SMILES IDX 15 1 14 2 12 3 13 4 11 5 10 6 9 8 7 9 8 10 84 11 83 12 6 13
REMARK SMILES IDX 3 14 4 15 94 16 5 17 93 18 2 19 1 20 85 21 86 22 92 23 87 24
REMARK SMILES IDX 91 25 88 26 89 27 90 28 16 29 17 30 18 31 19 32 20 33 21 34
REMARK SMILES IDX 82 35 22 36 81 37 23 38 24 39 25 40 75 41 26 42 80 43 74 44
REMARK SMILES IDX 76 45 27 46 79 47 73 48 72 49 28 51 60 52 40 53 59 54 41 55
REMARK SMILES IDX 44 56 58 57 77 58 42 59 43 60 57 62 78 63 45 64 29 65 30 66
REMARK SMILES IDX 38 67 31 68 32 69 36 70 39 71 33 72 34 73 37 74 35 75 61 76
REMARK SMILES IDX 62 77 70 78 63 79 64 80 68 81 71 82 65 83 66 84 69 85 67 86
REMARK SMILES IDX 46 87 47 88 55 89 48 90 49 91 53 92 56 93 50 94 51 95 54 96
REMARK SMILES IDX 52 97
REMARK H PARENT 10 7 76 50 44 61
REMARK Flexibility Score: inf
ROOT
ATOM      1  C   UNL A   1      42.955  20.140  25.847  1.00  0.00     0.274 C 
ENDROOT
BRANCH   1   2
ATOM      2  O   UNL A   1      41.894  20.467  26.758  1.00  0.00    -0.461 OA
BRANCH   2   3
ATOM      3  C   UNL A   1      40.626  20.252  26.312  1.00  0.00     0.325 C 
ATOM      4  O   UNL A   1      40.252  19.246  25.719  1.00  0.00    -0.250 OA
BRANCH   3   5
ATOM      5  C   UNL A   1      39.709  21.431  26.594  1.00  0.00     0.238 C 
BRANCH   5   6
ATOM      6  N   UNL A   1      39.102  21.997  25.395  1.00  0.00    -0.351 N 
ATOM      7  H   UNL A   1      39.676  22.512  24.784  1.00  0.00     0.163 HD
BRANCH   6   8
ATOM      8  C   UNL A   1      37.799  21.857  25.075  1.00  0.00     0.184 A 
ATOM      9  C   UNL A   1      35.814  20.878  24.839  1.00  0.00     0.091 A 
ATOM     10  N   UNL A   1      37.157  20.713  25.165  1.00  0.00    -0.220 NA
ATOM     11  C   UNL A   1      35.434  22.183  24.571  1.00  0.00     0.064 A 
ATOM     12  S   UNL A   1      36.824  23.172  24.537  1.00  0.00    -0.096 S 
BRANCH   9  13
ATOM     13  C   UNL A   1      34.875  19.764  24.857  1.00  0.00     0.002 A 
ATOM     14  C   UNL A   1      33.138  17.567  25.098  1.00  0.00     0.118 A 
ATOM     15  C   UNL A   1      32.729  18.834  25.512  1.00  0.00     0.047 A 
ATOM     16  C   UNL A   1      34.393  17.407  24.509  1.00  0.00     0.047 A 
ATOM     17  C   UNL A   1      33.592  19.926  25.398  1.00  0.00     0.014 A 
ATOM     18  C   UNL A   1      35.258  18.505  24.383  1.00  0.00     0.014 A 
BRANCH  14  19
ATOM     19  O   UNL A   1      32.222  16.568  25.285  1.00  0.00    -0.497 OA
ATOM     20  C   UNL A   1      32.770  15.286  25.569  1.00  0.00     0.278 C 
ENDBRANCH  14  19
ENDBRANCH   9  13
BRANCH  11  21
ATOM     21  C   UNL A   1      34.128  22.816  24.409  1.00  0.00    -0.006 A 
ATOM     22  C   UNL A   1      33.388  22.668  23.231  1.00  0.00     0.013 A 
ATOM     23  C   UNL A   1      33.634  23.649  25.421  1.00  0.00     0.013 A 
ATOM     24  C   UNL A   1      32.188  23.361  23.064  1.00  0.00     0.047 A 
ATOM     25  C   UNL A   1      32.430  24.339  25.253  1.00  0.00     0.047 A 
ATOM     26  C   UNL A   1      31.705  24.201  24.070  1.00  0.00     0.118 A 
BRANCH  26  27
ATOM     27  O   UNL A   1      30.530  24.833  23.772  1.00  0.00    -0.497 OA
ATOM     28  C   UNL A   1      30.028  25.734  24.750  1.00  0.00     0.278 C 
ENDBRANCH  26  27
ENDBRANCH  11  21
ENDBRANCH   6   8
ENDBRANCH   5   6
ENDBRANCH   3   5
ENDBRANCH   2   3
ENDBRANCH   1   2
BRANCH   1  29
ATOM     29  C   UNL A   1      43.743  21.390  25.443  1.00  0.00     0.275 C 
BRANCH  29  30
ATOM     30  O   UNL A   1      42.893  22.543  25.274  1.00  0.00    -0.458 OA
BRANCH  30  31
ATOM     31  C   UNL A   1      43.536  23.733  25.189  1.00  0.00     0.338 C 
ATOM     32  O   UNL A   1      44.281  24.109  24.302  1.00  0.00    -0.246 OA
BRANCH  31  33
ATOM     33  C   UNL A   1      43.063  24.625  26.263  1.00  0.00     0.060 A 
ATOM     34  C   UNL A   1      43.594  25.918  26.314  1.00  0.00     0.016 A 
ATOM     35  C   UNL A   1      42.152  24.196  27.229  1.00  0.00     0.016 A 
ATOM     36  C   UNL A   1      43.207  26.796  27.320  1.00  0.00     0.010 A 
ATOM     37  C   UNL A   1      41.768  25.077  28.246  1.00  0.00     0.010 A 
ATOM     38  C   UNL A   1      42.293  26.381  28.296  1.00  0.00    -0.014 A 
BRANCH  38  39
ATOM     39  C   UNL A   1      41.905  27.313  29.378  1.00  0.00     0.031 A 
ATOM     40  C   UNL A   1      42.681  27.336  30.659  1.00  0.00     0.074 A 
ATOM     41  C   UNL A   1      40.870  28.153  29.194  1.00  0.00     0.049 A 
ATOM     42  N   UNL A   1      42.444  28.001  31.761  1.00  0.00    -0.248 NA
ATOM     43  C   UNL A   1      43.890  26.500  30.709  1.00  0.00     0.031 C 
ATOM     44  C   UNL A   1      40.082  28.258  27.967  1.00  0.00     0.029 A 
ATOM     45  N   UNL A   1      40.302  29.069  30.040  1.00  0.00    -0.354 N 
ATOM     46  C   UNL A   1      43.460  27.652  32.640  1.00  0.00     0.074 A 
ATOM     47  C   UNL A   1      44.312  26.707  31.949  1.00  0.00     0.031 C 
ATOM     48  C   UNL A   1      39.124  29.183  28.143  1.00  0.00     0.029 A 
ATOM     49  C   UNL A   1      39.202  29.695  29.508  1.00  0.00     0.049 A 
ATOM     50  H   UNL A   1      40.650  29.262  30.942  1.00  0.00     0.167 HD
ATOM     51  C   UNL A   1      43.658  28.086  33.907  1.00  0.00     0.037 A 
ATOM     52  C   UNL A   1      38.332  30.553  30.073  1.00  0.00     0.037 A 
ATOM     53  C   UNL A   1      42.809  29.034  34.582  1.00  0.00     0.049 A 
ATOM     54  C   UNL A   1      38.533  30.961  31.507  1.00  0.00     0.074 A 
ATOM     55  C   UNL A   1      42.929  29.542  35.864  1.00  0.00     0.029 A 
ATOM     56  N   UNL A   1      41.679  29.615  34.026  1.00  0.00    -0.354 N 
ATOM     57  N   UNL A   1      39.485  30.614  32.340  1.00  0.00    -0.248 NA
ATOM     58  C   UNL A   1      37.533  31.870  32.083  1.00  0.00     0.031 C 
ATOM     59  C   UNL A   1      41.847  30.399  36.098  1.00  0.00     0.029 A 
ATOM     60  C   UNL A   1      41.078  30.458  34.947  1.00  0.00     0.049 A 
ATOM     61  H   UNL A   1      41.352  29.452  33.112  1.00  0.00     0.167 HD
ATOM     62  C   UNL A   1      39.207  31.268  33.532  1.00  0.00     0.074 A 
ATOM     63  C   UNL A   1      38.008  32.050  33.308  1.00  0.00     0.031 C 
ATOM     64  C   UNL A   1      39.881  31.223  34.706  1.00  0.00     0.037 A 
BRANCH  51  65
ATOM     65  C   UNL A   1      44.820  27.512  34.660  1.00  0.00     0.064 A 
ATOM     66  C   UNL A   1      46.056  28.171  34.727  1.00  0.00     0.173 A 
ATOM     67  C   UNL A   1      44.685  26.298  35.351  1.00  0.00     0.173 A 
ATOM     68  F   UNL A   1      46.241  29.327  34.071  1.00  0.00    -0.203 F 
ATOM     69  C   UNL A   1      47.120  27.627  35.443  1.00  0.00     0.198 A 
ATOM     70  C   UNL A   1      45.743  25.769  36.085  1.00  0.00     0.198 A 
ATOM     71  F   UNL A   1      43.523  25.629  35.321  1.00  0.00    -0.203 F 
ATOM     72  F   UNL A   1      48.304  28.254  35.461  1.00  0.00    -0.200 F 
ATOM     73  C   UNL A   1      46.961  26.430  36.125  1.00  0.00     0.200 A 
ATOM     74  F   UNL A   1      45.584  24.618  36.752  1.00  0.00    -0.200 F 
ATOM     75  F   UNL A   1      47.984  25.910  36.817  1.00  0.00    -0.200 F 
ENDBRANCH  51  65
BRANCH  52  76
ATOM     76  C   UNL A   1      37.170  31.048  29.292  1.00  0.00     0.064 A 
ATOM     77  C   UNL A   1      36.074  30.221  29.018  1.00  0.00     0.173 A 
ATOM     78  C   UNL A   1      37.136  32.363  28.802  1.00  0.00     0.173 A 
ATOM     79  F   UNL A   1      36.074  28.949  29.442  1.00  0.00    -0.203 F 
ATOM     80  C   UNL A   1      34.991  30.686  28.275  1.00  0.00     0.198 A 
ATOM     81  C   UNL A   1      36.041  32.835  28.083  1.00  0.00     0.198 A 
ATOM     82  F   UNL A   1      38.163  33.194  29.033  1.00  0.00    -0.203 F 
ATOM     83  F   UNL A   1      33.972  29.862  27.993  1.00  0.00    -0.200 F 
ATOM     84  C   UNL A   1      34.971  31.994  27.815  1.00  0.00     0.200 A 
ATOM     85  F   UNL A   1      36.021  34.103  27.651  1.00  0.00    -0.200 F 
ATOM     86  F   UNL A   1      33.926  32.442  27.107  1.00  0.00    -0.200 F 
ENDBRANCH  52  76
BRANCH  64  87
ATOM     87  C   UNL A   1      39.343  32.053  35.834  1.00  0.00     0.064 A 
ATOM     88  C   UNL A   1      38.412  31.534  36.745  1.00  0.00     0.173 A 
ATOM     89  C   UNL A   1      39.787  33.370  36.024  1.00  0.00     0.173 A 
ATOM     90  F   UNL A   1      37.944  30.285  36.594  1.00  0.00    -0.203 F 
ATOM     91  C   UNL A   1      37.928  32.312  37.793  1.00  0.00     0.198 A 
ATOM     92  C   UNL A   1      39.320  34.136  37.088  1.00  0.00     0.198 A 
ATOM     93  F   UNL A   1      40.680  33.911  35.181  1.00  0.00    -0.203 F 
ATOM     94  F   UNL A   1      37.006  31.810  38.626  1.00  0.00    -0.200 F 
ATOM     95  C   UNL A   1      38.387  33.608  37.968  1.00  0.00     0.200 A 
ATOM     96  F   UNL A   1      39.772  35.385  37.261  1.00  0.00    -0.200 F 
ATOM     97  F   UNL A   1      37.924  34.354  38.980  1.00  0.00    -0.200 F 
ENDBRANCH  64  87
ENDBRANCH  38  39
ENDBRANCH  31  33
ENDBRANCH  30  31
ENDBRANCH  29  30
ENDBRANCH   1  29
TORSDOF 17
ENDMDL
