MODEL 1
REMARK VINA RESULT:     -12.8      0.000      0.000
REMARK SMILES Cc1ccccc1[C@@H](CC(=O)OCCOC(=O)c1ccc(-c2c3nc(c(-c4c(F)c(F)c(F)c(F)c4F)c4ccc([nH]4)c(-c4c(F)c(F)c(F)c(F)c4F)c4nc(c(-c5c(F)c(F)c(F)c(F)c5F)c5ccc2[nH]5)C=C4)C=C3)cc1)NC(=O)C(F)(F)F
REMARK SMILES IDX 13 1 12 2 10 3 11 4 9 5 8 6 7 7 1 8 2 9 3 10 4 11 6 12 5 13
REMARK SMILES IDX 81 14 82 15 83 17 84 18 85 19 86 20 87 21 14 22 15 23 16 24
REMARK SMILES IDX 17 25 18 26 19 27 80 28 20 29 79 30 21 31 22 32 23 33 73 34
REMARK SMILES IDX 24 35 78 36 72 37 74 38 25 39 77 40 71 41 70 42 26 44 58 45
REMARK SMILES IDX 38 46 57 47 39 48 42 49 56 50 75 51 40 52 41 53 55 55 76 56
REMARK SMILES IDX 43 57 27 58 28 59 36 60 29 61 30 62 34 63 37 64 31 65 32 66
REMARK SMILES IDX 35 67 33 68 59 69 60 70 68 71 61 72 62 73 66 74 69 75 63 76
REMARK SMILES IDX 64 77 67 78 65 79 44 80 45 81 53 82 46 83 47 84 51 85 54 86
REMARK SMILES IDX 48 87 49 88 52 89 50 90
REMARK H PARENT 81 16 74 43 42 54
REMARK Flexibility Score: inf
ROOT
ATOM      1  C   UNL A   1      32.513  28.428  27.173  1.00  0.00     0.274 C 
ENDROOT
BRANCH   1   2
ATOM      2  O   UNL A   1      33.121  27.403  26.391  1.00  0.00    -0.462 OA
BRANCH   2   3
ATOM      3  C   UNL A   1      32.313  26.395  25.960  1.00  0.00     0.308 C 
ATOM      4  O   UNL A   1      31.141  26.513  25.683  1.00  0.00    -0.252 OA
BRANCH   3   5
ATOM      5  C   UNL A   1      33.111  25.103  25.877  1.00  0.00     0.152 C 
BRANCH   5   6
ATOM      6  C   UNL A   1      33.510  24.768  24.424  1.00  0.00     0.124 C 
BRANCH   6   7
ATOM      7  C   UNL A   1      34.623  23.715  24.492  1.00  0.00    -0.022 A 
ATOM      8  C   UNL A   1      33.052  21.835  23.750  1.00  0.00     0.045 C 
ATOM      9  C   UNL A   1      34.272  22.346  24.470  1.00  0.00    -0.046 A 
ATOM     10  C   UNL A   1      35.102  21.420  25.120  1.00  0.00     0.004 A 
ATOM     11  C   UNL A   1      36.271  21.830  25.757  1.00  0.00     0.000 A 
ATOM     12  C   UNL A   1      35.900  24.075  24.972  1.00  0.00     0.006 A 
ATOM     13  C   UNL A   1      36.693  23.146  25.645  1.00  0.00     0.000 A 
ENDBRANCH   6   7
BRANCH   6  14
ATOM     14  N   UNL A   1      33.845  25.974  23.670  1.00  0.00    -0.341 N 
ATOM     15  C   UNL A   1      33.518  26.278  22.365  1.00  0.00     0.326 C 
ATOM     16  H   UNL A   1      34.369  26.653  24.152  1.00  0.00     0.164 HD
ATOM     17  O   UNL A   1      33.937  27.343  21.901  1.00  0.00    -0.265 OA
BRANCH  15  18
ATOM     18  C   UNL A   1      32.662  25.285  21.551  1.00  0.00     0.471 C 
ATOM     19  F   UNL A   1      31.426  25.106  22.101  1.00  0.00    -0.162 F 
ATOM     20  F   UNL A   1      32.442  25.732  20.279  1.00  0.00    -0.162 F 
ATOM     21  F   UNL A   1      33.214  24.048  21.435  1.00  0.00    -0.162 F 
ENDBRANCH  15  18
ENDBRANCH   6  14
ENDBRANCH   5   6
ENDBRANCH   3   5
ENDBRANCH   2   3
ENDBRANCH   1   2
BRANCH   1  22
ATOM     22  C   UNL A   1      33.422  29.664  27.157  1.00  0.00     0.275 C 
BRANCH  22  23
ATOM     23  O   UNL A   1      34.627  29.669  28.005  1.00  0.00    -0.458 OA
BRANCH  23  24
ATOM     24  C   UNL A   1      35.732  30.467  27.988  1.00  0.00     0.338 C 
ATOM     25  O   UNL A   1      35.675  31.654  27.702  1.00  0.00    -0.246 OA
BRANCH  24  26
ATOM     26  C   UNL A   1      37.016  29.876  28.406  1.00  0.00     0.060 A 
ATOM     27  C   UNL A   1      37.115  29.092  29.574  1.00  0.00     0.016 A 
ATOM     28  C   UNL A   1      38.059  29.933  27.509  1.00  0.00     0.016 A 
ATOM     29  C   UNL A   1      38.205  28.230  29.749  1.00  0.00     0.010 A 
ATOM     30  C   UNL A   1      38.972  28.918  27.557  1.00  0.00     0.010 A 
ATOM     31  C   UNL A   1      39.112  28.111  28.700  1.00  0.00    -0.014 A 
BRANCH  31  32
ATOM     32  C   UNL A   1      40.395  27.407  28.715  1.00  0.00     0.031 A 
ATOM     33  C   UNL A   1      40.592  25.981  28.388  1.00  0.00     0.074 A 
ATOM     34  C   UNL A   1      41.426  28.271  28.895  1.00  0.00     0.049 A 
ATOM     35  N   UNL A   1      41.731  25.393  28.512  1.00  0.00    -0.248 NA
ATOM     36  C   UNL A   1      39.565  25.081  27.884  1.00  0.00     0.031 C 
ATOM     37  C   UNL A   1      42.860  28.133  28.747  1.00  0.00     0.029 A 
ATOM     38  N   UNL A   1      41.286  29.571  29.428  1.00  0.00    -0.354 N 
ATOM     39  C   UNL A   1      41.667  24.145  27.925  1.00  0.00     0.074 A 
ATOM     40  C   UNL A   1      40.279  23.990  27.566  1.00  0.00     0.031 C 
ATOM     41  C   UNL A   1      43.446  29.083  29.510  1.00  0.00     0.029 A 
ATOM     42  C   UNL A   1      42.390  29.762  30.258  1.00  0.00     0.049 A 
ATOM     43  H   UNL A   1      40.560  30.211  29.250  1.00  0.00     0.167 HD
ATOM     44  C   UNL A   1      42.840  23.460  27.768  1.00  0.00     0.037 A 
ATOM     45  C   UNL A   1      42.128  29.697  31.599  1.00  0.00     0.037 A 
ATOM     46  C   UNL A   1      43.896  24.133  28.529  1.00  0.00     0.049 A 
ATOM     47  C   UNL A   1      42.720  28.446  32.211  1.00  0.00     0.074 A 
ATOM     48  C   UNL A   1      44.846  25.091  28.226  1.00  0.00     0.029 A 
ATOM     49  N   UNL A   1      43.791  24.117  29.907  1.00  0.00    -0.354 N 
ATOM     50  N   UNL A   1      43.186  27.446  31.513  1.00  0.00    -0.248 NA
ATOM     51  C   UNL A   1      42.786  28.202  33.647  1.00  0.00     0.031 C 
ATOM     52  C   UNL A   1      45.206  25.742  29.450  1.00  0.00     0.029 A 
ATOM     53  C   UNL A   1      44.498  25.154  30.486  1.00  0.00     0.049 A 
ATOM     54  H   UNL A   1      43.276  23.449  30.414  1.00  0.00     0.167 HD
ATOM     55  C   UNL A   1      43.675  26.494  32.348  1.00  0.00     0.074 A 
ATOM     56  C   UNL A   1      43.347  26.981  33.678  1.00  0.00     0.031 C 
ATOM     57  C   UNL A   1      44.337  25.385  31.912  1.00  0.00     0.037 A 
BRANCH  44  58
ATOM     58  C   UNL A   1      43.122  22.268  26.873  1.00  0.00     0.064 A 
ATOM     59  C   UNL A   1      42.392  21.067  27.059  1.00  0.00     0.173 A 
ATOM     60  C   UNL A   1      44.103  22.198  25.866  1.00  0.00     0.173 A 
ATOM     61  F   UNL A   1      41.399  20.983  27.955  1.00  0.00    -0.203 F 
ATOM     62  C   UNL A   1      42.657  19.895  26.342  1.00  0.00     0.198 A 
ATOM     63  C   UNL A   1      44.380  21.018  25.159  1.00  0.00     0.198 A 
ATOM     64  F   UNL A   1      44.811  23.267  25.496  1.00  0.00    -0.203 F 
ATOM     65  F   UNL A   1      41.933  18.791  26.579  1.00  0.00    -0.200 F 
ATOM     66  C   UNL A   1      43.662  19.865  25.401  1.00  0.00     0.200 A 
ATOM     67  F   UNL A   1      45.352  21.010  24.234  1.00  0.00    -0.200 F 
ATOM     68  F   UNL A   1      43.929  18.740  24.725  1.00  0.00    -0.200 F 
ENDBRANCH  44  58
BRANCH  45  69
ATOM     69  C   UNL A   1      40.795  30.307  31.969  1.00  0.00     0.064 A 
ATOM     70  C   UNL A   1      39.743  29.446  32.373  1.00  0.00     0.173 A 
ATOM     71  C   UNL A   1      40.623  31.668  32.254  1.00  0.00     0.173 A 
ATOM     72  F   UNL A   1      39.829  28.125  32.138  1.00  0.00    -0.203 F 
ATOM     73  C   UNL A   1      38.664  29.898  33.132  1.00  0.00     0.198 A 
ATOM     74  C   UNL A   1      39.512  32.127  32.975  1.00  0.00     0.198 A 
ATOM     75  F   UNL A   1      41.563  32.562  31.916  1.00  0.00    -0.203 F 
ATOM     76  F   UNL A   1      37.776  29.022  33.626  1.00  0.00    -0.200 F 
ATOM     77  C   UNL A   1      38.556  31.239  33.445  1.00  0.00     0.200 A 
ATOM     78  F   UNL A   1      39.416  33.426  33.293  1.00  0.00    -0.200 F 
ATOM     79  F   UNL A   1      37.562  31.668  34.237  1.00  0.00    -0.200 F 
ENDBRANCH  45  69
BRANCH  57  80
ATOM     80  C   UNL A   1      44.917  24.425  32.888  1.00  0.00     0.064 A 
ATOM     81  C   UNL A   1      46.189  24.637  33.440  1.00  0.00     0.173 A 
ATOM     82  C   UNL A   1      44.255  23.237  33.238  1.00  0.00     0.173 A 
ATOM     83  F   UNL A   1      46.909  25.719  33.104  1.00  0.00    -0.203 F 
ATOM     84  C   UNL A   1      46.734  23.745  34.356  1.00  0.00     0.198 A 
ATOM     85  C   UNL A   1      44.834  22.313  34.100  1.00  0.00     0.198 A 
ATOM     86  F   UNL A   1      43.025  22.960  32.780  1.00  0.00    -0.203 F 
ATOM     87  F   UNL A   1      47.910  24.024  34.933  1.00  0.00    -0.200 F 
ATOM     88  C   UNL A   1      46.061  22.578  34.677  1.00  0.00     0.200 A 
ATOM     89  F   UNL A   1      44.187  21.173  34.380  1.00  0.00    -0.200 F 
ATOM     90  F   UNL A   1      46.591  21.716  35.553  1.00  0.00    -0.200 F 
ENDBRANCH  57  80
ENDBRANCH  31  32
ENDBRANCH  24  26
ENDBRANCH  23  24
ENDBRANCH  22  23
ENDBRANCH   1  22
TORSDOF 15
ENDMDL
MODEL 2
REMARK VINA RESULT:     -12.6      1.403      1.990
REMARK SMILES Cc1ccccc1[C@@H](CC(=O)OCCOC(=O)c1ccc(-c2c3nc(c(-c4c(F)c(F)c(F)c(F)c4F)c4ccc([nH]4)c(-c4c(F)c(F)c(F)c(F)c4F)c4nc(c(-c5c(F)c(F)c(F)c(F)c5F)c5ccc2[nH]5)C=C4)C=C3)cc1)NC(=O)C(F)(F)F
REMARK SMILES IDX 13 1 12 2 10 3 11 4 9 5 8 6 7 7 1 8 2 9 3 10 4 11 6 12 5 13
REMARK SMILES IDX 81 14 82 15 83 17 84 18 85 19 86 20 87 21 14 22 15 23 16 24
REMARK SMILES IDX 17 25 18 26 19 27 80 28 20 29 79 30 21 31 22 32 23 33 73 34
REMARK SMILES IDX 24 35 78 36 72 37 74 38 25 39 77 40 71 41 70 42 26 44 58 45
REMARK SMILES IDX 38 46 57 47 39 48 42 49 56 50 75 51 40 52 41 53 55 55 76 56
REMARK SMILES IDX 43 57 27 58 28 59 36 60 29 61 30 62 34 63 37 64 31 65 32 66
REMARK SMILES IDX 35 67 33 68 59 69 60 70 68 71 61 72 62 73 66 74 69 75 63 76
REMARK SMILES IDX 64 77 67 78 65 79 44 80 45 81 53 82 46 83 47 84 51 85 54 86
REMARK SMILES IDX 48 87 49 88 52 89 50 90
REMARK H PARENT 81 16 74 43 42 54
REMARK Flexibility Score: inf
ROOT
ATOM      1  C   UNL A   1      32.949  29.038  25.911  1.00  0.00     0.274 C 
ENDROOT
BRANCH   1   2
ATOM      2  O   UNL A   1      33.828  27.937  25.693  1.00  0.00    -0.462 OA
BRANCH   2   3
ATOM      3  C   UNL A   1      33.339  26.695  25.960  1.00  0.00     0.308 C 
ATOM      4  O   UNL A   1      32.319  26.465  26.569  1.00  0.00    -0.252 OA
BRANCH   3   5
ATOM      5  C   UNL A   1      34.269  25.644  25.374  1.00  0.00     0.152 C 
BRANCH   5   6
ATOM      6  C   UNL A   1      33.599  24.255  25.313  1.00  0.00     0.124 C 
BRANCH   6   7
ATOM      7  C   UNL A   1      34.680  23.249  24.898  1.00  0.00    -0.022 A 
ATOM      8  C   UNL A   1      34.648  22.094  27.182  1.00  0.00     0.045 C 
ATOM      9  C   UNL A   1      35.328  22.491  25.899  1.00  0.00    -0.046 A 
ATOM     10  C   UNL A   1      36.648  22.066  25.683  1.00  0.00     0.004 A 
ATOM     11  C   UNL A   1      37.309  22.359  24.492  1.00  0.00     0.000 A 
ATOM     12  C   UNL A   1      35.297  23.365  23.635  1.00  0.00     0.006 A 
ATOM     13  C   UNL A   1      36.621  22.967  23.452  1.00  0.00     0.000 A 
ENDBRANCH   6   7
BRANCH   6  14
ATOM     14  N   UNL A   1      32.411  24.272  24.462  1.00  0.00    -0.341 N 
ATOM     15  C   UNL A   1      31.247  23.548  24.614  1.00  0.00     0.326 C 
ATOM     16  H   UNL A   1      32.445  24.874  23.684  1.00  0.00     0.164 HD
ATOM     17  O   UNL A   1      30.372  23.680  23.754  1.00  0.00    -0.265 OA
BRANCH  15  18
ATOM     18  C   UNL A   1      31.095  22.610  25.831  1.00  0.00     0.471 C 
ATOM     19  F   UNL A   1      31.430  23.232  26.999  1.00  0.00    -0.162 F 
ATOM     20  F   UNL A   1      29.804  22.192  25.989  1.00  0.00    -0.162 F 
ATOM     21  F   UNL A   1      31.858  21.488  25.761  1.00  0.00    -0.162 F 
ENDBRANCH  15  18
ENDBRANCH   6  14
ENDBRANCH   5   6
ENDBRANCH   3   5
ENDBRANCH   2   3
ENDBRANCH   1   2
BRANCH   1  22
ATOM     22  C   UNL A   1      33.548  29.937  27.001  1.00  0.00     0.275 C 
BRANCH  22  23
ATOM     23  O   UNL A   1      34.943  29.711  27.420  1.00  0.00    -0.458 OA
BRANCH  23  24
ATOM     24  C   UNL A   1      35.789  30.473  28.169  1.00  0.00     0.338 C 
ATOM     25  O   UNL A   1      35.478  31.582  28.577  1.00  0.00    -0.246 OA
BRANCH  24  26
ATOM     26  C   UNL A   1      37.086  29.889  28.552  1.00  0.00     0.060 A 
ATOM     27  C   UNL A   1      37.228  29.134  29.736  1.00  0.00     0.016 A 
ATOM     28  C   UNL A   1      38.094  29.920  27.615  1.00  0.00     0.016 A 
ATOM     29  C   UNL A   1      38.323  28.273  29.890  1.00  0.00     0.010 A 
ATOM     30  C   UNL A   1      39.006  28.903  27.653  1.00  0.00     0.010 A 
ATOM     31  C   UNL A   1      39.189  28.125  28.810  1.00  0.00    -0.014 A 
BRANCH  31  32
ATOM     32  C   UNL A   1      40.470  27.418  28.793  1.00  0.00     0.031 A 
ATOM     33  C   UNL A   1      40.655  25.991  28.466  1.00  0.00     0.074 A 
ATOM     34  C   UNL A   1      41.508  28.280  28.944  1.00  0.00     0.049 A 
ATOM     35  N   UNL A   1      41.795  25.400  28.562  1.00  0.00    -0.248 NA
ATOM     36  C   UNL A   1      39.613  25.092  27.991  1.00  0.00     0.031 C 
ATOM     37  C   UNL A   1      42.937  28.138  28.760  1.00  0.00     0.029 A 
ATOM     38  N   UNL A   1      41.385  29.581  29.478  1.00  0.00    -0.354 N 
ATOM     39  C   UNL A   1      41.713  24.151  27.980  1.00  0.00     0.074 A 
ATOM     40  C   UNL A   1      40.315  23.999  27.657  1.00  0.00     0.031 C 
ATOM     41  C   UNL A   1      43.545  29.088  29.504  1.00  0.00     0.029 A 
ATOM     42  C   UNL A   1      42.510  29.772  30.278  1.00  0.00     0.049 A 
ATOM     43  H   UNL A   1      40.655  30.223  29.317  1.00  0.00     0.167 HD
ATOM     44  C   UNL A   1      42.879  23.462  27.794  1.00  0.00     0.037 A 
ATOM     45  C   UNL A   1      42.283  29.712  31.626  1.00  0.00     0.037 A 
ATOM     46  C   UNL A   1      43.956  24.135  28.525  1.00  0.00     0.049 A 
ATOM     47  C   UNL A   1      42.888  28.461  32.225  1.00  0.00     0.074 A 
ATOM     48  C   UNL A   1      44.901  25.090  28.195  1.00  0.00     0.029 A 
ATOM     49  N   UNL A   1      43.887  24.123  29.905  1.00  0.00    -0.354 N 
ATOM     50  N   UNL A   1      43.333  27.457  31.518  1.00  0.00    -0.248 NA
ATOM     51  C   UNL A   1      42.991  28.220  33.660  1.00  0.00     0.031 C 
ATOM     52  C   UNL A   1      45.295  25.743  29.408  1.00  0.00     0.029 A 
ATOM     53  C   UNL A   1      44.612  25.159  30.463  1.00  0.00     0.049 A 
ATOM     54  H   UNL A   1      43.384  23.457  30.428  1.00  0.00     0.167 HD
ATOM     55  C   UNL A   1      43.841  26.506  32.342  1.00  0.00     0.074 A 
ATOM     56  C   UNL A   1      43.549  26.998  33.680  1.00  0.00     0.031 C 
ATOM     57  C   UNL A   1      44.489  25.395  31.892  1.00  0.00     0.037 A 
BRANCH  44  58
ATOM     58  C   UNL A   1      43.136  22.267  26.895  1.00  0.00     0.064 A 
ATOM     59  C   UNL A   1      42.397  21.073  27.093  1.00  0.00     0.173 A 
ATOM     60  C   UNL A   1      44.099  22.187  25.873  1.00  0.00     0.173 A 
ATOM     61  F   UNL A   1      41.417  21.000  28.005  1.00  0.00    -0.203 F 
ATOM     62  C   UNL A   1      42.638  19.899  26.373  1.00  0.00     0.198 A 
ATOM     63  C   UNL A   1      44.352  21.004  25.162  1.00  0.00     0.198 A 
ATOM     64  F   UNL A   1      44.811  23.249  25.491  1.00  0.00    -0.203 F 
ATOM     65  F   UNL A   1      41.907  18.802  26.622  1.00  0.00    -0.200 F 
ATOM     66  C   UNL A   1      43.627  19.859  25.415  1.00  0.00     0.200 A 
ATOM     67  F   UNL A   1      45.310  20.986  24.222  1.00  0.00    -0.200 F 
ATOM     68  F   UNL A   1      43.873  18.730  24.736  1.00  0.00    -0.200 F 
ENDBRANCH  44  58
BRANCH  45  69
ATOM     69  C   UNL A   1      40.961  30.326  32.028  1.00  0.00     0.064 A 
ATOM     70  C   UNL A   1      39.921  29.469  32.469  1.00  0.00     0.173 A 
ATOM     71  C   UNL A   1      40.799  31.689  32.306  1.00  0.00     0.173 A 
ATOM     72  F   UNL A   1      39.999  28.146  32.244  1.00  0.00    -0.203 F 
ATOM     73  C   UNL A   1      38.865  29.929  33.256  1.00  0.00     0.198 A 
ATOM     74  C   UNL A   1      39.709  32.155  33.055  1.00  0.00     0.198 A 
ATOM     75  F   UNL A   1      41.730  32.579  31.934  1.00  0.00    -0.203 F 
ATOM     76  F   UNL A   1      37.991  29.057  33.782  1.00  0.00    -0.200 F 
ATOM     77  C   UNL A   1      38.767  31.272  33.560  1.00  0.00     0.200 A 
ATOM     78  F   UNL A   1      39.623  33.457  33.365  1.00  0.00    -0.200 F 
ATOM     79  F   UNL A   1      37.797  31.709  34.376  1.00  0.00    -0.200 F 
ENDBRANCH  45  69
BRANCH  57  80
ATOM     80  C   UNL A   1      45.092  24.436  32.855  1.00  0.00     0.064 A 
ATOM     81  C   UNL A   1      44.389  23.298  33.276  1.00  0.00     0.173 A 
ATOM     82  C   UNL A   1      46.349  24.666  33.438  1.00  0.00     0.173 A 
ATOM     83  F   UNL A   1      43.156  23.044  32.811  1.00  0.00    -0.203 F 
ATOM     84  C   UNL A   1      44.949  22.396  34.174  1.00  0.00     0.198 A 
ATOM     85  C   UNL A   1      46.877  23.800  34.388  1.00  0.00     0.198 A 
ATOM     86  F   UNL A   1      47.106  25.714  33.079  1.00  0.00    -0.203 F 
ATOM     87  F   UNL A   1      44.289  21.273  34.484  1.00  0.00    -0.200 F 
ATOM     88  C   UNL A   1      46.189  22.653  34.737  1.00  0.00     0.200 A 
ATOM     89  F   UNL A   1      48.063  24.074  34.949  1.00  0.00    -0.200 F 
ATOM     90  F   UNL A   1      46.723  21.788  35.607  1.00  0.00    -0.200 F 
ENDBRANCH  57  80
ENDBRANCH  31  32
ENDBRANCH  24  26
ENDBRANCH  23  24
ENDBRANCH  22  23
ENDBRANCH   1  22
TORSDOF 15
ENDMDL
MODEL 3
REMARK VINA RESULT:     -12.5      3.955     10.130
REMARK SMILES Cc1ccccc1[C@@H](CC(=O)OCCOC(=O)c1ccc(-c2c3nc(c(-c4c(F)c(F)c(F)c(F)c4F)c4ccc([nH]4)c(-c4c(F)c(F)c(F)c(F)c4F)c4nc(c(-c5c(F)c(F)c(F)c(F)c5F)c5ccc2[nH]5)C=C4)C=C3)cc1)NC(=O)C(F)(F)F
REMARK SMILES IDX 13 1 12 2 10 3 11 4 9 5 8 6 7 7 1 8 2 9 3 10 4 11 6 12 5 13
REMARK SMILES IDX 81 14 82 15 83 17 84 18 85 19 86 20 87 21 14 22 15 23 16 24
REMARK SMILES IDX 17 25 18 26 19 27 80 28 20 29 79 30 21 31 22 32 23 33 73 34
REMARK SMILES IDX 24 35 78 36 72 37 74 38 25 39 77 40 71 41 70 42 26 44 58 45
REMARK SMILES IDX 38 46 57 47 39 48 42 49 56 50 75 51 40 52 41 53 55 55 76 56
REMARK SMILES IDX 43 57 27 58 28 59 36 60 29 61 30 62 34 63 37 64 31 65 32 66
REMARK SMILES IDX 35 67 33 68 59 69 60 70 68 71 61 72 62 73 66 74 69 75 63 76
REMARK SMILES IDX 64 77 67 78 65 79 44 80 45 81 53 82 46 83 47 84 51 85 54 86
REMARK SMILES IDX 48 87 49 88 52 89 50 90
REMARK H PARENT 81 16 74 43 42 54
REMARK Flexibility Score: inf
ROOT
ATOM      1  C   UNL A   1      36.738  23.077  24.072  1.00  0.00     0.274 C 
ENDROOT
BRANCH   1   2
ATOM      2  O   UNL A   1      35.689  23.934  24.519  1.00  0.00    -0.462 OA
BRANCH   2   3
ATOM      3  C   UNL A   1      34.418  23.581  24.181  1.00  0.00     0.308 C 
ATOM      4  O   UNL A   1      34.022  22.445  24.057  1.00  0.00    -0.252 OA
BRANCH   3   5
ATOM      5  C   UNL A   1      33.576  24.832  23.987  1.00  0.00     0.152 C 
BRANCH   5   6
ATOM      6  C   UNL A   1      32.573  25.033  25.143  1.00  0.00     0.124 C 
BRANCH   6   7
ATOM      7  C   UNL A   1      32.564  26.530  25.480  1.00  0.00    -0.022 A 
ATOM      8  C   UNL A   1      30.330  26.903  24.287  1.00  0.00     0.045 C 
ATOM      9  C   UNL A   1      31.665  27.378  24.794  1.00  0.00    -0.046 A 
ATOM     10  C   UNL A   1      32.015  28.723  24.599  1.00  0.00     0.004 A 
ATOM     11  C   UNL A   1      33.215  29.231  25.092  1.00  0.00     0.000 A 
ATOM     12  C   UNL A   1      33.672  27.108  26.132  1.00  0.00     0.006 A 
ATOM     13  C   UNL A   1      34.020  28.438  25.897  1.00  0.00     0.000 A 
ENDBRANCH   6   7
BRANCH   6  14
ATOM     14  N   UNL A   1      32.870  24.148  26.269  1.00  0.00    -0.341 N 
ATOM     15  C   UNL A   1      31.995  23.354  26.979  1.00  0.00     0.326 C 
ATOM     16  H   UNL A   1      33.812  24.116  26.555  1.00  0.00     0.164 HD
ATOM     17  O   UNL A   1      32.447  22.708  27.929  1.00  0.00    -0.265 OA
BRANCH  15  18
ATOM     18  C   UNL A   1      30.508  23.316  26.568  1.00  0.00     0.471 C 
ATOM     19  F   UNL A   1      30.333  22.754  25.337  1.00  0.00    -0.162 F 
ATOM     20  F   UNL A   1      29.764  22.562  27.431  1.00  0.00    -0.162 F 
ATOM     21  F   UNL A   1      29.918  24.540  26.519  1.00  0.00    -0.162 F 
ENDBRANCH  15  18
ENDBRANCH   6  14
ENDBRANCH   5   6
ENDBRANCH   3   5
ENDBRANCH   2   3
ENDBRANCH   1   2
BRANCH   1  22
ATOM     22  C   UNL A   1      37.601  22.686  25.278  1.00  0.00     0.275 C 
BRANCH  22  23
ATOM     23  O   UNL A   1      38.169  23.754  26.121  1.00  0.00    -0.458 OA
BRANCH  23  24
ATOM     24  C   UNL A   1      39.361  23.840  26.777  1.00  0.00     0.338 C 
ATOM     25  O   UNL A   1      40.153  22.911  26.813  1.00  0.00    -0.246 OA
BRANCH  24  26
ATOM     26  C   UNL A   1      39.717  25.131  27.392  1.00  0.00     0.060 A 
ATOM     27  C   UNL A   1      40.334  26.154  26.641  1.00  0.00     0.016 A 
ATOM     28  C   UNL A   1      39.234  25.383  28.656  1.00  0.00     0.016 A 
ATOM     29  C   UNL A   1      40.308  27.476  27.104  1.00  0.00     0.010 A 
ATOM     30  C   UNL A   1      38.985  26.688  28.974  1.00  0.00     0.010 A 
ATOM     31  C   UNL A   1      39.579  27.744  28.260  1.00  0.00    -0.014 A 
BRANCH  31  32
ATOM     32  C   UNL A   1      39.541  28.999  29.011  1.00  0.00     0.031 A 
ATOM     33  C   UNL A   1      38.538  30.067  28.842  1.00  0.00     0.074 A 
ATOM     34  C   UNL A   1      40.447  28.992  30.022  1.00  0.00     0.049 A 
ATOM     35  N   UNL A   1      38.611  31.192  29.464  1.00  0.00    -0.248 NA
ATOM     36  C   UNL A   1      37.360  29.991  27.990  1.00  0.00     0.031 C 
ATOM     37  C   UNL A   1      40.642  29.850  31.172  1.00  0.00     0.029 A 
ATOM     38  N   UNL A   1      41.557  28.122  30.085  1.00  0.00    -0.354 N 
ATOM     39  C   UNL A   1      37.433  31.890  29.288  1.00  0.00     0.074 A 
ATOM     40  C   UNL A   1      36.690  31.102  28.337  1.00  0.00     0.031 C 
ATOM     41  C   UNL A   1      41.931  29.731  31.562  1.00  0.00     0.029 A 
ATOM     42  C   UNL A   1      42.612  28.886  30.583  1.00  0.00     0.049 A 
ATOM     43  H   UNL A   1      41.582  27.171  29.831  1.00  0.00     0.167 HD
ATOM     44  C   UNL A   1      37.242  33.010  30.049  1.00  0.00     0.037 A 
ATOM     45  C   UNL A   1      43.552  29.252  29.659  1.00  0.00     0.037 A 
ATOM     46  C   UNL A   1      38.501  33.361  30.712  1.00  0.00     0.049 A 
ATOM     47  C   UNL A   1      43.486  30.736  29.371  1.00  0.00     0.074 A 
ATOM     48  C   UNL A   1      39.060  33.071  31.944  1.00  0.00     0.029 A 
ATOM     49  N   UNL A   1      39.540  33.791  29.909  1.00  0.00    -0.354 N 
ATOM     50  N   UNL A   1      42.504  31.508  29.753  1.00  0.00    -0.248 NA
ATOM     51  C   UNL A   1      44.489  31.454  28.593  1.00  0.00     0.031 C 
ATOM     52  C   UNL A   1      40.480  33.209  31.814  1.00  0.00     0.029 A 
ATOM     53  C   UNL A   1      40.767  33.611  30.519  1.00  0.00     0.049 A 
ATOM     54  H   UNL A   1      39.421  34.180  29.012  1.00  0.00     0.167 HD
ATOM     55  C   UNL A   1      42.753  32.787  29.372  1.00  0.00     0.074 A 
ATOM     56  C   UNL A   1      43.978  32.697  28.593  1.00  0.00     0.031 C 
ATOM     57  C   UNL A   1      41.968  33.841  29.733  1.00  0.00     0.037 A 
BRANCH  44  58
ATOM     58  C   UNL A   1      35.949  33.754  30.323  1.00  0.00     0.064 A 
ATOM     59  C   UNL A   1      35.224  34.316  29.242  1.00  0.00     0.173 A 
ATOM     60  C   UNL A   1      35.385  34.004  31.588  1.00  0.00     0.173 A 
ATOM     61  F   UNL A   1      35.612  34.136  27.971  1.00  0.00    -0.203 F 
ATOM     62  C   UNL A   1      34.076  35.096  29.417  1.00  0.00     0.198 A 
ATOM     63  C   UNL A   1      34.243  34.800  31.765  1.00  0.00     0.198 A 
ATOM     64  F   UNL A   1      35.885  33.464  32.702  1.00  0.00    -0.203 F 
ATOM     65  F   UNL A   1      33.449  35.607  28.347  1.00  0.00    -0.200 F 
ATOM     66  C   UNL A   1      33.593  35.352  30.680  1.00  0.00     0.200 A 
ATOM     67  F   UNL A   1      33.776  35.028  33.002  1.00  0.00    -0.200 F 
ATOM     68  F   UNL A   1      32.505  36.114  30.852  1.00  0.00    -0.200 F 
ENDBRANCH  44  58
BRANCH  45  69
ATOM     69  C   UNL A   1      43.823  28.172  28.636  1.00  0.00     0.064 A 
ATOM     70  C   UNL A   1      43.450  28.406  27.288  1.00  0.00     0.173 A 
ATOM     71  C   UNL A   1      44.703  27.104  28.858  1.00  0.00     0.173 A 
ATOM     72  F   UNL A   1      42.610  29.411  26.987  1.00  0.00    -0.203 F 
ATOM     73  C   UNL A   1      44.028  27.708  26.227  1.00  0.00     0.198 A 
ATOM     74  C   UNL A   1      45.244  26.373  27.791  1.00  0.00     0.198 A 
ATOM     75  F   UNL A   1      45.119  26.806  30.097  1.00  0.00    -0.203 F 
ATOM     76  F   UNL A   1      43.763  28.070  24.962  1.00  0.00    -0.200 F 
ATOM     77  C   UNL A   1      44.936  26.699  26.479  1.00  0.00     0.200 A 
ATOM     78  F   UNL A   1      46.139  25.404  28.036  1.00  0.00    -0.200 F 
ATOM     79  F   UNL A   1      45.551  26.076  25.463  1.00  0.00    -0.200 F 
ENDBRANCH  45  69
BRANCH  57  80
ATOM     80  C   UNL A   1      42.347  35.226  29.348  1.00  0.00     0.064 A 
ATOM     81  C   UNL A   1      43.253  35.967  30.120  1.00  0.00     0.173 A 
ATOM     82  C   UNL A   1      41.762  35.873  28.247  1.00  0.00     0.173 A 
ATOM     83  F   UNL A   1      43.805  35.437  31.223  1.00  0.00    -0.203 F 
ATOM     84  C   UNL A   1      43.614  37.260  29.762  1.00  0.00     0.198 A 
ATOM     85  C   UNL A   1      42.072  37.190  27.932  1.00  0.00     0.198 A 
ATOM     86  F   UNL A   1      40.904  35.236  27.435  1.00  0.00    -0.203 F 
ATOM     87  F   UNL A   1      44.550  37.906  30.469  1.00  0.00    -0.200 F 
ATOM     88  C   UNL A   1      43.016  37.875  28.674  1.00  0.00     0.200 A 
ATOM     89  F   UNL A   1      41.464  37.785  26.897  1.00  0.00    -0.200 F 
ATOM     90  F   UNL A   1      43.358  39.124  28.336  1.00  0.00    -0.200 F 
ENDBRANCH  57  80
ENDBRANCH  31  32
ENDBRANCH  24  26
ENDBRANCH  23  24
ENDBRANCH  22  23
ENDBRANCH   1  22
TORSDOF 15
ENDMDL
