MODEL 1
REMARK VINA RESULT:     -13.4      0.000      0.000
REMARK SMILES O=C(OCCOC(=O)[C@@H]1[C@@H](C(=O)N2CC[NH+](C/C=C/c3ccccc3)CC2)[C@@H]2C=C[C@H]1C2)c1ccc(-c2c3nc(c(-c4c(F)c(F)c(F)c(F)c4F)c4ccc([nH]4)c(-c4c(F)c(F)c(F)c(F)c4F)c4nc(c(-c5c(F)c(F)c(F)c(F)c5F)c5ccc2[nH]5)C=C4)C=C3)cc1
REMARK SMILES IDX 5 1 4 2 3 3 2 4 1 5 33 6 34 7 95 8 35 9 94 10 36 11 37 12
REMARK SMILES IDX 38 13 88 14 39 15 93 16 87 17 89 18 40 19 92 20 86 21 85 22
REMARK SMILES IDX 41 24 73 25 53 26 72 27 54 28 57 29 71 30 90 31 55 32 56 33
REMARK SMILES IDX 70 35 91 36 58 37 42 38 43 39 51 40 44 41 45 42 49 43 52 44
REMARK SMILES IDX 46 45 47 46 50 47 48 48 74 49 75 50 83 51 76 52 77 53 81 54
REMARK SMILES IDX 84 55 78 56 79 57 82 58 80 59 59 60 60 61 68 62 61 63 62 64
REMARK SMILES IDX 66 65 69 66 63 67 64 68 67 69 65 70 6 71 7 72 8 73 9 74
REMARK SMILES IDX 10 75 31 76 28 77 30 78 32 79 29 80 11 81 12 82 13 83 14 84
REMARK SMILES IDX 27 85 15 86 26 87 16 88 17 90 18 91 19 92 20 93 21 94 25 95
REMARK SMILES IDX 22 96 24 97 23 98
REMARK H PARENT 89 23 57 34 16 89
REMARK Flexibility Score: inf
ROOT
ATOM      1  C   UNL A   1      32.361  28.927  26.407  1.00  0.00     0.274 C 
ENDROOT
BRANCH   1   2
ATOM      2  C   UNL A   1      32.071  30.161  27.275  1.00  0.00     0.275 C 
BRANCH   2   3
ATOM      3  O   UNL A   1      32.886  31.309  26.957  1.00  0.00    -0.458 OA
BRANCH   3   4
ATOM      4  C   UNL A   1      33.802  31.989  27.698  1.00  0.00     0.338 C 
ATOM      5  O   UNL A   1      33.521  33.127  28.072  1.00  0.00    -0.246 OA
BRANCH   4   6
ATOM      6  C   UNL A   1      35.234  31.553  27.865  1.00  0.00     0.060 A 
ATOM      7  C   UNL A   1      36.290  32.332  28.304  1.00  0.00     0.016 A 
ATOM      8  C   UNL A   1      35.520  30.188  27.617  1.00  0.00     0.016 A 
ATOM      9  C   UNL A   1      37.516  31.712  28.635  1.00  0.00     0.010 A 
ATOM     10  C   UNL A   1      36.722  29.562  28.036  1.00  0.00     0.010 A 
ATOM     11  C   UNL A   1      37.707  30.296  28.678  1.00  0.00    -0.014 A 
BRANCH  11  12
ATOM     12  C   UNL A   1      39.046  29.714  29.152  1.00  0.00     0.031 A 
ATOM     13  C   UNL A   1      39.235  29.930  30.672  1.00  0.00     0.074 A 
ATOM     14  C   UNL A   1      40.083  29.110  28.464  1.00  0.00     0.049 A 
ATOM     15  N   UNL A   1      40.225  29.668  31.494  1.00  0.00    -0.248 NA
ATOM     16  C   UNL A   1      38.165  30.734  31.293  1.00  0.00     0.031 C 
ATOM     17  C   UNL A   1      40.657  29.024  27.107  1.00  0.00     0.029 A 
ATOM     18  N   UNL A   1      40.694  28.000  28.969  1.00  0.00    -0.354 N 
ATOM     19  C   UNL A   1      39.965  30.401  32.652  1.00  0.00     0.074 A 
ATOM     20  C   UNL A   1      38.722  31.100  32.425  1.00  0.00     0.031 C 
ATOM     21  C   UNL A   1      41.425  27.916  26.918  1.00  0.00     0.029 A 
ATOM     22  C   UNL A   1      41.648  27.267  28.202  1.00  0.00     0.049 A 
ATOM     23  H   UNL A   1      40.471  27.698  29.879  1.00  0.00     0.167 HD
ATOM     24  C   UNL A   1      40.672  30.561  33.800  1.00  0.00     0.037 A 
ATOM     25  C   UNL A   1      42.687  26.307  28.650  1.00  0.00     0.037 A 
ATOM     26  C   UNL A   1      41.901  29.898  34.169  1.00  0.00     0.049 A 
ATOM     27  C   UNL A   1      43.685  26.048  30.549  1.00  0.00     0.074 A 
ATOM     28  C   UNL A   1      42.619  30.082  35.341  1.00  0.00     0.029 A 
ATOM     29  N   UNL A   1      42.593  28.935  33.437  1.00  0.00    -0.354 N 
ATOM     30  N   UNL A   1      43.546  26.751  31.768  1.00  0.00    -0.248 NA
ATOM     31  C   UNL A   1      44.951  25.080  31.103  1.00  0.00     0.031 C 
ATOM     32  C   UNL A   1      43.764  29.281  35.297  1.00  0.00     0.029 A 
ATOM     33  C   UNL A   1      43.725  28.512  34.146  1.00  0.00     0.049 A 
ATOM     34  H   UNL A   1      42.326  28.601  32.550  1.00  0.00     0.167 HD
ATOM     35  C   UNL A   1      44.508  26.626  32.698  1.00  0.00     0.074 A 
ATOM     36  C   UNL A   1      45.330  25.538  32.292  1.00  0.00     0.031 C 
ATOM     37  C   UNL A   1      44.645  27.456  33.758  1.00  0.00     0.037 A 
BRANCH  24  38
ATOM     38  C   UNL A   1      40.140  31.647  34.724  1.00  0.00     0.064 A 
ATOM     39  C   UNL A   1      39.199  31.394  35.740  1.00  0.00     0.173 A 
ATOM     40  C   UNL A   1      40.484  32.987  34.481  1.00  0.00     0.173 A 
ATOM     41  F   UNL A   1      38.783  30.140  35.978  1.00  0.00    -0.203 F 
ATOM     42  C   UNL A   1      38.568  32.442  36.412  1.00  0.00     0.198 A 
ATOM     43  C   UNL A   1      39.897  34.027  35.198  1.00  0.00     0.198 A 
ATOM     44  F   UNL A   1      41.367  33.295  33.518  1.00  0.00    -0.203 F 
ATOM     45  F   UNL A   1      37.570  32.182  37.269  1.00  0.00    -0.200 F 
ATOM     46  C   UNL A   1      38.921  33.755  36.144  1.00  0.00     0.200 A 
ATOM     47  F   UNL A   1      40.247  35.295  34.945  1.00  0.00    -0.200 F 
ATOM     48  F   UNL A   1      38.301  34.761  36.777  1.00  0.00    -0.200 F 
ENDBRANCH  24  38
BRANCH  25  49
ATOM     49  C   UNL A   1      42.923  25.346  27.147  1.00  0.00     0.064 A 
ATOM     50  C   UNL A   1      42.086  24.246  26.714  1.00  0.00     0.173 A 
ATOM     51  C   UNL A   1      44.070  25.498  26.332  1.00  0.00     0.173 A 
ATOM     52  F   UNL A   1      40.925  23.929  27.298  1.00  0.00    -0.203 F 
ATOM     53  C   UNL A   1      42.446  23.317  25.735  1.00  0.00     0.198 A 
ATOM     54  C   UNL A   1      44.365  24.616  25.266  1.00  0.00     0.198 A 
ATOM     55  F   UNL A   1      44.951  26.478  26.574  1.00  0.00    -0.203 F 
ATOM     56  F   UNL A   1      41.694  22.219  25.556  1.00  0.00    -0.200 F 
ATOM     57  C   UNL A   1      43.586  23.503  25.004  1.00  0.00     0.200 A 
ATOM     58  F   UNL A   1      45.442  24.836  24.498  1.00  0.00    -0.200 F 
ATOM     59  F   UNL A   1      43.927  22.614  24.061  1.00  0.00    -0.200 F 
ENDBRANCH  25  49
BRANCH  37  60
ATOM     60  C   UNL A   1      45.827  27.165  34.606  1.00  0.00     0.064 A 
ATOM     61  C   UNL A   1      45.748  26.277  35.687  1.00  0.00     0.173 A 
ATOM     62  C   UNL A   1      47.014  27.874  34.397  1.00  0.00     0.173 A 
ATOM     63  F   UNL A   1      44.621  25.585  35.918  1.00  0.00    -0.203 F 
ATOM     64  C   UNL A   1      46.805  26.164  36.579  1.00  0.00     0.198 A 
ATOM     65  C   UNL A   1      48.076  27.741  35.278  1.00  0.00     0.198 A 
ATOM     66  F   UNL A   1      47.122  28.724  33.364  1.00  0.00    -0.203 F 
ATOM     67  F   UNL A   1      46.687  25.380  37.660  1.00  0.00    -0.200 F 
ATOM     68  C   UNL A   1      47.963  26.904  36.379  1.00  0.00     0.200 A 
ATOM     69  F   UNL A   1      49.192  28.456  35.086  1.00  0.00    -0.200 F 
ATOM     70  F   UNL A   1      48.964  26.832  37.266  1.00  0.00    -0.200 F 
ENDBRANCH  37  60
ENDBRANCH  11  12
ENDBRANCH   4   6
ENDBRANCH   3   4
ENDBRANCH   2   3
ENDBRANCH   1   2
BRANCH   1  71
ATOM     71  O   UNL A   1      32.875  29.251  25.115  1.00  0.00    -0.462 OA
BRANCH  71  72
ATOM     72  C   UNL A   1      33.310  28.231  24.301  1.00  0.00     0.310 C 
ATOM     73  O   UNL A   1      34.236  28.301  23.512  1.00  0.00    -0.252 OA
BRANCH  72  74
ATOM     74  C   UNL A   1      32.385  27.039  24.476  1.00  0.00     0.119 C 
ATOM     75  C   UNL A   1      32.705  26.078  23.340  1.00  0.00     0.100 C 
ATOM     76  C   UNL A   1      30.851  27.227  24.305  1.00  0.00     0.027 C 
ATOM     77  C   UNL A   1      31.312  25.815  22.653  1.00  0.00     0.025 C 
ATOM     78  C   UNL A   1      30.539  27.937  23.009  1.00  0.00    -0.027 C 
ATOM     79  C   UNL A   1      30.411  25.808  23.880  1.00  0.00     0.017 C 
ATOM     80  C   UNL A   1      30.823  27.091  22.012  1.00  0.00    -0.027 C 
BRANCH  75  81
ATOM     81  C   UNL A   1      33.342  24.792  23.761  1.00  0.00     0.227 C 
ATOM     82  O   UNL A   1      32.532  23.887  23.813  1.00  0.00    -0.275 OA
ATOM     83  N   UNL A   1      34.684  24.512  23.935  1.00  0.00    -0.331 N 
ATOM     84  C   UNL A   1      35.165  23.308  23.243  1.00  0.00     0.181 C 
ATOM     85  C   UNL A   1      35.141  24.415  25.320  1.00  0.00     0.181 C 
ATOM     86  C   UNL A   1      36.677  23.156  23.191  1.00  0.00     0.284 C 
ATOM     87  C   UNL A   1      36.659  24.067  25.427  1.00  0.00     0.284 C 
ATOM     88  N   UNL A   1      37.207  23.021  24.532  1.00  0.00    -0.329 N 
ATOM     89  H   UNL A   1      38.198  23.264  24.564  1.00  0.00     0.348 HD
BRANCH  88  90
ATOM     90  C   UNL A   1      37.491  21.647  24.981  1.00  0.00     0.291 C 
BRANCH  90  91
ATOM     91  C   UNL A   1      36.425  20.544  24.952  1.00  0.00     0.034 C 
ATOM     92  C   UNL A   1      35.181  20.456  25.529  1.00  0.00     0.009 C 
BRANCH  92  93
ATOM     93  C   UNL A   1      34.062  19.483  25.054  1.00  0.00    -0.026 A 
ATOM     94  C   UNL A   1      32.695  20.185  24.106  1.00  0.00     0.008 A 
ATOM     95  C   UNL A   1      34.598  17.828  24.633  1.00  0.00     0.008 A 
ATOM     96  C   UNL A   1      32.015  19.340  22.613  1.00  0.00     0.001 A 
ATOM     97  C   UNL A   1      33.938  16.952  23.127  1.00  0.00     0.001 A 
ATOM     98  C   UNL A   1      32.651  17.728  22.135  1.00  0.00     0.000 A 
ENDBRANCH  92  93
ENDBRANCH  90  91
ENDBRANCH  88  90
ENDBRANCH  75  81
ENDBRANCH  72  74
ENDBRANCH  71  72
ENDBRANCH   1  71
TORSDOF 15
ENDMDL
MODEL 2
REMARK VINA RESULT:     -13.3      4.002      9.736
REMARK SMILES O=C(OCCOC(=O)[C@@H]1[C@@H](C(=O)N2CC[NH+](C/C=C/c3ccccc3)CC2)[C@@H]2C=C[C@H]1C2)c1ccc(-c2c3nc(c(-c4c(F)c(F)c(F)c(F)c4F)c4ccc([nH]4)c(-c4c(F)c(F)c(F)c(F)c4F)c4nc(c(-c5c(F)c(F)c(F)c(F)c5F)c5ccc2[nH]5)C=C4)C=C3)cc1
REMARK SMILES IDX 5 1 4 2 3 3 2 4 1 5 33 6 34 7 95 8 35 9 94 10 36 11 37 12
REMARK SMILES IDX 38 13 88 14 39 15 93 16 87 17 89 18 40 19 92 20 86 21 85 22
REMARK SMILES IDX 41 24 73 25 53 26 72 27 54 28 57 29 71 30 90 31 55 32 56 33
REMARK SMILES IDX 70 35 91 36 58 37 42 38 43 39 51 40 44 41 45 42 49 43 52 44
REMARK SMILES IDX 46 45 47 46 50 47 48 48 74 49 75 50 83 51 76 52 77 53 81 54
REMARK SMILES IDX 84 55 78 56 79 57 82 58 80 59 59 60 60 61 68 62 61 63 62 64
REMARK SMILES IDX 66 65 69 66 63 67 64 68 67 69 65 70 6 71 7 72 8 73 9 74
REMARK SMILES IDX 10 75 31 76 28 77 30 78 32 79 29 80 11 81 12 82 13 83 14 84
REMARK SMILES IDX 27 85 15 86 26 87 16 88 17 90 18 91 19 92 20 93 21 94 25 95
REMARK SMILES IDX 22 96 24 97 23 98
REMARK H PARENT 89 23 57 34 16 89
REMARK Flexibility Score: inf
ROOT
ATOM      1  C   UNL A   1      33.445  34.303  28.046  1.00  0.00     0.274 C 
ENDROOT
BRANCH   1   2
ATOM      2  C   UNL A   1      33.135  35.399  29.076  1.00  0.00     0.275 C 
BRANCH   2   3
ATOM      3  O   UNL A   1      32.868  34.898  30.404  1.00  0.00    -0.458 OA
BRANCH   3   4
ATOM      4  C   UNL A   1      33.095  35.445  31.629  1.00  0.00     0.338 C 
ATOM      5  O   UNL A   1      32.675  36.581  31.848  1.00  0.00    -0.246 OA
BRANCH   4   6
ATOM      6  C   UNL A   1      34.049  34.866  32.640  1.00  0.00     0.060 A 
ATOM      7  C   UNL A   1      33.952  33.632  33.258  1.00  0.00     0.016 A 
ATOM      8  C   UNL A   1      35.204  35.631  32.940  1.00  0.00     0.016 A 
ATOM      9  C   UNL A   1      35.052  33.140  33.997  1.00  0.00     0.010 A 
ATOM     10  C   UNL A   1      36.335  35.092  33.605  1.00  0.00     0.010 A 
ATOM     11  C   UNL A   1      36.330  33.777  34.042  1.00  0.00    -0.014 A 
BRANCH  11  12
ATOM     12  C   UNL A   1      37.496  33.110  34.786  1.00  0.00     0.031 A 
ATOM     13  C   UNL A   1      38.395  32.319  33.808  1.00  0.00     0.074 A 
ATOM     14  C   UNL A   1      37.822  33.058  36.129  1.00  0.00     0.049 A 
ATOM     15  N   UNL A   1      39.446  31.552  33.984  1.00  0.00    -0.248 NA
ATOM     16  C   UNL A   1      37.878  32.282  32.427  1.00  0.00     0.031 C 
ATOM     17  C   UNL A   1      37.203  33.201  37.462  1.00  0.00     0.029 A 
ATOM     18  N   UNL A   1      39.115  33.215  36.533  1.00  0.00    -0.354 N 
ATOM     19  C   UNL A   1      39.605  30.840  32.795  1.00  0.00     0.074 A 
ATOM     20  C   UNL A   1      38.552  31.280  31.910  1.00  0.00     0.031 C 
ATOM     21  C   UNL A   1      38.101  33.490  38.443  1.00  0.00     0.029 A 
ATOM     22  C   UNL A   1      39.450  33.332  37.916  1.00  0.00     0.049 A 
ATOM     23  H   UNL A   1      39.831  33.251  35.859  1.00  0.00     0.167 HD
ATOM     24  C   UNL A   1      40.481  29.868  32.430  1.00  0.00     0.037 A 
ATOM     25  C   UNL A   1      40.751  33.124  38.596  1.00  0.00     0.037 A 
ATOM     26  C   UNL A   1      41.596  29.365  33.198  1.00  0.00     0.049 A 
ATOM     27  C   UNL A   1      42.499  31.979  38.042  1.00  0.00     0.074 A 
ATOM     28  C   UNL A   1      42.475  28.363  32.818  1.00  0.00     0.029 A 
ATOM     29  N   UNL A   1      42.019  29.796  34.455  1.00  0.00    -0.354 N 
ATOM     30  N   UNL A   1      42.759  31.186  36.901  1.00  0.00    -0.248 NA
ATOM     31  C   UNL A   1      43.954  31.590  38.802  1.00  0.00     0.031 C 
ATOM     32  C   UNL A   1      43.389  28.149  33.854  1.00  0.00     0.029 A 
ATOM     33  C   UNL A   1      43.156  29.081  34.852  1.00  0.00     0.049 A 
ATOM     34  H   UNL A   1      41.582  30.500  34.986  1.00  0.00     0.167 HD
ATOM     35  C   UNL A   1      43.777  30.310  36.943  1.00  0.00     0.074 A 
ATOM     36  C   UNL A   1      44.541  30.625  38.101  1.00  0.00     0.031 C 
ATOM     37  C   UNL A   1      43.943  29.304  36.053  1.00  0.00     0.037 A 
BRANCH  24  38
ATOM     38  C   UNL A   1      40.154  29.184  31.112  1.00  0.00     0.064 A 
ATOM     39  C   UNL A   1      39.406  27.994  31.031  1.00  0.00     0.173 A 
ATOM     40  C   UNL A   1      40.731  29.666  29.924  1.00  0.00     0.173 A 
ATOM     41  F   UNL A   1      38.883  27.450  32.141  1.00  0.00    -0.203 F 
ATOM     42  C   UNL A   1      39.321  27.279  29.836  1.00  0.00     0.198 A 
ATOM     43  C   UNL A   1      40.591  28.980  28.721  1.00  0.00     0.198 A 
ATOM     44  F   UNL A   1      41.466  30.789  29.937  1.00  0.00    -0.203 F 
ATOM     45  F   UNL A   1      38.729  26.076  29.818  1.00  0.00    -0.200 F 
ATOM     46  C   UNL A   1      39.908  27.774  28.682  1.00  0.00     0.200 A 
ATOM     47  F   UNL A   1      41.151  29.466  27.604  1.00  0.00    -0.200 F 
ATOM     48  F   UNL A   1      39.841  27.076  27.540  1.00  0.00    -0.200 F 
ENDBRANCH  24  38
BRANCH  25  49
ATOM     49  C   UNL A   1      40.517  34.122  40.075  1.00  0.00     0.064 A 
ATOM     50  C   UNL A   1      40.041  33.630  41.352  1.00  0.00     0.173 A 
ATOM     51  C   UNL A   1      40.637  35.531  40.055  1.00  0.00     0.173 A 
ATOM     52  F   UNL A   1      39.886  32.331  41.630  1.00  0.00    -0.203 F 
ATOM     53  C   UNL A   1      39.567  34.444  42.384  1.00  0.00     0.198 A 
ATOM     54  C   UNL A   1      40.261  36.340  41.155  1.00  0.00     0.198 A 
ATOM     55  F   UNL A   1      41.081  36.161  38.959  1.00  0.00    -0.203 F 
ATOM     56  F   UNL A   1      38.956  33.883  43.441  1.00  0.00    -0.200 F 
ATOM     57  C   UNL A   1      39.682  35.802  42.290  1.00  0.00     0.200 A 
ATOM     58  F   UNL A   1      40.440  37.668  41.097  1.00  0.00    -0.200 F 
ATOM     59  F   UNL A   1      39.232  36.581  43.284  1.00  0.00    -0.200 F 
ENDBRANCH  25  49
BRANCH  37  60
ATOM     60  C   UNL A   1      45.098  28.419  36.348  1.00  0.00     0.064 A 
ATOM     61  C   UNL A   1      46.373  28.690  35.833  1.00  0.00     0.173 A 
ATOM     62  C   UNL A   1      44.890  27.233  37.058  1.00  0.00     0.173 A 
ATOM     63  F   UNL A   1      46.603  29.817  35.143  1.00  0.00    -0.203 F 
ATOM     64  C   UNL A   1      47.391  27.755  35.960  1.00  0.00     0.198 A 
ATOM     65  C   UNL A   1      45.917  26.312  37.201  1.00  0.00     0.198 A 
ATOM     66  F   UNL A   1      43.683  26.952  37.571  1.00  0.00    -0.203 F 
ATOM     67  F   UNL A   1      48.582  27.981  35.387  1.00  0.00    -0.200 F 
ATOM     68  C   UNL A   1      47.158  26.563  36.634  1.00  0.00     0.200 A 
ATOM     69  F   UNL A   1      45.693  25.163  37.851  1.00  0.00    -0.200 F 
ATOM     70  F   UNL A   1      48.126  25.641  36.714  1.00  0.00    -0.200 F 
ENDBRANCH  37  60
ENDBRANCH  11  12
ENDBRANCH   4   6
ENDBRANCH   3   4
ENDBRANCH   2   3
ENDBRANCH   1   2
BRANCH   1  71
ATOM     71  O   UNL A   1      33.917  33.090  28.632  1.00  0.00    -0.462 OA
BRANCH  71  72
ATOM     72  C   UNL A   1      35.273  32.858  28.670  1.00  0.00     0.310 C 
ATOM     73  O   UNL A   1      36.086  33.519  29.294  1.00  0.00    -0.252 OA
BRANCH  72  74
ATOM     74  C   UNL A   1      35.599  31.709  27.732  1.00  0.00     0.119 C 
ATOM     75  C   UNL A   1      34.722  30.542  28.162  1.00  0.00     0.100 C 
ATOM     76  C   UNL A   1      37.015  31.067  27.770  1.00  0.00     0.027 C 
ATOM     77  C   UNL A   1      35.737  29.359  28.387  1.00  0.00     0.025 C 
ATOM     78  C   UNL A   1      37.403  30.706  29.184  1.00  0.00    -0.027 C 
ATOM     79  C   UNL A   1      36.721  29.639  27.260  1.00  0.00     0.017 C 
ATOM     80  C   UNL A   1      36.629  29.681  29.561  1.00  0.00    -0.027 C 
BRANCH  75  81
ATOM     81  C   UNL A   1      33.661  30.155  27.183  1.00  0.00     0.227 C 
ATOM     82  O   UNL A   1      33.064  31.126  26.761  1.00  0.00    -0.275 OA
ATOM     83  N   UNL A   1      33.409  28.912  26.632  1.00  0.00    -0.331 N 
ATOM     84  C   UNL A   1      33.297  28.891  25.168  1.00  0.00     0.181 C 
ATOM     85  C   UNL A   1      32.242  28.207  27.157  1.00  0.00     0.181 C 
ATOM     86  C   UNL A   1      33.310  27.505  24.541  1.00  0.00     0.284 C 
ATOM     87  C   UNL A   1      32.012  26.828  26.461  1.00  0.00     0.284 C 
ATOM     88  N   UNL A   1      32.159  26.749  24.989  1.00  0.00    -0.329 N 
ATOM     89  H   UNL A   1      32.313  25.745  24.882  1.00  0.00     0.348 HD
BRANCH  88  90
ATOM     90  C   UNL A   1      31.010  26.710  24.067  1.00  0.00     0.291 C 
BRANCH  90  91
ATOM     91  C   UNL A   1      30.001  27.862  23.976  1.00  0.00     0.034 C 
ATOM     92  C   UNL A   1      30.127  29.158  23.539  1.00  0.00     0.009 C 
BRANCH  92  93
ATOM     93  C   UNL A   1      28.931  30.055  23.104  1.00  0.00    -0.026 A 
ATOM     94  C   UNL A   1      28.849  31.725  23.788  1.00  0.00     0.008 A 
ATOM     95  C   UNL A   1      28.352  29.819  21.427  1.00  0.00     0.008 A 
ATOM     96  C   UNL A   1      28.404  33.180  22.745  1.00  0.00     0.001 A 
ATOM     97  C   UNL A   1      27.904  31.268  20.345  1.00  0.00     0.001 A 
ATOM     98  C   UNL A   1      27.940  32.935  21.026  1.00  0.00     0.000 A 
ENDBRANCH  92  93
ENDBRANCH  90  91
ENDBRANCH  88  90
ENDBRANCH  75  81
ENDBRANCH  72  74
ENDBRANCH  71  72
ENDBRANCH   1  71
TORSDOF 15
ENDMDL
MODEL 3
REMARK VINA RESULT:     -13.2      3.347      9.120
REMARK SMILES O=C(OCCOC(=O)[C@@H]1[C@@H](C(=O)N2CC[NH+](C/C=C/c3ccccc3)CC2)[C@@H]2C=C[C@H]1C2)c1ccc(-c2c3nc(c(-c4c(F)c(F)c(F)c(F)c4F)c4ccc([nH]4)c(-c4c(F)c(F)c(F)c(F)c4F)c4nc(c(-c5c(F)c(F)c(F)c(F)c5F)c5ccc2[nH]5)C=C4)C=C3)cc1
REMARK SMILES IDX 5 1 4 2 3 3 2 4 1 5 33 6 34 7 95 8 35 9 94 10 36 11 37 12
REMARK SMILES IDX 38 13 88 14 39 15 93 16 87 17 89 18 40 19 92 20 86 21 85 22
REMARK SMILES IDX 41 24 73 25 53 26 72 27 54 28 57 29 71 30 90 31 55 32 56 33
REMARK SMILES IDX 70 35 91 36 58 37 42 38 43 39 51 40 44 41 45 42 49 43 52 44
REMARK SMILES IDX 46 45 47 46 50 47 48 48 74 49 75 50 83 51 76 52 77 53 81 54
REMARK SMILES IDX 84 55 78 56 79 57 82 58 80 59 59 60 60 61 68 62 61 63 62 64
REMARK SMILES IDX 66 65 69 66 63 67 64 68 67 69 65 70 6 71 7 72 8 73 9 74
REMARK SMILES IDX 10 75 31 76 28 77 30 78 32 79 29 80 11 81 12 82 13 83 14 84
REMARK SMILES IDX 27 85 15 86 26 87 16 88 17 90 18 91 19 92 20 93 21 94 25 95
REMARK SMILES IDX 22 96 24 97 23 98
REMARK H PARENT 89 23 57 34 16 89
REMARK Flexibility Score: inf
ROOT
ATOM      1  C   UNL A   1      37.680  22.991  25.918  1.00  0.00     0.274 C 
ENDROOT
BRANCH   1   2
ATOM      2  C   UNL A   1      39.089  22.401  25.760  1.00  0.00     0.275 C 
BRANCH   2   3
ATOM      3  O   UNL A   1      40.106  23.099  26.510  1.00  0.00    -0.458 OA
BRANCH   3   4
ATOM      4  C   UNL A   1      40.497  24.402  26.491  1.00  0.00     0.338 C 
ATOM      5  O   UNL A   1      41.473  24.709  25.806  1.00  0.00    -0.246 OA
BRANCH   4   6
ATOM      6  C   UNL A   1      39.987  25.443  27.451  1.00  0.00     0.060 A 
ATOM      7  C   UNL A   1      39.228  25.221  28.586  1.00  0.00     0.016 A 
ATOM      8  C   UNL A   1      40.381  26.783  27.211  1.00  0.00     0.016 A 
ATOM      9  C   UNL A   1      39.035  26.275  29.508  1.00  0.00     0.010 A 
ATOM     10  C   UNL A   1      40.261  27.809  28.183  1.00  0.00     0.010 A 
ATOM     11  C   UNL A   1      39.691  27.541  29.418  1.00  0.00    -0.014 A 
BRANCH  11  12
ATOM     12  C   UNL A   1      39.502  28.587  30.526  1.00  0.00     0.031 A 
ATOM     13  C   UNL A   1      40.773  28.706  31.397  1.00  0.00     0.074 A 
ATOM     14  C   UNL A   1      38.412  29.359  30.887  1.00  0.00     0.049 A 
ATOM     15  N   UNL A   1      41.055  29.402  32.475  1.00  0.00    -0.248 NA
ATOM     16  C   UNL A   1      41.820  27.725  31.053  1.00  0.00     0.031 C 
ATOM     17  C   UNL A   1      36.941  29.386  30.766  1.00  0.00     0.029 A 
ATOM     18  N   UNL A   1      38.572  30.674  31.211  1.00  0.00    -0.354 N 
ATOM     19  C   UNL A   1      42.213  28.835  33.006  1.00  0.00     0.074 A 
ATOM     20  C   UNL A   1      42.582  27.753  32.124  1.00  0.00     0.031 C 
ATOM     21  C   UNL A   1      36.411  30.630  30.931  1.00  0.00     0.029 A 
ATOM     22  C   UNL A   1      37.448  31.527  31.423  1.00  0.00     0.049 A 
ATOM     23  H   UNL A   1      39.481  31.042  31.298  1.00  0.00     0.167 HD
ATOM     24  C   UNL A   1      42.919  29.105  34.134  1.00  0.00     0.037 A 
ATOM     25  C   UNL A   1      37.366  32.825  32.134  1.00  0.00     0.037 A 
ATOM     26  C   UNL A   1      42.684  30.173  35.077  1.00  0.00     0.049 A 
ATOM     27  C   UNL A   1      38.604  33.708  33.671  1.00  0.00     0.074 A 
ATOM     28  C   UNL A   1      43.405  30.428  36.233  1.00  0.00     0.029 A 
ATOM     29  N   UNL A   1      41.706  31.164  35.003  1.00  0.00    -0.354 N 
ATOM     30  N   UNL A   1      39.761  33.217  34.317  1.00  0.00    -0.248 NA
ATOM     31  C   UNL A   1      38.514  35.104  34.612  1.00  0.00     0.031 C 
ATOM     32  C   UNL A   1      42.838  31.529  36.884  1.00  0.00     0.029 A 
ATOM     33  C   UNL A   1      41.821  32.037  36.093  1.00  0.00     0.049 A 
ATOM     34  H   UNL A   1      41.033  31.240  34.289  1.00  0.00     0.167 HD
ATOM     35  C   UNL A   1      40.153  33.796  35.464  1.00  0.00     0.074 A 
ATOM     36  C   UNL A   1      39.407  35.000  35.591  1.00  0.00     0.031 C 
ATOM     37  C   UNL A   1      41.046  33.245  36.320  1.00  0.00     0.037 A 
BRANCH  24  38
ATOM     38  C   UNL A   1      43.996  28.083  34.466  1.00  0.00     0.064 A 
ATOM     39  C   UNL A   1      43.744  26.923  35.224  1.00  0.00     0.173 A 
ATOM     40  C   UNL A   1      45.333  28.358  34.131  1.00  0.00     0.173 A 
ATOM     41  F   UNL A   1      42.496  26.639  35.627  1.00  0.00    -0.203 F 
ATOM     42  C   UNL A   1      44.792  26.133  35.697  1.00  0.00     0.198 A 
ATOM     43  C   UNL A   1      46.370  27.532  34.555  1.00  0.00     0.198 A 
ATOM     44  F   UNL A   1      45.639  29.455  33.421  1.00  0.00    -0.203 F 
ATOM     45  F   UNL A   1      44.538  25.120  36.538  1.00  0.00    -0.200 F 
ATOM     46  C   UNL A   1      46.102  26.435  35.359  1.00  0.00     0.200 A 
ATOM     47  F   UNL A   1      47.635  27.819  34.218  1.00  0.00    -0.200 F 
ATOM     48  F   UNL A   1      47.108  25.685  35.830  1.00  0.00    -0.200 F 
ENDBRANCH  24  38
BRANCH  25  49
ATOM     49  C   UNL A   1      35.908  33.539  31.357  1.00  0.00     0.064 A 
ATOM     50  C   UNL A   1      35.769  33.836  29.946  1.00  0.00     0.173 A 
ATOM     51  C   UNL A   1      34.815  34.022  32.115  1.00  0.00     0.173 A 
ATOM     52  F   UNL A   1      36.653  33.446  29.021  1.00  0.00    -0.203 F 
ATOM     53  C   UNL A   1      34.783  34.664  29.407  1.00  0.00     0.198 A 
ATOM     54  C   UNL A   1      33.757  34.763  31.535  1.00  0.00     0.198 A 
ATOM     55  F   UNL A   1      34.764  33.822  33.439  1.00  0.00    -0.203 F 
ATOM     56  F   UNL A   1      34.866  35.042  28.120  1.00  0.00    -0.200 F 
ATOM     57  C   UNL A   1      33.769  35.126  30.199  1.00  0.00     0.200 A 
ATOM     58  F   UNL A   1      32.724  35.155  32.293  1.00  0.00    -0.200 F 
ATOM     59  F   UNL A   1      32.819  35.915  29.679  1.00  0.00    -0.200 F 
ENDBRANCH  25  49
BRANCH  37  60
ATOM     60  C   UNL A   1      41.264  34.034  37.558  1.00  0.00     0.064 A 
ATOM     61  C   UNL A   1      40.470  33.838  38.696  1.00  0.00     0.173 A 
ATOM     62  C   UNL A   1      42.202  35.071  37.555  1.00  0.00     0.173 A 
ATOM     63  F   UNL A   1      39.558  32.856  38.728  1.00  0.00    -0.203 F 
ATOM     64  C   UNL A   1      40.562  34.711  39.771  1.00  0.00     0.198 A 
ATOM     65  C   UNL A   1      42.305  35.927  38.642  1.00  0.00     0.198 A 
ATOM     66  F   UNL A   1      42.983  35.276  36.484  1.00  0.00    -0.203 F 
ATOM     67  F   UNL A   1      39.736  34.572  40.818  1.00  0.00    -0.200 F 
ATOM     68  C   UNL A   1      41.471  35.760  39.738  1.00  0.00     0.200 A 
ATOM     69  F   UNL A   1      43.182  36.939  38.609  1.00  0.00    -0.200 F 
ATOM     70  F   UNL A   1      41.525  36.631  40.754  1.00  0.00    -0.200 F 
ENDBRANCH  37  60
ENDBRANCH  11  12
ENDBRANCH   4   6
ENDBRANCH   3   4
ENDBRANCH   2   3
ENDBRANCH   1   2
BRANCH   1  71
ATOM     71  O   UNL A   1      36.823  22.719  24.810  1.00  0.00    -0.462 OA
BRANCH  71  72
ATOM     72  C   UNL A   1      36.121  21.536  24.792  1.00  0.00     0.310 C 
ATOM     73  O   UNL A   1      36.581  20.436  25.047  1.00  0.00    -0.252 OA
BRANCH  72  74
ATOM     74  C   UNL A   1      34.709  21.813  24.306  1.00  0.00     0.119 C 
ATOM     75  C   UNL A   1      33.967  22.437  25.478  1.00  0.00     0.100 C 
ATOM     76  C   UNL A   1      33.776  20.623  23.941  1.00  0.00     0.027 C 
ATOM     77  C   UNL A   1      32.684  21.537  25.645  1.00  0.00     0.025 C 
ATOM     78  C   UNL A   1      33.749  19.603  25.054  1.00  0.00    -0.027 C 
ATOM     79  C   UNL A   1      32.380  21.238  24.184  1.00  0.00     0.017 C 
ATOM     80  C   UNL A   1      33.097  20.154  26.085  1.00  0.00    -0.027 C 
BRANCH  75  81
ATOM     81  C   UNL A   1      33.590  23.872  25.296  1.00  0.00     0.227 C 
ATOM     82  O   UNL A   1      34.009  24.564  26.203  1.00  0.00    -0.275 OA
ATOM     83  N   UNL A   1      32.991  24.473  24.205  1.00  0.00    -0.331 N 
ATOM     84  C   UNL A   1      33.669  25.677  23.705  1.00  0.00     0.181 C 
ATOM     85  C   UNL A   1      31.579  24.819  24.363  1.00  0.00     0.181 C 
ATOM     86  C   UNL A   1      33.190  26.171  22.349  1.00  0.00     0.284 C 
ATOM     87  C   UNL A   1      30.989  25.519  23.099  1.00  0.00     0.284 C 
ATOM     88  N   UNL A   1      31.799  26.565  22.430  1.00  0.00    -0.329 N 
ATOM     89  H   UNL A   1      31.361  26.563  21.508  1.00  0.00     0.348 HD
BRANCH  88  90
ATOM     90  C   UNL A   1      31.542  28.007  22.591  1.00  0.00     0.291 C 
BRANCH  90  91
ATOM     91  C   UNL A   1      31.841  28.744  23.904  1.00  0.00     0.034 C 
ATOM     92  C   UNL A   1      31.361  28.576  25.179  1.00  0.00     0.009 C 
BRANCH  92  93
ATOM     93  C   UNL A   1      32.075  29.101  26.460  1.00  0.00    -0.026 A 
ATOM     94  C   UNL A   1      33.640  28.326  26.919  1.00  0.00     0.008 A 
ATOM     95  C   UNL A   1      31.888  30.849  26.793  1.00  0.00     0.008 A 
ATOM     96  C   UNL A   1      35.082  29.321  27.496  1.00  0.00     0.001 A 
ATOM     97  C   UNL A   1      33.327  31.884  27.368  1.00  0.00     0.001 A 
ATOM     98  C   UNL A   1      34.910  31.097  27.711  1.00  0.00     0.000 A 
ENDBRANCH  92  93
ENDBRANCH  90  91
ENDBRANCH  88  90
ENDBRANCH  75  81
ENDBRANCH  72  74
ENDBRANCH  71  72
ENDBRANCH   1  71
TORSDOF 15
ENDMDL
