MODEL 1
REMARK VINA RESULT:     -11.7      0.000      0.000
REMARK SMILES COc1ccccc1NC(=O)[C@H](C)c1nc(CC(=O)OCCOC(=O)c2ccc(-c3c4nc(c(-c5c(F)c(F)c(F)c(F)c5F)c5ccc([nH]5)c(-c5c(F)c(F)c(F)c(F)c5F)c5nc(c(-c6c(F)c(F)c(F)c(F)c6F)c6ccc3[nH]6)C=C5)C=C4)cc2)cs1
REMARK SMILES IDX 20 1 18 2 19 3 17 4 16 5 14 6 15 7 90 8 89 9 12 10 13 11
REMARK SMILES IDX 10 12 9 13 11 15 8 16 3 17 4 18 5 19 7 20 6 21 2 22 1 23
REMARK SMILES IDX 21 24 22 25 23 26 24 27 25 28 26 29 27 30 88 31 28 32 87 33
REMARK SMILES IDX 29 34 30 35 31 36 81 37 32 38 86 39 80 40 82 41 33 42 85 43
REMARK SMILES IDX 79 44 78 45 34 47 66 48 46 49 65 50 47 51 50 52 64 53 83 54
REMARK SMILES IDX 48 55 49 56 63 58 84 59 51 60 35 61 36 62 44 63 37 64 38 65
REMARK SMILES IDX 42 66 45 67 39 68 40 69 43 70 41 71 67 72 68 73 76 74 69 75
REMARK SMILES IDX 70 76 74 77 77 78 71 79 72 80 75 81 73 82 52 83 53 84 61 85
REMARK SMILES IDX 54 86 55 87 59 88 62 89 56 90 57 91 60 92 58 93
REMARK H PARENT 9 14 82 46 50 57
REMARK Flexibility Score: inf
ROOT
ATOM      1  O   UNL A   1      38.110  21.203  25.058  1.00  0.00    -0.462 OA
ENDROOT
BRANCH   1   2
ATOM      2  C   UNL A   1      36.834  21.386  24.636  1.00  0.00     0.312 C 
ATOM      3  O   UNL A   1      35.883  20.681  24.961  1.00  0.00    -0.252 OA
BRANCH   2   4
ATOM      4  C   UNL A   1      36.690  22.493  23.638  1.00  0.00     0.179 C 
BRANCH   4   5
ATOM      5  C   UNL A   1      35.623  23.500  23.903  1.00  0.00     0.063 A 
ATOM      6  C   UNL A   1      33.760  24.489  23.208  1.00  0.00     0.105 A 
ATOM      7  N   UNL A   1      34.902  23.964  22.818  1.00  0.00    -0.245 NA
ATOM      8  S   UNL A   1      33.646  24.743  24.912  1.00  0.00    -0.126 S 
ATOM      9  C   UNL A   1      35.126  23.910  25.124  1.00  0.00     0.091 A 
BRANCH   6  10
ATOM     10  C   UNL A   1      32.552  24.689  22.326  1.00  0.00     0.135 C 
ATOM     11  C   UNL A   1      31.299  24.996  23.160  1.00  0.00     0.026 C 
BRANCH  10  12
ATOM     12  C   UNL A   1      32.791  25.798  21.297  1.00  0.00     0.234 C 
ATOM     13  N   UNL A   1      32.877  27.127  21.596  1.00  0.00    -0.322 N 
ATOM     14  H   UNL A   1      33.092  27.676  20.808  1.00  0.00     0.170 HD
ATOM     15  O   UNL A   1      32.945  25.514  20.098  1.00  0.00    -0.274 OA
BRANCH  13  16
ATOM     16  C   UNL A   1      32.734  27.899  22.765  1.00  0.00     0.083 A 
ATOM     17  C   UNL A   1      31.452  28.426  23.016  1.00  0.00     0.142 A 
ATOM     18  C   UNL A   1      31.177  29.159  24.173  1.00  0.00     0.048 A 
ATOM     19  C   UNL A   1      32.183  29.363  25.111  1.00  0.00     0.004 A 
ATOM     20  C   UNL A   1      33.744  28.161  23.689  1.00  0.00     0.030 A 
ATOM     21  C   UNL A   1      33.466  28.874  24.865  1.00  0.00     0.002 A 
BRANCH  17  22
ATOM     22  O   UNL A   1      30.432  28.254  22.110  1.00  0.00    -0.495 OA
ATOM     23  C   UNL A   1      29.157  28.447  22.728  1.00  0.00     0.278 C 
ENDBRANCH  17  22
ENDBRANCH  13  16
ENDBRANCH  10  12
ENDBRANCH   6  10
ENDBRANCH   4   5
ENDBRANCH   2   4
ENDBRANCH   1   2
BRANCH   1  24
ATOM     24  C   UNL A   1      38.569  19.841  25.081  1.00  0.00     0.274 C 
BRANCH  24  25
ATOM     25  C   UNL A   1      39.689  19.638  26.102  1.00  0.00     0.275 C 
BRANCH  25  26
ATOM     26  O   UNL A   1      40.865  19.069  25.492  1.00  0.00    -0.458 OA
BRANCH  26  27
ATOM     27  C   UNL A   1      42.000  19.188  26.215  1.00  0.00     0.338 C 
ATOM     28  O   UNL A   1      42.801  18.317  26.499  1.00  0.00    -0.246 OA
BRANCH  27  29
ATOM     29  C   UNL A   1      42.210  20.591  26.596  1.00  0.00     0.060 A 
ATOM     30  C   UNL A   1      42.599  21.508  25.615  1.00  0.00     0.016 A 
ATOM     31  C   UNL A   1      42.165  20.961  27.940  1.00  0.00     0.016 A 
ATOM     32  C   UNL A   1      42.980  22.797  25.980  1.00  0.00     0.010 A 
ATOM     33  C   UNL A   1      42.520  22.264  28.300  1.00  0.00     0.010 A 
ATOM     34  C   UNL A   1      42.951  23.183  27.327  1.00  0.00    -0.014 A 
BRANCH  34  35
ATOM     35  C   UNL A   1      43.401  24.536  27.725  1.00  0.00     0.031 A 
ATOM     36  C   UNL A   1      42.393  25.587  28.091  1.00  0.00     0.074 A 
ATOM     37  C   UNL A   1      44.715  24.825  27.746  1.00  0.00     0.049 A 
ATOM     38  N   UNL A   1      42.576  26.858  28.348  1.00  0.00    -0.248 NA
ATOM     39  C   UNL A   1      40.991  25.151  28.176  1.00  0.00     0.031 C 
ATOM     40  C   UNL A   1      45.790  23.883  27.439  1.00  0.00     0.029 A 
ATOM     41  N   UNL A   1      45.365  26.001  28.023  1.00  0.00    -0.354 N 
ATOM     42  C   UNL A   1      41.313  27.379  28.595  1.00  0.00     0.074 A 
ATOM     43  C   UNL A   1      40.370  26.289  28.451  1.00  0.00     0.031 C 
ATOM     44  C   UNL A   1      46.968  24.519  27.534  1.00  0.00     0.029 A 
ATOM     45  C   UNL A   1      46.726  25.921  27.865  1.00  0.00     0.049 A 
ATOM     46  H   UNL A   1      44.901  26.822  28.307  1.00  0.00     0.167 HD
ATOM     47  C   UNL A   1      40.975  28.652  28.912  1.00  0.00     0.037 A 
ATOM     48  C   UNL A   1      47.668  26.879  27.945  1.00  0.00     0.037 A 
ATOM     49  C   UNL A   1      41.916  29.728  29.076  1.00  0.00     0.049 A 
ATOM     50  C   UNL A   1      47.264  28.290  28.268  1.00  0.00     0.074 A 
ATOM     51  C   UNL A   1      41.671  31.045  29.425  1.00  0.00     0.029 A 
ATOM     52  N   UNL A   1      43.287  29.610  28.903  1.00  0.00    -0.354 N 
ATOM     53  N   UNL A   1      46.069  28.774  28.498  1.00  0.00    -0.248 NA
ATOM     54  C   UNL A   1      48.341  29.288  28.339  1.00  0.00     0.031 C 
ATOM     55  C   UNL A   1      42.891  31.731  29.431  1.00  0.00     0.029 A 
ATOM     56  C   UNL A   1      43.900  30.833  29.121  1.00  0.00     0.049 A 
ATOM     57  H   UNL A   1      43.756  28.778  28.661  1.00  0.00     0.167 HD
ATOM     58  C   UNL A   1      46.248  30.126  28.749  1.00  0.00     0.074 A 
ATOM     59  C   UNL A   1      47.671  30.384  28.662  1.00  0.00     0.031 C 
ATOM     60  C   UNL A   1      45.316  31.071  29.027  1.00  0.00     0.037 A 
BRANCH  47  61
ATOM     61  C   UNL A   1      39.517  28.957  29.079  1.00  0.00     0.064 A 
ATOM     62  C   UNL A   1      38.884  28.869  30.326  1.00  0.00     0.173 A 
ATOM     63  C   UNL A   1      38.752  29.373  27.979  1.00  0.00     0.173 A 
ATOM     64  F   UNL A   1      39.571  28.461  31.404  1.00  0.00    -0.203 F 
ATOM     65  C   UNL A   1      37.531  29.169  30.464  1.00  0.00     0.198 A 
ATOM     66  C   UNL A   1      37.405  29.692  28.124  1.00  0.00     0.198 A 
ATOM     67  F   UNL A   1      39.314  29.474  26.765  1.00  0.00    -0.203 F 
ATOM     68  F   UNL A   1      36.936  29.043  31.658  1.00  0.00    -0.200 F 
ATOM     69  C   UNL A   1      36.795  29.585  29.364  1.00  0.00     0.200 A 
ATOM     70  F   UNL A   1      36.696  30.102  27.062  1.00  0.00    -0.200 F 
ATOM     71  F   UNL A   1      35.493  29.877  29.499  1.00  0.00    -0.200 F 
ENDBRANCH  47  61
BRANCH  48  72
ATOM     72  C   UNL A   1      49.087  26.531  27.686  1.00  0.00     0.064 A 
ATOM     73  C   UNL A   1      49.606  26.543  26.384  1.00  0.00     0.173 A 
ATOM     74  C   UNL A   1      49.953  26.192  28.735  1.00  0.00     0.173 A 
ATOM     75  F   UNL A   1      48.808  26.839  25.348  1.00  0.00    -0.203 F 
ATOM     76  C   UNL A   1      50.940  26.223  26.142  1.00  0.00     0.198 A 
ATOM     77  C   UNL A   1      51.292  25.894  28.493  1.00  0.00     0.198 A 
ATOM     78  F   UNL A   1      49.501  26.165  29.997  1.00  0.00    -0.203 F 
ATOM     79  F   UNL A   1      51.405  26.212  24.885  1.00  0.00    -0.200 F 
ATOM     80  C   UNL A   1      51.782  25.905  27.196  1.00  0.00     0.200 A 
ATOM     81  F   UNL A   1      52.106  25.598  29.516  1.00  0.00    -0.200 F 
ATOM     82  F   UNL A   1      53.068  25.604  26.961  1.00  0.00    -0.200 F 
ENDBRANCH  48  72
BRANCH  60  83
ATOM     83  C   UNL A   1      45.810  32.465  29.273  1.00  0.00     0.064 A 
ATOM     84  C   UNL A   1      46.208  32.884  30.551  1.00  0.00     0.173 A 
ATOM     85  C   UNL A   1      45.914  33.380  28.215  1.00  0.00     0.173 A 
ATOM     86  F   UNL A   1      46.109  32.048  31.596  1.00  0.00    -0.203 F 
ATOM     87  C   UNL A   1      46.677  34.177  30.764  1.00  0.00     0.198 A 
ATOM     88  C   UNL A   1      46.405  34.666  28.428  1.00  0.00     0.198 A 
ATOM     89  F   UNL A   1      45.548  33.024  26.975  1.00  0.00    -0.203 F 
ATOM     90  F   UNL A   1      47.016  34.570  32.000  1.00  0.00    -0.200 F 
ATOM     91  C   UNL A   1      46.779  35.065  29.703  1.00  0.00     0.200 A 
ATOM     92  F   UNL A   1      46.510  35.520  27.401  1.00  0.00    -0.200 F 
ATOM     93  F   UNL A   1      47.233  36.308  29.909  1.00  0.00    -0.200 F 
ENDBRANCH  60  83
ENDBRANCH  34  35
ENDBRANCH  27  29
ENDBRANCH  26  27
ENDBRANCH  25  26
ENDBRANCH  24  25
ENDBRANCH   1  24
TORSDOF 16
ENDMDL
MODEL 2
REMARK VINA RESULT:     -11.6      2.254      7.591
REMARK SMILES COc1ccccc1NC(=O)[C@H](C)c1nc(CC(=O)OCCOC(=O)c2ccc(-c3c4nc(c(-c5c(F)c(F)c(F)c(F)c5F)c5ccc([nH]5)c(-c5c(F)c(F)c(F)c(F)c5F)c5nc(c(-c6c(F)c(F)c(F)c(F)c6F)c6ccc3[nH]6)C=C5)C=C4)cc2)cs1
REMARK SMILES IDX 20 1 18 2 19 3 17 4 16 5 14 6 15 7 90 8 89 9 12 10 13 11
REMARK SMILES IDX 10 12 9 13 11 15 8 16 3 17 4 18 5 19 7 20 6 21 2 22 1 23
REMARK SMILES IDX 21 24 22 25 23 26 24 27 25 28 26 29 27 30 88 31 28 32 87 33
REMARK SMILES IDX 29 34 30 35 31 36 81 37 32 38 86 39 80 40 82 41 33 42 85 43
REMARK SMILES IDX 79 44 78 45 34 47 66 48 46 49 65 50 47 51 50 52 64 53 83 54
REMARK SMILES IDX 48 55 49 56 63 58 84 59 51 60 35 61 36 62 44 63 37 64 38 65
REMARK SMILES IDX 42 66 45 67 39 68 40 69 43 70 41 71 67 72 68 73 76 74 69 75
REMARK SMILES IDX 70 76 74 77 77 78 71 79 72 80 75 81 73 82 52 83 53 84 61 85
REMARK SMILES IDX 54 86 55 87 59 88 62 89 56 90 57 91 60 92 58 93
REMARK H PARENT 9 14 82 46 50 57
REMARK Flexibility Score: inf
ROOT
ATOM      1  O   UNL A   1      38.132  21.164  24.968  1.00  0.00    -0.462 OA
ENDROOT
BRANCH   1   2
ATOM      2  C   UNL A   1      36.908  21.717  24.788  1.00  0.00     0.312 C 
ATOM      3  O   UNL A   1      36.594  22.423  23.834  1.00  0.00    -0.252 OA
BRANCH   2   4
ATOM      4  C   UNL A   1      35.968  21.469  25.927  1.00  0.00     0.179 C 
BRANCH   4   5
ATOM      5  C   UNL A   1      34.525  21.318  25.586  1.00  0.00     0.063 A 
ATOM      6  C   UNL A   1      32.614  22.303  25.031  1.00  0.00     0.105 A 
ATOM      7  N   UNL A   1      33.715  22.428  25.740  1.00  0.00    -0.245 NA
ATOM      8  S   UNL A   1      32.354  20.714  24.407  1.00  0.00    -0.126 S 
ATOM      9  C   UNL A   1      33.908  20.255  24.959  1.00  0.00     0.091 A 
BRANCH   6  10
ATOM     10  C   UNL A   1      31.726  23.444  24.600  1.00  0.00     0.135 C 
ATOM     11  C   UNL A   1      31.050  23.146  23.253  1.00  0.00     0.026 C 
BRANCH  10  12
ATOM     12  C   UNL A   1      30.671  23.761  25.665  1.00  0.00     0.234 C 
ATOM     13  N   UNL A   1      30.031  24.961  25.787  1.00  0.00    -0.322 N 
ATOM     14  H   UNL A   1      29.348  24.951  26.496  1.00  0.00     0.170 HD
ATOM     15  O   UNL A   1      30.327  22.892  26.481  1.00  0.00    -0.274 OA
BRANCH  13  16
ATOM     16  C   UNL A   1      30.116  26.209  25.141  1.00  0.00     0.083 A 
ATOM     17  C   UNL A   1      30.944  27.175  25.745  1.00  0.00     0.142 A 
ATOM     18  C   UNL A   1      31.151  28.427  25.164  1.00  0.00     0.048 A 
ATOM     19  C   UNL A   1      30.539  28.730  23.952  1.00  0.00     0.004 A 
ATOM     20  C   UNL A   1      29.468  26.551  23.955  1.00  0.00     0.030 A 
ATOM     21  C   UNL A   1      29.692  27.798  23.354  1.00  0.00     0.002 A 
BRANCH  17  22
ATOM     22  O   UNL A   1      31.561  26.918  26.947  1.00  0.00    -0.495 OA
ATOM     23  C   UNL A   1      32.207  28.089  27.455  1.00  0.00     0.278 C 
ENDBRANCH  17  22
ENDBRANCH  13  16
ENDBRANCH  10  12
ENDBRANCH   6  10
ENDBRANCH   4   5
ENDBRANCH   2   4
ENDBRANCH   1   2
BRANCH   1  24
ATOM     24  C   UNL A   1      38.168  19.727  25.007  1.00  0.00     0.274 C 
BRANCH  24  25
ATOM     25  C   UNL A   1      39.399  19.211  25.753  1.00  0.00     0.275 C 
BRANCH  25  26
ATOM     26  O   UNL A   1      40.365  20.257  25.970  1.00  0.00    -0.458 OA
BRANCH  26  27
ATOM     27  C   UNL A   1      40.739  20.435  27.257  1.00  0.00     0.338 C 
ATOM     28  O   UNL A   1      40.910  19.584  28.110  1.00  0.00    -0.246 OA
BRANCH  27  29
ATOM     29  C   UNL A   1      40.994  21.858  27.515  1.00  0.00     0.060 A 
ATOM     30  C   UNL A   1      40.399  22.815  26.688  1.00  0.00     0.016 A 
ATOM     31  C   UNL A   1      41.934  22.232  28.475  1.00  0.00     0.016 A 
ATOM     32  C   UNL A   1      40.768  24.154  26.794  1.00  0.00     0.010 A 
ATOM     33  C   UNL A   1      42.281  23.580  28.600  1.00  0.00     0.010 A 
ATOM     34  C   UNL A   1      41.717  24.546  27.747  1.00  0.00    -0.014 A 
BRANCH  34  35
ATOM     35  C   UNL A   1      42.148  25.960  27.833  1.00  0.00     0.031 A 
ATOM     36  C   UNL A   1      43.457  26.386  27.235  1.00  0.00     0.074 A 
ATOM     37  C   UNL A   1      41.368  26.859  28.459  1.00  0.00     0.049 A 
ATOM     38  N   UNL A   1      44.066  27.543  27.310  1.00  0.00    -0.248 NA
ATOM     39  C   UNL A   1      44.182  25.374  26.451  1.00  0.00     0.031 C 
ATOM     40  C   UNL A   1      40.063  26.574  29.054  1.00  0.00     0.029 A 
ATOM     41  N   UNL A   1      41.570  28.193  28.712  1.00  0.00    -0.354 N 
ATOM     42  C   UNL A   1      45.255  27.391  26.610  1.00  0.00     0.074 A 
ATOM     43  C   UNL A   1      45.287  26.027  26.123  1.00  0.00     0.031 C 
ATOM     44  C   UNL A   1      39.584  27.697  29.613  1.00  0.00     0.029 A 
ATOM     45  C   UNL A   1      40.566  28.765  29.453  1.00  0.00     0.049 A 
ATOM     46  H   UNL A   1      42.357  28.691  28.393  1.00  0.00     0.167 HD
ATOM     47  C   UNL A   1      46.230  28.306  26.397  1.00  0.00     0.037 A 
ATOM     48  C   UNL A   1      40.467  30.002  29.973  1.00  0.00     0.037 A 
ATOM     49  C   UNL A   1      46.185  29.668  26.863  1.00  0.00     0.049 A 
ATOM     50  C   UNL A   1      41.576  30.991  29.747  1.00  0.00     0.074 A 
ATOM     51  C   UNL A   1      47.112  30.678  26.671  1.00  0.00     0.029 A 
ATOM     52  N   UNL A   1      45.154  30.209  27.615  1.00  0.00    -0.354 N 
ATOM     53  N   UNL A   1      42.697  30.838  29.088  1.00  0.00    -0.248 NA
ATOM     54  C   UNL A   1      41.406  32.324  30.344  1.00  0.00     0.031 C 
ATOM     55  C   UNL A   1      46.656  31.823  27.336  1.00  0.00     0.029 A 
ATOM     56  C   UNL A   1      45.429  31.535  27.911  1.00  0.00     0.049 A 
ATOM     57  H   UNL A   1      44.345  29.724  27.898  1.00  0.00     0.167 HD
ATOM     58  C   UNL A   1      43.362  32.052  29.179  1.00  0.00     0.074 A 
ATOM     59  C   UNL A   1      42.509  32.940  29.945  1.00  0.00     0.031 C 
ATOM     60  C   UNL A   1      44.570  32.401  28.676  1.00  0.00     0.037 A 
BRANCH  47  61
ATOM     61  C   UNL A   1      47.445  27.858  25.642  1.00  0.00     0.064 A 
ATOM     62  C   UNL A   1      47.470  27.819  24.241  1.00  0.00     0.173 A 
ATOM     63  C   UNL A   1      48.610  27.492  26.332  1.00  0.00     0.173 A 
ATOM     64  F   UNL A   1      46.374  28.145  23.538  1.00  0.00    -0.203 F 
ATOM     65  C   UNL A   1      48.612  27.411  23.557  1.00  0.00     0.198 A 
ATOM     66  C   UNL A   1      49.757  27.106  25.646  1.00  0.00     0.198 A 
ATOM     67  F   UNL A   1      48.636  27.515  27.674  1.00  0.00    -0.203 F 
ATOM     68  F   UNL A   1      48.603  27.346  22.219  1.00  0.00    -0.200 F 
ATOM     69  C   UNL A   1      49.756  27.060  24.260  1.00  0.00     0.200 A 
ATOM     70  F   UNL A   1      50.865  26.774  26.325  1.00  0.00    -0.200 F 
ATOM     71  F   UNL A   1      50.856  26.672  23.599  1.00  0.00    -0.200 F 
ENDBRANCH  47  61
BRANCH  48  72
ATOM     72  C   UNL A   1      39.276  30.360  30.784  1.00  0.00     0.064 A 
ATOM     73  C   UNL A   1      39.240  30.106  32.161  1.00  0.00     0.173 A 
ATOM     74  C   UNL A   1      38.160  30.974  30.199  1.00  0.00     0.173 A 
ATOM     75  F   UNL A   1      40.277  29.501  32.758  1.00  0.00    -0.203 F 
ATOM     76  C   UNL A   1      38.125  30.449  32.923  1.00  0.00     0.198 A 
ATOM     77  C   UNL A   1      37.055  31.336  30.966  1.00  0.00     0.198 A 
ATOM     78  F   UNL A   1      38.149  31.235  28.883  1.00  0.00    -0.203 F 
ATOM     79  F   UNL A   1      38.101  30.168  34.233  1.00  0.00    -0.200 F 
ATOM     80  C   UNL A   1      37.037  31.069  32.326  1.00  0.00     0.200 A 
ATOM     81  F   UNL A   1      36.010  31.944  30.387  1.00  0.00    -0.200 F 
ATOM     82  F   UNL A   1      35.968  31.404  33.062  1.00  0.00    -0.200 F 
ENDBRANCH  48  72
BRANCH  60  83
ATOM     83  C   UNL A   1      45.033  33.806  28.921  1.00  0.00     0.064 A 
ATOM     84  C   UNL A   1      45.828  34.129  30.031  1.00  0.00     0.173 A 
ATOM     85  C   UNL A   1      44.703  34.831  28.023  1.00  0.00     0.173 A 
ATOM     86  F   UNL A   1      46.153  33.184  30.926  1.00  0.00    -0.203 F 
ATOM     87  C   UNL A   1      46.263  35.435  30.241  1.00  0.00     0.198 A 
ATOM     88  C   UNL A   1      45.158  36.132  28.225  1.00  0.00     0.198 A 
ATOM     89  F   UNL A   1      43.947  34.570  26.947  1.00  0.00    -0.203 F 
ATOM     90  F   UNL A   1      46.989  35.730  31.327  1.00  0.00    -0.200 F 
ATOM     91  C   UNL A   1      45.931  36.434  29.337  1.00  0.00     0.200 A 
ATOM     92  F   UNL A   1      44.843  37.094  27.347  1.00  0.00    -0.200 F 
ATOM     93  F   UNL A   1      46.352  37.689  29.539  1.00  0.00    -0.200 F 
ENDBRANCH  60  83
ENDBRANCH  34  35
ENDBRANCH  27  29
ENDBRANCH  26  27
ENDBRANCH  25  26
ENDBRANCH  24  25
ENDBRANCH   1  24
TORSDOF 16
ENDMDL
MODEL 3
REMARK VINA RESULT:     -11.6      5.367     10.628
REMARK SMILES COc1ccccc1NC(=O)[C@H](C)c1nc(CC(=O)OCCOC(=O)c2ccc(-c3c4nc(c(-c5c(F)c(F)c(F)c(F)c5F)c5ccc([nH]5)c(-c5c(F)c(F)c(F)c(F)c5F)c5nc(c(-c6c(F)c(F)c(F)c(F)c6F)c6ccc3[nH]6)C=C5)C=C4)cc2)cs1
REMARK SMILES IDX 20 1 18 2 19 3 17 4 16 5 14 6 15 7 90 8 89 9 12 10 13 11
REMARK SMILES IDX 10 12 9 13 11 15 8 16 3 17 4 18 5 19 7 20 6 21 2 22 1 23
REMARK SMILES IDX 21 24 22 25 23 26 24 27 25 28 26 29 27 30 88 31 28 32 87 33
REMARK SMILES IDX 29 34 30 35 31 36 81 37 32 38 86 39 80 40 82 41 33 42 85 43
REMARK SMILES IDX 79 44 78 45 34 47 66 48 46 49 65 50 47 51 50 52 64 53 83 54
REMARK SMILES IDX 48 55 49 56 63 58 84 59 51 60 35 61 36 62 44 63 37 64 38 65
REMARK SMILES IDX 42 66 45 67 39 68 40 69 43 70 41 71 67 72 68 73 76 74 69 75
REMARK SMILES IDX 70 76 74 77 77 78 71 79 72 80 75 81 73 82 52 83 53 84 61 85
REMARK SMILES IDX 54 86 55 87 59 88 62 89 56 90 57 91 60 92 58 93
REMARK H PARENT 9 14 82 46 50 57
REMARK Flexibility Score: inf
ROOT
ATOM      1  O   UNL A   1      33.074  30.908  27.233  1.00  0.00    -0.462 OA
ENDROOT
BRANCH   1   2
ATOM      2  C   UNL A   1      33.100  29.552  27.235  1.00  0.00     0.312 C 
ATOM      3  O   UNL A   1      34.104  28.873  27.431  1.00  0.00    -0.252 OA
BRANCH   2   4
ATOM      4  C   UNL A   1      31.786  28.931  26.874  1.00  0.00     0.179 C 
BRANCH   4   5
ATOM      5  C   UNL A   1      31.800  27.925  25.774  1.00  0.00     0.063 A 
ATOM      6  C   UNL A   1      31.238  25.890  25.084  1.00  0.00     0.105 A 
ATOM      7  N   UNL A   1      31.625  26.598  26.124  1.00  0.00    -0.245 NA
ATOM      8  S   UNL A   1      31.382  26.717  23.575  1.00  0.00    -0.126 S 
ATOM      9  C   UNL A   1      31.787  28.153  24.413  1.00  0.00     0.091 A 
BRANCH   6  10
ATOM     10  C   UNL A   1      30.541  24.554  25.156  1.00  0.00     0.135 C 
ATOM     11  C   UNL A   1      30.818  23.713  23.901  1.00  0.00     0.026 C 
BRANCH  10  12
ATOM     12  C   UNL A   1      30.948  23.781  26.414  1.00  0.00     0.234 C 
ATOM     13  N   UNL A   1      32.197  23.281  26.646  1.00  0.00    -0.322 N 
ATOM     14  H   UNL A   1      32.276  22.866  27.536  1.00  0.00     0.170 HD
ATOM     15  O   UNL A   1      30.125  23.591  27.324  1.00  0.00    -0.274 OA
BRANCH  13  16
ATOM     16  C   UNL A   1      33.399  23.217  25.916  1.00  0.00     0.083 A 
ATOM     17  C   UNL A   1      33.631  22.033  25.189  1.00  0.00     0.142 A 
ATOM     18  C   UNL A   1      34.760  21.880  24.382  1.00  0.00     0.048 A 
ATOM     19  C   UNL A   1      35.675  22.923  24.278  1.00  0.00     0.004 A 
ATOM     20  C   UNL A   1      34.354  24.230  25.842  1.00  0.00     0.030 A 
ATOM     21  C   UNL A   1      35.477  24.091  25.013  1.00  0.00     0.002 A 
BRANCH  17  22
ATOM     22  O   UNL A   1      32.755  20.976  25.272  1.00  0.00    -0.495 OA
ATOM     23  C   UNL A   1      32.751  20.216  24.059  1.00  0.00     0.278 C 
ENDBRANCH  17  22
ENDBRANCH  13  16
ENDBRANCH  10  12
ENDBRANCH   6  10
ENDBRANCH   4   5
ENDBRANCH   2   4
ENDBRANCH   1   2
BRANCH   1  24
ATOM     24  C   UNL A   1      31.869  31.509  26.730  1.00  0.00     0.274 C 
BRANCH  24  25
ATOM     25  C   UNL A   1      31.817  33.008  27.026  1.00  0.00     0.275 C 
BRANCH  25  26
ATOM     26  O   UNL A   1      33.130  33.546  27.272  1.00  0.00    -0.458 OA
BRANCH  26  27
ATOM     27  C   UNL A   1      33.238  34.312  28.380  1.00  0.00     0.338 C 
ATOM     28  O   UNL A   1      32.511  35.220  28.735  1.00  0.00    -0.246 OA
BRANCH  27  29
ATOM     29  C   UNL A   1      34.370  33.856  29.198  1.00  0.00     0.060 A 
ATOM     30  C   UNL A   1      35.630  34.422  28.986  1.00  0.00     0.016 A 
ATOM     31  C   UNL A   1      34.211  32.774  30.063  1.00  0.00     0.016 A 
ATOM     32  C   UNL A   1      36.750  33.882  29.616  1.00  0.00     0.010 A 
ATOM     33  C   UNL A   1      35.331  32.253  30.717  1.00  0.00     0.010 A 
ATOM     34  C   UNL A   1      36.610  32.789  30.480  1.00  0.00    -0.014 A 
BRANCH  34  35
ATOM     35  C   UNL A   1      37.802  32.182  31.115  1.00  0.00     0.031 A 
ATOM     36  C   UNL A   1      38.591  31.133  30.387  1.00  0.00     0.074 A 
ATOM     37  C   UNL A   1      38.169  32.565  32.351  1.00  0.00     0.049 A 
ATOM     38  N   UNL A   1      39.586  30.398  30.814  1.00  0.00    -0.248 NA
ATOM     39  C   UNL A   1      38.206  30.872  28.991  1.00  0.00     0.031 C 
ATOM     40  C   UNL A   1      37.502  33.594  33.148  1.00  0.00     0.029 A 
ATOM     41  N   UNL A   1      39.186  32.120  33.158  1.00  0.00    -0.354 N 
ATOM     42  C   UNL A   1      39.927  29.569  29.754  1.00  0.00     0.074 A 
ATOM     43  C   UNL A   1      39.028  29.886  28.664  1.00  0.00     0.031 C 
ATOM     44  C   UNL A   1      38.120  33.695  34.335  1.00  0.00     0.029 A 
ATOM     45  C   UNL A   1      39.196  32.709  34.398  1.00  0.00     0.049 A 
ATOM     46  H   UNL A   1      39.844  31.444  32.876  1.00  0.00     0.167 HD
ATOM     47  C   UNL A   1      40.901  28.629  29.700  1.00  0.00     0.037 A 
ATOM     48  C   UNL A   1      39.965  32.458  35.473  1.00  0.00     0.037 A 
ATOM     49  C   UNL A   1      41.808  28.331  30.777  1.00  0.00     0.049 A 
ATOM     50  C   UNL A   1      41.019  31.390  35.397  1.00  0.00     0.074 A 
ATOM     51  C   UNL A   1      42.846  27.417  30.805  1.00  0.00     0.029 A 
ATOM     52  N   UNL A   1      41.784  28.946  32.019  1.00  0.00    -0.354 N 
ATOM     53  N   UNL A   1      41.332  30.610  34.392  1.00  0.00    -0.248 NA
ATOM     54  C   UNL A   1      41.823  31.165  36.607  1.00  0.00     0.031 C 
ATOM     55  C   UNL A   1      43.430  27.455  32.077  1.00  0.00     0.029 A 
ATOM     56  C   UNL A   1      42.778  28.420  32.828  1.00  0.00     0.049 A 
ATOM     57  H   UNL A   1      41.153  29.654  32.288  1.00  0.00     0.167 HD
ATOM     58  C   UNL A   1      42.373  29.810  34.842  1.00  0.00     0.074 A 
ATOM     59  C   UNL A   1      42.651  30.211  36.206  1.00  0.00     0.031 C 
ATOM     60  C   UNL A   1      43.038  28.829  34.183  1.00  0.00     0.037 A 
BRANCH  47  61
ATOM     61  C   UNL A   1      41.021  27.834  28.435  1.00  0.00     0.064 A 
ATOM     62  C   UNL A   1      41.859  28.238  27.386  1.00  0.00     0.173 A 
ATOM     63  C   UNL A   1      40.312  26.633  28.285  1.00  0.00     0.173 A 
ATOM     64  F   UNL A   1      42.546  29.387  27.477  1.00  0.00    -0.203 F 
ATOM     65  C   UNL A   1      41.967  27.479  26.223  1.00  0.00     0.198 A 
ATOM     66  C   UNL A   1      40.438  25.866  27.131  1.00  0.00     0.198 A 
ATOM     67  F   UNL A   1      39.499  26.202  29.262  1.00  0.00    -0.203 F 
ATOM     68  F   UNL A   1      42.745  27.903  25.218  1.00  0.00    -0.200 F 
ATOM     69  C   UNL A   1      41.262  26.292  26.100  1.00  0.00     0.200 A 
ATOM     70  F   UNL A   1      39.762  24.714  27.015  1.00  0.00    -0.200 F 
ATOM     71  F   UNL A   1      41.370  25.560  24.981  1.00  0.00    -0.200 F 
ENDBRANCH  47  61
BRANCH  48  72
ATOM     72  C   UNL A   1      39.741  33.223  36.725  1.00  0.00     0.064 A 
ATOM     73  C   UNL A   1      38.784  32.807  37.661  1.00  0.00     0.173 A 
ATOM     74  C   UNL A   1      40.486  34.374  37.014  1.00  0.00     0.173 A 
ATOM     75  F   UNL A   1      38.033  31.724  37.415  1.00  0.00    -0.203 F 
ATOM     76  C   UNL A   1      38.579  33.521  38.840  1.00  0.00     0.198 A 
ATOM     77  C   UNL A   1      40.295  35.074  38.203  1.00  0.00     0.198 A 
ATOM     78  F   UNL A   1      41.411  34.811  36.147  1.00  0.00    -0.203 F 
ATOM     79  F   UNL A   1      37.637  33.121  39.706  1.00  0.00    -0.200 F 
ATOM     80  C   UNL A   1      39.338  34.649  39.112  1.00  0.00     0.200 A 
ATOM     81  F   UNL A   1      41.038  36.157  38.468  1.00  0.00    -0.200 F 
ATOM     82  F   UNL A   1      39.144  35.330  40.250  1.00  0.00    -0.200 F 
ENDBRANCH  48  72
BRANCH  60  83
ATOM     83  C   UNL A   1      44.141  28.136  34.925  1.00  0.00     0.064 A 
ATOM     84  C   UNL A   1      45.448  28.644  34.930  1.00  0.00     0.173 A 
ATOM     85  C   UNL A   1      43.881  26.971  35.661  1.00  0.00     0.173 A 
ATOM     86  F   UNL A   1      45.747  29.746  34.226  1.00  0.00    -0.203 F 
ATOM     87  C   UNL A   1      46.462  27.998  35.633  1.00  0.00     0.198 A 
ATOM     88  C   UNL A   1      44.893  26.340  36.381  1.00  0.00     0.198 A 
ATOM     89  F   UNL A   1      42.646  26.449  35.688  1.00  0.00    -0.203 F 
ATOM     90  F   UNL A   1      47.712  28.478  35.594  1.00  0.00    -0.200 F 
ATOM     91  C   UNL A   1      46.182  26.850  36.361  1.00  0.00     0.200 A 
ATOM     92  F   UNL A   1      44.620  25.236  37.090  1.00  0.00    -0.200 F 
ATOM     93  F   UNL A   1      47.158  26.232  37.039  1.00  0.00    -0.200 F 
ENDBRANCH  60  83
ENDBRANCH  34  35
ENDBRANCH  27  29
ENDBRANCH  26  27
ENDBRANCH  25  26
ENDBRANCH  24  25
ENDBRANCH   1  24
TORSDOF 16
ENDMDL
