MODEL 1
REMARK VINA RESULT:     -11.3      0.000      0.000
REMARK SMILES CC(C)(C(=O)OCCOC(=O)c1ccc(-c2c3nc(c(-c4c(F)c(F)c(F)c(F)c4F)c4ccc([nH]4)c(-c4c(F)c(F)c(F)c(F)c4F)c4nc(c(-c5c(F)c(F)c(F)c(F)c5F)c5ccc2[nH]5)C=C4)C=C3)cc1)C1CCCCC1
REMARK SMILES IDX 8 1 7 2 6 3 4 4 5 5 2 6 1 7 3 8 75 9 76 10 80 11 77 12 79 13
REMARK SMILES IDX 78 14 9 15 10 16 11 17 12 18 13 19 74 20 14 21 73 22 15 23
REMARK SMILES IDX 16 24 17 25 67 26 18 27 72 28 66 29 68 30 19 31 71 32 65 33
REMARK SMILES IDX 64 34 20 36 52 37 32 38 51 39 33 40 36 41 50 42 69 43 34 44
REMARK SMILES IDX 35 45 49 47 70 48 37 49 21 50 22 51 30 52 23 53 24 54 28 55
REMARK SMILES IDX 31 56 25 57 26 58 29 59 27 60 53 61 54 62 62 63 55 64 56 65
REMARK SMILES IDX 60 66 63 67 57 68 58 69 61 70 59 71 38 72 39 73 47 74 40 75
REMARK SMILES IDX 41 76 45 77 48 78 42 79 43 80 46 81 44 82
REMARK H PARENT 68 35 36 46
REMARK Flexibility Score: inf
ROOT
ATOM      1  C   UNL A   1      31.768  29.888  26.097  1.00  0.00     0.275 C 
ENDROOT
BRANCH   1   2
ATOM      2  C   UNL A   1      31.682  28.644  26.979  1.00  0.00     0.274 C 
BRANCH   2   3
ATOM      3  O   UNL A   1      31.997  27.455  26.217  1.00  0.00    -0.462 OA
BRANCH   3   4
ATOM      4  C   UNL A   1      30.947  26.747  25.704  1.00  0.00     0.311 C 
ATOM      5  O   UNL A   1      30.271  25.971  26.366  1.00  0.00    -0.252 OA
BRANCH   4   6
ATOM      6  C   UNL A   1      30.824  26.935  24.174  1.00  0.00     0.065 C 
ATOM      7  C   UNL A   1      32.222  27.149  23.548  1.00  0.00     0.024 C 
ATOM      8  C   UNL A   1      30.275  25.591  23.646  1.00  0.00     0.024 C 
BRANCH   6   9
ATOM      9  C   UNL A   1      29.854  28.104  23.718  1.00  0.00     0.006 C 
ATOM     10  C   UNL A   1      30.341  28.923  22.504  1.00  0.00     0.005 C 
ATOM     11  C   UNL A   1      28.387  27.675  23.504  1.00  0.00     0.005 C 
ATOM     12  C   UNL A   1      29.447  30.131  22.241  1.00  0.00     0.000 C 
ATOM     13  C   UNL A   1      27.460  28.816  23.070  1.00  0.00     0.000 C 
ATOM     14  C   UNL A   1      28.018  29.697  21.960  1.00  0.00     0.000 C 
ENDBRANCH   6   9
ENDBRANCH   4   6
ENDBRANCH   3   4
ENDBRANCH   2   3
ENDBRANCH   1   2
BRANCH   1  15
ATOM     15  O   UNL A   1      33.123  30.358  26.110  1.00  0.00    -0.458 OA
BRANCH  15  16
ATOM     16  C   UNL A   1      33.420  31.333  26.998  1.00  0.00     0.338 C 
ATOM     17  O   UNL A   1      32.744  32.314  27.268  1.00  0.00    -0.246 OA
BRANCH  16  18
ATOM     18  C   UNL A   1      34.707  31.004  27.655  1.00  0.00     0.060 A 
ATOM     19  C   UNL A   1      34.971  29.687  28.013  1.00  0.00     0.016 A 
ATOM     20  C   UNL A   1      35.620  32.002  28.006  1.00  0.00     0.016 A 
ATOM     21  C   UNL A   1      36.085  29.379  28.785  1.00  0.00     0.010 A 
ATOM     22  C   UNL A   1      36.792  31.670  28.711  1.00  0.00     0.010 A 
ATOM     23  C   UNL A   1      37.024  30.352  29.140  1.00  0.00    -0.014 A 
BRANCH  23  24
ATOM     24  C   UNL A   1      38.170  29.963  30.020  1.00  0.00     0.031 A 
ATOM     25  C   UNL A   1      39.324  29.170  29.461  1.00  0.00     0.074 A 
ATOM     26  C   UNL A   1      38.268  30.434  31.282  1.00  0.00     0.049 A 
ATOM     27  N   UNL A   1      40.361  28.665  30.083  1.00  0.00    -0.248 NA
ATOM     28  C   UNL A   1      39.323  28.928  28.010  1.00  0.00     0.031 C 
ATOM     29  C   UNL A   1      37.299  31.315  31.937  1.00  0.00     0.029 A 
ATOM     30  N   UNL A   1      39.260  30.284  32.224  1.00  0.00    -0.354 N 
ATOM     31  C   UNL A   1      41.105  28.006  29.113  1.00  0.00     0.074 A 
ATOM     32  C   UNL A   1      40.412  28.187  27.856  1.00  0.00     0.031 C 
ATOM     33  C   UNL A   1      37.785  31.698  33.128  1.00  0.00     0.029 A 
ATOM     34  C   UNL A   1      39.044  31.003  33.377  1.00  0.00     0.049 A 
ATOM     35  H   UNL A   1      40.052  29.715  32.086  1.00  0.00     0.167 HD
ATOM     36  C   UNL A   1      42.257  27.306  29.258  1.00  0.00     0.037 A 
ATOM     37  C   UNL A   1      39.754  31.072  34.520  1.00  0.00     0.037 A 
ATOM     38  C   UNL A   1      42.978  27.151  30.494  1.00  0.00     0.049 A 
ATOM     39  C   UNL A   1      40.985  30.219  34.678  1.00  0.00     0.074 A 
ATOM     40  C   UNL A   1      44.097  26.378  30.752  1.00  0.00     0.029 A 
ATOM     41  N   UNL A   1      42.667  27.807  31.673  1.00  0.00    -0.354 N 
ATOM     42  N   UNL A   1      41.595  29.471  33.793  1.00  0.00    -0.248 NA
ATOM     43  C   UNL A   1      41.599  30.188  36.015  1.00  0.00     0.031 C 
ATOM     44  C   UNL A   1      44.450  26.548  32.096  1.00  0.00     0.029 A 
ATOM     45  C   UNL A   1      43.570  27.453  32.664  1.00  0.00     0.049 A 
ATOM     46  H   UNL A   1      41.916  28.432  31.791  1.00  0.00     0.167 HD
ATOM     47  C   UNL A   1      42.653  28.875  34.466  1.00  0.00     0.074 A 
ATOM     48  C   UNL A   1      42.635  29.385  35.819  1.00  0.00     0.031 C 
ATOM     49  C   UNL A   1      43.544  27.962  34.009  1.00  0.00     0.037 A 
BRANCH  36  50
ATOM     50  C   UNL A   1      42.785  26.595  28.050  1.00  0.00     0.064 A 
ATOM     51  C   UNL A   1      42.377  25.298  27.715  1.00  0.00     0.173 A 
ATOM     52  C   UNL A   1      43.682  27.248  27.190  1.00  0.00     0.173 A 
ATOM     53  F   UNL A   1      41.535  24.627  28.516  1.00  0.00    -0.203 F 
ATOM     54  C   UNL A   1      42.855  24.674  26.565  1.00  0.00     0.198 A 
ATOM     55  C   UNL A   1      44.142  26.631  26.032  1.00  0.00     0.198 A 
ATOM     56  F   UNL A   1      44.100  28.493  27.469  1.00  0.00    -0.203 F 
ATOM     57  F   UNL A   1      42.476  23.422  26.275  1.00  0.00    -0.200 F 
ATOM     58  C   UNL A   1      43.730  25.344  25.721  1.00  0.00     0.200 A 
ATOM     59  F   UNL A   1      44.980  27.283  25.215  1.00  0.00    -0.200 F 
ATOM     60  F   UNL A   1      44.182  24.745  24.611  1.00  0.00    -0.200 F 
ENDBRANCH  36  50
BRANCH  37  61
ATOM     61  C   UNL A   1      39.294  31.925  35.650  1.00  0.00     0.064 A 
ATOM     62  C   UNL A   1      39.817  33.212  35.843  1.00  0.00     0.173 A 
ATOM     63  C   UNL A   1      38.367  31.452  36.591  1.00  0.00     0.173 A 
ATOM     64  F   UNL A   1      40.735  33.697  34.992  1.00  0.00    -0.203 F 
ATOM     65  C   UNL A   1      39.446  33.982  36.944  1.00  0.00     0.198 A 
ATOM     66  C   UNL A   1      37.971  32.237  37.671  1.00  0.00     0.198 A 
ATOM     67  F   UNL A   1      37.848  30.222  36.465  1.00  0.00    -0.203 F 
ATOM     68  F   UNL A   1      40.010  35.181  37.139  1.00  0.00    -0.200 F 
ATOM     69  C   UNL A   1      38.519  33.497  37.853  1.00  0.00     0.200 A 
ATOM     70  F   UNL A   1      37.067  31.766  38.541  1.00  0.00    -0.200 F 
ATOM     71  F   UNL A   1      38.167  34.235  38.914  1.00  0.00    -0.200 F 
ENDBRANCH  37  61
BRANCH  49  72
ATOM     72  C   UNL A   1      44.567  27.454  34.982  1.00  0.00     0.064 A 
ATOM     73  C   UNL A   1      44.330  26.302  35.748  1.00  0.00     0.173 A 
ATOM     74  C   UNL A   1      45.797  28.106  35.140  1.00  0.00     0.173 A 
ATOM     75  F   UNL A   1      43.160  25.652  35.645  1.00  0.00    -0.203 F 
ATOM     76  C   UNL A   1      45.277  25.839  36.656  1.00  0.00     0.198 A 
ATOM     77  C   UNL A   1      46.753  27.626  36.032  1.00  0.00     0.198 A 
ATOM     78  F   UNL A   1      46.073  29.210  34.428  1.00  0.00    -0.203 F 
ATOM     79  F   UNL A   1      45.011  24.764  37.412  1.00  0.00    -0.200 F 
ATOM     80  C   UNL A   1      46.489  26.498  36.794  1.00  0.00     0.200 A 
ATOM     81  F   UNL A   1      47.927  28.259  36.158  1.00  0.00    -0.200 F 
ATOM     82  F   UNL A   1      47.401  26.051  37.669  1.00  0.00    -0.200 F 
ENDBRANCH  49  72
ENDBRANCH  23  24
ENDBRANCH  16  18
ENDBRANCH  15  16
ENDBRANCH   1  15
TORSDOF 12
ENDMDL
MODEL 2
REMARK VINA RESULT:     -11.3      0.290      1.704
REMARK SMILES CC(C)(C(=O)OCCOC(=O)c1ccc(-c2c3nc(c(-c4c(F)c(F)c(F)c(F)c4F)c4ccc([nH]4)c(-c4c(F)c(F)c(F)c(F)c4F)c4nc(c(-c5c(F)c(F)c(F)c(F)c5F)c5ccc2[nH]5)C=C4)C=C3)cc1)C1CCCCC1
REMARK SMILES IDX 8 1 7 2 6 3 4 4 5 5 2 6 1 7 3 8 75 9 76 10 80 11 77 12 79 13
REMARK SMILES IDX 78 14 9 15 10 16 11 17 12 18 13 19 74 20 14 21 73 22 15 23
REMARK SMILES IDX 16 24 17 25 67 26 18 27 72 28 66 29 68 30 19 31 71 32 65 33
REMARK SMILES IDX 64 34 20 36 52 37 32 38 51 39 33 40 36 41 50 42 69 43 34 44
REMARK SMILES IDX 35 45 49 47 70 48 37 49 21 50 22 51 30 52 23 53 24 54 28 55
REMARK SMILES IDX 31 56 25 57 26 58 29 59 27 60 53 61 54 62 62 63 55 64 56 65
REMARK SMILES IDX 60 66 63 67 57 68 58 69 61 70 59 71 38 72 39 73 47 74 40 75
REMARK SMILES IDX 41 76 45 77 48 78 42 79 43 80 46 81 44 82
REMARK H PARENT 68 35 36 46
REMARK Flexibility Score: inf
ROOT
ATOM      1  C   UNL A   1      31.851  30.025  26.086  1.00  0.00     0.275 C 
ENDROOT
BRANCH   1   2
ATOM      2  C   UNL A   1      31.712  28.703  26.840  1.00  0.00     0.274 C 
BRANCH   2   3
ATOM      3  O   UNL A   1      32.031  27.587  25.978  1.00  0.00    -0.462 OA
BRANCH   3   4
ATOM      4  C   UNL A   1      31.012  26.738  25.654  1.00  0.00     0.311 C 
ATOM      5  O   UNL A   1      30.506  25.957  26.449  1.00  0.00    -0.252 OA
BRANCH   4   6
ATOM      6  C   UNL A   1      30.689  26.782  24.141  1.00  0.00     0.065 C 
ATOM      7  C   UNL A   1      31.995  26.723  23.315  1.00  0.00     0.024 C 
ATOM      8  C   UNL A   1      29.898  25.485  23.860  1.00  0.00     0.024 C 
BRANCH   6   9
ATOM      9  C   UNL A   1      29.823  28.027  23.677  1.00  0.00     0.006 C 
ATOM     10  C   UNL A   1      30.413  28.831  22.499  1.00  0.00     0.005 C 
ATOM     11  C   UNL A   1      28.338  27.710  23.402  1.00  0.00     0.005 C 
ATOM     12  C   UNL A   1      29.619  30.106  22.231  1.00  0.00     0.000 C 
ATOM     13  C   UNL A   1      27.512  28.923  22.960  1.00  0.00     0.000 C 
ATOM     14  C   UNL A   1      28.173  29.783  21.890  1.00  0.00     0.000 C 
ENDBRANCH   6   9
ENDBRANCH   4   6
ENDBRANCH   3   4
ENDBRANCH   2   3
ENDBRANCH   1   2
BRANCH   1  15
ATOM     15  O   UNL A   1      33.223  30.438  26.152  1.00  0.00    -0.458 OA
BRANCH  15  16
ATOM     16  C   UNL A   1      33.533  31.379  27.072  1.00  0.00     0.338 C 
ATOM     17  O   UNL A   1      32.859  32.346  27.390  1.00  0.00    -0.246 OA
BRANCH  16  18
ATOM     18  C   UNL A   1      34.829  31.026  27.697  1.00  0.00     0.060 A 
ATOM     19  C   UNL A   1      35.063  29.713  28.086  1.00  0.00     0.016 A 
ATOM     20  C   UNL A   1      35.785  32.004  27.986  1.00  0.00     0.016 A 
ATOM     21  C   UNL A   1      36.192  29.391  28.830  1.00  0.00     0.010 A 
ATOM     22  C   UNL A   1      36.970  31.654  28.662  1.00  0.00     0.010 A 
ATOM     23  C   UNL A   1      37.173  30.343  29.124  1.00  0.00    -0.014 A 
BRANCH  23  24
ATOM     24  C   UNL A   1      38.335  29.942  29.977  1.00  0.00     0.031 A 
ATOM     25  C   UNL A   1      39.452  29.111  29.400  1.00  0.00     0.074 A 
ATOM     26  C   UNL A   1      38.482  30.435  31.227  1.00  0.00     0.049 A 
ATOM     27  N   UNL A   1      40.496  28.592  30.002  1.00  0.00    -0.248 NA
ATOM     28  C   UNL A   1      39.403  28.841  27.955  1.00  0.00     0.031 C 
ATOM     29  C   UNL A   1      37.555  31.352  31.892  1.00  0.00     0.029 A 
ATOM     30  N   UNL A   1      39.498  30.278  32.142  1.00  0.00    -0.354 N 
ATOM     31  C   UNL A   1      41.195  27.897  29.023  1.00  0.00     0.074 A 
ATOM     32  C   UNL A   1      40.468  28.071  27.784  1.00  0.00     0.031 C 
ATOM     33  C   UNL A   1      38.085  31.745  33.061  1.00  0.00     0.029 A 
ATOM     34  C   UNL A   1      39.334  31.024  33.286  1.00  0.00     0.049 A 
ATOM     35  H   UNL A   1      40.271  29.687  31.992  1.00  0.00     0.167 HD
ATOM     36  C   UNL A   1      42.333  27.172  29.148  1.00  0.00     0.037 A 
ATOM     37  C   UNL A   1      40.079  31.097  34.406  1.00  0.00     0.037 A 
ATOM     38  C   UNL A   1      43.086  27.023  30.365  1.00  0.00     0.049 A 
ATOM     39  C   UNL A   1      41.293  30.217  34.545  1.00  0.00     0.074 A 
ATOM     40  C   UNL A   1      44.194  26.227  30.606  1.00  0.00     0.029 A 
ATOM     41  N   UNL A   1      42.826  27.708  31.540  1.00  0.00    -0.354 N 
ATOM     42  N   UNL A   1      41.859  29.438  33.658  1.00  0.00    -0.248 NA
ATOM     43  C   UNL A   1      41.946  30.196  35.863  1.00  0.00     0.031 C 
ATOM     44  C   UNL A   1      44.591  26.414  31.935  1.00  0.00     0.029 A 
ATOM     45  C   UNL A   1      43.750  27.351  32.510  1.00  0.00     0.049 A 
ATOM     46  H   UNL A   1      42.094  28.354  31.668  1.00  0.00     0.167 HD
ATOM     47  C   UNL A   1      42.922  28.829  34.311  1.00  0.00     0.074 A 
ATOM     48  C   UNL A   1      42.956  29.365  35.653  1.00  0.00     0.031 C 
ATOM     49  C   UNL A   1      43.777  27.885  33.846  1.00  0.00     0.037 A 
BRANCH  36  50
ATOM     50  C   UNL A   1      42.808  26.425  27.940  1.00  0.00     0.064 A 
ATOM     51  C   UNL A   1      42.389  25.117  27.663  1.00  0.00     0.173 A 
ATOM     52  C   UNL A   1      43.661  27.054  27.019  1.00  0.00     0.173 A 
ATOM     53  F   UNL A   1      41.588  24.469  28.523  1.00  0.00    -0.203 F 
ATOM     54  C   UNL A   1      42.816  24.460  26.512  1.00  0.00     0.198 A 
ATOM     55  C   UNL A   1      44.069  26.403  25.860  1.00  0.00     0.198 A 
ATOM     56  F   UNL A   1      44.086  28.307  27.240  1.00  0.00    -0.203 F 
ATOM     57  F   UNL A   1      42.429  23.198  26.279  1.00  0.00    -0.200 F 
ATOM     58  C   UNL A   1      43.649  25.105  25.609  1.00  0.00     0.200 A 
ATOM     59  F   UNL A   1      44.867  27.031  24.986  1.00  0.00    -0.200 F 
ATOM     60  F   UNL A   1      44.052  24.474  24.498  1.00  0.00    -0.200 F 
ENDBRANCH  36  50
BRANCH  37  61
ATOM     61  C   UNL A   1      39.674  31.983  35.532  1.00  0.00     0.064 A 
ATOM     62  C   UNL A   1      38.716  31.567  36.469  1.00  0.00     0.173 A 
ATOM     63  C   UNL A   1      40.189  33.281  35.661  1.00  0.00     0.173 A 
ATOM     64  F   UNL A   1      38.165  30.348  36.367  1.00  0.00    -0.203 F 
ATOM     65  C   UNL A   1      38.278  32.423  37.478  1.00  0.00     0.198 A 
ATOM     66  C   UNL A   1      39.776  34.123  36.691  1.00  0.00     0.198 A 
ATOM     67  F   UNL A   1      41.094  33.737  34.783  1.00  0.00    -0.203 F 
ATOM     68  F   UNL A   1      37.316  32.023  38.320  1.00  0.00    -0.200 F 
ATOM     69  C   UNL A   1      38.813  33.697  37.592  1.00  0.00     0.200 A 
ATOM     70  F   UNL A   1      40.303  35.349  36.802  1.00  0.00    -0.200 F 
ATOM     71  F   UNL A   1      38.387  34.521  38.559  1.00  0.00    -0.200 F 
ENDBRANCH  37  61
BRANCH  49  72
ATOM     72  C   UNL A   1      44.815  27.371  34.798  1.00  0.00     0.064 A 
ATOM     73  C   UNL A   1      46.062  28.003  34.922  1.00  0.00     0.173 A 
ATOM     74  C   UNL A   1      44.562  26.253  35.604  1.00  0.00     0.173 A 
ATOM     75  F   UNL A   1      46.359  29.066  34.159  1.00  0.00    -0.203 F 
ATOM     76  C   UNL A   1      47.026  27.518  35.800  1.00  0.00     0.198 A 
ATOM     77  C   UNL A   1      45.520  25.784  36.500  1.00  0.00     0.198 A 
ATOM     78  F   UNL A   1      43.384  25.616  35.526  1.00  0.00    -0.203 F 
ATOM     79  F   UNL A   1      48.228  28.108  35.868  1.00  0.00    -0.200 F 
ATOM     80  C   UNL A   1      46.753  26.412  36.591  1.00  0.00     0.200 A 
ATOM     81  F   UNL A   1      45.252  24.722  37.270  1.00  0.00    -0.200 F 
ATOM     82  F   UNL A   1      47.683  25.945  37.437  1.00  0.00    -0.200 F 
ENDBRANCH  49  72
ENDBRANCH  23  24
ENDBRANCH  16  18
ENDBRANCH  15  16
ENDBRANCH   1  15
TORSDOF 12
ENDMDL
MODEL 3
REMARK VINA RESULT:     -11.3      1.686      3.435
REMARK SMILES CC(C)(C(=O)OCCOC(=O)c1ccc(-c2c3nc(c(-c4c(F)c(F)c(F)c(F)c4F)c4ccc([nH]4)c(-c4c(F)c(F)c(F)c(F)c4F)c4nc(c(-c5c(F)c(F)c(F)c(F)c5F)c5ccc2[nH]5)C=C4)C=C3)cc1)C1CCCCC1
REMARK SMILES IDX 8 1 7 2 6 3 4 4 5 5 2 6 1 7 3 8 75 9 76 10 80 11 77 12 79 13
REMARK SMILES IDX 78 14 9 15 10 16 11 17 12 18 13 19 74 20 14 21 73 22 15 23
REMARK SMILES IDX 16 24 17 25 67 26 18 27 72 28 66 29 68 30 19 31 71 32 65 33
REMARK SMILES IDX 64 34 20 36 52 37 32 38 51 39 33 40 36 41 50 42 69 43 34 44
REMARK SMILES IDX 35 45 49 47 70 48 37 49 21 50 22 51 30 52 23 53 24 54 28 55
REMARK SMILES IDX 31 56 25 57 26 58 29 59 27 60 53 61 54 62 62 63 55 64 56 65
REMARK SMILES IDX 60 66 63 67 57 68 58 69 61 70 59 71 38 72 39 73 47 74 40 75
REMARK SMILES IDX 41 76 45 77 48 78 42 79 43 80 46 81 44 82
REMARK H PARENT 68 35 36 46
REMARK Flexibility Score: inf
ROOT
ATOM      1  C   UNL A   1      31.657  29.459  25.765  1.00  0.00     0.275 C 
ENDROOT
BRANCH   1   2
ATOM      2  C   UNL A   1      31.664  28.436  24.630  1.00  0.00     0.274 C 
BRANCH   2   3
ATOM      3  O   UNL A   1      32.135  27.153  25.101  1.00  0.00    -0.462 OA
BRANCH   3   4
ATOM      4  C   UNL A   1      33.278  26.662  24.537  1.00  0.00     0.311 C 
ATOM      5  O   UNL A   1      34.029  27.335  23.843  1.00  0.00    -0.252 OA
BRANCH   4   6
ATOM      6  C   UNL A   1      33.417  25.138  24.759  1.00  0.00     0.065 C 
ATOM      7  C   UNL A   1      32.910  24.755  26.168  1.00  0.00     0.024 C 
ATOM      8  C   UNL A   1      32.466  24.492  23.727  1.00  0.00     0.024 C 
BRANCH   6   9
ATOM      9  C   UNL A   1      34.880  24.561  24.546  1.00  0.00     0.006 C 
ATOM     10  C   UNL A   1      35.559  24.016  25.821  1.00  0.00     0.005 C 
ATOM     11  C   UNL A   1      35.003  23.528  23.406  1.00  0.00     0.005 C 
ATOM     12  C   UNL A   1      37.018  23.646  25.570  1.00  0.00     0.000 C 
ATOM     13  C   UNL A   1      36.422  22.984  23.208  1.00  0.00     0.000 C 
ATOM     14  C   UNL A   1      37.129  22.576  24.495  1.00  0.00     0.000 C 
ENDBRANCH   6   9
ENDBRANCH   4   6
ENDBRANCH   3   4
ENDBRANCH   2   3
ENDBRANCH   1   2
BRANCH   1  15
ATOM     15  O   UNL A   1      32.935  30.107  25.797  1.00  0.00    -0.458 OA
BRANCH  15  16
ATOM     16  C   UNL A   1      33.129  31.026  26.769  1.00  0.00     0.338 C 
ATOM     17  O   UNL A   1      32.353  31.903  27.117  1.00  0.00    -0.246 OA
BRANCH  16  18
ATOM     18  C   UNL A   1      34.441  30.775  27.409  1.00  0.00     0.060 A 
ATOM     19  C   UNL A   1      34.859  29.466  27.616  1.00  0.00     0.016 A 
ATOM     20  C   UNL A   1      35.227  31.826  27.891  1.00  0.00     0.016 A 
ATOM     21  C   UNL A   1      35.997  29.202  28.369  1.00  0.00     0.010 A 
ATOM     22  C   UNL A   1      36.427  31.553  28.575  1.00  0.00     0.010 A 
ATOM     23  C   UNL A   1      36.812  30.230  28.853  1.00  0.00    -0.014 A 
BRANCH  23  24
ATOM     24  C   UNL A   1      37.991  29.878  29.703  1.00  0.00     0.031 A 
ATOM     25  C   UNL A   1      39.139  29.091  29.125  1.00  0.00     0.074 A 
ATOM     26  C   UNL A   1      38.121  30.379  30.952  1.00  0.00     0.049 A 
ATOM     27  N   UNL A   1      40.204  28.616  29.724  1.00  0.00    -0.248 NA
ATOM     28  C   UNL A   1      39.096  28.818  27.680  1.00  0.00     0.031 C 
ATOM     29  C   UNL A   1      37.160  31.258  31.618  1.00  0.00     0.029 A 
ATOM     30  N   UNL A   1      39.144  30.264  31.865  1.00  0.00    -0.354 N 
ATOM     31  C   UNL A   1      40.927  27.948  28.745  1.00  0.00     0.074 A 
ATOM     32  C   UNL A   1      40.191  28.090  27.507  1.00  0.00     0.031 C 
ATOM     33  C   UNL A   1      37.677  31.674  32.785  1.00  0.00     0.029 A 
ATOM     34  C   UNL A   1      38.954  31.005  33.008  1.00  0.00     0.049 A 
ATOM     35  H   UNL A   1      39.941  29.704  31.713  1.00  0.00     0.167 HD
ATOM     36  C   UNL A   1      42.094  27.269  28.868  1.00  0.00     0.037 A 
ATOM     37  C   UNL A   1      39.698  31.109  34.126  1.00  0.00     0.037 A 
ATOM     38  C   UNL A   1      42.856  27.152  30.083  1.00  0.00     0.049 A 
ATOM     39  C   UNL A   1      40.947  30.279  34.263  1.00  0.00     0.074 A 
ATOM     40  C   UNL A   1      43.995  26.402  30.322  1.00  0.00     0.029 A 
ATOM     41  N   UNL A   1      42.571  27.828  31.258  1.00  0.00    -0.354 N 
ATOM     42  N   UNL A   1      41.541  29.521  33.375  1.00  0.00    -0.248 NA
ATOM     43  C   UNL A   1      41.603  30.286  35.580  1.00  0.00     0.031 C 
ATOM     44  C   UNL A   1      44.388  26.606  31.650  1.00  0.00     0.029 A 
ATOM     45  C   UNL A   1      43.511  27.510  32.226  1.00  0.00     0.049 A 
ATOM     46  H   UNL A   1      41.815  28.444  31.387  1.00  0.00     0.167 HD
ATOM     47  C   UNL A   1      42.629  28.956  34.027  1.00  0.00     0.074 A 
ATOM     48  C   UNL A   1      42.646  29.496  35.368  1.00  0.00     0.031 C 
ATOM     49  C   UNL A   1      43.520  28.047  33.561  1.00  0.00     0.037 A 
BRANCH  36  50
ATOM     50  C   UNL A   1      42.595  26.540  27.659  1.00  0.00     0.064 A 
ATOM     51  C   UNL A   1      43.527  27.111  26.782  1.00  0.00     0.173 A 
ATOM     52  C   UNL A   1      42.167  25.228  27.406  1.00  0.00     0.173 A 
ATOM     53  F   UNL A   1      43.951  28.369  26.974  1.00  0.00    -0.203 F 
ATOM     54  C   UNL A   1      44.005  26.397  25.686  1.00  0.00     0.198 A 
ATOM     55  C   UNL A   1      42.662  24.509  26.323  1.00  0.00     0.198 A 
ATOM     56  F   UNL A   1      41.278  24.638  28.220  1.00  0.00    -0.203 F 
ATOM     57  F   UNL A   1      44.874  26.969  24.842  1.00  0.00    -0.200 F 
ATOM     58  C   UNL A   1      43.578  25.095  25.462  1.00  0.00     0.200 A 
ATOM     59  F   UNL A   1      42.255  23.250  26.113  1.00  0.00    -0.200 F 
ATOM     60  F   UNL A   1      44.047  24.406  24.412  1.00  0.00    -0.200 F 
ENDBRANCH  36  50
BRANCH  37  61
ATOM     61  C   UNL A   1      39.261  31.980  35.251  1.00  0.00     0.064 A 
ATOM     62  C   UNL A   1      38.474  31.470  36.295  1.00  0.00     0.173 A 
ATOM     63  C   UNL A   1      39.569  33.348  35.278  1.00  0.00     0.173 A 
ATOM     64  F   UNL A   1      38.119  30.176  36.296  1.00  0.00    -0.203 F 
ATOM     65  C   UNL A   1      37.997  32.300  37.309  1.00  0.00     0.198 A 
ATOM     66  C   UNL A   1      39.122  34.169  36.311  1.00  0.00     0.198 A 
ATOM     67  F   UNL A   1      40.303  33.892  34.297  1.00  0.00    -0.203 F 
ATOM     68  F   UNL A   1      37.195  31.800  38.257  1.00  0.00    -0.200 F 
ATOM     69  C   UNL A   1      38.328  33.646  37.319  1.00  0.00     0.200 A 
ATOM     70  F   UNL A   1      39.452  35.467  36.321  1.00  0.00    -0.200 F 
ATOM     71  F   UNL A   1      37.865  34.444  38.291  1.00  0.00    -0.200 F 
ENDBRANCH  37  61
BRANCH  49  72
ATOM     72  C   UNL A   1      44.581  27.576  34.511  1.00  0.00     0.064 A 
ATOM     73  C   UNL A   1      45.800  28.261  34.635  1.00  0.00     0.173 A 
ATOM     74  C   UNL A   1      44.377  26.448  35.316  1.00  0.00     0.173 A 
ATOM     75  F   UNL A   1      46.049  29.337  33.873  1.00  0.00    -0.203 F 
ATOM     76  C   UNL A   1      46.785  27.816  35.511  1.00  0.00     0.198 A 
ATOM     77  C   UNL A   1      45.355  26.018  36.210  1.00  0.00     0.198 A 
ATOM     78  F   UNL A   1      43.227  25.760  35.238  1.00  0.00    -0.203 F 
ATOM     79  F   UNL A   1      47.960  28.458  35.579  1.00  0.00    -0.200 F 
ATOM     80  C   UNL A   1      46.560  26.699  36.301  1.00  0.00     0.200 A 
ATOM     81  F   UNL A   1      45.134  24.944  36.979  1.00  0.00    -0.200 F 
ATOM     82  F   UNL A   1      47.510  26.271  37.144  1.00  0.00    -0.200 F 
ENDBRANCH  49  72
ENDBRANCH  23  24
ENDBRANCH  16  18
ENDBRANCH  15  16
ENDBRANCH   1  15
TORSDOF 12
ENDMDL
