MODEL 1
REMARK VINA RESULT:     -10.8      0.000      0.000
REMARK SMILES COCCCC(=O)Nc1nc2ccc(C(=O)OCCOC(=O)c3ccc(-c4c5nc(c(-c6c(F)c(F)c(F)c(F)c6F)c6ccc([nH]6)c(-c6c(F)c(F)c(F)c(F)c6F)c6nc(c(-c7c(F)c(F)c(F)c(F)c7F)c7ccc4[nH]7)C=C6)C=C5)cc3)cc2s1
REMARK SMILES IDX 17 1 15 2 16 3 14 4 9 5 10 6 88 7 11 8 87 9 12 10 86 11
REMARK SMILES IDX 13 12 8 13 6 14 7 15 5 17 4 18 3 19 2 20 1 21 18 22 19 23
REMARK SMILES IDX 20 24 21 25 22 26 23 27 24 28 85 29 25 30 84 31 26 32 27 33
REMARK SMILES IDX 28 34 78 35 29 36 83 37 77 38 79 39 30 40 82 41 76 42 75 43
REMARK SMILES IDX 31 45 63 46 43 47 62 48 44 49 47 50 61 51 80 52 45 53 46 54
REMARK SMILES IDX 60 56 81 57 48 58 32 59 33 60 41 61 34 62 35 63 39 64 42 65
REMARK SMILES IDX 36 66 37 67 40 68 38 69 64 70 65 71 73 72 66 73 67 74 71 75
REMARK SMILES IDX 74 76 68 77 69 78 72 79 70 80 49 81 50 82 58 83 51 84 52 85
REMARK SMILES IDX 56 86 59 87 53 88 54 89 57 90 55 91
REMARK H PARENT 8 16 79 44 47 55
REMARK Flexibility Score: inf
ROOT
ATOM      1  O   UNL A   1      33.877  34.280  28.599  1.00  0.00    -0.458 OA
ENDROOT
BRANCH   1   2
ATOM      2  C   UNL A   1      35.069  33.634  28.671  1.00  0.00     0.338 C 
ATOM      3  O   UNL A   1      36.108  34.088  29.109  1.00  0.00    -0.246 OA
BRANCH   2   4
ATOM      4  C   UNL A   1      34.943  32.213  28.224  1.00  0.00     0.061 A 
ATOM      5  C   UNL A   1      33.042  28.451  26.124  1.00  0.00     0.190 A 
ATOM      6  N   UNL A   1      34.312  28.460  26.444  1.00  0.00    -0.220 NA
ATOM      7  S   UNL A   1      32.073  29.634  26.891  1.00  0.00    -0.097 S 
ATOM      8  C   UNL A   1      34.606  29.644  27.109  1.00  0.00     0.084 A 
ATOM      9  C   UNL A   1      33.506  30.460  27.383  1.00  0.00     0.057 A 
ATOM     10  C   UNL A   1      35.888  30.097  27.485  1.00  0.00     0.031 A 
ATOM     11  C   UNL A   1      33.648  31.736  27.956  1.00  0.00     0.037 A 
ATOM     12  C   UNL A   1      36.049  31.384  28.023  1.00  0.00     0.018 A 
BRANCH   5  13
ATOM     13  N   UNL A   1      32.391  27.444  25.462  1.00  0.00    -0.302 N 
ATOM     14  C   UNL A   1      31.252  27.672  24.731  1.00  0.00     0.226 C 
ATOM     15  O   UNL A   1      30.290  26.913  24.852  1.00  0.00    -0.275 OA
ATOM     16  H   UNL A   1      32.750  26.529  25.512  1.00  0.00     0.172 HD
BRANCH  14  17
ATOM     17  C   UNL A   1      31.284  28.741  23.644  1.00  0.00     0.103 C 
BRANCH  17  18
ATOM     18  C   UNL A   1      30.029  29.601  23.493  1.00  0.00     0.038 C 
BRANCH  18  19
ATOM     19  C   UNL A   1      28.931  29.080  22.565  1.00  0.00     0.160 C 
BRANCH  19  20
ATOM     20  O   UNL A   1      28.805  29.771  21.327  1.00  0.00    -0.385 OA
ATOM     21  C   UNL A   1      28.553  31.164  21.433  1.00  0.00     0.194 C 
ENDBRANCH  19  20
ENDBRANCH  18  19
ENDBRANCH  17  18
ENDBRANCH  14  17
ENDBRANCH   5  13
ENDBRANCH   2   4
ENDBRANCH   1   2
BRANCH   1  22
ATOM     22  C   UNL A   1      33.933  35.722  28.602  1.00  0.00     0.275 C 
BRANCH  22  23
ATOM     23  C   UNL A   1      32.890  36.322  29.548  1.00  0.00     0.275 C 
BRANCH  23  24
ATOM     24  O   UNL A   1      32.439  35.352  30.511  1.00  0.00    -0.458 OA
BRANCH  24  25
ATOM     25  C   UNL A   1      32.602  35.706  31.805  1.00  0.00     0.338 C 
ATOM     26  O   UNL A   1      31.885  36.427  32.481  1.00  0.00    -0.246 OA
BRANCH  25  27
ATOM     27  C   UNL A   1      33.755  34.984  32.356  1.00  0.00     0.060 A 
ATOM     28  C   UNL A   1      35.011  35.578  32.238  1.00  0.00     0.016 A 
ATOM     29  C   UNL A   1      33.621  33.706  32.901  1.00  0.00     0.016 A 
ATOM     30  C   UNL A   1      36.147  34.886  32.648  1.00  0.00     0.010 A 
ATOM     31  C   UNL A   1      34.765  33.020  33.327  1.00  0.00     0.010 A 
ATOM     32  C   UNL A   1      36.040  33.597  33.188  1.00  0.00    -0.014 A 
BRANCH  32  33
ATOM     33  C   UNL A   1      37.270  32.848  33.564  1.00  0.00     0.031 A 
ATOM     34  C   UNL A   1      37.937  33.103  34.887  1.00  0.00     0.074 A 
ATOM     35  C   UNL A   1      37.774  31.919  32.732  1.00  0.00     0.049 A 
ATOM     36  N   UNL A   1      39.075  32.643  35.345  1.00  0.00    -0.248 NA
ATOM     37  C   UNL A   1      37.233  33.999  35.817  1.00  0.00     0.031 C 
ATOM     38  C   UNL A   1      37.197  31.537  31.444  1.00  0.00     0.029 A 
ATOM     39  N   UNL A   1      38.888  31.122  32.848  1.00  0.00    -0.354 N 
ATOM     40  C   UNL A   1      39.242  33.221  36.597  1.00  0.00     0.074 A 
ATOM     41  C   UNL A   1      38.095  34.076  36.822  1.00  0.00     0.031 C 
ATOM     42  C   UNL A   1      37.946  30.566  30.898  1.00  0.00     0.029 A 
ATOM     43  C   UNL A   1      39.093  30.306  31.763  1.00  0.00     0.049 A 
ATOM     44  H   UNL A   1      39.480  31.135  33.633  1.00  0.00     0.167 HD
ATOM     45  C   UNL A   1      40.258  33.050  37.478  1.00  0.00     0.037 A 
ATOM     46  C   UNL A   1      40.109  29.468  31.480  1.00  0.00     0.037 A 
ATOM     47  C   UNL A   1      41.377  32.167  37.270  1.00  0.00     0.049 A 
ATOM     48  C   UNL A   1      41.251  29.336  32.449  1.00  0.00     0.074 A 
ATOM     49  C   UNL A   1      42.444  31.910  38.115  1.00  0.00     0.029 A 
ATOM     50  N   UNL A   1      41.570  31.387  36.139  1.00  0.00    -0.354 N 
ATOM     51  N   UNL A   1      41.415  29.909  33.616  1.00  0.00    -0.248 NA
ATOM     52  C   UNL A   1      42.356  28.451  32.054  1.00  0.00     0.031 C 
ATOM     53  C   UNL A   1      43.303  31.008  37.478  1.00  0.00     0.029 A 
ATOM     54  C   UNL A   1      42.748  30.666  36.255  1.00  0.00     0.049 A 
ATOM     55  H   UNL A   1      40.960  31.352  35.367  1.00  0.00     0.167 HD
ATOM     56  C   UNL A   1      42.629  29.444  34.102  1.00  0.00     0.074 A 
ATOM     57  C   UNL A   1      43.153  28.526  33.111  1.00  0.00     0.031 C 
ATOM     58  C   UNL A   1      43.255  29.752  35.263  1.00  0.00     0.037 A 
BRANCH  45  59
ATOM     59  C   UNL A   1      40.225  33.857  38.744  1.00  0.00     0.064 A 
ATOM     60  C   UNL A   1      40.895  35.084  38.860  1.00  0.00     0.173 A 
ATOM     61  C   UNL A   1      39.475  33.413  39.845  1.00  0.00     0.173 A 
ATOM     62  F   UNL A   1      41.632  35.549  37.840  1.00  0.00    -0.203 F 
ATOM     63  C   UNL A   1      40.839  35.822  40.040  1.00  0.00     0.198 A 
ATOM     64  C   UNL A   1      39.396  34.168  41.012  1.00  0.00     0.198 A 
ATOM     65  F   UNL A   1      38.806  32.252  39.783  1.00  0.00    -0.203 F 
ATOM     66  F   UNL A   1      41.522  36.970  40.144  1.00  0.00    -0.200 F 
ATOM     67  C   UNL A   1      40.085  35.368  41.112  1.00  0.00     0.200 A 
ATOM     68  F   UNL A   1      38.655  33.734  42.041  1.00  0.00    -0.200 F 
ATOM     69  F   UNL A   1      40.024  36.084  42.243  1.00  0.00    -0.200 F 
ENDBRANCH  45  59
BRANCH  46  70
ATOM     70  C   UNL A   1      40.104  28.706  30.202  1.00  0.00     0.064 A 
ATOM     71  C   UNL A   1      40.700  29.231  29.048  1.00  0.00     0.173 A 
ATOM     72  C   UNL A   1      39.503  27.442  30.111  1.00  0.00     0.173 A 
ATOM     73  F   UNL A   1      41.262  30.448  29.078  1.00  0.00    -0.203 F 
ATOM     74  C   UNL A   1      40.687  28.524  27.847  1.00  0.00     0.198 A 
ATOM     75  C   UNL A   1      39.516  26.724  28.917  1.00  0.00     0.198 A 
ATOM     76  F   UNL A   1      38.915  26.898  31.186  1.00  0.00    -0.203 F 
ATOM     77  F   UNL A   1      41.227  29.065  26.747  1.00  0.00    -0.200 F 
ATOM     78  C   UNL A   1      40.103  27.267  27.785  1.00  0.00     0.200 A 
ATOM     79  F   UNL A   1      38.961  25.505  28.866  1.00  0.00    -0.200 F 
ATOM     80  F   UNL A   1      40.097  26.584  26.634  1.00  0.00    -0.200 F 
ENDBRANCH  46  70
BRANCH  58  81
ATOM     81  C   UNL A   1      44.562  29.069  35.542  1.00  0.00     0.064 A 
ATOM     82  C   UNL A   1      45.786  29.643  35.166  1.00  0.00     0.173 A 
ATOM     83  C   UNL A   1      44.593  27.843  36.223  1.00  0.00     0.173 A 
ATOM     84  F   UNL A   1      45.808  30.806  34.497  1.00  0.00    -0.203 F 
ATOM     85  C   UNL A   1      46.991  29.003  35.443  1.00  0.00     0.198 A 
ATOM     86  C   UNL A   1      45.801  27.219  36.522  1.00  0.00     0.198 A 
ATOM     87  F   UNL A   1      43.450  27.254  36.608  1.00  0.00    -0.203 F 
ATOM     88  F   UNL A   1      48.146  29.548  35.037  1.00  0.00    -0.200 F 
ATOM     89  C   UNL A   1      46.999  27.796  36.126  1.00  0.00     0.200 A 
ATOM     90  F   UNL A   1      45.807  26.058  37.191  1.00  0.00    -0.200 F 
ATOM     91  F   UNL A   1      48.159  27.185  36.396  1.00  0.00    -0.200 F 
ENDBRANCH  58  81
ENDBRANCH  32  33
ENDBRANCH  25  27
ENDBRANCH  24  25
ENDBRANCH  23  24
ENDBRANCH  22  23
ENDBRANCH   1  22
TORSDOF 16
ENDMDL
MODEL 2
REMARK VINA RESULT:     -10.5      5.650      9.792
REMARK SMILES COCCCC(=O)Nc1nc2ccc(C(=O)OCCOC(=O)c3ccc(-c4c5nc(c(-c6c(F)c(F)c(F)c(F)c6F)c6ccc([nH]6)c(-c6c(F)c(F)c(F)c(F)c6F)c6nc(c(-c7c(F)c(F)c(F)c(F)c7F)c7ccc4[nH]7)C=C6)C=C5)cc3)cc2s1
REMARK SMILES IDX 17 1 15 2 16 3 14 4 9 5 10 6 88 7 11 8 87 9 12 10 86 11
REMARK SMILES IDX 13 12 8 13 6 14 7 15 5 17 4 18 3 19 2 20 1 21 18 22 19 23
REMARK SMILES IDX 20 24 21 25 22 26 23 27 24 28 85 29 25 30 84 31 26 32 27 33
REMARK SMILES IDX 28 34 78 35 29 36 83 37 77 38 79 39 30 40 82 41 76 42 75 43
REMARK SMILES IDX 31 45 63 46 43 47 62 48 44 49 47 50 61 51 80 52 45 53 46 54
REMARK SMILES IDX 60 56 81 57 48 58 32 59 33 60 41 61 34 62 35 63 39 64 42 65
REMARK SMILES IDX 36 66 37 67 40 68 38 69 64 70 65 71 73 72 66 73 67 74 71 75
REMARK SMILES IDX 74 76 68 77 69 78 72 79 70 80 49 81 50 82 58 83 51 84 52 85
REMARK SMILES IDX 56 86 59 87 53 88 54 89 57 90 55 91
REMARK H PARENT 8 16 79 44 47 55
REMARK Flexibility Score: inf
ROOT
ATOM      1  O   UNL A   1      35.771  21.966  24.489  1.00  0.00    -0.458 OA
ENDROOT
BRANCH   1   2
ATOM      2  C   UNL A   1      34.465  22.317  24.368  1.00  0.00     0.338 C 
ATOM      3  O   UNL A   1      33.515  21.559  24.359  1.00  0.00    -0.246 OA
BRANCH   2   4
ATOM      4  C   UNL A   1      34.303  23.802  24.342  1.00  0.00     0.061 A 
ATOM      5  C   UNL A   1      32.537  27.978  23.069  1.00  0.00     0.190 A 
ATOM      6  N   UNL A   1      33.224  27.860  24.177  1.00  0.00    -0.220 NA
ATOM      7  S   UNL A   1      32.709  26.698  21.947  1.00  0.00    -0.097 S 
ATOM      8  C   UNL A   1      33.689  26.555  24.287  1.00  0.00     0.084 A 
ATOM      9  C   UNL A   1      33.438  25.739  23.183  1.00  0.00     0.057 A 
ATOM     10  C   UNL A   1      34.341  25.991  25.404  1.00  0.00     0.031 A 
ATOM     11  C   UNL A   1      33.752  24.369  23.179  1.00  0.00     0.037 A 
ATOM     12  C   UNL A   1      34.626  24.615  25.431  1.00  0.00     0.018 A 
BRANCH   5  13
ATOM     13  N   UNL A   1      31.928  29.121  22.623  1.00  0.00    -0.302 N 
ATOM     14  C   UNL A   1      30.577  29.181  22.388  1.00  0.00     0.226 C 
ATOM     15  O   UNL A   1      30.162  29.703  21.353  1.00  0.00    -0.275 OA
ATOM     16  H   UNL A   1      32.475  29.923  22.465  1.00  0.00     0.172 HD
BRANCH  14  17
ATOM     17  C   UNL A   1      29.623  28.779  23.508  1.00  0.00     0.103 C 
BRANCH  17  18
ATOM     18  C   UNL A   1      28.817  27.497  23.293  1.00  0.00     0.038 C 
BRANCH  18  19
ATOM     19  C   UNL A   1      29.068  26.342  24.262  1.00  0.00     0.160 C 
BRANCH  19  20
ATOM     20  O   UNL A   1      30.156  26.530  25.161  1.00  0.00    -0.385 OA
ATOM     21  C   UNL A   1      30.669  25.344  25.749  1.00  0.00     0.194 C 
ENDBRANCH  19  20
ENDBRANCH  18  19
ENDBRANCH  17  18
ENDBRANCH  14  17
ENDBRANCH   5  13
ENDBRANCH   2   4
ENDBRANCH   1   2
BRANCH   1  22
ATOM     22  C   UNL A   1      36.030  20.626  24.958  1.00  0.00     0.275 C 
BRANCH  22  23
ATOM     23  C   UNL A   1      37.528  20.312  24.961  1.00  0.00     0.275 C 
BRANCH  23  24
ATOM     24  O   UNL A   1      38.298  21.441  25.414  1.00  0.00    -0.458 OA
BRANCH  24  25
ATOM     25  C   UNL A   1      39.273  21.155  26.304  1.00  0.00     0.338 C 
ATOM     26  O   UNL A   1      39.686  20.055  26.636  1.00  0.00    -0.246 OA
BRANCH  25  27
ATOM     27  C   UNL A   1      39.881  22.408  26.767  1.00  0.00     0.060 A 
ATOM     28  C   UNL A   1      39.391  23.602  26.241  1.00  0.00     0.016 A 
ATOM     29  C   UNL A   1      40.975  22.409  27.636  1.00  0.00     0.016 A 
ATOM     30  C   UNL A   1      40.006  24.808  26.566  1.00  0.00     0.010 A 
ATOM     31  C   UNL A   1      41.579  23.626  27.973  1.00  0.00     0.010 A 
ATOM     32  C   UNL A   1      41.112  24.835  27.427  1.00  0.00    -0.014 A 
BRANCH  32  33
ATOM     33  C   UNL A   1      41.794  26.125  27.715  1.00  0.00     0.031 A 
ATOM     34  C   UNL A   1      41.102  27.183  28.530  1.00  0.00     0.074 A 
ATOM     35  C   UNL A   1      43.045  26.340  27.270  1.00  0.00     0.049 A 
ATOM     36  N   UNL A   1      41.478  28.411  28.787  1.00  0.00    -0.248 NA
ATOM     37  C   UNL A   1      39.813  26.810  29.131  1.00  0.00     0.031 C 
ATOM     38  C   UNL A   1      43.849  25.380  26.515  1.00  0.00     0.029 A 
ATOM     39  N   UNL A   1      43.865  27.437  27.392  1.00  0.00    -0.354 N 
ATOM     40  C   UNL A   1      40.458  28.969  29.546  1.00  0.00     0.074 A 
ATOM     41  C   UNL A   1      39.440  27.950  29.697  1.00  0.00     0.031 C 
ATOM     42  C   UNL A   1      45.051  25.920  26.258  1.00  0.00     0.029 A 
ATOM     43  C   UNL A   1      45.079  27.287  26.770  1.00  0.00     0.049 A 
ATOM     44  H   UNL A   1      43.604  28.252  27.879  1.00  0.00     0.167 HD
ATOM     45  C   UNL A   1      40.381  30.216  30.071  1.00  0.00     0.037 A 
ATOM     46  C   UNL A   1      46.088  28.162  26.601  1.00  0.00     0.037 A 
ATOM     47  C   UNL A   1      41.414  31.215  29.956  1.00  0.00     0.049 A 
ATOM     48  C   UNL A   1      45.956  29.557  27.146  1.00  0.00     0.074 A 
ATOM     49  C   UNL A   1      41.435  32.500  30.472  1.00  0.00     0.029 A 
ATOM     50  N   UNL A   1      42.613  31.037  29.282  1.00  0.00    -0.354 N 
ATOM     51  N   UNL A   1      44.976  30.086  27.836  1.00  0.00    -0.248 NA
ATOM     52  C   UNL A   1      47.067  30.482  26.877  1.00  0.00     0.031 C 
ATOM     53  C   UNL A   1      42.630  33.113  30.077  1.00  0.00     0.029 A 
ATOM     54  C   UNL A   1      43.372  32.195  29.353  1.00  0.00     0.049 A 
ATOM     55  H   UNL A   1      42.885  30.211  28.821  1.00  0.00     0.167 HD
ATOM     56  C   UNL A   1      45.355  31.395  28.097  1.00  0.00     0.074 A 
ATOM     57  C   UNL A   1      46.665  31.577  27.507  1.00  0.00     0.031 C 
ATOM     58  C   UNL A   1      44.678  32.361  28.764  1.00  0.00     0.037 A 
BRANCH  45  59
ATOM     59  C   UNL A   1      39.122  30.589  30.800  1.00  0.00     0.064 A 
ATOM     60  C   UNL A   1      38.987  30.418  32.185  1.00  0.00     0.173 A 
ATOM     61  C   UNL A   1      38.047  31.165  30.103  1.00  0.00     0.173 A 
ATOM     62  F   UNL A   1      39.981  29.865  32.897  1.00  0.00    -0.203 F 
ATOM     63  C   UNL A   1      37.814  30.784  32.841  1.00  0.00     0.198 A 
ATOM     64  C   UNL A   1      36.888  31.557  30.766  1.00  0.00     0.198 A 
ATOM     65  F   UNL A   1      38.128  31.360  28.778  1.00  0.00    -0.203 F 
ATOM     66  F   UNL A   1      37.690  30.571  34.158  1.00  0.00    -0.200 F 
ATOM     67  C   UNL A   1      36.769  31.358  32.133  1.00  0.00     0.200 A 
ATOM     68  F   UNL A   1      35.885  32.126  30.082  1.00  0.00    -0.200 F 
ATOM     69  F   UNL A   1      35.644  31.718  32.767  1.00  0.00    -0.200 F 
ENDBRANCH  45  59
BRANCH  46  70
ATOM     70  C   UNL A   1      47.306  27.750  25.853  1.00  0.00     0.064 A 
ATOM     71  C   UNL A   1      48.469  27.358  26.530  1.00  0.00     0.173 A 
ATOM     72  C   UNL A   1      47.331  27.743  24.451  1.00  0.00     0.173 A 
ATOM     73  F   UNL A   1      48.503  27.376  27.870  1.00  0.00    -0.203 F 
ATOM     74  C   UNL A   1      49.614  26.983  25.831  1.00  0.00     0.198 A 
ATOM     75  C   UNL A   1      48.468  27.339  23.754  1.00  0.00     0.198 A 
ATOM     76  F   UNL A   1      46.245  28.114  23.757  1.00  0.00    -0.203 F 
ATOM     77  F   UNL A   1      50.727  26.652  26.500  1.00  0.00    -0.200 F 
ATOM     78  C   UNL A   1      49.610  26.965  24.444  1.00  0.00     0.200 A 
ATOM     79  F   UNL A   1      48.454  27.312  22.414  1.00  0.00    -0.200 F 
ATOM     80  F   UNL A   1      50.709  26.597  23.772  1.00  0.00    -0.200 F 
ENDBRANCH  46  70
BRANCH  58  81
ATOM     81  C   UNL A   1      45.352  33.693  28.918  1.00  0.00     0.064 A 
ATOM     82  C   UNL A   1      45.154  34.728  27.991  1.00  0.00     0.173 A 
ATOM     83  C   UNL A   1      46.179  33.948  30.022  1.00  0.00     0.173 A 
ATOM     84  F   UNL A   1      44.387  34.526  26.909  1.00  0.00    -0.203 F 
ATOM     85  C   UNL A   1      45.777  35.962  28.155  1.00  0.00     0.198 A 
ATOM     86  C   UNL A   1      46.778  35.193  30.196  1.00  0.00     0.198 A 
ATOM     87  F   UNL A   1      46.397  32.993  30.939  1.00  0.00    -0.203 F 
ATOM     88  F   UNL A   1      45.609  36.922  27.235  1.00  0.00    -0.200 F 
ATOM     89  C   UNL A   1      46.583  36.196  29.259  1.00  0.00     0.200 A 
ATOM     90  F   UNL A   1      47.548  35.420  31.270  1.00  0.00    -0.200 F 
ATOM     91  F   UNL A   1      47.177  37.386  29.417  1.00  0.00    -0.200 F 
ENDBRANCH  58  81
ENDBRANCH  32  33
ENDBRANCH  25  27
ENDBRANCH  24  25
ENDBRANCH  23  24
ENDBRANCH  22  23
ENDBRANCH   1  22
TORSDOF 16
ENDMDL
MODEL 3
REMARK VINA RESULT:     -10.4      5.500      9.764
REMARK SMILES COCCCC(=O)Nc1nc2ccc(C(=O)OCCOC(=O)c3ccc(-c4c5nc(c(-c6c(F)c(F)c(F)c(F)c6F)c6ccc([nH]6)c(-c6c(F)c(F)c(F)c(F)c6F)c6nc(c(-c7c(F)c(F)c(F)c(F)c7F)c7ccc4[nH]7)C=C6)C=C5)cc3)cc2s1
REMARK SMILES IDX 17 1 15 2 16 3 14 4 9 5 10 6 88 7 11 8 87 9 12 10 86 11
REMARK SMILES IDX 13 12 8 13 6 14 7 15 5 17 4 18 3 19 2 20 1 21 18 22 19 23
REMARK SMILES IDX 20 24 21 25 22 26 23 27 24 28 85 29 25 30 84 31 26 32 27 33
REMARK SMILES IDX 28 34 78 35 29 36 83 37 77 38 79 39 30 40 82 41 76 42 75 43
REMARK SMILES IDX 31 45 63 46 43 47 62 48 44 49 47 50 61 51 80 52 45 53 46 54
REMARK SMILES IDX 60 56 81 57 48 58 32 59 33 60 41 61 34 62 35 63 39 64 42 65
REMARK SMILES IDX 36 66 37 67 40 68 38 69 64 70 65 71 73 72 66 73 67 74 71 75
REMARK SMILES IDX 74 76 68 77 69 78 72 79 70 80 49 81 50 82 58 83 51 84 52 85
REMARK SMILES IDX 56 86 59 87 53 88 54 89 57 90 55 91
REMARK H PARENT 8 16 79 44 47 55
REMARK Flexibility Score: inf
ROOT
ATOM      1  O   UNL A   1      34.327  21.318  24.565  1.00  0.00    -0.458 OA
ENDROOT
BRANCH   1   2
ATOM      2  C   UNL A   1      33.047  21.086  24.951  1.00  0.00     0.338 C 
ATOM      3  O   UNL A   1      32.477  20.012  24.948  1.00  0.00    -0.246 OA
BRANCH   2   4
ATOM      4  C   UNL A   1      32.413  22.325  25.497  1.00  0.00     0.061 A 
ATOM      5  C   UNL A   1      31.717  26.932  26.182  1.00  0.00     0.190 A 
ATOM      6  N   UNL A   1      30.772  26.070  26.463  1.00  0.00    -0.220 NA
ATOM      7  S   UNL A   1      33.289  26.281  26.003  1.00  0.00    -0.097 S 
ATOM      8  C   UNL A   1      31.248  24.784  26.241  1.00  0.00     0.084 A 
ATOM      9  C   UNL A   1      32.601  24.700  25.906  1.00  0.00     0.057 A 
ATOM     10  C   UNL A   1      30.492  23.593  26.286  1.00  0.00     0.031 A 
ATOM     11  C   UNL A   1      33.208  23.484  25.551  1.00  0.00     0.037 A 
ATOM     12  C   UNL A   1      31.076  22.376  25.896  1.00  0.00     0.018 A 
BRANCH   5  13
ATOM     13  N   UNL A   1      31.614  28.294  26.284  1.00  0.00    -0.302 N 
ATOM     14  C   UNL A   1      31.996  29.130  25.265  1.00  0.00     0.226 C 
ATOM     15  O   UNL A   1      32.677  30.125  25.518  1.00  0.00    -0.275 OA
ATOM     16  H   UNL A   1      31.256  28.685  27.112  1.00  0.00     0.172 HD
BRANCH  14  17
ATOM     17  C   UNL A   1      31.401  28.912  23.878  1.00  0.00     0.103 C 
BRANCH  17  18
ATOM     18  C   UNL A   1      32.376  28.950  22.701  1.00  0.00     0.038 C 
BRANCH  18  19
ATOM     19  C   UNL A   1      33.601  28.038  22.778  1.00  0.00     0.160 C 
BRANCH  19  20
ATOM     20  O   UNL A   1      33.716  27.088  21.724  1.00  0.00    -0.385 OA
ATOM     21  C   UNL A   1      33.330  25.763  22.057  1.00  0.00     0.194 C 
ENDBRANCH  19  20
ENDBRANCH  18  19
ENDBRANCH  17  18
ENDBRANCH  14  17
ENDBRANCH   5  13
ENDBRANCH   2   4
ENDBRANCH   1   2
BRANCH   1  22
ATOM     22  C   UNL A   1      35.334  20.464  25.148  1.00  0.00     0.275 C 
BRANCH  22  23
ATOM     23  C   UNL A   1      36.743  20.890  24.731  1.00  0.00     0.275 C 
BRANCH  23  24
ATOM     24  O   UNL A   1      37.363  21.706  25.741  1.00  0.00    -0.458 OA
BRANCH  24  25
ATOM     25  C   UNL A   1      38.645  21.392  26.030  1.00  0.00     0.338 C 
ATOM     26  O   UNL A   1      39.223  20.336  25.823  1.00  0.00    -0.246 OA
BRANCH  25  27
ATOM     27  C   UNL A   1      39.323  22.583  26.554  1.00  0.00     0.060 A 
ATOM     28  C   UNL A   1      38.845  23.831  26.159  1.00  0.00     0.016 A 
ATOM     29  C   UNL A   1      40.465  22.479  27.351  1.00  0.00     0.016 A 
ATOM     30  C   UNL A   1      39.519  24.987  26.542  1.00  0.00     0.010 A 
ATOM     31  C   UNL A   1      41.131  23.645  27.748  1.00  0.00     0.010 A 
ATOM     32  C   UNL A   1      40.675  24.909  27.332  1.00  0.00    -0.014 A 
BRANCH  32  33
ATOM     33  C   UNL A   1      41.417  26.150  27.681  1.00  0.00     0.031 A 
ATOM     34  C   UNL A   1      40.756  27.224  28.500  1.00  0.00     0.074 A 
ATOM     35  C   UNL A   1      42.695  26.304  27.288  1.00  0.00     0.049 A 
ATOM     36  N   UNL A   1      41.191  28.421  28.806  1.00  0.00    -0.248 NA
ATOM     37  C   UNL A   1      39.426  26.910  29.044  1.00  0.00     0.031 C 
ATOM     38  C   UNL A   1      43.471  25.320  26.535  1.00  0.00     0.029 A 
ATOM     39  N   UNL A   1      43.570  27.348  27.471  1.00  0.00    -0.354 N 
ATOM     40  C   UNL A   1      40.177  29.017  29.543  1.00  0.00     0.074 A 
ATOM     41  C   UNL A   1      39.098  28.054  29.629  1.00  0.00     0.031 C 
ATOM     42  C   UNL A   1      44.710  25.796  26.337  1.00  0.00     0.029 A 
ATOM     43  C   UNL A   1      44.796  27.145  26.889  1.00  0.00     0.049 A 
ATOM     44  H   UNL A   1      43.338  28.164  27.971  1.00  0.00     0.167 HD
ATOM     45  C   UNL A   1      40.151  30.252  30.101  1.00  0.00     0.037 A 
ATOM     46  C   UNL A   1      45.859  27.965  26.781  1.00  0.00     0.037 A 
ATOM     47  C   UNL A   1      41.242  31.192  30.051  1.00  0.00     0.049 A 
ATOM     48  C   UNL A   1      45.785  29.350  27.360  1.00  0.00     0.074 A 
ATOM     49  C   UNL A   1      41.316  32.459  30.604  1.00  0.00     0.029 A 
ATOM     50  N   UNL A   1      42.454  30.964  29.416  1.00  0.00    -0.354 N 
ATOM     51  N   UNL A   1      44.811  29.916  28.030  1.00  0.00    -0.248 NA
ATOM     52  C   UNL A   1      46.956  30.217  27.157  1.00  0.00     0.031 C 
ATOM     53  C   UNL A   1      42.557  33.013  30.269  1.00  0.00     0.029 A 
ATOM     54  C   UNL A   1      43.274  32.073  29.547  1.00  0.00     0.049 A 
ATOM     55  H   UNL A   1      42.695  30.136  28.942  1.00  0.00     0.167 HD
ATOM     56  C   UNL A   1      45.254  31.194  28.341  1.00  0.00     0.074 A 
ATOM     57  C   UNL A   1      46.593  31.316  27.804  1.00  0.00     0.031 C 
ATOM     58  C   UNL A   1      44.607  32.179  29.011  1.00  0.00     0.037 A 
BRANCH  45  59
ATOM     59  C   UNL A   1      38.888  30.677  30.794  1.00  0.00     0.064 A 
ATOM     60  C   UNL A   1      38.711  30.522  32.176  1.00  0.00     0.173 A 
ATOM     61  C   UNL A   1      37.854  31.287  30.065  1.00  0.00     0.173 A 
ATOM     62  F   UNL A   1      39.665  29.938  32.917  1.00  0.00    -0.203 F 
ATOM     63  C   UNL A   1      37.536  30.936  32.799  1.00  0.00     0.198 A 
ATOM     64  C   UNL A   1      36.693  31.727  30.695  1.00  0.00     0.198 A 
ATOM     65  F   UNL A   1      37.976  31.469  28.741  1.00  0.00    -0.203 F 
ATOM     66  F   UNL A   1      37.371  30.739  34.114  1.00  0.00    -0.200 F 
ATOM     67  C   UNL A   1      36.532  31.544  32.061  1.00  0.00     0.200 A 
ATOM     68  F   UNL A   1      35.731  32.328  29.982  1.00  0.00    -0.200 F 
ATOM     69  F   UNL A   1      35.406  31.950  32.663  1.00  0.00    -0.200 F 
ENDBRANCH  45  59
BRANCH  46  70
ATOM     70  C   UNL A   1      47.079  27.504  26.066  1.00  0.00     0.064 A 
ATOM     71  C   UNL A   1      48.157  26.948  26.766  1.00  0.00     0.173 A 
ATOM     72  C   UNL A   1      47.190  27.612  24.672  1.00  0.00     0.173 A 
ATOM     73  F   UNL A   1      48.110  26.850  28.103  1.00  0.00    -0.203 F 
ATOM     74  C   UNL A   1      49.306  26.525  26.100  1.00  0.00     0.198 A 
ATOM     75  C   UNL A   1      48.327  27.162  24.004  1.00  0.00     0.198 A 
ATOM     76  F   UNL A   1      46.187  28.141  23.956  1.00  0.00    -0.203 F 
ATOM     77  F   UNL A   1      50.340  26.035  26.796  1.00  0.00    -0.200 F 
ATOM     78  C   UNL A   1      49.386  26.625  24.718  1.00  0.00     0.200 A 
ATOM     79  F   UNL A   1      48.394  27.249  22.668  1.00  0.00    -0.200 F 
ATOM     80  F   UNL A   1      50.486  26.211  24.077  1.00  0.00    -0.200 F 
ENDBRANCH  46  70
BRANCH  58  81
ATOM     81  C   UNL A   1      45.349  33.466  29.226  1.00  0.00     0.064 A 
ATOM     82  C   UNL A   1      46.174  33.660  30.344  1.00  0.00     0.173 A 
ATOM     83  C   UNL A   1      45.260  34.504  28.287  1.00  0.00     0.173 A 
ATOM     84  F   UNL A   1      46.278  32.704  31.280  1.00  0.00    -0.203 F 
ATOM     85  C   UNL A   1      46.866  34.855  30.524  1.00  0.00     0.198 A 
ATOM     86  C   UNL A   1      45.974  35.688  28.457  1.00  0.00     0.198 A 
ATOM     87  F   UNL A   1      44.487  34.367  27.199  1.00  0.00    -0.203 F 
ATOM     88  F   UNL A   1      47.614  35.036  31.621  1.00  0.00    -0.200 F 
ATOM     89  C   UNL A   1      46.771  35.865  29.578  1.00  0.00     0.200 A 
ATOM     90  F   UNL A   1      45.889  36.658  27.536  1.00  0.00    -0.200 F 
ATOM     91  F   UNL A   1      47.441  37.012  29.750  1.00  0.00    -0.200 F 
ENDBRANCH  58  81
ENDBRANCH  32  33
ENDBRANCH  25  27
ENDBRANCH  24  25
ENDBRANCH  23  24
ENDBRANCH  22  23
ENDBRANCH   1  22
TORSDOF 16
ENDMDL
