MODEL 1
REMARK VINA RESULT:     -10.8      0.000      0.000
REMARK SMILES CCCCCCNC(=O)Oc1cccc(-c2ccc([C@H](C)C(=O)OCCOC(=O)c3ccc(-c4c5nc(c(-c6c(F)c(F)c(F)c(F)c6F)c6ccc([nH]6)c(-c6c(F)c(F)c(F)c(F)c6F)c6nc(c(-c7c(F)c(F)c(F)c(F)c7F)c7ccc4[nH]7)C=C6)C=C5)cc3)cc2F)c1
REMARK SMILES IDX 20 1 21 2 19 3 16 4 17 5 94 6 18 7 93 8 95 9 15 10 11 11
REMARK SMILES IDX 12 12 96 13 13 14 14 15 10 16 8 17 7 18 9 20 6 21 5 22 4 23
REMARK SMILES IDX 3 24 2 25 1 26 22 27 23 28 24 29 25 30 26 31 27 32 28 33
REMARK SMILES IDX 29 34 30 35 31 36 92 37 32 38 91 39 33 40 34 41 35 42 85 43
REMARK SMILES IDX 36 44 90 45 84 46 86 47 37 48 89 49 83 50 82 51 38 53 70 54
REMARK SMILES IDX 50 55 69 56 51 57 54 58 68 59 87 60 52 61 53 62 67 64 88 65
REMARK SMILES IDX 55 66 39 67 40 68 48 69 41 70 42 71 46 72 49 73 43 74 44 75
REMARK SMILES IDX 47 76 45 77 71 78 72 79 80 80 73 81 74 82 78 83 81 84 75 85
REMARK SMILES IDX 76 86 79 87 77 88 56 89 57 90 65 91 58 92 59 93 63 94 66 95
REMARK SMILES IDX 60 96 61 97 64 98 62 99
REMARK H PARENT 7 19 86 52 54 63
REMARK Flexibility Score: inf
ROOT
ATOM      1  C   UNL A   1      35.319  32.767  28.201  1.00  0.00     0.126 C 
ATOM      2  C   UNL A   1      36.848  32.802  28.305  1.00  0.00     0.025 C 
ENDROOT
BRANCH   1   3
ATOM      3  C   UNL A   1      34.698  31.430  27.824  1.00  0.00    -0.031 A 
ATOM      4  C   UNL A   1      33.519  28.987  26.955  1.00  0.00     0.018 A 
ATOM      5  C   UNL A   1      34.805  29.016  27.512  1.00  0.00     0.012 A 
ATOM      6  C   UNL A   1      32.838  30.202  26.840  1.00  0.00     0.131 A 
ATOM      7  C   UNL A   1      35.386  30.216  27.940  1.00  0.00     0.005 A 
ATOM      8  C   UNL A   1      33.414  31.401  27.252  1.00  0.00     0.044 A 
ATOM      9  F   UNL A   1      31.603  30.245  26.312  1.00  0.00    -0.206 F 
BRANCH   4  10
ATOM     10  C   UNL A   1      32.939  27.730  26.471  1.00  0.00    -0.012 A 
ATOM     11  C   UNL A   1      33.178  25.614  25.313  1.00  0.00     0.133 A 
ATOM     12  C   UNL A   1      31.854  25.285  25.585  1.00  0.00     0.047 A 
ATOM     13  C   UNL A   1      33.716  26.830  25.728  1.00  0.00     0.056 A 
ATOM     14  C   UNL A   1      31.066  26.175  26.310  1.00  0.00     0.004 A 
ATOM     15  C   UNL A   1      31.606  27.385  26.754  1.00  0.00     0.009 A 
BRANCH  11  16
ATOM     16  O   UNL A   1      33.915  24.724  24.516  1.00  0.00    -0.410 OA
BRANCH  16  17
ATOM     17  C   UNL A   1      33.212  23.877  23.671  1.00  0.00     0.412 C 
ATOM     18  N   UNL A   1      32.896  24.458  22.473  1.00  0.00    -0.321 N 
ATOM     19  H   UNL A   1      32.391  23.905  21.834  1.00  0.00     0.167 HD
ATOM     20  O   UNL A   1      32.874  22.726  23.915  1.00  0.00    -0.224 OA
BRANCH  18  21
ATOM     21  C   UNL A   1      33.229  25.802  22.050  1.00  0.00     0.119 C 
BRANCH  21  22
ATOM     22  C   UNL A   1      32.042  26.754  22.178  1.00  0.00     0.021 C 
BRANCH  22  23
ATOM     23  C   UNL A   1      32.381  28.137  22.747  1.00  0.00     0.002 C 
BRANCH  23  24
ATOM     24  C   UNL A   1      31.190  28.951  23.263  1.00  0.00    -0.000 C 
BRANCH  24  25
ATOM     25  C   UNL A   1      29.862  28.194  23.347  1.00  0.00    -0.003 C 
ATOM     26  C   UNL A   1      28.659  29.044  22.973  1.00  0.00     0.004 C 
ENDBRANCH  24  25
ENDBRANCH  23  24
ENDBRANCH  22  23
ENDBRANCH  21  22
ENDBRANCH  18  21
ENDBRANCH  16  17
ENDBRANCH  11  16
ENDBRANCH   4  10
ENDBRANCH   1   3
BRANCH   1  27
ATOM     27  C   UNL A   1      34.641  33.408  29.415  1.00  0.00     0.313 C 
ATOM     28  O   UNL A   1      34.041  32.754  30.263  1.00  0.00    -0.252 OA
BRANCH  27  29
ATOM     29  O   UNL A   1      34.748  34.763  29.434  1.00  0.00    -0.462 OA
BRANCH  29  30
ATOM     30  C   UNL A   1      33.666  35.477  28.806  1.00  0.00     0.274 C 
BRANCH  30  31
ATOM     31  C   UNL A   1      32.530  35.738  29.797  1.00  0.00     0.275 C 
BRANCH  31  32
ATOM     32  O   UNL A   1      32.993  36.484  30.939  1.00  0.00    -0.458 OA
BRANCH  32  33
ATOM     33  C   UNL A   1      32.682  35.962  32.148  1.00  0.00     0.338 C 
ATOM     34  O   UNL A   1      31.624  36.043  32.748  1.00  0.00    -0.246 OA
BRANCH  33  35
ATOM     35  C   UNL A   1      33.829  35.209  32.673  1.00  0.00     0.060 A 
ATOM     36  C   UNL A   1      35.118  35.716  32.504  1.00  0.00     0.016 A 
ATOM     37  C   UNL A   1      33.637  33.944  33.225  1.00  0.00     0.016 A 
ATOM     38  C   UNL A   1      36.227  34.952  32.856  1.00  0.00     0.010 A 
ATOM     39  C   UNL A   1      34.748  33.197  33.626  1.00  0.00     0.010 A 
ATOM     40  C   UNL A   1      36.052  33.690  33.432  1.00  0.00    -0.014 A 
BRANCH  40  41
ATOM     41  C   UNL A   1      37.225  32.875  33.829  1.00  0.00     0.031 A 
ATOM     42  C   UNL A   1      37.915  33.139  35.136  1.00  0.00     0.074 A 
ATOM     43  C   UNL A   1      37.683  31.913  33.006  1.00  0.00     0.049 A 
ATOM     44  N   UNL A   1      39.055  32.675  35.580  1.00  0.00    -0.248 NA
ATOM     45  C   UNL A   1      37.234  34.054  36.064  1.00  0.00     0.031 C 
ATOM     46  C   UNL A   1      37.065  31.522  31.738  1.00  0.00     0.029 A 
ATOM     47  N   UNL A   1      38.784  31.100  33.106  1.00  0.00    -0.354 N 
ATOM     48  C   UNL A   1      39.248  33.271  36.819  1.00  0.00     0.074 A 
ATOM     49  C   UNL A   1      38.109  34.132  37.057  1.00  0.00     0.031 C 
ATOM     50  C   UNL A   1      37.794  30.543  31.179  1.00  0.00     0.029 A 
ATOM     51  C   UNL A   1      38.965  30.290  32.012  1.00  0.00     0.049 A 
ATOM     52  H   UNL A   1      39.384  31.098  33.886  1.00  0.00     0.167 HD
ATOM     53  C   UNL A   1      40.287  33.113  37.673  1.00  0.00     0.037 A 
ATOM     54  C   UNL A   1      39.987  29.474  31.692  1.00  0.00     0.037 A 
ATOM     55  C   UNL A   1      41.396  32.224  37.442  1.00  0.00     0.049 A 
ATOM     56  C   UNL A   1      41.165  29.378  32.620  1.00  0.00     0.074 A 
ATOM     57  C   UNL A   1      42.473  31.954  38.270  1.00  0.00     0.029 A 
ATOM     58  N   UNL A   1      41.570  31.461  36.297  1.00  0.00    -0.354 N 
ATOM     59  N   UNL A   1      41.352  29.955  33.782  1.00  0.00    -0.248 NA
ATOM     60  C   UNL A   1      42.287  28.536  32.180  1.00  0.00     0.031 C 
ATOM     61  C   UNL A   1      43.321  31.062  37.604  1.00  0.00     0.029 A 
ATOM     62  C   UNL A   1      42.754  30.746  36.380  1.00  0.00     0.049 A 
ATOM     63  H   UNL A   1      40.944  31.432  35.538  1.00  0.00     0.167 HD
ATOM     64  C   UNL A   1      42.601  29.539  34.218  1.00  0.00     0.074 A 
ATOM     65  C   UNL A   1      43.123  28.648  33.202  1.00  0.00     0.031 C 
ATOM     66  C   UNL A   1      43.258  29.868  35.357  1.00  0.00     0.037 A 
BRANCH  53  67
ATOM     67  C   UNL A   1      40.296  33.946  38.920  1.00  0.00     0.064 A 
ATOM     68  C   UNL A   1      40.951  35.184  38.981  1.00  0.00     0.173 A 
ATOM     69  C   UNL A   1      39.602  33.511  40.059  1.00  0.00     0.173 A 
ATOM     70  F   UNL A   1      41.638  35.638  37.924  1.00  0.00    -0.203 F 
ATOM     71  C   UNL A   1      40.927  35.948  40.146  1.00  0.00     0.198 A 
ATOM     72  C   UNL A   1      39.560  34.288  41.214  1.00  0.00     0.198 A 
ATOM     73  F   UNL A   1      38.956  32.336  40.050  1.00  0.00    -0.203 F 
ATOM     74  F   UNL A   1      41.592  37.110  40.197  1.00  0.00    -0.200 F 
ATOM     75  C   UNL A   1      40.228  35.502  41.259  1.00  0.00     0.200 A 
ATOM     76  F   UNL A   1      38.875  33.860  42.284  1.00  0.00    -0.200 F 
ATOM     77  F   UNL A   1      40.201  36.241  42.376  1.00  0.00    -0.200 F 
ENDBRANCH  53  67
BRANCH  54  78
ATOM     78  C   UNL A   1      39.956  28.718  30.415  1.00  0.00     0.064 A 
ATOM     79  C   UNL A   1      39.350  27.457  30.340  1.00  0.00     0.173 A 
ATOM     80  C   UNL A   1      40.523  29.241  29.243  1.00  0.00     0.173 A 
ATOM     81  F   UNL A   1      38.818  26.905  31.440  1.00  0.00    -0.203 F 
ATOM     82  C   UNL A   1      39.317  26.745  29.144  1.00  0.00     0.198 A 
ATOM     83  C   UNL A   1      40.467  28.539  28.041  1.00  0.00     0.198 A 
ATOM     84  F   UNL A   1      41.121  30.442  29.263  1.00  0.00    -0.203 F 
ATOM     85  F   UNL A   1      38.763  25.526  29.107  1.00  0.00    -0.200 F 
ATOM     86  C   UNL A   1      39.869  27.290  27.993  1.00  0.00     0.200 A 
ATOM     87  F   UNL A   1      40.993  29.074  26.930  1.00  0.00    -0.200 F 
ATOM     88  F   UNL A   1      39.831  26.607  26.841  1.00  0.00    -0.200 F 
ENDBRANCH  54  78
BRANCH  66  89
ATOM     89  C   UNL A   1      44.607  29.250  35.570  1.00  0.00     0.064 A 
ATOM     90  C   UNL A   1      44.746  28.002  36.193  1.00  0.00     0.173 A 
ATOM     91  C   UNL A   1      45.766  29.891  35.108  1.00  0.00     0.173 A 
ATOM     92  F   UNL A   1      43.668  27.361  36.669  1.00  0.00    -0.203 F 
ATOM     93  C   UNL A   1      46.001  27.424  36.360  1.00  0.00     0.198 A 
ATOM     94  C   UNL A   1      47.017  29.298  35.254  1.00  0.00     0.198 A 
ATOM     95  F   UNL A   1      45.683  31.085  34.503  1.00  0.00    -0.203 F 
ATOM     96  F   UNL A   1      46.117  26.246  36.990  1.00  0.00    -0.200 F 
ATOM     97  C   UNL A   1      47.134  28.067  35.883  1.00  0.00     0.200 A 
ATOM     98  F   UNL A   1      48.108  29.916  34.784  1.00  0.00    -0.200 F 
ATOM     99  F   UNL A   1      48.340  27.504  36.035  1.00  0.00    -0.200 F 
ENDBRANCH  66  89
ENDBRANCH  40  41
ENDBRANCH  33  35
ENDBRANCH  32  33
ENDBRANCH  31  32
ENDBRANCH  30  31
ENDBRANCH  29  30
ENDBRANCH  27  29
ENDBRANCH   1  27
TORSDOF 20
ENDMDL
MODEL 2
REMARK VINA RESULT:     -10.8      3.441      9.299
REMARK SMILES CCCCCCNC(=O)Oc1cccc(-c2ccc([C@H](C)C(=O)OCCOC(=O)c3ccc(-c4c5nc(c(-c6c(F)c(F)c(F)c(F)c6F)c6ccc([nH]6)c(-c6c(F)c(F)c(F)c(F)c6F)c6nc(c(-c7c(F)c(F)c(F)c(F)c7F)c7ccc4[nH]7)C=C6)C=C5)cc3)cc2F)c1
REMARK SMILES IDX 20 1 21 2 19 3 16 4 17 5 94 6 18 7 93 8 95 9 15 10 11 11
REMARK SMILES IDX 12 12 96 13 13 14 14 15 10 16 8 17 7 18 9 20 6 21 5 22 4 23
REMARK SMILES IDX 3 24 2 25 1 26 22 27 23 28 24 29 25 30 26 31 27 32 28 33
REMARK SMILES IDX 29 34 30 35 31 36 92 37 32 38 91 39 33 40 34 41 35 42 85 43
REMARK SMILES IDX 36 44 90 45 84 46 86 47 37 48 89 49 83 50 82 51 38 53 70 54
REMARK SMILES IDX 50 55 69 56 51 57 54 58 68 59 87 60 52 61 53 62 67 64 88 65
REMARK SMILES IDX 55 66 39 67 40 68 48 69 41 70 42 71 46 72 49 73 43 74 44 75
REMARK SMILES IDX 47 76 45 77 71 78 72 79 80 80 73 81 74 82 78 83 81 84 75 85
REMARK SMILES IDX 76 86 79 87 77 88 56 89 57 90 65 91 58 92 59 93 63 94 66 95
REMARK SMILES IDX 60 96 61 97 64 98 62 99
REMARK H PARENT 7 19 86 52 54 63
REMARK Flexibility Score: inf
ROOT
ATOM      1  C   UNL A   1      30.040  27.203  23.957  1.00  0.00     0.126 C 
ATOM      2  C   UNL A   1      28.651  26.660  23.606  1.00  0.00     0.025 C 
ENDROOT
BRANCH   1   3
ATOM      3  C   UNL A   1      31.147  26.172  24.120  1.00  0.00    -0.031 A 
ATOM      4  C   UNL A   1      33.102  24.134  24.494  1.00  0.00     0.018 A 
ATOM      5  C   UNL A   1      32.824  24.650  23.220  1.00  0.00     0.012 A 
ATOM      6  C   UNL A   1      32.381  24.655  25.573  1.00  0.00     0.131 A 
ATOM      7  C   UNL A   1      31.864  25.653  23.035  1.00  0.00     0.005 A 
ATOM      8  C   UNL A   1      31.417  25.642  25.394  1.00  0.00     0.044 A 
ATOM      9  F   UNL A   1      32.596  24.201  26.819  1.00  0.00    -0.206 F 
BRANCH   4  10
ATOM     10  C   UNL A   1      34.079  23.054  24.669  1.00  0.00    -0.012 A 
ATOM     11  C   UNL A   1      36.372  22.320  24.945  1.00  0.00     0.133 A 
ATOM     12  C   UNL A   1      35.963  20.995  25.061  1.00  0.00     0.047 A 
ATOM     13  C   UNL A   1      35.450  23.342  24.728  1.00  0.00     0.056 A 
ATOM     14  C   UNL A   1      34.605  20.694  24.990  1.00  0.00     0.004 A 
ATOM     15  C   UNL A   1      33.671  21.716  24.801  1.00  0.00     0.009 A 
BRANCH  11  16
ATOM     16  O   UNL A   1      37.753  22.572  24.946  1.00  0.00    -0.410 OA
BRANCH  16  17
ATOM     17  C   UNL A   1      38.319  23.073  26.110  1.00  0.00     0.412 C 
ATOM     18  N   UNL A   1      39.247  22.231  26.659  1.00  0.00    -0.321 N 
ATOM     19  H   UNL A   1      39.679  22.531  27.491  1.00  0.00     0.167 HD
ATOM     20  O   UNL A   1      38.053  24.143  26.644  1.00  0.00    -0.224 OA
BRANCH  18  21
ATOM     21  C   UNL A   1      39.660  20.944  26.140  1.00  0.00     0.119 C 
BRANCH  21  22
ATOM     22  C   UNL A   1      40.786  20.327  26.967  1.00  0.00     0.021 C 
BRANCH  22  23
ATOM     23  C   UNL A   1      41.700  19.364  26.198  1.00  0.00     0.002 C 
BRANCH  23  24
ATOM     24  C   UNL A   1      43.035  19.952  25.727  1.00  0.00    -0.000 C 
BRANCH  24  25
ATOM     25  C   UNL A   1      43.918  19.006  24.910  1.00  0.00    -0.003 C 
ATOM     26  C   UNL A   1      45.405  19.279  25.073  1.00  0.00     0.004 C 
ENDBRANCH  24  25
ENDBRANCH  23  24
ENDBRANCH  22  23
ENDBRANCH  21  22
ENDBRANCH  18  21
ENDBRANCH  16  17
ENDBRANCH  11  16
ENDBRANCH   4  10
ENDBRANCH   1   3
BRANCH   1  27
ATOM     27  C   UNL A   1      30.451  28.368  23.053  1.00  0.00     0.313 C 
ATOM     28  O   UNL A   1      29.901  28.604  21.981  1.00  0.00    -0.252 OA
BRANCH  27  29
ATOM     29  O   UNL A   1      31.496  29.085  23.545  1.00  0.00    -0.462 OA
BRANCH  29  30
ATOM     30  C   UNL A   1      31.181  29.962  24.643  1.00  0.00     0.274 C 
BRANCH  30  31
ATOM     31  C   UNL A   1      32.029  29.631  25.873  1.00  0.00     0.275 C 
BRANCH  31  32
ATOM     32  O   UNL A   1      33.247  30.402  25.892  1.00  0.00    -0.458 OA
BRANCH  32  33
ATOM     33  C   UNL A   1      33.404  31.226  26.953  1.00  0.00     0.338 C 
ATOM     34  O   UNL A   1      32.628  32.069  27.367  1.00  0.00    -0.246 OA
BRANCH  33  35
ATOM     35  C   UNL A   1      34.687  30.945  27.612  1.00  0.00     0.060 A 
ATOM     36  C   UNL A   1      34.976  29.643  28.024  1.00  0.00     0.016 A 
ATOM     37  C   UNL A   1      35.551  31.992  27.929  1.00  0.00     0.016 A 
ATOM     38  C   UNL A   1      36.114  29.381  28.783  1.00  0.00     0.010 A 
ATOM     39  C   UNL A   1      36.720  31.721  28.645  1.00  0.00     0.010 A 
ATOM     40  C   UNL A   1      37.003  30.416  29.090  1.00  0.00    -0.014 A 
BRANCH  40  41
ATOM     41  C   UNL A   1      38.228  30.146  29.880  1.00  0.00     0.031 A 
ATOM     42  C   UNL A   1      39.310  29.273  29.313  1.00  0.00     0.074 A 
ATOM     43  C   UNL A   1      38.358  30.668  31.113  1.00  0.00     0.049 A 
ATOM     44  N   UNL A   1      40.359  28.764  29.905  1.00  0.00    -0.248 NA
ATOM     45  C   UNL A   1      39.188  28.916  27.891  1.00  0.00     0.031 C 
ATOM     46  C   UNL A   1      37.407  31.578  31.751  1.00  0.00     0.029 A 
ATOM     47  N   UNL A   1      39.339  30.495  32.058  1.00  0.00    -0.354 N 
ATOM     48  C   UNL A   1      41.002  27.997  28.942  1.00  0.00     0.074 A 
ATOM     49  C   UNL A   1      40.223  28.104  27.727  1.00  0.00     0.031 C 
ATOM     50  C   UNL A   1      37.849  31.885  32.980  1.00  0.00     0.029 A 
ATOM     51  C   UNL A   1      39.075  31.139  33.242  1.00  0.00     0.049 A 
ATOM     52  H   UNL A   1      40.151  29.961  31.902  1.00  0.00     0.167 HD
ATOM     53  C   UNL A   1      42.136  27.268  29.070  1.00  0.00     0.037 A 
ATOM     54  C   UNL A   1      39.722  31.092  34.422  1.00  0.00     0.037 A 
ATOM     55  C   UNL A   1      42.923  27.199  30.273  1.00  0.00     0.049 A 
ATOM     56  C   UNL A   1      40.932  30.212  34.559  1.00  0.00     0.074 A 
ATOM     57  C   UNL A   1      44.115  26.529  30.488  1.00  0.00     0.029 A 
ATOM     58  N   UNL A   1      42.593  27.823  31.467  1.00  0.00    -0.354 N 
ATOM     59  N   UNL A   1      41.526  29.476  33.652  1.00  0.00    -0.248 NA
ATOM     60  C   UNL A   1      41.547  30.136  35.892  1.00  0.00     0.031 C 
ATOM     61  C   UNL A   1      44.482  26.712  31.826  1.00  0.00     0.029 A 
ATOM     62  C   UNL A   1      43.541  27.527  32.434  1.00  0.00     0.049 A 
ATOM     63  H   UNL A   1      41.803  28.393  31.607  1.00  0.00     0.167 HD
ATOM     64  C   UNL A   1      42.589  28.861  34.297  1.00  0.00     0.074 A 
ATOM     65  C   UNL A   1      42.569  29.321  35.670  1.00  0.00     0.031 C 
ATOM     66  C   UNL A   1      43.500  27.990  33.796  1.00  0.00     0.037 A 
BRANCH  53  67
ATOM     67  C   UNL A   1      42.576  26.453  27.890  1.00  0.00     0.064 A 
ATOM     68  C   UNL A   1      42.138  25.137  27.692  1.00  0.00     0.173 A 
ATOM     69  C   UNL A   1      43.418  27.019  26.921  1.00  0.00     0.173 A 
ATOM     70  F   UNL A   1      41.341  24.546  28.594  1.00  0.00    -0.203 F 
ATOM     71  C   UNL A   1      42.546  24.408  26.576  1.00  0.00     0.198 A 
ATOM     72  C   UNL A   1      43.805  26.297  25.796  1.00  0.00     0.198 A 
ATOM     73  F   UNL A   1      43.862  28.277  27.062  1.00  0.00    -0.203 F 
ATOM     74  F   UNL A   1      42.148  23.137  26.426  1.00  0.00    -0.200 F 
ATOM     75  C   UNL A   1      43.374  24.990  25.627  1.00  0.00     0.200 A 
ATOM     76  F   UNL A   1      44.597  26.864  24.875  1.00  0.00    -0.200 F 
ATOM     77  F   UNL A   1      43.760  24.290  24.552  1.00  0.00    -0.200 F 
ENDBRANCH  53  67
BRANCH  54  78
ATOM     78  C   UNL A   1      39.208  31.871  35.577  1.00  0.00     0.064 A 
ATOM     79  C   UNL A   1      38.267  31.317  36.455  1.00  0.00     0.173 A 
ATOM     80  C   UNL A   1      39.649  33.178  35.830  1.00  0.00     0.173 A 
ATOM     81  F   UNL A   1      37.795  30.081  36.238  1.00  0.00    -0.203 F 
ATOM     82  C   UNL A   1      37.782  32.044  37.541  1.00  0.00     0.198 A 
ATOM     83  C   UNL A   1      39.183  33.894  36.931  1.00  0.00     0.198 A 
ATOM     84  F   UNL A   1      40.544  33.755  35.015  1.00  0.00    -0.203 F 
ATOM     85  F   UNL A   1      36.857  31.505  38.345  1.00  0.00    -0.200 F 
ATOM     86  C   UNL A   1      38.247  33.329  37.782  1.00  0.00     0.200 A 
ATOM     87  F   UNL A   1      39.642  35.131  37.166  1.00  0.00    -0.200 F 
ATOM     88  F   UNL A   1      37.786  34.025  38.830  1.00  0.00    -0.200 F 
ENDBRANCH  54  78
BRANCH  66  89
ATOM     89  C   UNL A   1      44.556  27.490  34.735  1.00  0.00     0.064 A 
ATOM     90  C   UNL A   1      45.730  28.221  34.965  1.00  0.00     0.173 A 
ATOM     91  C   UNL A   1      44.372  26.294  35.443  1.00  0.00     0.173 A 
ATOM     92  F   UNL A   1      45.959  29.361  34.297  1.00  0.00    -0.203 F 
ATOM     93  C   UNL A   1      46.691  27.763  35.862  1.00  0.00     0.198 A 
ATOM     94  C   UNL A   1      45.323  25.852  36.358  1.00  0.00     0.198 A 
ATOM     95  F   UNL A   1      43.263  25.563  35.258  1.00  0.00    -0.203 F 
ATOM     96  F   UNL A   1      47.823  28.457  36.042  1.00  0.00    -0.200 F 
ATOM     97  C   UNL A   1      46.483  26.583  36.563  1.00  0.00     0.200 A 
ATOM     98  F   UNL A   1      45.117  24.718  37.041  1.00  0.00    -0.200 F 
ATOM     99  F   UNL A   1      47.404  26.149  37.434  1.00  0.00    -0.200 F 
ENDBRANCH  66  89
ENDBRANCH  40  41
ENDBRANCH  33  35
ENDBRANCH  32  33
ENDBRANCH  31  32
ENDBRANCH  30  31
ENDBRANCH  29  30
ENDBRANCH  27  29
ENDBRANCH   1  27
TORSDOF 20
ENDMDL
MODEL 3
REMARK VINA RESULT:     -10.7      2.775      8.565
REMARK SMILES CCCCCCNC(=O)Oc1cccc(-c2ccc([C@H](C)C(=O)OCCOC(=O)c3ccc(-c4c5nc(c(-c6c(F)c(F)c(F)c(F)c6F)c6ccc([nH]6)c(-c6c(F)c(F)c(F)c(F)c6F)c6nc(c(-c7c(F)c(F)c(F)c(F)c7F)c7ccc4[nH]7)C=C6)C=C5)cc3)cc2F)c1
REMARK SMILES IDX 20 1 21 2 19 3 16 4 17 5 94 6 18 7 93 8 95 9 15 10 11 11
REMARK SMILES IDX 12 12 96 13 13 14 14 15 10 16 8 17 7 18 9 20 6 21 5 22 4 23
REMARK SMILES IDX 3 24 2 25 1 26 22 27 23 28 24 29 25 30 26 31 27 32 28 33
REMARK SMILES IDX 29 34 30 35 31 36 92 37 32 38 91 39 33 40 34 41 35 42 85 43
REMARK SMILES IDX 36 44 90 45 84 46 86 47 37 48 89 49 83 50 82 51 38 53 70 54
REMARK SMILES IDX 50 55 69 56 51 57 54 58 68 59 87 60 52 61 53 62 67 64 88 65
REMARK SMILES IDX 55 66 39 67 40 68 48 69 41 70 42 71 46 72 49 73 43 74 44 75
REMARK SMILES IDX 47 76 45 77 71 78 72 79 80 80 73 81 74 82 78 83 81 84 75 85
REMARK SMILES IDX 76 86 79 87 77 88 56 89 57 90 65 91 58 92 59 93 63 94 66 95
REMARK SMILES IDX 60 96 61 97 64 98 62 99
REMARK H PARENT 7 19 86 52 54 63
REMARK Flexibility Score: inf
ROOT
ATOM      1  C   UNL A   1      28.632  29.531  23.031  1.00  0.00     0.126 C 
ATOM      2  C   UNL A   1      28.141  30.049  21.675  1.00  0.00     0.025 C 
ENDROOT
BRANCH   1   3
ATOM      3  C   UNL A   1      29.318  28.172  23.026  1.00  0.00    -0.031 A 
ATOM      4  C   UNL A   1      30.741  25.705  23.090  1.00  0.00     0.018 A 
ATOM      5  C   UNL A   1      29.520  25.859  23.763  1.00  0.00     0.012 A 
ATOM      6  C   UNL A   1      31.235  26.809  22.389  1.00  0.00     0.131 A 
ATOM      7  C   UNL A   1      28.820  27.071  23.732  1.00  0.00     0.005 A 
ATOM      8  C   UNL A   1      30.549  28.021  22.365  1.00  0.00     0.044 A 
ATOM      9  F   UNL A   1      32.400  26.731  21.727  1.00  0.00    -0.206 F 
BRANCH   4  10
ATOM     10  C   UNL A   1      31.485  24.444  23.166  1.00  0.00    -0.012 A 
ATOM     11  C   UNL A   1      31.906  22.313  24.242  1.00  0.00     0.133 A 
ATOM     12  C   UNL A   1      32.870  21.992  23.290  1.00  0.00     0.047 A 
ATOM     13  C   UNL A   1      31.234  23.533  24.201  1.00  0.00     0.056 A 
ATOM     14  C   UNL A   1      33.140  22.894  22.264  1.00  0.00     0.004 A 
ATOM     15  C   UNL A   1      32.450  24.108  22.200  1.00  0.00     0.009 A 
BRANCH  11  16
ATOM     16  O   UNL A   1      31.718  21.411  25.300  1.00  0.00    -0.410 OA
BRANCH  16  17
ATOM     17  C   UNL A   1      32.460  20.239  25.292  1.00  0.00     0.412 C 
ATOM     18  N   UNL A   1      33.585  20.312  26.066  1.00  0.00    -0.321 N 
ATOM     19  H   UNL A   1      34.155  19.511  26.094  1.00  0.00     0.167 HD
ATOM     20  O   UNL A   1      32.192  19.215  24.674  1.00  0.00    -0.224 OA
BRANCH  18  21
ATOM     21  C   UNL A   1      34.023  21.450  26.848  1.00  0.00     0.119 C 
BRANCH  21  22
ATOM     22  C   UNL A   1      35.094  22.264  26.124  1.00  0.00     0.021 C 
BRANCH  22  23
ATOM     23  C   UNL A   1      35.052  23.773  26.395  1.00  0.00     0.002 C 
BRANCH  23  24
ATOM     24  C   UNL A   1      34.565  24.641  25.230  1.00  0.00    -0.000 C 
BRANCH  24  25
ATOM     25  C   UNL A   1      34.208  26.085  25.590  1.00  0.00    -0.003 C 
ATOM     26  C   UNL A   1      32.783  26.245  26.096  1.00  0.00     0.004 C 
ENDBRANCH  24  25
ENDBRANCH  23  24
ENDBRANCH  22  23
ENDBRANCH  21  22
ENDBRANCH  18  21
ENDBRANCH  16  17
ENDBRANCH  11  16
ENDBRANCH   4  10
ENDBRANCH   1   3
BRANCH   1  27
ATOM     27  C   UNL A   1      29.428  30.588  23.802  1.00  0.00     0.313 C 
ATOM     28  O   UNL A   1      29.129  31.779  23.796  1.00  0.00    -0.252 OA
BRANCH  27  29
ATOM     29  O   UNL A   1      30.502  30.076  24.458  1.00  0.00    -0.462 OA
BRANCH  29  30
ATOM     30  C   UNL A   1      31.025  30.897  25.520  1.00  0.00     0.274 C 
BRANCH  30  31
ATOM     31  C   UNL A   1      31.896  30.074  26.472  1.00  0.00     0.275 C 
BRANCH  31  32
ATOM     32  O   UNL A   1      33.281  30.458  26.380  1.00  0.00    -0.458 OA
BRANCH  32  33
ATOM     33  C   UNL A   1      33.673  31.451  27.211  1.00  0.00     0.338 C 
ATOM     34  O   UNL A   1      33.077  32.478  27.482  1.00  0.00    -0.246 OA
BRANCH  33  35
ATOM     35  C   UNL A   1      34.968  31.109  27.815  1.00  0.00     0.060 A 
ATOM     36  C   UNL A   1      35.172  29.824  28.319  1.00  0.00     0.016 A 
ATOM     37  C   UNL A   1      35.937  32.096  27.990  1.00  0.00     0.016 A 
ATOM     38  C   UNL A   1      36.331  29.521  29.029  1.00  0.00     0.010 A 
ATOM     39  C   UNL A   1      37.123  31.779  28.657  1.00  0.00     0.010 A 
ATOM     40  C   UNL A   1      37.323  30.493  29.194  1.00  0.00    -0.014 A 
BRANCH  40  41
ATOM     41  C   UNL A   1      38.571  30.178  29.931  1.00  0.00     0.031 A 
ATOM     42  C   UNL A   1      39.583  29.247  29.329  1.00  0.00     0.074 A 
ATOM     43  C   UNL A   1      38.782  30.710  31.148  1.00  0.00     0.049 A 
ATOM     44  N   UNL A   1      40.635  28.699  29.880  1.00  0.00    -0.248 NA
ATOM     45  C   UNL A   1      39.379  28.877  27.920  1.00  0.00     0.031 C 
ATOM     46  C   UNL A   1      37.904  31.673  31.814  1.00  0.00     0.029 A 
ATOM     47  N   UNL A   1      39.796  30.505  32.049  1.00  0.00    -0.354 N 
ATOM     48  C   UNL A   1      41.195  27.889  28.901  1.00  0.00     0.074 A 
ATOM     49  C   UNL A   1      40.366  28.015  27.721  1.00  0.00     0.031 C 
ATOM     50  C   UNL A   1      38.417  31.976  33.016  1.00  0.00     0.029 A 
ATOM     51  C   UNL A   1      39.619  31.177  33.234  1.00  0.00     0.049 A 
ATOM     52  H   UNL A   1      40.575  29.932  31.865  1.00  0.00     0.167 HD
ATOM     53  C   UNL A   1      42.300  27.109  28.988  1.00  0.00     0.037 A 
ATOM     54  C   UNL A   1      40.317  31.117  34.383  1.00  0.00     0.037 A 
ATOM     55  C   UNL A   1      43.138  27.021  30.154  1.00  0.00     0.049 A 
ATOM     56  C   UNL A   1      41.491  30.184  34.478  1.00  0.00     0.074 A 
ATOM     57  C   UNL A   1      44.308  26.300  30.325  1.00  0.00     0.029 A 
ATOM     58  N   UNL A   1      42.894  27.677  31.352  1.00  0.00    -0.354 N 
ATOM     59  N   UNL A   1      42.007  29.408  33.557  1.00  0.00    -0.248 NA
ATOM     60  C   UNL A   1      42.164  30.098  35.783  1.00  0.00     0.031 C 
ATOM     61  C   UNL A   1      44.745  26.484  31.641  1.00  0.00     0.029 A 
ATOM     62  C   UNL A   1      43.871  27.351  32.279  1.00  0.00     0.049 A 
ATOM     63  H   UNL A   1      42.138  28.285  31.519  1.00  0.00     0.167 HD
ATOM     64  C   UNL A   1      43.070  28.754  34.162  1.00  0.00     0.074 A 
ATOM     65  C   UNL A   1      43.135  29.233  35.527  1.00  0.00     0.031 C 
ATOM     66  C   UNL A   1      43.915  27.834  33.633  1.00  0.00     0.037 A 
BRANCH  53  67
ATOM     67  C   UNL A   1      42.646  26.259  27.802  1.00  0.00     0.064 A 
ATOM     68  C   UNL A   1      43.630  26.638  26.879  1.00  0.00     0.173 A 
ATOM     69  C   UNL A   1      42.007  25.024  27.614  1.00  0.00     0.173 A 
ATOM     70  F   UNL A   1      44.261  27.814  27.008  1.00  0.00    -0.203 F 
ATOM     71  C   UNL A   1      43.947  25.820  25.796  1.00  0.00     0.198 A 
ATOM     72  C   UNL A   1      42.343  24.198  26.544  1.00  0.00     0.198 A 
ATOM     73  F   UNL A   1      41.061  24.614  28.471  1.00  0.00    -0.203 F 
ATOM     74  F   UNL A   1      44.864  26.219  24.904  1.00  0.00    -0.200 F 
ATOM     75  C   UNL A   1      43.309  24.599  25.633  1.00  0.00     0.200 A 
ATOM     76  F   UNL A   1      41.732  23.015  26.395  1.00  0.00    -0.200 F 
ATOM     77  F   UNL A   1      43.619  23.812  24.595  1.00  0.00    -0.200 F 
ENDBRANCH  53  67
BRANCH  54  78
ATOM     78  C   UNL A   1      39.894  31.935  35.547  1.00  0.00     0.064 A 
ATOM     79  C   UNL A   1      40.491  33.175  35.809  1.00  0.00     0.173 A 
ATOM     80  C   UNL A   1      38.883  31.500  36.417  1.00  0.00     0.173 A 
ATOM     81  F   UNL A   1      41.481  33.621  35.021  1.00  0.00    -0.203 F 
ATOM     82  C   UNL A   1      40.097  33.947  36.900  1.00  0.00     0.198 A 
ATOM     83  C   UNL A   1      38.471  32.285  37.492  1.00  0.00     0.198 A 
ATOM     84  F   UNL A   1      38.284  30.317  36.213  1.00  0.00    -0.203 F 
ATOM     85  F   UNL A   1      40.708  35.113  37.149  1.00  0.00    -0.200 F 
ATOM     86  C   UNL A   1      39.081  33.505  37.736  1.00  0.00     0.200 A 
ATOM     87  F   UNL A   1      37.484  31.858  38.291  1.00  0.00    -0.200 F 
ATOM     88  F   UNL A   1      38.698  34.251  38.780  1.00  0.00    -0.200 F 
ENDBRANCH  54  78
BRANCH  66  89
ATOM     89  C   UNL A   1      44.990  27.300  34.531  1.00  0.00     0.064 A 
ATOM     90  C   UNL A   1      44.810  26.113  35.256  1.00  0.00     0.173 A 
ATOM     91  C   UNL A   1      46.226  27.955  34.631  1.00  0.00     0.173 A 
ATOM     92  F   UNL A   1      43.639  25.462  35.206  1.00  0.00    -0.203 F 
ATOM     93  C   UNL A   1      45.827  25.609  36.062  1.00  0.00     0.198 A 
ATOM     94  C   UNL A   1      47.249  27.434  35.419  1.00  0.00     0.198 A 
ATOM     95  F   UNL A   1      46.446  29.091  33.954  1.00  0.00    -0.203 F 
ATOM     96  F   UNL A   1      45.623  24.493  36.776  1.00  0.00    -0.200 F 
ATOM     97  C   UNL A   1      47.047  26.265  36.137  1.00  0.00     0.200 A 
ATOM     98  F   UNL A   1      48.429  28.064  35.483  1.00  0.00    -0.200 F 
ATOM     99  F   UNL A   1      48.027  25.773  36.907  1.00  0.00    -0.200 F 
ENDBRANCH  66  89
ENDBRANCH  40  41
ENDBRANCH  33  35
ENDBRANCH  32  33
ENDBRANCH  31  32
ENDBRANCH  30  31
ENDBRANCH  29  30
ENDBRANCH  27  29
ENDBRANCH   1  27
TORSDOF 20
ENDMDL
