MODEL 1
REMARK VINA RESULT:     -11.6      0.000      0.000
REMARK SMILES NC(=O)c1ccc(C(=O)OCCOC(=O)c2ccc(-c3c4nc(c(-c5c(F)c(F)c(F)c(F)c5F)c5ccc([nH]5)c(-c5c(F)c(F)c(F)c(F)c5F)c5nc(c(-c6c(F)c(F)c(F)c(F)c6F)c6ccc3[nH]6)C=C5)C=C4)cc2)c(F)c1
REMARK SMILES IDX 12 1 11 2 10 3 8 4 9 5 7 6 4 7 5 8 81 9 6 10 79 11 80 12
REMARK SMILES IDX 2 13 1 14 3 17 13 18 14 19 15 20 16 21 17 22 78 23 18 24
REMARK SMILES IDX 77 25 19 26 20 27 21 28 71 29 22 30 76 31 70 32 72 33 23 34
REMARK SMILES IDX 75 35 69 36 68 37 24 39 56 40 36 41 55 42 37 43 40 44 54 45
REMARK SMILES IDX 73 46 38 47 39 48 53 50 74 51 41 52 25 53 26 54 34 55 27 56
REMARK SMILES IDX 28 57 32 58 35 59 29 60 30 61 33 62 31 63 57 64 58 65 66 66
REMARK SMILES IDX 59 67 60 68 64 69 67 70 61 71 62 72 65 73 63 74 42 75 43 76
REMARK SMILES IDX 51 77 44 78 45 79 49 80 52 81 46 82 47 83 50 84 48 85
REMARK H PARENT 1 15 1 16 72 38 40 49
REMARK Flexibility Score: inf
ROOT
ATOM      1  C   UNL A   1      43.774  22.023  25.389  1.00  0.00     0.275 C 
ENDROOT
BRANCH   1   2
ATOM      2  C   UNL A   1      42.722  21.136  26.054  1.00  0.00     0.275 C 
BRANCH   2   3
ATOM      3  O   UNL A   1      41.394  21.506  25.633  1.00  0.00    -0.458 OA
BRANCH   3   4
ATOM      4  C   UNL A   1      40.395  21.279  26.519  1.00  0.00     0.341 C 
ATOM      5  O   UNL A   1      40.499  20.727  27.600  1.00  0.00    -0.246 OA
BRANCH   4   6
ATOM      6  C   UNL A   1      39.135  21.924  26.085  1.00  0.00     0.095 A 
ATOM      7  C   UNL A   1      36.831  23.280  25.248  1.00  0.00     0.042 A 
ATOM      8  C   UNL A   1      37.769  23.938  26.049  1.00  0.00     0.015 A 
ATOM      9  C   UNL A   1      37.018  21.935  24.908  1.00  0.00     0.054 A 
ATOM     10  C   UNL A   1      38.904  23.251  26.485  1.00  0.00     0.019 A 
ATOM     11  C   UNL A   1      38.175  21.270  25.317  1.00  0.00     0.138 A 
ATOM     12  F   UNL A   1      38.318  19.981  24.978  1.00  0.00    -0.206 F 
BRANCH   7  13
ATOM     13  C   UNL A   1      35.604  23.968  24.785  1.00  0.00     0.248 C 
ATOM     14  N   UNL A   1      35.155  23.650  23.534  1.00  0.00    -0.366 N 
ATOM     15  H   UNL A   1      34.344  24.080  23.179  1.00  0.00     0.159 HD
ATOM     16  H   UNL A   1      35.643  22.992  22.989  1.00  0.00     0.159 HD
ATOM     17  O   UNL A   1      35.009  24.758  25.503  1.00  0.00    -0.270 OA
ENDBRANCH   7  13
ENDBRANCH   4   6
ENDBRANCH   3   4
ENDBRANCH   2   3
ENDBRANCH   1   2
BRANCH   1  18
ATOM     18  O   UNL A   1      43.151  23.189  24.818  1.00  0.00    -0.458 OA
BRANCH  18  19
ATOM     19  C   UNL A   1      43.806  24.353  25.015  1.00  0.00     0.338 C 
ATOM     20  O   UNL A   1      44.854  24.722  24.513  1.00  0.00    -0.246 OA
BRANCH  19  21
ATOM     21  C   UNL A   1      43.019  25.224  25.898  1.00  0.00     0.060 A 
ATOM     22  C   UNL A   1      43.392  26.561  25.995  1.00  0.00     0.016 A 
ATOM     23  C   UNL A   1      42.061  24.697  26.762  1.00  0.00     0.016 A 
ATOM     24  C   UNL A   1      42.876  27.363  27.010  1.00  0.00     0.010 A 
ATOM     25  C   UNL A   1      41.492  25.521  27.743  1.00  0.00     0.010 A 
ATOM     26  C   UNL A   1      41.932  26.850  27.910  1.00  0.00    -0.014 A 
BRANCH  26  27
ATOM     27  C   UNL A   1      41.495  27.669  29.077  1.00  0.00     0.031 A 
ATOM     28  C   UNL A   1      42.294  27.644  30.358  1.00  0.00     0.074 A 
ATOM     29  C   UNL A   1      40.423  28.483  28.988  1.00  0.00     0.049 A 
ATOM     30  N   UNL A   1      42.020  28.192  31.517  1.00  0.00    -0.248 NA
ATOM     31  C   UNL A   1      43.564  26.902  30.336  1.00  0.00     0.031 C 
ATOM     32  C   UNL A   1      39.581  28.646  27.804  1.00  0.00     0.029 A 
ATOM     33  N   UNL A   1      39.866  29.337  29.910  1.00  0.00    -0.354 N 
ATOM     34  C   UNL A   1      43.047  27.808  32.371  1.00  0.00     0.074 A 
ATOM     35  C   UNL A   1      43.956  26.989  31.600  1.00  0.00     0.031 C 
ATOM     36  C   UNL A   1      38.639  29.568  28.057  1.00  0.00     0.029 A 
ATOM     37  C   UNL A   1      38.764  30.012  29.443  1.00  0.00     0.049 A 
ATOM     38  H   UNL A   1      40.223  29.454  30.821  1.00  0.00     0.167 HD
ATOM     39  C   UNL A   1      43.217  28.113  33.679  1.00  0.00     0.037 A 
ATOM     40  C   UNL A   1      37.930  30.871  30.064  1.00  0.00     0.037 A 
ATOM     41  C   UNL A   1      42.359  28.989  34.433  1.00  0.00     0.049 A 
ATOM     42  C   UNL A   1      38.159  31.215  31.510  1.00  0.00     0.074 A 
ATOM     43  C   UNL A   1      42.458  29.356  35.764  1.00  0.00     0.029 A 
ATOM     44  N   UNL A   1      41.261  29.657  33.914  1.00  0.00    -0.354 N 
ATOM     45  N   UNL A   1      39.100  30.797  32.320  1.00  0.00    -0.248 NA
ATOM     46  C   UNL A   1      37.205  32.146  32.132  1.00  0.00     0.031 C 
ATOM     47  C   UNL A   1      41.409  30.231  36.058  1.00  0.00     0.029 A 
ATOM     48  C   UNL A   1      40.681  30.441  34.899  1.00  0.00     0.049 A 
ATOM     49  H   UNL A   1      40.942  29.587  32.986  1.00  0.00     0.167 HD
ATOM     50  C   UNL A   1      38.862  31.420  33.537  1.00  0.00     0.074 A 
ATOM     51  C   UNL A   1      37.700  32.265  33.357  1.00  0.00     0.031 C 
ATOM     52  C   UNL A   1      39.541  31.295  34.702  1.00  0.00     0.037 A 
BRANCH  39  53
ATOM     53  C   UNL A   1      44.371  27.488  34.406  1.00  0.00     0.064 A 
ATOM     54  C   UNL A   1      44.205  26.252  35.051  1.00  0.00     0.173 A 
ATOM     55  C   UNL A   1      45.598  28.147  34.549  1.00  0.00     0.173 A 
ATOM     56  F   UNL A   1      43.045  25.586  34.950  1.00  0.00    -0.203 F 
ATOM     57  C   UNL A   1      45.222  25.711  35.832  1.00  0.00     0.198 A 
ATOM     58  C   UNL A   1      46.622  27.590  35.312  1.00  0.00     0.198 A 
ATOM     59  F   UNL A   1      45.808  29.324  33.940  1.00  0.00    -0.203 F 
ATOM     60  F   UNL A   1      45.028  24.548  36.471  1.00  0.00    -0.200 F 
ATOM     61  C   UNL A   1      46.429  26.379  35.961  1.00  0.00     0.200 A 
ATOM     62  F   UNL A   1      47.796  28.228  35.421  1.00  0.00    -0.200 F 
ATOM     63  F   UNL A   1      47.407  25.858  36.714  1.00  0.00    -0.200 F 
ENDBRANCH  39  53
BRANCH  40  64
ATOM     64  C   UNL A   1      36.782  31.451  29.319  1.00  0.00     0.064 A 
ATOM     65  C   UNL A   1      36.776  32.799  28.928  1.00  0.00     0.173 A 
ATOM     66  C   UNL A   1      35.665  30.671  28.987  1.00  0.00     0.173 A 
ATOM     67  F   UNL A   1      37.822  33.587  29.221  1.00  0.00    -0.203 F 
ATOM     68  C   UNL A   1      35.692  33.347  28.248  1.00  0.00     0.198 A 
ATOM     69  C   UNL A   1      34.594  31.213  28.280  1.00  0.00     0.198 A 
ATOM     70  F   UNL A   1      35.636  29.372  29.317  1.00  0.00    -0.203 F 
ATOM     71  F   UNL A   1      35.700  34.644  27.914  1.00  0.00    -0.200 F 
ATOM     72  C   UNL A   1      34.605  32.552  27.918  1.00  0.00     0.200 A 
ATOM     73  F   UNL A   1      33.558  30.435  27.937  1.00  0.00    -0.200 F 
ATOM     74  F   UNL A   1      33.569  33.075  27.248  1.00  0.00    -0.200 F 
ENDBRANCH  40  64
BRANCH  52  75
ATOM     75  C   UNL A   1      39.079  32.117  35.868  1.00  0.00     0.064 A 
ATOM     76  C   UNL A   1      39.543  33.431  36.036  1.00  0.00     0.173 A 
ATOM     77  C   UNL A   1      38.235  31.586  36.853  1.00  0.00     0.173 A 
ATOM     78  F   UNL A   1      40.361  33.980  35.125  1.00  0.00    -0.203 F 
ATOM     79  C   UNL A   1      39.181  34.182  37.150  1.00  0.00     0.198 A 
ATOM     80  C   UNL A   1      37.855  32.348  37.955  1.00  0.00     0.198 A 
ATOM     81  F   UNL A   1      37.759  30.338  36.732  1.00  0.00    -0.203 F 
ATOM     82  F   UNL A   1      39.654  35.426  37.301  1.00  0.00    -0.200 F 
ATOM     83  C   UNL A   1      38.334  33.641  38.106  1.00  0.00     0.200 A 
ATOM     84  F   UNL A   1      37.020  31.833  38.867  1.00  0.00    -0.200 F 
ATOM     85  F   UNL A   1      37.976  34.370  39.174  1.00  0.00    -0.200 F 
ENDBRANCH  52  75
ENDBRANCH  26  27
ENDBRANCH  19  21
ENDBRANCH  18  19
ENDBRANCH   1  18
TORSDOF 12
ENDMDL
MODEL 2
REMARK VINA RESULT:     -11.6      0.480      2.098
REMARK SMILES NC(=O)c1ccc(C(=O)OCCOC(=O)c2ccc(-c3c4nc(c(-c5c(F)c(F)c(F)c(F)c5F)c5ccc([nH]5)c(-c5c(F)c(F)c(F)c(F)c5F)c5nc(c(-c6c(F)c(F)c(F)c(F)c6F)c6ccc3[nH]6)C=C5)C=C4)cc2)c(F)c1
REMARK SMILES IDX 12 1 11 2 10 3 8 4 9 5 7 6 4 7 5 8 81 9 6 10 79 11 80 12
REMARK SMILES IDX 2 13 1 14 3 17 13 18 14 19 15 20 16 21 17 22 78 23 18 24
REMARK SMILES IDX 77 25 19 26 20 27 21 28 71 29 22 30 76 31 70 32 72 33 23 34
REMARK SMILES IDX 75 35 69 36 68 37 24 39 56 40 36 41 55 42 37 43 40 44 54 45
REMARK SMILES IDX 73 46 38 47 39 48 53 50 74 51 41 52 25 53 26 54 34 55 27 56
REMARK SMILES IDX 28 57 32 58 35 59 29 60 30 61 33 62 31 63 57 64 58 65 66 66
REMARK SMILES IDX 59 67 60 68 64 69 67 70 61 71 62 72 65 73 63 74 42 75 43 76
REMARK SMILES IDX 51 77 44 78 45 79 49 80 52 81 46 82 47 83 50 84 48 85
REMARK H PARENT 1 15 1 16 72 38 40 49
REMARK Flexibility Score: inf
ROOT
ATOM      1  C   UNL A   1      43.665  21.766  25.305  1.00  0.00     0.275 C 
ENDROOT
BRANCH   1   2
ATOM      2  C   UNL A   1      42.718  20.997  26.226  1.00  0.00     0.275 C 
BRANCH   2   3
ATOM      3  O   UNL A   1      41.358  21.080  25.753  1.00  0.00    -0.458 OA
BRANCH   3   4
ATOM      4  C   UNL A   1      40.404  21.284  26.692  1.00  0.00     0.341 C 
ATOM      5  O   UNL A   1      40.539  21.171  27.897  1.00  0.00    -0.246 OA
BRANCH   4   6
ATOM      6  C   UNL A   1      39.164  21.821  26.088  1.00  0.00     0.095 A 
ATOM      7  C   UNL A   1      36.890  22.977  24.929  1.00  0.00     0.042 A 
ATOM      8  C   UNL A   1      37.701  23.741  25.773  1.00  0.00     0.015 A 
ATOM      9  C   UNL A   1      37.185  21.627  24.706  1.00  0.00     0.054 A 
ATOM     10  C   UNL A   1      38.820  23.155  26.369  1.00  0.00     0.019 A 
ATOM     11  C   UNL A   1      38.326  21.062  25.275  1.00  0.00     0.138 A 
ATOM     12  F   UNL A   1      38.574  19.765  25.043  1.00  0.00    -0.206 F 
BRANCH   7  13
ATOM     13  C   UNL A   1      35.682  23.558  24.297  1.00  0.00     0.248 C 
ATOM     14  N   UNL A   1      34.919  24.385  25.072  1.00  0.00    -0.366 N 
ATOM     15  H   UNL A   1      34.106  24.796  24.700  1.00  0.00     0.159 HD
ATOM     16  H   UNL A   1      35.182  24.568  26.002  1.00  0.00     0.159 HD
ATOM     17  O   UNL A   1      35.405  23.328  23.130  1.00  0.00    -0.270 OA
ENDBRANCH   7  13
ENDBRANCH   4   6
ENDBRANCH   3   4
ENDBRANCH   2   3
ENDBRANCH   1   2
BRANCH   1  18
ATOM     18  O   UNL A   1      43.027  22.964  24.824  1.00  0.00    -0.458 OA
BRANCH  18  19
ATOM     19  C   UNL A   1      43.720  24.107  25.012  1.00  0.00     0.338 C 
ATOM     20  O   UNL A   1      44.775  24.441  24.498  1.00  0.00    -0.246 OA
BRANCH  19  21
ATOM     21  C   UNL A   1      42.970  25.005  25.900  1.00  0.00     0.060 A 
ATOM     22  C   UNL A   1      43.401  26.324  26.007  1.00  0.00     0.016 A 
ATOM     23  C   UNL A   1      41.987  24.515  26.757  1.00  0.00     0.016 A 
ATOM     24  C   UNL A   1      42.919  27.140  27.027  1.00  0.00     0.010 A 
ATOM     25  C   UNL A   1      41.453  25.356  27.743  1.00  0.00     0.010 A 
ATOM     26  C   UNL A   1      41.950  26.662  27.921  1.00  0.00    -0.014 A 
BRANCH  26  27
ATOM     27  C   UNL A   1      41.547  27.492  29.093  1.00  0.00     0.031 A 
ATOM     28  C   UNL A   1      42.359  27.446  30.365  1.00  0.00     0.074 A 
ATOM     29  C   UNL A   1      40.494  28.332  29.016  1.00  0.00     0.049 A 
ATOM     30  N   UNL A   1      42.112  27.999  31.527  1.00  0.00    -0.248 NA
ATOM     31  C   UNL A   1      43.610  26.673  30.328  1.00  0.00     0.031 C 
ATOM     32  C   UNL A   1      39.644  28.517  27.841  1.00  0.00     0.029 A 
ATOM     33  N   UNL A   1      39.969  29.199  29.945  1.00  0.00    -0.354 N 
ATOM     34  C   UNL A   1      43.138  27.590  32.369  1.00  0.00     0.074 A 
ATOM     35  C   UNL A   1      44.018  26.749  31.588  1.00  0.00     0.031 C 
ATOM     36  C   UNL A   1      38.728  29.462  28.105  1.00  0.00     0.029 A 
ATOM     37  C   UNL A   1      38.879  29.901  29.490  1.00  0.00     0.049 A 
ATOM     38  H   UNL A   1      40.339  29.306  30.851  1.00  0.00     0.167 HD
ATOM     39  C   UNL A   1      43.330  27.890  33.676  1.00  0.00     0.037 A 
ATOM     40  C   UNL A   1      38.074  30.781  30.120  1.00  0.00     0.037 A 
ATOM     41  C   UNL A   1      42.502  28.786  34.439  1.00  0.00     0.049 A 
ATOM     42  C   UNL A   1      38.327  31.118  31.564  1.00  0.00     0.074 A 
ATOM     43  C   UNL A   1      42.625  29.149  35.770  1.00  0.00     0.029 A 
ATOM     44  N   UNL A   1      41.416  29.482  33.933  1.00  0.00    -0.354 N 
ATOM     45  N   UNL A   1      39.266  30.676  32.363  1.00  0.00    -0.248 NA
ATOM     46  C   UNL A   1      37.404  32.072  32.197  1.00  0.00     0.031 C 
ATOM     47  C   UNL A   1      41.601  30.050  36.076  1.00  0.00     0.029 A 
ATOM     48  C   UNL A   1      40.866  30.279  34.924  1.00  0.00     0.049 A 
ATOM     49  H   UNL A   1      41.085  29.420  33.008  1.00  0.00     0.167 HD
ATOM     50  C   UNL A   1      39.057  31.304  33.583  1.00  0.00     0.074 A 
ATOM     51  C   UNL A   1      37.914  32.177  33.416  1.00  0.00     0.031 C 
ATOM     52  C   UNL A   1      39.745  31.161  34.741  1.00  0.00     0.037 A 
BRANCH  39  53
ATOM     53  C   UNL A   1      44.475  27.236  34.390  1.00  0.00     0.064 A 
ATOM     54  C   UNL A   1      45.738  27.851  34.399  1.00  0.00     0.173 A 
ATOM     55  C   UNL A   1      44.356  25.969  34.974  1.00  0.00     0.173 A 
ATOM     56  F   UNL A   1      45.904  29.062  33.845  1.00  0.00    -0.203 F 
ATOM     57  C   UNL A   1      46.843  27.209  34.949  1.00  0.00     0.198 A 
ATOM     58  C   UNL A   1      45.460  25.340  35.545  1.00  0.00     0.198 A 
ATOM     59  F   UNL A   1      43.168  25.347  35.002  1.00  0.00    -0.203 F 
ATOM     60  F   UNL A   1      48.047  27.798  34.911  1.00  0.00    -0.200 F 
ATOM     61  C   UNL A   1      46.704  25.955  35.522  1.00  0.00     0.200 A 
ATOM     62  F   UNL A   1      45.321  24.135  36.116  1.00  0.00    -0.200 F 
ATOM     63  F   UNL A   1      47.769  25.337  36.049  1.00  0.00    -0.200 F 
ENDBRANCH  39  53
BRANCH  40  64
ATOM     64  C   UNL A   1      36.932  31.390  29.389  1.00  0.00     0.064 A 
ATOM     65  C   UNL A   1      35.802  30.633  29.046  1.00  0.00     0.173 A 
ATOM     66  C   UNL A   1      36.950  32.741  29.016  1.00  0.00     0.173 A 
ATOM     67  F   UNL A   1      35.736  29.336  29.381  1.00  0.00    -0.203 F 
ATOM     68  C   UNL A   1      34.741  31.199  28.344  1.00  0.00     0.198 A 
ATOM     69  C   UNL A   1      35.874  33.315  28.340  1.00  0.00     0.198 A 
ATOM     70  F   UNL A   1      37.997  33.512  29.344  1.00  0.00    -0.203 F 
ATOM     71  F   UNL A   1      33.688  30.445  28.001  1.00  0.00    -0.200 F 
ATOM     72  C   UNL A   1      34.775  32.541  27.997  1.00  0.00     0.200 A 
ATOM     73  F   UNL A   1      35.898  34.619  28.033  1.00  0.00    -0.200 F 
ATOM     74  F   UNL A   1      33.747  33.091  27.338  1.00  0.00    -0.200 F 
ENDBRANCH  40  64
BRANCH  52  75
ATOM     75  C   UNL A   1      39.317  31.994  35.912  1.00  0.00     0.064 A 
ATOM     76  C   UNL A   1      38.319  31.530  36.783  1.00  0.00     0.173 A 
ATOM     77  C   UNL A   1      39.843  33.274  36.135  1.00  0.00     0.173 A 
ATOM     78  F   UNL A   1      37.778  30.315  36.605  1.00  0.00    -0.203 F 
ATOM     79  C   UNL A   1      37.860  32.321  37.832  1.00  0.00     0.198 A 
ATOM     80  C   UNL A   1      39.399  34.053  37.200  1.00  0.00     0.198 A 
ATOM     81  F   UNL A   1      40.806  33.756  35.335  1.00  0.00    -0.203 F 
ATOM     82  F   UNL A   1      36.891  31.867  38.637  1.00  0.00    -0.200 F 
ATOM     83  C   UNL A   1      38.404  33.580  38.042  1.00  0.00     0.200 A 
ATOM     84  F   UNL A   1      39.940  35.260  37.415  1.00  0.00    -0.200 F 
ATOM     85  F   UNL A   1      37.970  34.336  39.061  1.00  0.00    -0.200 F 
ENDBRANCH  52  75
ENDBRANCH  26  27
ENDBRANCH  19  21
ENDBRANCH  18  19
ENDBRANCH   1  18
TORSDOF 12
ENDMDL
MODEL 3
REMARK VINA RESULT:     -11.3      5.271      7.625
REMARK SMILES NC(=O)c1ccc(C(=O)OCCOC(=O)c2ccc(-c3c4nc(c(-c5c(F)c(F)c(F)c(F)c5F)c5ccc([nH]5)c(-c5c(F)c(F)c(F)c(F)c5F)c5nc(c(-c6c(F)c(F)c(F)c(F)c6F)c6ccc3[nH]6)C=C5)C=C4)cc2)c(F)c1
REMARK SMILES IDX 12 1 11 2 10 3 8 4 9 5 7 6 4 7 5 8 81 9 6 10 79 11 80 12
REMARK SMILES IDX 2 13 1 14 3 17 13 18 14 19 15 20 16 21 17 22 78 23 18 24
REMARK SMILES IDX 77 25 19 26 20 27 21 28 71 29 22 30 76 31 70 32 72 33 23 34
REMARK SMILES IDX 75 35 69 36 68 37 24 39 56 40 36 41 55 42 37 43 40 44 54 45
REMARK SMILES IDX 73 46 38 47 39 48 53 50 74 51 41 52 25 53 26 54 34 55 27 56
REMARK SMILES IDX 28 57 32 58 35 59 29 60 30 61 33 62 31 63 57 64 58 65 66 66
REMARK SMILES IDX 59 67 60 68 64 69 67 70 61 71 62 72 65 73 63 74 42 75 43 76
REMARK SMILES IDX 51 77 44 78 45 79 49 80 52 81 46 82 47 83 50 84 48 85
REMARK H PARENT 1 15 1 16 72 38 40 49
REMARK Flexibility Score: inf
ROOT
ATOM      1  C   UNL A   1      38.173  20.265  25.330  1.00  0.00     0.275 C 
ENDROOT
BRANCH   1   2
ATOM      2  C   UNL A   1      37.025  21.136  24.821  1.00  0.00     0.275 C 
BRANCH   2   3
ATOM      3  O   UNL A   1      35.795  20.818  25.502  1.00  0.00    -0.458 OA
BRANCH   3   4
ATOM      4  C   UNL A   1      34.711  20.600  24.719  1.00  0.00     0.341 C 
ATOM      5  O   UNL A   1      34.252  21.365  23.890  1.00  0.00    -0.246 OA
BRANCH   4   6
ATOM      6  C   UNL A   1      34.204  19.219  24.877  1.00  0.00     0.095 A 
ATOM      7  C   UNL A   1      33.387  16.561  25.229  1.00  0.00     0.042 A 
ATOM      8  C   UNL A   1      34.683  16.834  24.781  1.00  0.00     0.015 A 
ATOM      9  C   UNL A   1      32.487  17.610  25.452  1.00  0.00     0.054 A 
ATOM     10  C   UNL A   1      35.078  18.159  24.583  1.00  0.00     0.019 A 
ATOM     11  C   UNL A   1      32.904  18.931  25.288  1.00  0.00     0.138 A 
ATOM     12  F   UNL A   1      32.013  19.908  25.505  1.00  0.00    -0.206 F 
BRANCH   7  13
ATOM     13  C   UNL A   1      32.924  15.169  25.429  1.00  0.00     0.248 C 
ATOM     14  N   UNL A   1      31.580  14.984  25.591  1.00  0.00    -0.366 N 
ATOM     15  H   UNL A   1      31.221  14.079  25.728  1.00  0.00     0.159 HD
ATOM     16  H   UNL A   1      30.972  15.758  25.573  1.00  0.00     0.159 HD
ATOM     17  O   UNL A   1      33.707  14.232  25.418  1.00  0.00    -0.270 OA
ENDBRANCH   7  13
ENDBRANCH   4   6
ENDBRANCH   3   4
ENDBRANCH   2   3
ENDBRANCH   1   2
BRANCH   1  18
ATOM     18  O   UNL A   1      39.373  21.051  25.462  1.00  0.00    -0.458 OA
BRANCH  18  19
ATOM     19  C   UNL A   1      40.036  20.908  26.628  1.00  0.00     0.338 C 
ATOM     20  O   UNL A   1      40.418  19.877  27.157  1.00  0.00    -0.246 OA
BRANCH  19  21
ATOM     21  C   UNL A   1      40.344  22.230  27.191  1.00  0.00     0.060 A 
ATOM     22  C   UNL A   1      39.703  23.337  26.643  1.00  0.00     0.016 A 
ATOM     23  C   UNL A   1      41.385  22.400  28.102  1.00  0.00     0.016 A 
ATOM     24  C   UNL A   1      40.151  24.623  26.932  1.00  0.00     0.010 A 
ATOM     25  C   UNL A   1      41.794  23.696  28.444  1.00  0.00     0.010 A 
ATOM     26  C   UNL A   1      41.215  24.821  27.823  1.00  0.00    -0.014 A 
BRANCH  26  27
ATOM     27  C   UNL A   1      41.780  26.188  28.014  1.00  0.00     0.031 A 
ATOM     28  C   UNL A   1      43.117  26.543  27.410  1.00  0.00     0.074 A 
ATOM     29  C   UNL A   1      41.086  27.136  28.675  1.00  0.00     0.049 A 
ATOM     30  N   UNL A   1      43.830  27.633  27.556  1.00  0.00    -0.248 NA
ATOM     31  C   UNL A   1      43.737  25.541  26.529  1.00  0.00     0.031 C 
ATOM     32  C   UNL A   1      39.764  26.954  29.276  1.00  0.00     0.029 A 
ATOM     33  N   UNL A   1      41.391  28.450  28.941  1.00  0.00    -0.354 N 
ATOM     34  C   UNL A   1      45.002  27.420  26.841  1.00  0.00     0.074 A 
ATOM     35  C   UNL A   1      44.906  26.102  26.253  1.00  0.00     0.031 C 
ATOM     36  C   UNL A   1      39.358  28.118  29.806  1.00  0.00     0.029 A 
ATOM     37  C   UNL A   1      40.416  29.112  29.648  1.00  0.00     0.049 A 
ATOM     38  H   UNL A   1      42.230  28.877  28.652  1.00  0.00     0.167 HD
ATOM     39  C   UNL A   1      46.061  28.249  26.688  1.00  0.00     0.037 A 
ATOM     40  C   UNL A   1      40.384  30.368  30.138  1.00  0.00     0.037 A 
ATOM     41  C   UNL A   1      46.133  29.590  27.206  1.00  0.00     0.049 A 
ATOM     42  C   UNL A   1      41.564  31.278  29.928  1.00  0.00     0.074 A 
ATOM     43  C   UNL A   1      47.168  30.502  27.096  1.00  0.00     0.029 A 
ATOM     44  N   UNL A   1      45.117  30.220  27.907  1.00  0.00    -0.354 N 
ATOM     45  N   UNL A   1      42.689  31.041  29.302  1.00  0.00    -0.248 NA
ATOM     46  C   UNL A   1      41.472  32.630  30.501  1.00  0.00     0.031 C 
ATOM     47  C   UNL A   1      46.789  31.679  27.748  1.00  0.00     0.029 A 
ATOM     48  C   UNL A   1      45.500  31.513  28.227  1.00  0.00     0.049 A 
ATOM     49  H   UNL A   1      44.252  29.812  28.141  1.00  0.00     0.167 HD
ATOM     50  C   UNL A   1      43.431  32.210  29.392  1.00  0.00     0.074 A 
ATOM     51  C   UNL A   1      42.621  33.168  30.115  1.00  0.00     0.031 C 
ATOM     52  C   UNL A   1      44.677  32.464  28.925  1.00  0.00     0.037 A 
BRANCH  39  53
ATOM     53  C   UNL A   1      47.256  27.738  25.938  1.00  0.00     0.064 A 
ATOM     54  C   UNL A   1      48.388  27.296  26.642  1.00  0.00     0.173 A 
ATOM     55  C   UNL A   1      47.322  27.775  24.540  1.00  0.00     0.173 A 
ATOM     56  F   UNL A   1      48.376  27.248  27.982  1.00  0.00    -0.203 F 
ATOM     57  C   UNL A   1      49.551  26.931  25.970  1.00  0.00     0.198 A 
ATOM     58  C   UNL A   1      48.481  27.387  23.870  1.00  0.00     0.198 A 
ATOM     59  F   UNL A   1      46.262  28.178  23.824  1.00  0.00    -0.203 F 
ATOM     60  F   UNL A   1      50.633  26.550  26.664  1.00  0.00    -0.200 F 
ATOM     61  C   UNL A   1      49.596  26.976  24.585  1.00  0.00     0.200 A 
ATOM     62  F   UNL A   1      48.518  27.413  22.530  1.00  0.00    -0.200 F 
ATOM     63  F   UNL A   1      50.717  26.627  23.940  1.00  0.00    -0.200 F 
ENDBRANCH  39  53
BRANCH  40  64
ATOM     64  C   UNL A   1      39.195  30.833  30.898  1.00  0.00     0.064 A 
ATOM     65  C   UNL A   1      39.133  30.713  32.295  1.00  0.00     0.173 A 
ATOM     66  C   UNL A   1      38.095  31.404  30.243  1.00  0.00     0.173 A 
ATOM     67  F   UNL A   1      40.160  30.174  32.968  1.00  0.00    -0.203 F 
ATOM     68  C   UNL A   1      38.010  31.130  33.005  1.00  0.00     0.198 A 
ATOM     69  C   UNL A   1      36.984  31.850  30.958  1.00  0.00     0.198 A 
ATOM     70  F   UNL A   1      38.118  31.564  28.912  1.00  0.00    -0.203 F 
ATOM     71  F   UNL A   1      37.964  30.975  34.335  1.00  0.00    -0.200 F 
ATOM     72  C   UNL A   1      36.939  31.705  32.337  1.00  0.00     0.200 A 
ATOM     73  F   UNL A   1      35.964  32.431  30.312  1.00  0.00    -0.200 F 
ATOM     74  F   UNL A   1      35.866  32.124  33.021  1.00  0.00    -0.200 F 
ENDBRANCH  40  64
BRANCH  52  75
ATOM     75  C   UNL A   1      45.234  33.840  29.138  1.00  0.00     0.064 A 
ATOM     76  C   UNL A   1      45.041  34.839  28.171  1.00  0.00     0.173 A 
ATOM     77  C   UNL A   1      46.012  34.151  30.261  1.00  0.00     0.173 A 
ATOM     78  F   UNL A   1      44.312  34.585  27.073  1.00  0.00    -0.203 F 
ATOM     79  C   UNL A   1      45.612  36.099  28.320  1.00  0.00     0.198 A 
ATOM     80  C   UNL A   1      46.561  35.421  30.420  1.00  0.00     0.198 A 
ATOM     81  F   UNL A   1      46.215  33.232  31.217  1.00  0.00    -0.203 F 
ATOM     82  F   UNL A   1      45.434  37.030  27.374  1.00  0.00    -0.200 F 
ATOM     83  C   UNL A   1      46.368  36.390  29.446  1.00  0.00     0.200 A 
ATOM     84  F   UNL A   1      47.273  35.708  31.518  1.00  0.00    -0.200 F 
ATOM     85  F   UNL A   1      46.907  37.609  29.595  1.00  0.00    -0.200 F 
ENDBRANCH  52  75
ENDBRANCH  26  27
ENDBRANCH  19  21
ENDBRANCH  18  19
ENDBRANCH   1  18
TORSDOF 12
ENDMDL
