MODEL 1
REMARK VINA RESULT:     -12.2      0.000      0.000
REMARK SMILES O=C(CC[NH+]1CC[NH+](Cc2ccccc2C2CC2)CC1)OCCOC(=O)c1ccc(-c2c3nc(c(-c4c(F)c(F)c(F)c(F)c4F)c4ccc([nH]4)c(-c4c(F)c(F)c(F)c(F)c4F)c4nc(c(-c5c(F)c(F)c(F)c(F)c5F)c5ccc2[nH]5)C=C4)C=C3)cc1
REMARK SMILES IDX 21 1 2 2 1 3 3 4 4 5 5 6 6 7 20 8 7 10 19 11 8 12 9 14 10 15
REMARK SMILES IDX 11 16 15 17 12 18 14 19 13 20 16 21 17 22 18 23 22 24 23 25
REMARK SMILES IDX 24 26 25 27 26 28 27 29 28 30 89 31 29 32 88 33 30 34 31 35
REMARK SMILES IDX 32 36 82 37 33 38 87 39 81 40 83 41 34 42 86 43 80 44 79 45
REMARK SMILES IDX 35 47 67 48 47 49 66 50 48 51 51 52 65 53 84 54 49 55 50 56
REMARK SMILES IDX 64 58 85 59 52 60 36 61 37 62 45 63 38 64 39 65 43 66 46 67
REMARK SMILES IDX 40 68 41 69 44 70 42 71 68 72 69 73 77 74 70 75 71 76 75 77
REMARK SMILES IDX 78 78 72 79 73 80 76 81 74 82 53 83 54 84 62 85 55 86 56 87
REMARK SMILES IDX 60 88 63 89 57 90 58 91 61 92 59 93
REMARK H PARENT 5 9 8 13 83 46 51 57
REMARK Flexibility Score: inf
ROOT
ATOM      1  O   UNL A   1      32.602  30.078  25.386  1.00  0.00    -0.462 OA
ENDROOT
BRANCH   1   2
ATOM      2  C   UNL A   1      32.428  28.908  24.704  1.00  0.00     0.311 C 
ATOM      3  O   UNL A   1      33.379  28.210  24.370  1.00  0.00    -0.252 OA
BRANCH   2   4
ATOM      4  C   UNL A   1      31.017  28.675  24.200  1.00  0.00     0.184 C 
BRANCH   4   5
ATOM      5  C   UNL A   1      30.946  28.097  22.776  1.00  0.00     0.274 C 
BRANCH   5   6
ATOM      6  N   UNL A   1      30.943  26.647  22.571  1.00  0.00    -0.325 N 
ATOM      7  C   UNL A   1      31.801  26.107  21.535  1.00  0.00     0.324 C 
ATOM      8  C   UNL A   1      30.830  25.730  23.707  1.00  0.00     0.324 C 
ATOM      9  H   UNL A   1      29.992  26.664  22.202  1.00  0.00     0.348 HD
ATOM     10  C   UNL A   1      33.170  25.657  22.090  1.00  0.00     0.324 C 
ATOM     11  C   UNL A   1      32.092  24.894  24.102  1.00  0.00     0.324 C 
ATOM     12  N   UNL A   1      33.089  24.585  23.067  1.00  0.00    -0.322 N 
ATOM     13  H   UNL A   1      33.967  24.548  23.584  1.00  0.00     0.348 HD
BRANCH  12  14
ATOM     14  C   UNL A   1      33.131  23.229  22.509  1.00  0.00     0.299 C 
BRANCH  14  15
ATOM     15  C   UNL A   1      33.346  22.073  23.470  1.00  0.00     0.010 A 
ATOM     16  C   UNL A   1      32.361  21.058  23.449  1.00  0.00     0.010 A 
ATOM     17  C   UNL A   1      34.502  21.914  24.290  1.00  0.00    -0.036 A 
ATOM     18  C   UNL A   1      32.522  19.874  24.161  1.00  0.00     0.001 A 
ATOM     19  C   UNL A   1      34.623  20.693  24.994  1.00  0.00     0.004 A 
ATOM     20  C   UNL A   1      33.664  19.683  24.923  1.00  0.00     0.000 A 
BRANCH  17  21
ATOM     21  C   UNL A   1      35.709  22.841  24.368  1.00  0.00     0.020 C 
ATOM     22  C   UNL A   1      37.146  22.405  24.493  1.00  0.00     0.009 C 
ATOM     23  C   UNL A   1      36.650  22.939  23.188  1.00  0.00     0.009 C 
ENDBRANCH  17  21
ENDBRANCH  14  15
ENDBRANCH  12  14
ENDBRANCH   5   6
ENDBRANCH   4   5
ENDBRANCH   2   4
ENDBRANCH   1   2
BRANCH   1  24
ATOM     24  C   UNL A   1      31.415  30.796  25.769  1.00  0.00     0.274 C 
BRANCH  24  25
ATOM     25  C   UNL A   1      31.710  31.963  26.717  1.00  0.00     0.275 C 
BRANCH  25  26
ATOM     26  O   UNL A   1      32.837  31.651  27.550  1.00  0.00    -0.458 OA
BRANCH  26  27
ATOM     27  C   UNL A   1      33.635  32.718  27.808  1.00  0.00     0.338 C 
ATOM     28  O   UNL A   1      33.287  33.872  27.947  1.00  0.00    -0.246 OA
BRANCH  27  29
ATOM     29  C   UNL A   1      35.005  32.253  28.111  1.00  0.00     0.060 A 
ATOM     30  C   UNL A   1      35.163  30.878  28.311  1.00  0.00     0.016 A 
ATOM     31  C   UNL A   1      36.103  33.114  28.217  1.00  0.00     0.016 A 
ATOM     32  C   UNL A   1      36.400  30.367  28.691  1.00  0.00     0.010 A 
ATOM     33  C   UNL A   1      37.349  32.598  28.599  1.00  0.00     0.010 A 
ATOM     34  C   UNL A   1      37.488  31.229  28.885  1.00  0.00    -0.014 A 
BRANCH  34  35
ATOM     35  C   UNL A   1      38.681  30.688  29.580  1.00  0.00     0.031 A 
ATOM     36  C   UNL A   1      38.902  31.059  31.020  1.00  0.00     0.074 A 
ATOM     37  C   UNL A   1      39.481  29.783  28.990  1.00  0.00     0.049 A 
ATOM     38  N   UNL A   1      39.741  30.556  31.890  1.00  0.00    -0.248 NA
ATOM     39  C   UNL A   1      38.052  32.134  31.556  1.00  0.00     0.031 C 
ATOM     40  C   UNL A   1      39.361  29.320  27.611  1.00  0.00     0.029 A 
ATOM     41  N   UNL A   1      40.540  29.071  29.498  1.00  0.00    -0.354 N 
ATOM     42  C   UNL A   1      39.498  31.230  33.079  1.00  0.00     0.074 A 
ATOM     43  C   UNL A   1      38.476  32.217  32.807  1.00  0.00     0.031 C 
ATOM     44  C   UNL A   1      40.301  28.386  27.384  1.00  0.00     0.029 A 
ATOM     45  C   UNL A   1      41.089  28.189  28.602  1.00  0.00     0.049 A 
ATOM     46  H   UNL A   1      40.875  29.183  30.417  1.00  0.00     0.167 HD
ATOM     47  C   UNL A   1      40.056  31.030  34.296  1.00  0.00     0.037 A 
ATOM     48  C   UNL A   1      42.099  27.311  28.755  1.00  0.00     0.037 A 
ATOM     49  C   UNL A   1      41.086  30.065  34.569  1.00  0.00     0.049 A 
ATOM     50  C   UNL A   1      42.764  27.164  30.100  1.00  0.00     0.074 A 
ATOM     51  C   UNL A   1      41.704  29.778  35.773  1.00  0.00     0.029 A 
ATOM     52  N   UNL A   1      41.665  29.240  33.617  1.00  0.00    -0.354 N 
ATOM     53  N   UNL A   1      42.479  27.752  31.236  1.00  0.00    -0.248 NA
ATOM     54  C   UNL A   1      43.885  26.215  30.184  1.00  0.00     0.031 C 
ATOM     55  C   UNL A   1      42.694  28.818  35.539  1.00  0.00     0.029 A 
ATOM     56  C   UNL A   1      42.657  28.468  34.199  1.00  0.00     0.049 A 
ATOM     57  H   UNL A   1      41.408  29.207  32.666  1.00  0.00     0.167 HD
ATOM     58  C   UNL A   1      43.357  27.222  32.173  1.00  0.00     0.074 A 
ATOM     59  C   UNL A   1      44.182  26.258  31.476  1.00  0.00     0.031 C 
ATOM     60  C   UNL A   1      43.466  27.506  33.496  1.00  0.00     0.037 A 
BRANCH  47  61
ATOM     61  C   UNL A   1      39.569  31.894  35.420  1.00  0.00     0.064 A 
ATOM     62  C   UNL A   1      40.066  33.193  35.614  1.00  0.00     0.173 A 
ATOM     63  C   UNL A   1      38.594  31.422  36.309  1.00  0.00     0.173 A 
ATOM     64  F   UNL A   1      41.012  33.684  34.799  1.00  0.00    -0.203 F 
ATOM     65  C   UNL A   1      39.626  33.974  36.679  1.00  0.00     0.198 A 
ATOM     66  C   UNL A   1      38.138  32.216  37.357  1.00  0.00     0.198 A 
ATOM     67  F   UNL A   1      38.088  30.189  36.164  1.00  0.00    -0.203 F 
ATOM     68  F   UNL A   1      40.152  35.191  36.878  1.00  0.00    -0.200 F 
ATOM     69  C   UNL A   1      38.659  33.488  37.546  1.00  0.00     0.200 A 
ATOM     70  F   UNL A   1      37.198  31.748  38.189  1.00  0.00    -0.200 F 
ATOM     71  F   UNL A   1      38.238  34.240  38.572  1.00  0.00    -0.200 F 
ENDBRANCH  47  61
BRANCH  48  72
ATOM     72  C   UNL A   1      42.534  26.476  27.606  1.00  0.00     0.064 A 
ATOM     73  C   UNL A   1      41.938  25.235  27.345  1.00  0.00     0.173 A 
ATOM     74  C   UNL A   1      43.571  26.895  26.759  1.00  0.00     0.173 A 
ATOM     75  F   UNL A   1      40.962  24.779  28.143  1.00  0.00    -0.203 F 
ATOM     76  C   UNL A   1      42.375  24.435  26.289  1.00  0.00     0.198 A 
ATOM     77  C   UNL A   1      43.988  26.107  25.690  1.00  0.00     0.198 A 
ATOM     78  F   UNL A   1      44.175  28.073  26.970  1.00  0.00    -0.203 F 
ATOM     79  F   UNL A   1      41.819  23.233  26.088  1.00  0.00    -0.200 F 
ATOM     80  C   UNL A   1      43.395  24.874  25.460  1.00  0.00     0.200 A 
ATOM     81  F   UNL A   1      44.972  26.538  24.887  1.00  0.00    -0.200 F 
ATOM     82  F   UNL A   1      43.815  24.106  24.446  1.00  0.00    -0.200 F 
ENDBRANCH  48  72
BRANCH  60  83
ATOM     83  C   UNL A   1      44.492  26.746  34.289  1.00  0.00     0.064 A 
ATOM     84  C   UNL A   1      44.191  25.519  34.898  1.00  0.00     0.173 A 
ATOM     85  C   UNL A   1      45.805  27.227  34.395  1.00  0.00     0.173 A 
ATOM     86  F   UNL A   1      42.947  25.021  34.836  1.00  0.00    -0.203 F 
ATOM     87  C   UNL A   1      45.164  24.813  35.602  1.00  0.00     0.198 A 
ATOM     88  C   UNL A   1      46.781  26.505  35.075  1.00  0.00     0.198 A 
ATOM     89  F   UNL A   1      46.148  28.393  33.824  1.00  0.00    -0.203 F 
ATOM     90  F   UNL A   1      44.844  23.662  36.211  1.00  0.00    -0.200 F 
ATOM     91  C   UNL A   1      46.459  25.302  35.683  1.00  0.00     0.200 A 
ATOM     92  F   UNL A   1      48.037  26.972  35.141  1.00  0.00    -0.200 F 
ATOM     93  F   UNL A   1      47.395  24.616  36.353  1.00  0.00    -0.200 F 
ENDBRANCH  60  83
ENDBRANCH  34  35
ENDBRANCH  27  29
ENDBRANCH  26  27
ENDBRANCH  25  26
ENDBRANCH  24  25
ENDBRANCH   1  24
TORSDOF 16
ENDMDL
MODEL 2
REMARK VINA RESULT:     -12.0      0.396      2.009
REMARK SMILES O=C(CC[NH+]1CC[NH+](Cc2ccccc2C2CC2)CC1)OCCOC(=O)c1ccc(-c2c3nc(c(-c4c(F)c(F)c(F)c(F)c4F)c4ccc([nH]4)c(-c4c(F)c(F)c(F)c(F)c4F)c4nc(c(-c5c(F)c(F)c(F)c(F)c5F)c5ccc2[nH]5)C=C4)C=C3)cc1
REMARK SMILES IDX 21 1 2 2 1 3 3 4 4 5 5 6 6 7 20 8 7 10 19 11 8 12 9 14 10 15
REMARK SMILES IDX 11 16 15 17 12 18 14 19 13 20 16 21 17 22 18 23 22 24 23 25
REMARK SMILES IDX 24 26 25 27 26 28 27 29 28 30 89 31 29 32 88 33 30 34 31 35
REMARK SMILES IDX 32 36 82 37 33 38 87 39 81 40 83 41 34 42 86 43 80 44 79 45
REMARK SMILES IDX 35 47 67 48 47 49 66 50 48 51 51 52 65 53 84 54 49 55 50 56
REMARK SMILES IDX 64 58 85 59 52 60 36 61 37 62 45 63 38 64 39 65 43 66 46 67
REMARK SMILES IDX 40 68 41 69 44 70 42 71 68 72 69 73 77 74 70 75 71 76 75 77
REMARK SMILES IDX 78 78 72 79 73 80 76 81 74 82 53 83 54 84 62 85 55 86 56 87
REMARK SMILES IDX 60 88 63 89 57 90 58 91 61 92 59 93
REMARK H PARENT 5 9 8 13 83 46 51 57
REMARK Flexibility Score: inf
ROOT
ATOM      1  O   UNL A   1      32.608  30.166  25.375  1.00  0.00    -0.462 OA
ENDROOT
BRANCH   1   2
ATOM      2  C   UNL A   1      32.466  29.095  24.540  1.00  0.00     0.311 C 
ATOM      3  O   UNL A   1      33.411  28.648  23.901  1.00  0.00    -0.252 OA
BRANCH   2   4
ATOM      4  C   UNL A   1      31.031  28.673  24.294  1.00  0.00     0.184 C 
BRANCH   4   5
ATOM      5  C   UNL A   1      30.822  27.884  22.991  1.00  0.00     0.274 C 
BRANCH   5   6
ATOM      6  N   UNL A   1      31.075  26.443  22.956  1.00  0.00    -0.325 N 
ATOM      7  C   UNL A   1      31.780  25.905  21.808  1.00  0.00     0.324 C 
ATOM      8  C   UNL A   1      31.406  25.710  24.180  1.00  0.00     0.324 C 
ATOM      9  H   UNL A   1      30.084  26.234  22.830  1.00  0.00     0.348 HD
ATOM     10  C   UNL A   1      33.299  25.796  22.057  1.00  0.00     0.324 C 
ATOM     11  C   UNL A   1      32.868  25.181  24.344  1.00  0.00     0.324 C 
ATOM     12  N   UNL A   1      33.658  24.893  23.138  1.00  0.00    -0.322 N 
ATOM     13  H   UNL A   1      34.615  25.092  23.426  1.00  0.00     0.348 HD
BRANCH  12  14
ATOM     14  C   UNL A   1      33.857  23.495  22.742  1.00  0.00     0.299 C 
BRANCH  14  15
ATOM     15  C   UNL A   1      34.832  22.659  23.554  1.00  0.00     0.010 A 
ATOM     16  C   UNL A   1      36.127  23.204  23.718  1.00  0.00     0.010 A 
ATOM     17  C   UNL A   1      34.489  21.446  24.220  1.00  0.00    -0.036 A 
ATOM     18  C   UNL A   1      37.059  22.618  24.569  1.00  0.00     0.001 A 
ATOM     19  C   UNL A   1      35.469  20.888  25.075  1.00  0.00     0.004 A 
ATOM     20  C   UNL A   1      36.724  21.466  25.262  1.00  0.00     0.000 A 
BRANCH  17  21
ATOM     21  C   UNL A   1      33.125  20.765  24.248  1.00  0.00     0.020 C 
ATOM     22  C   UNL A   1      32.596  19.904  25.365  1.00  0.00     0.009 C 
ATOM     23  C   UNL A   1      32.053  21.284  25.179  1.00  0.00     0.009 C 
ENDBRANCH  17  21
ENDBRANCH  14  15
ENDBRANCH  12  14
ENDBRANCH   5   6
ENDBRANCH   4   5
ENDBRANCH   2   4
ENDBRANCH   1   2
BRANCH   1  24
ATOM     24  C   UNL A   1      31.402  30.813  25.822  1.00  0.00     0.274 C 
BRANCH  24  25
ATOM     25  C   UNL A   1      31.672  31.930  26.836  1.00  0.00     0.275 C 
BRANCH  25  26
ATOM     26  O   UNL A   1      32.848  31.630  27.602  1.00  0.00    -0.458 OA
BRANCH  26  27
ATOM     27  C   UNL A   1      33.654  32.703  27.807  1.00  0.00     0.338 C 
ATOM     28  O   UNL A   1      33.311  33.863  27.903  1.00  0.00    -0.246 OA
BRANCH  27  29
ATOM     29  C   UNL A   1      35.026  32.245  28.111  1.00  0.00     0.060 A 
ATOM     30  C   UNL A   1      35.196  30.867  28.281  1.00  0.00     0.016 A 
ATOM     31  C   UNL A   1      36.114  33.114  28.247  1.00  0.00     0.016 A 
ATOM     32  C   UNL A   1      36.435  30.360  28.659  1.00  0.00     0.010 A 
ATOM     33  C   UNL A   1      37.361  32.602  28.628  1.00  0.00     0.010 A 
ATOM     34  C   UNL A   1      37.512  31.228  28.883  1.00  0.00    -0.014 A 
BRANCH  34  35
ATOM     35  C   UNL A   1      38.705  30.684  29.576  1.00  0.00     0.031 A 
ATOM     36  C   UNL A   1      38.925  31.048  31.018  1.00  0.00     0.074 A 
ATOM     37  C   UNL A   1      39.503  29.780  28.983  1.00  0.00     0.049 A 
ATOM     38  N   UNL A   1      39.764  30.540  31.885  1.00  0.00    -0.248 NA
ATOM     39  C   UNL A   1      38.076  32.122  31.558  1.00  0.00     0.031 C 
ATOM     40  C   UNL A   1      39.384  29.324  27.601  1.00  0.00     0.029 A 
ATOM     41  N   UNL A   1      40.562  29.066  29.488  1.00  0.00    -0.354 N 
ATOM     42  C   UNL A   1      39.521  31.210  33.078  1.00  0.00     0.074 A 
ATOM     43  C   UNL A   1      38.499  32.199  32.810  1.00  0.00     0.031 C 
ATOM     44  C   UNL A   1      40.324  28.390  27.370  1.00  0.00     0.029 A 
ATOM     45  C   UNL A   1      41.111  28.187  28.587  1.00  0.00     0.049 A 
ATOM     46  H   UNL A   1      40.897  29.174  30.407  1.00  0.00     0.167 HD
ATOM     47  C   UNL A   1      40.079  31.004  34.294  1.00  0.00     0.037 A 
ATOM     48  C   UNL A   1      42.121  27.308  28.737  1.00  0.00     0.037 A 
ATOM     49  C   UNL A   1      41.108  30.037  34.563  1.00  0.00     0.049 A 
ATOM     50  C   UNL A   1      42.785  27.155  30.082  1.00  0.00     0.074 A 
ATOM     51  C   UNL A   1      41.726  29.744  35.766  1.00  0.00     0.029 A 
ATOM     52  N   UNL A   1      41.686  29.216  33.607  1.00  0.00    -0.354 N 
ATOM     53  N   UNL A   1      42.500  27.738  31.220  1.00  0.00    -0.248 NA
ATOM     54  C   UNL A   1      43.905  26.204  30.162  1.00  0.00     0.031 C 
ATOM     55  C   UNL A   1      42.715  28.784  35.528  1.00  0.00     0.029 A 
ATOM     56  C   UNL A   1      42.678  28.441  34.186  1.00  0.00     0.049 A 
ATOM     57  H   UNL A   1      41.429  29.187  32.656  1.00  0.00     0.167 HD
ATOM     58  C   UNL A   1      43.377  27.203  32.156  1.00  0.00     0.074 A 
ATOM     59  C   UNL A   1      44.202  26.242  31.454  1.00  0.00     0.031 C 
ATOM     60  C   UNL A   1      43.487  27.481  33.480  1.00  0.00     0.037 A 
BRANCH  47  61
ATOM     61  C   UNL A   1      39.592  31.864  35.421  1.00  0.00     0.064 A 
ATOM     62  C   UNL A   1      38.582  31.426  36.294  1.00  0.00     0.173 A 
ATOM     63  C   UNL A   1      40.141  33.135  35.635  1.00  0.00     0.173 A 
ATOM     64  F   UNL A   1      38.014  30.223  36.120  1.00  0.00    -0.203 F 
ATOM     65  C   UNL A   1      38.119  32.246  37.319  1.00  0.00     0.198 A 
ATOM     66  C   UNL A   1      39.694  33.941  36.678  1.00  0.00     0.198 A 
ATOM     67  F   UNL A   1      41.109  33.598  34.830  1.00  0.00    -0.203 F 
ATOM     68  F   UNL A   1      37.118  31.830  38.107  1.00  0.00    -0.200 F 
ATOM     69  C   UNL A   1      38.678  33.500  37.514  1.00  0.00     0.200 A 
ATOM     70  F   UNL A   1      40.241  35.149  36.870  1.00  0.00    -0.200 F 
ATOM     71  F   UNL A   1      38.230  34.289  38.500  1.00  0.00    -0.200 F 
ENDBRANCH  47  61
BRANCH  48  72
ATOM     72  C   UNL A   1      42.555  26.478  27.584  1.00  0.00     0.064 A 
ATOM     73  C   UNL A   1      41.967  25.232  27.325  1.00  0.00     0.173 A 
ATOM     74  C   UNL A   1      43.584  26.905  26.732  1.00  0.00     0.173 A 
ATOM     75  F   UNL A   1      40.998  24.769  28.128  1.00  0.00    -0.203 F 
ATOM     76  C   UNL A   1      42.403  24.438  26.265  1.00  0.00     0.198 A 
ATOM     77  C   UNL A   1      44.002  26.122  25.660  1.00  0.00     0.198 A 
ATOM     78  F   UNL A   1      44.181  28.088  26.942  1.00  0.00    -0.203 F 
ATOM     79  F   UNL A   1      41.855  23.232  26.065  1.00  0.00    -0.200 F 
ATOM     80  C   UNL A   1      43.416  24.885  25.432  1.00  0.00     0.200 A 
ATOM     81  F   UNL A   1      44.978  26.561  24.852  1.00  0.00    -0.200 F 
ATOM     82  F   UNL A   1      43.836  24.122  24.414  1.00  0.00    -0.200 F 
ENDBRANCH  48  72
BRANCH  60  83
ATOM     83  C   UNL A   1      44.511  26.717  34.269  1.00  0.00     0.064 A 
ATOM     84  C   UNL A   1      45.804  27.218  34.480  1.00  0.00     0.173 A 
ATOM     85  C   UNL A   1      44.177  25.492  34.866  1.00  0.00     0.173 A 
ATOM     86  F   UNL A   1      46.177  28.379  33.920  1.00  0.00    -0.203 F 
ATOM     87  C   UNL A   1      46.730  26.510  35.242  1.00  0.00     0.198 A 
ATOM     88  C   UNL A   1      45.096  24.801  35.650  1.00  0.00     0.198 A 
ATOM     89  F   UNL A   1      42.951  24.971  34.702  1.00  0.00    -0.203 F 
ATOM     90  F   UNL A   1      47.973  26.989  35.396  1.00  0.00    -0.200 F 
ATOM     91  C   UNL A   1      46.374  25.307  35.833  1.00  0.00     0.200 A 
ATOM     92  F   UNL A   1      44.746  23.645  36.233  1.00  0.00    -0.200 F 
ATOM     93  F   UNL A   1      47.264  24.633  36.573  1.00  0.00    -0.200 F 
ENDBRANCH  60  83
ENDBRANCH  34  35
ENDBRANCH  27  29
ENDBRANCH  26  27
ENDBRANCH  25  26
ENDBRANCH  24  25
ENDBRANCH   1  24
TORSDOF 16
ENDMDL
MODEL 3
REMARK VINA RESULT:     -11.9      0.831      1.891
REMARK SMILES O=C(CC[NH+]1CC[NH+](Cc2ccccc2C2CC2)CC1)OCCOC(=O)c1ccc(-c2c3nc(c(-c4c(F)c(F)c(F)c(F)c4F)c4ccc([nH]4)c(-c4c(F)c(F)c(F)c(F)c4F)c4nc(c(-c5c(F)c(F)c(F)c(F)c5F)c5ccc2[nH]5)C=C4)C=C3)cc1
REMARK SMILES IDX 21 1 2 2 1 3 3 4 4 5 5 6 6 7 20 8 7 10 19 11 8 12 9 14 10 15
REMARK SMILES IDX 11 16 15 17 12 18 14 19 13 20 16 21 17 22 18 23 22 24 23 25
REMARK SMILES IDX 24 26 25 27 26 28 27 29 28 30 89 31 29 32 88 33 30 34 31 35
REMARK SMILES IDX 32 36 82 37 33 38 87 39 81 40 83 41 34 42 86 43 80 44 79 45
REMARK SMILES IDX 35 47 67 48 47 49 66 50 48 51 51 52 65 53 84 54 49 55 50 56
REMARK SMILES IDX 64 58 85 59 52 60 36 61 37 62 45 63 38 64 39 65 43 66 46 67
REMARK SMILES IDX 40 68 41 69 44 70 42 71 68 72 69 73 77 74 70 75 71 76 75 77
REMARK SMILES IDX 78 78 72 79 73 80 76 81 74 82 53 83 54 84 62 85 55 86 56 87
REMARK SMILES IDX 60 88 63 89 57 90 58 91 61 92 59 93
REMARK H PARENT 5 9 8 13 83 46 51 57
REMARK Flexibility Score: inf
ROOT
ATOM      1  O   UNL A   1      31.156  29.441  24.371  1.00  0.00    -0.462 OA
ENDROOT
BRANCH   1   2
ATOM      2  C   UNL A   1      31.605  28.700  23.317  1.00  0.00     0.311 C 
ATOM      3  O   UNL A   1      32.744  28.823  22.882  1.00  0.00    -0.252 OA
BRANCH   2   4
ATOM      4  C   UNL A   1      30.530  27.907  22.600  1.00  0.00     0.184 C 
BRANCH   4   5
ATOM      5  C   UNL A   1      29.541  27.197  23.539  1.00  0.00     0.274 C 
BRANCH   5   6
ATOM      6  N   UNL A   1      29.961  26.011  24.288  1.00  0.00    -0.325 N 
ATOM      7  C   UNL A   1      30.685  24.978  23.573  1.00  0.00     0.324 C 
ATOM      8  C   UNL A   1      30.416  26.124  25.675  1.00  0.00     0.324 C 
ATOM      9  H   UNL A   1      28.998  25.691  24.394  1.00  0.00     0.348 HD
ATOM     10  C   UNL A   1      32.214  25.148  23.697  1.00  0.00     0.324 C 
ATOM     11  C   UNL A   1      31.936  25.896  25.968  1.00  0.00     0.324 C 
ATOM     12  N   UNL A   1      32.713  25.041  25.058  1.00  0.00    -0.322 N 
ATOM     13  H   UNL A   1      33.649  25.443  25.094  1.00  0.00     0.348 HD
BRANCH  12  14
ATOM     14  C   UNL A   1      33.062  23.684  25.490  1.00  0.00     0.299 C 
BRANCH  14  15
ATOM     15  C   UNL A   1      34.454  23.171  25.163  1.00  0.00     0.010 A 
ATOM     16  C   UNL A   1      35.520  24.064  25.426  1.00  0.00     0.010 A 
ATOM     17  C   UNL A   1      34.739  21.847  24.717  1.00  0.00    -0.036 A 
ATOM     18  C   UNL A   1      36.847  23.660  25.322  1.00  0.00     0.001 A 
ATOM     19  C   UNL A   1      36.103  21.483  24.628  1.00  0.00     0.004 A 
ATOM     20  C   UNL A   1      37.140  22.362  24.937  1.00  0.00     0.000 A 
BRANCH  17  21
ATOM     21  C   UNL A   1      33.739  20.720  24.483  1.00  0.00     0.020 C 
ATOM     22  C   UNL A   1      34.025  19.248  24.625  1.00  0.00     0.009 C 
ATOM     23  C   UNL A   1      33.204  19.942  25.664  1.00  0.00     0.009 C 
ENDBRANCH  17  21
ENDBRANCH  14  15
ENDBRANCH  12  14
ENDBRANCH   5   6
ENDBRANCH   4   5
ENDBRANCH   2   4
ENDBRANCH   1   2
BRANCH   1  24
ATOM     24  C   UNL A   1      32.048  29.598  25.490  1.00  0.00     0.274 C 
BRANCH  24  25
ATOM     25  C   UNL A   1      31.785  30.885  26.280  1.00  0.00     0.275 C 
BRANCH  25  26
ATOM     26  O   UNL A   1      32.589  30.909  27.468  1.00  0.00    -0.458 OA
BRANCH  26  27
ATOM     27  C   UNL A   1      33.341  32.032  27.595  1.00  0.00     0.338 C 
ATOM     28  O   UNL A   1      32.941  33.178  27.620  1.00  0.00    -0.246 OA
BRANCH  27  29
ATOM     29  C   UNL A   1      34.736  31.665  27.915  1.00  0.00     0.060 A 
ATOM     30  C   UNL A   1      34.982  30.308  28.150  1.00  0.00     0.016 A 
ATOM     31  C   UNL A   1      35.776  32.596  28.003  1.00  0.00     0.016 A 
ATOM     32  C   UNL A   1      36.247  29.887  28.546  1.00  0.00     0.010 A 
ATOM     33  C   UNL A   1      37.051  32.172  28.401  1.00  0.00     0.010 A 
ATOM     34  C   UNL A   1      37.276  30.822  28.722  1.00  0.00    -0.014 A 
BRANCH  34  35
ATOM     35  C   UNL A   1      38.498  30.376  29.434  1.00  0.00     0.031 A 
ATOM     36  C   UNL A   1      38.702  30.822  30.856  1.00  0.00     0.074 A 
ATOM     37  C   UNL A   1      39.343  29.490  28.881  1.00  0.00     0.049 A 
ATOM     38  N   UNL A   1      39.569  30.402  31.743  1.00  0.00    -0.248 NA
ATOM     39  C   UNL A   1      37.797  31.872  31.348  1.00  0.00     0.031 C 
ATOM     40  C   UNL A   1      39.246  28.962  27.524  1.00  0.00     0.029 A 
ATOM     41  N   UNL A   1      40.441  28.859  29.415  1.00  0.00    -0.354 N 
ATOM     42  C   UNL A   1      39.293  31.114  32.903  1.00  0.00     0.074 A 
ATOM     43  C   UNL A   1      38.218  32.032  32.593  1.00  0.00     0.031 C 
ATOM     44  C   UNL A   1      40.234  28.070  27.333  1.00  0.00     0.029 A 
ATOM     45  C   UNL A   1      41.034  27.969  28.555  1.00  0.00     0.049 A 
ATOM     46  H   UNL A   1      40.771  29.029  30.326  1.00  0.00     0.167 HD
ATOM     47  C   UNL A   1      39.864  30.998  34.125  1.00  0.00     0.037 A 
ATOM     48  C   UNL A   1      42.090  27.154  28.741  1.00  0.00     0.037 A 
ATOM     49  C   UNL A   1      40.944  30.102  34.435  1.00  0.00     0.049 A 
ATOM     50  C   UNL A   1      42.765  27.102  30.089  1.00  0.00     0.074 A 
ATOM     51  C   UNL A   1      41.580  29.901  35.648  1.00  0.00     0.029 A 
ATOM     52  N   UNL A   1      41.564  29.268  33.517  1.00  0.00    -0.354 N 
ATOM     53  N   UNL A   1      42.452  27.723  31.200  1.00  0.00    -0.248 NA
ATOM     54  C   UNL A   1      43.935  26.218  30.209  1.00  0.00     0.031 C 
ATOM     55  C   UNL A   1      42.619  28.986  35.451  1.00  0.00     0.029 A 
ATOM     56  C   UNL A   1      42.598  28.576  34.127  1.00  0.00     0.049 A 
ATOM     57  H   UNL A   1      41.307  29.180  32.569  1.00  0.00     0.167 HD
ATOM     58  C   UNL A   1      43.359  27.282  32.155  1.00  0.00     0.074 A 
ATOM     59  C   UNL A   1      44.233  26.334  31.496  1.00  0.00     0.031 C 
ATOM     60  C   UNL A   1      43.456  27.629  33.464  1.00  0.00     0.037 A 
BRANCH  47  61
ATOM     61  C   UNL A   1      39.334  31.883  35.212  1.00  0.00     0.064 A 
ATOM     62  C   UNL A   1      39.682  33.241  35.288  1.00  0.00     0.173 A 
ATOM     63  C   UNL A   1      38.466  31.371  36.186  1.00  0.00     0.173 A 
ATOM     64  F   UNL A   1      40.523  33.773  34.387  1.00  0.00    -0.203 F 
ATOM     65  C   UNL A   1      39.206  34.045  36.319  1.00  0.00     0.198 A 
ATOM     66  C   UNL A   1      37.971  32.185  37.201  1.00  0.00     0.198 A 
ATOM     67  F   UNL A   1      38.102  30.081  36.157  1.00  0.00    -0.203 F 
ATOM     68  F   UNL A   1      39.594  35.325  36.403  1.00  0.00    -0.200 F 
ATOM     69  C   UNL A   1      38.347  33.518  37.272  1.00  0.00     0.200 A 
ATOM     70  F   UNL A   1      37.134  31.677  38.116  1.00  0.00    -0.200 F 
ATOM     71  F   UNL A   1      37.891  34.292  38.265  1.00  0.00    -0.200 F 
ENDBRANCH  47  61
BRANCH  48  72
ATOM     72  C   UNL A   1      42.566  26.294  27.628  1.00  0.00     0.064 A 
ATOM     73  C   UNL A   1      43.554  26.739  26.739  1.00  0.00     0.173 A 
ATOM     74  C   UNL A   1      42.024  25.017  27.417  1.00  0.00     0.173 A 
ATOM     75  F   UNL A   1      44.082  27.963  26.882  1.00  0.00    -0.203 F 
ATOM     76  C   UNL A   1      43.971  25.945  25.671  1.00  0.00     0.198 A 
ATOM     77  C   UNL A   1      42.460  24.216  26.366  1.00  0.00     0.198 A 
ATOM     78  F   UNL A   1      41.073  24.548  28.239  1.00  0.00    -0.203 F 
ATOM     79  F   UNL A   1      44.885  26.412  24.809  1.00  0.00    -0.200 F 
ATOM     80  C   UNL A   1      43.427  24.683  25.489  1.00  0.00     0.200 A 
ATOM     81  F   UNL A   1      41.935  22.993  26.196  1.00  0.00    -0.200 F 
ATOM     82  F   UNL A   1      43.827  23.921  24.462  1.00  0.00    -0.200 F 
ENDBRANCH  48  72
BRANCH  60  83
ATOM     83  C   UNL A   1      44.522  26.960  34.284  1.00  0.00     0.064 A 
ATOM     84  C   UNL A   1      44.310  25.716  34.895  1.00  0.00     0.173 A 
ATOM     85  C   UNL A   1      45.789  27.549  34.415  1.00  0.00     0.173 A 
ATOM     86  F   UNL A   1      43.113  25.117  34.810  1.00  0.00    -0.203 F 
ATOM     87  C   UNL A   1      45.322  25.096  35.625  1.00  0.00     0.198 A 
ATOM     88  C   UNL A   1      46.806  26.913  35.122  1.00  0.00     0.198 A 
ATOM     89  F   UNL A   1      46.047  28.735  33.843  1.00  0.00    -0.203 F 
ATOM     90  F   UNL A   1      45.084  23.926  36.235  1.00  0.00    -0.200 F 
ATOM     91  C   UNL A   1      46.570  25.690  35.731  1.00  0.00     0.200 A 
ATOM     92  F   UNL A   1      48.017  27.482  35.211  1.00  0.00    -0.200 F 
ATOM     93  F   UNL A   1      47.544  25.087  36.426  1.00  0.00    -0.200 F 
ENDBRANCH  60  83
ENDBRANCH  34  35
ENDBRANCH  27  29
ENDBRANCH  26  27
ENDBRANCH  25  26
ENDBRANCH  24  25
ENDBRANCH   1  24
TORSDOF 16
ENDMDL
