MODEL 1
REMARK VINA RESULT:     -12.0      0.000      0.000
REMARK SMILES C[C@H](C(=O)OCCOC(=O)c1ccc(-c2c3nc(c(-c4c(F)c(F)c(F)c(F)c4F)c4ccc([nH]4)c(-c4c(F)c(F)c(F)c(F)c4F)c4nc(c(-c5c(F)c(F)c(F)c(F)c5F)c5ccc2[nH]5)C=C4)C=C3)cc1)c1ccc2c(c1)[nH]c1ccc(Cl)cc12
REMARK SMILES IDX 7 1 6 2 5 3 3 4 4 5 2 6 1 7 74 8 75 9 79 10 76 11 78 12
REMARK SMILES IDX 77 13 80 14 87 15 81 16 86 18 82 19 84 20 83 21 85 22 8 23
REMARK SMILES IDX 9 24 10 25 11 26 12 27 73 28 13 29 72 30 14 31 15 32 16 33
REMARK SMILES IDX 66 34 17 35 71 36 65 37 67 38 18 39 70 40 64 41 63 42 19 44
REMARK SMILES IDX 51 45 31 46 50 47 32 48 35 49 49 50 68 51 33 52 34 53 48 55
REMARK SMILES IDX 69 56 36 57 20 58 21 59 29 60 22 61 23 62 27 63 30 64 24 65
REMARK SMILES IDX 25 66 28 67 26 68 52 69 53 70 61 71 54 72 55 73 59 74 62 75
REMARK SMILES IDX 56 76 57 77 60 78 58 79 37 80 38 81 46 82 39 83 40 84 44 85
REMARK SMILES IDX 47 86 41 87 42 88 45 89 43 90
REMARK H PARENT 80 17 67 43 35 54
REMARK Flexibility Score: inf
ROOT
ATOM      1  C   UNL A   1      32.684  36.442  30.120  1.00  0.00     0.275 C 
ENDROOT
BRANCH   1   2
ATOM      2  C   UNL A   1      32.955  35.327  29.113  1.00  0.00     0.274 C 
BRANCH   2   3
ATOM      3  O   UNL A   1      34.315  34.866  29.232  1.00  0.00    -0.462 OA
BRANCH   3   4
ATOM      4  C   UNL A   1      34.492  33.517  29.315  1.00  0.00     0.313 C 
ATOM      5  O   UNL A   1      34.126  32.827  30.261  1.00  0.00    -0.252 OA
BRANCH   4   6
ATOM      6  C   UNL A   1      35.251  32.970  28.107  1.00  0.00     0.126 C 
ATOM      7  C   UNL A   1      36.761  32.973  28.375  1.00  0.00     0.025 C 
BRANCH   6   8
ATOM      8  C   UNL A   1      34.799  31.584  27.664  1.00  0.00    -0.032 A 
ATOM      9  C   UNL A   1      35.711  30.522  27.653  1.00  0.00     0.005 A 
ATOM     10  C   UNL A   1      33.471  31.348  27.275  1.00  0.00     0.031 A 
ATOM     11  C   UNL A   1      35.326  29.234  27.251  1.00  0.00     0.011 A 
ATOM     12  C   UNL A   1      33.109  30.068  26.844  1.00  0.00     0.047 A 
ATOM     13  C   UNL A   1      34.001  29.001  26.830  1.00  0.00     0.007 A 
ATOM     14  N   UNL A   1      31.908  29.603  26.362  1.00  0.00    -0.355 N 
ATOM     15  C   UNL A   1      33.290  27.857  26.348  1.00  0.00     0.009 A 
ATOM     16  C   UNL A   1      31.988  28.266  26.052  1.00  0.00     0.047 A 
ATOM     17  H   UNL A   1      31.100  30.154  26.253  1.00  0.00     0.167 HD
ATOM     18  C   UNL A   1      33.640  26.509  26.124  1.00  0.00     0.031 A 
ATOM     19  C   UNL A   1      31.019  27.403  25.526  1.00  0.00     0.028 A 
ATOM     20  C   UNL A   1      32.680  25.637  25.603  1.00  0.00     0.041 A 
ATOM     21  C   UNL A   1      31.392  26.074  25.305  1.00  0.00     0.022 A 
ATOM     22  Cl  UNL A   1      33.103  23.990  25.319  1.00  0.00    -0.084 Cl
ENDBRANCH   6   8
ENDBRANCH   4   6
ENDBRANCH   3   4
ENDBRANCH   2   3
ENDBRANCH   1   2
BRANCH   1  23
ATOM     23  O   UNL A   1      32.111  35.875  31.310  1.00  0.00    -0.458 OA
BRANCH  23  24
ATOM     24  C   UNL A   1      32.736  36.183  32.465  1.00  0.00     0.338 C 
ATOM     25  O   UNL A   1      32.448  37.077  33.249  1.00  0.00    -0.246 OA
BRANCH  24  26
ATOM     26  C   UNL A   1      33.861  35.255  32.700  1.00  0.00     0.060 A 
ATOM     27  C   UNL A   1      33.654  33.979  33.234  1.00  0.00     0.016 A 
ATOM     28  C   UNL A   1      35.161  35.714  32.481  1.00  0.00     0.016 A 
ATOM     29  C   UNL A   1      34.741  33.201  33.628  1.00  0.00     0.010 A 
ATOM     30  C   UNL A   1      36.248  34.894  32.788  1.00  0.00     0.010 A 
ATOM     31  C   UNL A   1      36.051  33.642  33.395  1.00  0.00    -0.014 A 
BRANCH  31  32
ATOM     32  C   UNL A   1      37.224  32.817  33.788  1.00  0.00     0.031 A 
ATOM     33  C   UNL A   1      37.907  33.060  35.106  1.00  0.00     0.074 A 
ATOM     34  C   UNL A   1      37.703  31.879  32.951  1.00  0.00     0.049 A 
ATOM     35  N   UNL A   1      39.059  32.616  35.540  1.00  0.00    -0.248 NA
ATOM     36  C   UNL A   1      37.202  33.933  36.060  1.00  0.00     0.031 C 
ATOM     37  C   UNL A   1      37.120  31.517  31.659  1.00  0.00     0.029 A 
ATOM     38  N   UNL A   1      38.803  31.063  33.059  1.00  0.00    -0.354 N 
ATOM     39  C   UNL A   1      39.242  33.194  36.789  1.00  0.00     0.074 A 
ATOM     40  C   UNL A   1      38.084  34.023  37.046  1.00  0.00     0.031 C 
ATOM     41  C   UNL A   1      37.857  30.545  31.101  1.00  0.00     0.029 A 
ATOM     42  C   UNL A   1      39.004  30.269  31.958  1.00  0.00     0.049 A 
ATOM     43  H   UNL A   1      39.389  31.050  33.849  1.00  0.00     0.167 HD
ATOM     44  C   UNL A   1      40.285  33.045  37.642  1.00  0.00     0.037 A 
ATOM     45  C   UNL A   1      40.022  29.445  31.648  1.00  0.00     0.037 A 
ATOM     46  C   UNL A   1      41.413  32.184  37.402  1.00  0.00     0.049 A 
ATOM     47  C   UNL A   1      41.177  29.312  32.600  1.00  0.00     0.074 A 
ATOM     48  C   UNL A   1      42.514  31.953  38.211  1.00  0.00     0.029 A 
ATOM     49  N   UNL A   1      41.577  31.396  36.272  1.00  0.00    -0.354 N 
ATOM     50  N   UNL A   1      41.366  29.900  33.756  1.00  0.00    -0.248 NA
ATOM     51  C   UNL A   1      42.267  28.413  32.196  1.00  0.00     0.031 C 
ATOM     52  C   UNL A   1      43.356  31.047  37.558  1.00  0.00     0.029 A 
ATOM     53  C   UNL A   1      42.763  30.686  36.358  1.00  0.00     0.049 A 
ATOM     54  H   UNL A   1      40.944  31.350  35.520  1.00  0.00     0.167 HD
ATOM     55  C   UNL A   1      42.589  29.437  34.222  1.00  0.00     0.074 A 
ATOM     56  C   UNL A   1      43.088  28.504  33.232  1.00  0.00     0.031 C 
ATOM     57  C   UNL A   1      43.242  29.761  35.364  1.00  0.00     0.037 A 
BRANCH  44  58
ATOM     58  C   UNL A   1      40.269  33.854  38.906  1.00  0.00     0.064 A 
ATOM     59  C   UNL A   1      39.599  33.415  40.057  1.00  0.00     0.173 A 
ATOM     60  C   UNL A   1      40.967  35.069  38.975  1.00  0.00     0.173 A 
ATOM     61  F   UNL A   1      38.905  32.267  40.036  1.00  0.00    -0.203 F 
ATOM     62  C   UNL A   1      39.609  34.174  41.224  1.00  0.00     0.198 A 
ATOM     63  C   UNL A   1      40.996  35.814  40.152  1.00  0.00     0.198 A 
ATOM     64  F   UNL A   1      41.627  35.532  37.902  1.00  0.00    -0.203 F 
ATOM     65  F   UNL A   1      38.927  33.755  42.299  1.00  0.00    -0.200 F 
ATOM     66  C   UNL A   1      40.313  35.368  41.272  1.00  0.00     0.200 A 
ATOM     67  F   UNL A   1      41.684  36.964  40.199  1.00  0.00    -0.200 F 
ATOM     68  F   UNL A   1      40.325  36.096  42.398  1.00  0.00    -0.200 F 
ENDBRANCH  44  58
BRANCH  45  69
ATOM     69  C   UNL A   1      40.005  28.710  30.359  1.00  0.00     0.064 A 
ATOM     70  C   UNL A   1      40.616  29.245  29.218  1.00  0.00     0.173 A 
ATOM     71  C   UNL A   1      39.399  27.449  30.249  1.00  0.00     0.173 A 
ATOM     72  F   UNL A   1      41.187  30.457  29.271  1.00  0.00    -0.203 F 
ATOM     73  C   UNL A   1      40.614  28.550  28.011  1.00  0.00     0.198 A 
ATOM     74  C   UNL A   1      39.422  26.744  29.048  1.00  0.00     0.198 A 
ATOM     75  F   UNL A   1      38.803  26.894  31.314  1.00  0.00    -0.203 F 
ATOM     76  F   UNL A   1      41.176  29.098  26.924  1.00  0.00    -0.200 F 
ATOM     77  C   UNL A   1      40.025  27.297  27.929  1.00  0.00     0.200 A 
ATOM     78  F   UNL A   1      38.864  25.528  28.977  1.00  0.00    -0.200 F 
ATOM     79  F   UNL A   1      40.035  26.623  26.770  1.00  0.00    -0.200 F 
ENDBRANCH  45  69
BRANCH  57  80
ATOM     80  C   UNL A   1      44.556  29.084  35.612  1.00  0.00     0.064 A 
ATOM     81  C   UNL A   1      45.763  29.649  35.180  1.00  0.00     0.173 A 
ATOM     82  C   UNL A   1      44.608  27.872  36.317  1.00  0.00     0.173 A 
ATOM     83  F   UNL A   1      45.760  30.798  34.487  1.00  0.00    -0.203 F 
ATOM     84  C   UNL A   1      46.976  29.014  35.426  1.00  0.00     0.198 A 
ATOM     85  C   UNL A   1      45.825  27.251  36.581  1.00  0.00     0.198 A 
ATOM     86  F   UNL A   1      43.479  27.295  36.754  1.00  0.00    -0.203 F 
ATOM     87  F   UNL A   1      48.116  29.551  34.968  1.00  0.00    -0.200 F 
ATOM     88  C   UNL A   1      47.007  27.819  36.130  1.00  0.00     0.200 A 
ATOM     89  F   UNL A   1      45.854  26.101  37.268  1.00  0.00    -0.200 F 
ATOM     90  F   UNL A   1      48.177  27.210  36.367  1.00  0.00    -0.200 F 
ENDBRANCH  57  80
ENDBRANCH  31  32
ENDBRANCH  24  26
ENDBRANCH  23  24
ENDBRANCH   1  23
TORSDOF 12
ENDMDL
MODEL 2
REMARK VINA RESULT:     -11.9      2.985      8.942
REMARK SMILES C[C@H](C(=O)OCCOC(=O)c1ccc(-c2c3nc(c(-c4c(F)c(F)c(F)c(F)c4F)c4ccc([nH]4)c(-c4c(F)c(F)c(F)c(F)c4F)c4nc(c(-c5c(F)c(F)c(F)c(F)c5F)c5ccc2[nH]5)C=C4)C=C3)cc1)c1ccc2c(c1)[nH]c1ccc(Cl)cc12
REMARK SMILES IDX 7 1 6 2 5 3 3 4 4 5 2 6 1 7 74 8 75 9 79 10 76 11 78 12
REMARK SMILES IDX 77 13 80 14 87 15 81 16 86 18 82 19 84 20 83 21 85 22 8 23
REMARK SMILES IDX 9 24 10 25 11 26 12 27 73 28 13 29 72 30 14 31 15 32 16 33
REMARK SMILES IDX 66 34 17 35 71 36 65 37 67 38 18 39 70 40 64 41 63 42 19 44
REMARK SMILES IDX 51 45 31 46 50 47 32 48 35 49 49 50 68 51 33 52 34 53 48 55
REMARK SMILES IDX 69 56 36 57 20 58 21 59 29 60 22 61 23 62 27 63 30 64 24 65
REMARK SMILES IDX 25 66 28 67 26 68 52 69 53 70 61 71 54 72 55 73 59 74 62 75
REMARK SMILES IDX 56 76 57 77 60 78 58 79 37 80 38 81 46 82 39 83 40 84 44 85
REMARK SMILES IDX 47 86 41 87 42 88 45 89 43 90
REMARK H PARENT 80 17 67 43 35 54
REMARK Flexibility Score: inf
ROOT
ATOM      1  C   UNL A   1      31.439  30.281  25.743  1.00  0.00     0.275 C 
ENDROOT
BRANCH   1   2
ATOM      2  C   UNL A   1      31.346  30.020  24.242  1.00  0.00     0.274 C 
BRANCH   2   3
ATOM      3  O   UNL A   1      30.044  29.501  23.905  1.00  0.00    -0.462 OA
BRANCH   3   4
ATOM      4  C   UNL A   1      30.017  28.272  23.317  1.00  0.00     0.313 C 
ATOM      5  O   UNL A   1      29.990  28.084  22.105  1.00  0.00    -0.252 OA
BRANCH   4   6
ATOM      6  C   UNL A   1      29.970  27.149  24.352  1.00  0.00     0.126 C 
ATOM      7  C   UNL A   1      28.878  26.134  23.994  1.00  0.00     0.025 C 
BRANCH   6   8
ATOM      8  C   UNL A   1      31.302  26.438  24.559  1.00  0.00    -0.032 A 
ATOM      9  C   UNL A   1      32.053  26.683  25.715  1.00  0.00     0.005 A 
ATOM     10  C   UNL A   1      31.788  25.525  23.608  1.00  0.00     0.031 A 
ATOM     11  C   UNL A   1      33.283  26.043  25.934  1.00  0.00     0.011 A 
ATOM     12  C   UNL A   1      33.030  24.921  23.824  1.00  0.00     0.047 A 
ATOM     13  C   UNL A   1      33.788  25.150  24.968  1.00  0.00     0.007 A 
ATOM     14  N   UNL A   1      33.742  24.054  23.029  1.00  0.00    -0.355 N 
ATOM     15  C   UNL A   1      34.978  24.365  24.855  1.00  0.00     0.009 A 
ATOM     16  C   UNL A   1      34.928  23.701  23.628  1.00  0.00     0.047 A 
ATOM     17  H   UNL A   1      33.442  23.730  22.149  1.00  0.00     0.167 HD
ATOM     18  C   UNL A   1      36.104  24.169  25.682  1.00  0.00     0.031 A 
ATOM     19  C   UNL A   1      35.953  22.861  23.173  1.00  0.00     0.028 A 
ATOM     20  C   UNL A   1      37.132  23.331  25.241  1.00  0.00     0.041 A 
ATOM     21  C   UNL A   1      37.061  22.689  24.006  1.00  0.00     0.022 A 
ATOM     22  Cl  UNL A   1      38.513  23.092  26.242  1.00  0.00    -0.084 Cl
ENDBRANCH   6   8
ENDBRANCH   4   6
ENDBRANCH   3   4
ENDBRANCH   2   3
ENDBRANCH   1   2
BRANCH   1  23
ATOM     23  O   UNL A   1      32.821  30.267  26.141  1.00  0.00    -0.458 OA
BRANCH  23  24
ATOM     24  C   UNL A   1      33.201  31.258  26.973  1.00  0.00     0.338 C 
ATOM     25  O   UNL A   1      32.584  32.280  27.240  1.00  0.00    -0.246 OA
BRANCH  24  26
ATOM     26  C   UNL A   1      34.514  30.945  27.574  1.00  0.00     0.060 A 
ATOM     27  C   UNL A   1      34.863  29.636  27.920  1.00  0.00     0.016 A 
ATOM     28  C   UNL A   1      35.369  32.000  27.894  1.00  0.00     0.016 A 
ATOM     29  C   UNL A   1      36.018  29.392  28.661  1.00  0.00     0.010 A 
ATOM     30  C   UNL A   1      36.572  31.743  28.552  1.00  0.00     0.010 A 
ATOM     31  C   UNL A   1      36.895  30.442  28.972  1.00  0.00    -0.014 A 
BRANCH  31  32
ATOM     32  C   UNL A   1      38.143  30.199  29.742  1.00  0.00     0.031 A 
ATOM     33  C   UNL A   1      39.217  29.311  29.177  1.00  0.00     0.074 A 
ATOM     34  C   UNL A   1      38.300  30.741  30.964  1.00  0.00     0.049 A 
ATOM     35  N   UNL A   1      40.266  28.796  29.767  1.00  0.00    -0.248 NA
ATOM     36  C   UNL A   1      39.084  28.941  27.758  1.00  0.00     0.031 C 
ATOM     37  C   UNL A   1      37.355  31.646  31.618  1.00  0.00     0.029 A 
ATOM     38  N   UNL A   1      39.311  30.597  31.882  1.00  0.00    -0.354 N 
ATOM     39  C   UNL A   1      40.886  28.002  28.811  1.00  0.00     0.074 A 
ATOM     40  C   UNL A   1      40.097  28.101  27.601  1.00  0.00     0.031 C 
ATOM     41  C   UNL A   1      37.836  31.988  32.823  1.00  0.00     0.029 A 
ATOM     42  C   UNL A   1      39.082  31.268  33.058  1.00  0.00     0.049 A 
ATOM     43  H   UNL A   1      40.122  30.065  31.713  1.00  0.00     0.167 HD
ATOM     44  C   UNL A   1      42.013  27.258  28.935  1.00  0.00     0.037 A 
ATOM     45  C   UNL A   1      39.772  31.268  34.213  1.00  0.00     0.037 A 
ATOM     46  C   UNL A   1      42.819  27.200  30.125  1.00  0.00     0.049 A 
ATOM     47  C   UNL A   1      41.006  30.420  34.334  1.00  0.00     0.074 A 
ATOM     48  C   UNL A   1      43.986  26.487  30.346  1.00  0.00     0.029 A 
ATOM     49  N   UNL A   1      42.550  27.896  31.295  1.00  0.00    -0.354 N 
ATOM     50  N   UNL A   1      41.558  29.634  33.442  1.00  0.00    -0.248 NA
ATOM     51  C   UNL A   1      41.704  30.447  35.627  1.00  0.00     0.031 C 
ATOM     52  C   UNL A   1      44.407  26.730  31.658  1.00  0.00     0.029 A 
ATOM     53  C   UNL A   1      43.523  27.623  32.243  1.00  0.00     0.049 A 
ATOM     54  H   UNL A   1      41.781  28.494  31.431  1.00  0.00     0.167 HD
ATOM     55  C   UNL A   1      42.670  29.080  34.060  1.00  0.00     0.074 A 
ATOM     56  C   UNL A   1      42.726  29.635  35.397  1.00  0.00     0.031 C 
ATOM     57  C   UNL A   1      43.562  28.187  33.567  1.00  0.00     0.037 A 
BRANCH  44  58
ATOM     58  C   UNL A   1      42.426  26.423  27.758  1.00  0.00     0.064 A 
ATOM     59  C   UNL A   1      43.399  26.859  26.847  1.00  0.00     0.173 A 
ATOM     60  C   UNL A   1      41.865  25.152  27.563  1.00  0.00     0.173 A 
ATOM     61  F   UNL A   1      43.953  28.073  26.983  1.00  0.00    -0.203 F 
ATOM     62  C   UNL A   1      43.779  26.061  25.771  1.00  0.00     0.198 A 
ATOM     63  C   UNL A   1      42.265  24.346  26.500  1.00  0.00     0.198 A 
ATOM     64  F   UNL A   1      40.932  24.688  28.409  1.00  0.00    -0.203 F 
ATOM     65  F   UNL A   1      44.680  26.515  24.889  1.00  0.00    -0.200 F 
ATOM     66  C   UNL A   1      43.217  24.804  25.602  1.00  0.00     0.200 A 
ATOM     67  F   UNL A   1      41.727  23.129  26.344  1.00  0.00    -0.200 F 
ATOM     68  F   UNL A   1      43.587  24.036  24.568  1.00  0.00    -0.200 F 
ENDBRANCH  44  58
BRANCH  45  69
ATOM     69  C   UNL A   1      39.285  32.076  35.359  1.00  0.00     0.064 A 
ATOM     70  C   UNL A   1      38.477  31.504  36.350  1.00  0.00     0.173 A 
ATOM     71  C   UNL A   1      39.635  33.428  35.496  1.00  0.00     0.173 A 
ATOM     72  F   UNL A   1      38.098  30.222  36.247  1.00  0.00    -0.203 F 
ATOM     73  C   UNL A   1      38.031  32.257  37.434  1.00  0.00     0.198 A 
ATOM     74  C   UNL A   1      39.210  34.171  36.595  1.00  0.00     0.198 A 
ATOM     75  F   UNL A   1      40.408  34.020  34.575  1.00  0.00    -0.203 F 
ATOM     76  F   UNL A   1      37.232  31.696  38.352  1.00  0.00    -0.200 F 
ATOM     77  C   UNL A   1      38.405  33.587  37.560  1.00  0.00     0.200 A 
ATOM     78  F   UNL A   1      39.585  35.451  36.720  1.00  0.00    -0.200 F 
ATOM     79  F   UNL A   1      37.985  34.306  38.610  1.00  0.00    -0.200 F 
ENDBRANCH  45  69
BRANCH  57  80
ATOM     80  C   UNL A   1      44.683  27.774  34.471  1.00  0.00     0.064 A 
ATOM     81  C   UNL A   1      44.572  26.659  35.312  1.00  0.00     0.173 A 
ATOM     82  C   UNL A   1      45.893  28.484  34.471  1.00  0.00     0.173 A 
ATOM     83  F   UNL A   1      43.428  25.960  35.358  1.00  0.00    -0.203 F 
ATOM     84  C   UNL A   1      45.625  26.281  36.140  1.00  0.00     0.198 A 
ATOM     85  C   UNL A   1      46.952  28.091  35.284  1.00  0.00     0.198 A 
ATOM     86  F   UNL A   1      46.048  29.556  33.680  1.00  0.00    -0.203 F 
ATOM     87  F   UNL A   1      45.483  25.237  36.967  1.00  0.00    -0.200 F 
ATOM     88  C   UNL A   1      46.816  26.994  36.121  1.00  0.00     0.200 A 
ATOM     89  F   UNL A   1      48.105  28.775  35.259  1.00  0.00    -0.200 F 
ATOM     90  F   UNL A   1      47.829  26.627  36.917  1.00  0.00    -0.200 F 
ENDBRANCH  57  80
ENDBRANCH  31  32
ENDBRANCH  24  26
ENDBRANCH  23  24
ENDBRANCH   1  23
TORSDOF 12
ENDMDL
MODEL 3
REMARK VINA RESULT:     -11.9      2.981      8.777
REMARK SMILES C[C@H](C(=O)OCCOC(=O)c1ccc(-c2c3nc(c(-c4c(F)c(F)c(F)c(F)c4F)c4ccc([nH]4)c(-c4c(F)c(F)c(F)c(F)c4F)c4nc(c(-c5c(F)c(F)c(F)c(F)c5F)c5ccc2[nH]5)C=C4)C=C3)cc1)c1ccc2c(c1)[nH]c1ccc(Cl)cc12
REMARK SMILES IDX 7 1 6 2 5 3 3 4 4 5 2 6 1 7 74 8 75 9 79 10 76 11 78 12
REMARK SMILES IDX 77 13 80 14 87 15 81 16 86 18 82 19 84 20 83 21 85 22 8 23
REMARK SMILES IDX 9 24 10 25 11 26 12 27 73 28 13 29 72 30 14 31 15 32 16 33
REMARK SMILES IDX 66 34 17 35 71 36 65 37 67 38 18 39 70 40 64 41 63 42 19 44
REMARK SMILES IDX 51 45 31 46 50 47 32 48 35 49 49 50 68 51 33 52 34 53 48 55
REMARK SMILES IDX 69 56 36 57 20 58 21 59 29 60 22 61 23 62 27 63 30 64 24 65
REMARK SMILES IDX 25 66 28 67 26 68 52 69 53 70 61 71 54 72 55 73 59 74 62 75
REMARK SMILES IDX 56 76 57 77 60 78 58 79 37 80 38 81 46 82 39 83 40 84 44 85
REMARK SMILES IDX 47 86 41 87 42 88 45 89 43 90
REMARK H PARENT 80 17 67 43 35 54
REMARK Flexibility Score: inf
ROOT
ATOM      1  C   UNL A   1      31.526  30.316  25.714  1.00  0.00     0.275 C 
ENDROOT
BRANCH   1   2
ATOM      2  C   UNL A   1      31.445  29.971  24.229  1.00  0.00     0.274 C 
BRANCH   2   3
ATOM      3  O   UNL A   1      30.118  29.520  23.893  1.00  0.00    -0.462 OA
BRANCH   3   4
ATOM      4  C   UNL A   1      30.029  28.309  23.273  1.00  0.00     0.313 C 
ATOM      5  O   UNL A   1      29.975  28.155  22.058  1.00  0.00    -0.252 OA
BRANCH   4   6
ATOM      6  C   UNL A   1      29.949  27.163  24.281  1.00  0.00     0.126 C 
ATOM      7  C   UNL A   1      28.859  26.165  23.874  1.00  0.00     0.025 C 
BRANCH   6   8
ATOM      8  C   UNL A   1      31.271  26.437  24.501  1.00  0.00    -0.032 A 
ATOM      9  C   UNL A   1      31.987  26.634  25.688  1.00  0.00     0.005 A 
ATOM     10  C   UNL A   1      31.782  25.558  23.533  1.00  0.00     0.031 A 
ATOM     11  C   UNL A   1      33.206  25.979  25.922  1.00  0.00     0.011 A 
ATOM     12  C   UNL A   1      33.014  24.939  23.764  1.00  0.00     0.047 A 
ATOM     13  C   UNL A   1      33.737  25.120  24.938  1.00  0.00     0.007 A 
ATOM     14  N   UNL A   1      33.747  24.098  22.959  1.00  0.00    -0.355 N 
ATOM     15  C   UNL A   1      34.927  24.333  24.832  1.00  0.00     0.009 A 
ATOM     16  C   UNL A   1      34.912  23.716  23.580  1.00  0.00     0.047 A 
ATOM     17  H   UNL A   1      33.473  23.810  22.058  1.00  0.00     0.167 HD
ATOM     18  C   UNL A   1      36.026  24.100  25.686  1.00  0.00     0.031 A 
ATOM     19  C   UNL A   1      35.946  22.889  23.126  1.00  0.00     0.028 A 
ATOM     20  C   UNL A   1      37.063  23.273  25.245  1.00  0.00     0.041 A 
ATOM     21  C   UNL A   1      37.028  22.679  23.986  1.00  0.00     0.022 A 
ATOM     22  Cl  UNL A   1      38.411  22.988  26.279  1.00  0.00    -0.084 Cl
ENDBRANCH   6   8
ENDBRANCH   4   6
ENDBRANCH   3   4
ENDBRANCH   2   3
ENDBRANCH   1   2
BRANCH   1  23
ATOM     23  O   UNL A   1      32.902  30.304  26.128  1.00  0.00    -0.458 OA
BRANCH  23  24
ATOM     24  C   UNL A   1      33.260  31.267  27.001  1.00  0.00     0.338 C 
ATOM     25  O   UNL A   1      32.637  32.282  27.282  1.00  0.00    -0.246 OA
BRANCH  24  26
ATOM     26  C   UNL A   1      34.555  30.932  27.628  1.00  0.00     0.060 A 
ATOM     27  C   UNL A   1      34.878  29.617  27.977  1.00  0.00     0.016 A 
ATOM     28  C   UNL A   1      35.419  31.974  27.971  1.00  0.00     0.016 A 
ATOM     29  C   UNL A   1      36.013  29.354  28.741  1.00  0.00     0.010 A 
ATOM     30  C   UNL A   1      36.604  31.697  28.653  1.00  0.00     0.010 A 
ATOM     31  C   UNL A   1      36.899  30.389  29.074  1.00  0.00    -0.014 A 
BRANCH  31  32
ATOM     32  C   UNL A   1      38.127  30.125  29.870  1.00  0.00     0.031 A 
ATOM     33  C   UNL A   1      39.204  29.233  29.319  1.00  0.00     0.074 A 
ATOM     34  C   UNL A   1      38.261  30.652  31.101  1.00  0.00     0.049 A 
ATOM     35  N   UNL A   1      40.234  28.700  29.927  1.00  0.00    -0.248 NA
ATOM     36  C   UNL A   1      39.100  28.880  27.893  1.00  0.00     0.031 C 
ATOM     37  C   UNL A   1      37.310  31.559  31.744  1.00  0.00     0.029 A 
ATOM     38  N   UNL A   1      39.250  30.487  32.040  1.00  0.00    -0.354 N 
ATOM     39  C   UNL A   1      40.869  27.911  28.976  1.00  0.00     0.074 A 
ATOM     40  C   UNL A   1      40.108  28.031  27.750  1.00  0.00     0.031 C 
ATOM     41  C   UNL A   1      37.767  31.882  32.964  1.00  0.00     0.029 A 
ATOM     42  C   UNL A   1      39.001  31.147  33.218  1.00  0.00     0.049 A 
ATOM     43  H   UNL A   1      40.059  29.949  31.883  1.00  0.00     0.167 HD
ATOM     44  C   UNL A   1      41.985  27.154  29.117  1.00  0.00     0.037 A 
ATOM     45  C   UNL A   1      39.663  31.127  34.389  1.00  0.00     0.037 A 
ATOM     46  C   UNL A   1      42.763  27.075  30.325  1.00  0.00     0.049 A 
ATOM     47  C   UNL A   1      40.886  30.266  34.527  1.00  0.00     0.074 A 
ATOM     48  C   UNL A   1      43.918  26.348  30.564  1.00  0.00     0.029 A 
ATOM     49  N   UNL A   1      42.474  27.760  31.496  1.00  0.00    -0.354 N 
ATOM     50  N   UNL A   1      41.451  29.484  33.640  1.00  0.00    -0.248 NA
ATOM     51  C   UNL A   1      41.555  30.271  35.836  1.00  0.00     0.031 C 
ATOM     52  C   UNL A   1      44.311  26.572  31.888  1.00  0.00     0.029 A 
ATOM     53  C   UNL A   1      43.423  27.468  32.462  1.00  0.00     0.049 A 
ATOM     54  H   UNL A   1      41.708  28.365  31.621  1.00  0.00     0.167 HD
ATOM     55  C   UNL A   1      42.543  28.912  34.276  1.00  0.00     0.074 A 
ATOM     56  C   UNL A   1      42.574  29.451  35.621  1.00  0.00     0.031 C 
ATOM     57  C   UNL A   1      43.436  28.015  33.793  1.00  0.00     0.037 A 
BRANCH  44  58
ATOM     58  C   UNL A   1      42.417  26.329  27.941  1.00  0.00     0.064 A 
ATOM     59  C   UNL A   1      41.900  25.047  27.707  1.00  0.00     0.173 A 
ATOM     60  C   UNL A   1      43.334  26.848  27.014  1.00  0.00     0.173 A 
ATOM     61  F   UNL A   1      41.031  24.502  28.571  1.00  0.00    -0.203 F 
ATOM     62  C   UNL A   1      42.303  24.304  26.599  1.00  0.00     0.198 A 
ATOM     63  C   UNL A   1      43.717  26.113  25.895  1.00  0.00     0.198 A 
ATOM     64  F   UNL A   1      43.857  28.071  27.192  1.00  0.00    -0.203 F 
ATOM     65  F   UNL A   1      41.829  23.065  26.418  1.00  0.00    -0.200 F 
ATOM     66  C   UNL A   1      43.206  24.840  25.692  1.00  0.00     0.200 A 
ATOM     67  F   UNL A   1      44.583  26.635  25.015  1.00  0.00    -0.200 F 
ATOM     68  F   UNL A   1      43.590  24.126  24.625  1.00  0.00    -0.200 F 
ENDBRANCH  44  58
BRANCH  45  69
ATOM     69  C   UNL A   1      39.158  31.927  35.532  1.00  0.00     0.064 A 
ATOM     70  C   UNL A   1      38.319  31.354  36.496  1.00  0.00     0.173 A 
ATOM     71  C   UNL A   1      39.522  33.272  35.696  1.00  0.00     0.173 A 
ATOM     72  F   UNL A   1      37.927  30.078  36.367  1.00  0.00    -0.203 F 
ATOM     73  C   UNL A   1      37.856  32.098  37.578  1.00  0.00     0.198 A 
ATOM     74  C   UNL A   1      39.080  34.008  36.793  1.00  0.00     0.198 A 
ATOM     75  F   UNL A   1      40.325  33.866  34.801  1.00  0.00    -0.203 F 
ATOM     76  F   UNL A   1      37.027  31.536  38.469  1.00  0.00    -0.200 F 
ATOM     77  C   UNL A   1      38.243  33.422  37.731  1.00  0.00     0.200 A 
ATOM     78  F   UNL A   1      39.467  35.281  36.943  1.00  0.00    -0.200 F 
ATOM     79  F   UNL A   1      37.807  34.134  38.779  1.00  0.00    -0.200 F 
ENDBRANCH  45  69
BRANCH  57  80
ATOM     80  C   UNL A   1      44.533  27.581  34.718  1.00  0.00     0.064 A 
ATOM     81  C   UNL A   1      45.738  28.291  34.806  1.00  0.00     0.173 A 
ATOM     82  C   UNL A   1      44.364  26.461  35.544  1.00  0.00     0.173 A 
ATOM     83  F   UNL A   1      45.952  29.358  34.023  1.00  0.00    -0.203 F 
ATOM     84  C   UNL A   1      46.745  27.882  35.676  1.00  0.00     0.198 A 
ATOM     85  C   UNL A   1      45.364  26.067  36.428  1.00  0.00     0.198 A 
ATOM     86  F   UNL A   1      43.226  25.752  35.497  1.00  0.00    -0.203 F 
ATOM     87  F   UNL A   1      47.906  28.551  35.716  1.00  0.00    -0.200 F 
ATOM     88  C   UNL A   1      46.555  26.774  36.489  1.00  0.00     0.200 A 
ATOM     89  F   UNL A   1      45.176  25.002  37.220  1.00  0.00    -0.200 F 
ATOM     90  F   UNL A   1      47.525  26.383  37.327  1.00  0.00    -0.200 F 
ENDBRANCH  57  80
ENDBRANCH  31  32
ENDBRANCH  24  26
ENDBRANCH  23  24
ENDBRANCH   1  23
TORSDOF 12
ENDMDL
