MODEL 1
REMARK VINA RESULT:     -12.8      0.000      0.000
REMARK SMILES C=C(C(=O)OCCOC(=O)c1ccc(-c2c3nc(c(-c4c(F)c(F)c(F)c(F)c4F)c4ccc([nH]4)c(-c4c(F)c(F)c(F)c(F)c4F)c4nc(c(-c5c(F)c(F)c(F)c(F)c5F)c5ccc2[nH]5)C=C4)C=C3)cc1)[C@@H]1CC[C@]2(C)CCCC(=C)[C@H]2[C@H]1O
REMARK SMILES IDX 6 1 5 2 3 3 4 4 2 5 1 6 74 7 75 8 85 9 76 10 84 11 77 12
REMARK SMILES IDX 82 13 78 14 79 15 81 16 83 17 80 18 86 19 7 21 8 22 9 23
REMARK SMILES IDX 10 24 11 25 12 26 73 27 13 28 72 29 14 30 15 31 16 32 66 33
REMARK SMILES IDX 17 34 71 35 65 36 67 37 18 38 70 39 64 40 63 41 19 43 51 44
REMARK SMILES IDX 31 45 50 46 32 47 35 48 49 49 68 50 33 51 34 52 48 54 69 55
REMARK SMILES IDX 36 56 20 57 21 58 29 59 22 60 23 61 27 62 30 63 24 64 25 65
REMARK SMILES IDX 28 66 26 67 52 68 53 69 61 70 54 71 55 72 59 73 62 74 56 75
REMARK SMILES IDX 57 76 60 77 58 78 37 79 38 80 46 81 39 82 40 83 44 84 47 85
REMARK SMILES IDX 41 86 42 87 45 88 43 89
REMARK H PARENT 86 20 67 42 35 53
REMARK Flexibility Score: inf
ROOT
ATOM      1  C   UNL A   1      35.832  19.698  24.917  1.00  0.00     0.275 C 
ENDROOT
BRANCH   1   2
ATOM      2  O   UNL A   1      35.785  21.153  24.865  1.00  0.00    -0.459 OA
BRANCH   2   3
ATOM      3  C   UNL A   1      34.963  21.766  25.760  1.00  0.00     0.333 C 
ATOM      4  O   UNL A   1      34.858  21.448  26.933  1.00  0.00    -0.247 OA
BRANCH   3   5
ATOM      5  C   UNL A   1      34.198  22.909  25.123  1.00  0.00     0.036 C 
ATOM      6  C   UNL A   1      34.974  23.761  24.436  1.00  0.00     0.020 C 
BRANCH   5   7
ATOM      7  C   UNL A   1      32.624  23.041  25.248  1.00  0.00     0.055 C 
ATOM      8  C   UNL A   1      31.697  22.884  23.543  1.00  0.00     0.012 C 
ATOM      9  C   UNL A   1      32.341  24.511  26.367  1.00  0.00     0.129 C 
ATOM     10  C   UNL A   1      31.017  24.513  22.659  1.00  0.00     0.008 C 
ATOM     11  C   UNL A   1      32.155  26.320  25.634  1.00  0.00     0.050 C 
ATOM     12  C   UNL A   1      31.000  26.126  23.925  1.00  0.00    -0.024 C 
ATOM     13  C   UNL A   1      31.880  28.081  26.308  1.00  0.00    -0.071 C 
ATOM     14  C   UNL A   1      30.469  26.111  25.979  1.00  0.00     0.012 C 
ATOM     15  C   UNL A   1      30.613  27.594  22.568  1.00  0.00     0.008 C 
ATOM     16  C   UNL A   1      31.289  29.487  25.227  1.00  0.00     0.031 C 
ATOM     17  C   UNL A   1      31.849  28.288  27.640  1.00  0.00     0.008 C 
ATOM     18  C   UNL A   1      30.721  29.370  23.372  1.00  0.00     0.005 C 
BRANCH   9  19
ATOM     19  O   UNL A   1      31.354  24.034  27.327  1.00  0.00    -0.392 OA
ATOM     20  H   UNL A   1      30.516  24.502  27.188  1.00  0.00     0.211 HD
ENDBRANCH   9  19
ENDBRANCH   5   7
ENDBRANCH   3   5
ENDBRANCH   2   3
ENDBRANCH   1   2
BRANCH   1  21
ATOM     21  C   UNL A   1      37.286  19.201  24.997  1.00  0.00     0.275 C 
BRANCH  21  22
ATOM     22  O   UNL A   1      38.164  20.337  24.987  1.00  0.00    -0.458 OA
BRANCH  22  23
ATOM     23  C   UNL A   1      39.257  20.141  25.747  1.00  0.00     0.338 C 
ATOM     24  O   UNL A   1      40.023  19.193  25.750  1.00  0.00    -0.246 OA
BRANCH  23  25
ATOM     25  C   UNL A   1      39.611  21.408  26.358  1.00  0.00     0.060 A 
ATOM     26  C   UNL A   1      38.591  22.788  26.080  1.00  0.00     0.016 A 
ATOM     27  C   UNL A   1      40.921  21.753  27.417  1.00  0.00     0.016 A 
ATOM     28  C   UNL A   1      39.085  24.663  26.411  1.00  0.00     0.010 A 
ATOM     29  C   UNL A   1      41.587  23.565  27.814  1.00  0.00     0.010 A 
ATOM     30  C   UNL A   1      40.809  25.070  27.037  1.00  0.00    -0.014 A 
BRANCH  30  31
ATOM     31  C   UNL A   1      41.396  26.442  27.397  1.00  0.00     0.031 A 
ATOM     32  C   UNL A   1      42.862  26.680  27.052  1.00  0.00     0.074 A 
ATOM     33  C   UNL A   1      40.771  27.389  28.159  1.00  0.00     0.049 A 
ATOM     34  N   UNL A   1      43.626  27.723  27.281  1.00  0.00    -0.248 NA
ATOM     35  C   UNL A   1      43.568  25.581  26.379  1.00  0.00     0.031 C 
ATOM     36  C   UNL A   1      39.408  27.374  28.700  1.00  0.00     0.029 A 
ATOM     37  N   UNL A   1      41.241  28.594  28.668  1.00  0.00    -0.354 N 
ATOM     38  C   UNL A   1      44.880  27.411  26.758  1.00  0.00     0.074 A 
ATOM     39  C   UNL A   1      44.805  26.047  26.286  1.00  0.00     0.031 C 
ATOM     40  C   UNL A   1      39.171  28.425  29.477  1.00  0.00     0.029 A 
ATOM     41  C   UNL A   1      40.340  29.255  29.481  1.00  0.00     0.049 A 
ATOM     42  H   UNL A   1      42.138  28.947  28.466  1.00  0.00     0.167 HD
ATOM     43  C   UNL A   1      45.978  28.202  26.635  1.00  0.00     0.037 A 
ATOM     44  C   UNL A   1      40.360  30.416  30.159  1.00  0.00     0.037 A 
ATOM     45  C   UNL A   1      46.051  29.556  27.132  1.00  0.00     0.049 A 
ATOM     46  C   UNL A   1      41.547  31.287  29.983  1.00  0.00     0.074 A 
ATOM     47  C   UNL A   1      47.079  30.474  27.003  1.00  0.00     0.029 A 
ATOM     48  N   UNL A   1      45.056  30.179  27.873  1.00  0.00    -0.354 N 
ATOM     49  N   UNL A   1      42.661  31.024  29.351  1.00  0.00    -0.248 NA
ATOM     50  C   UNL A   1      41.463  32.630  30.559  1.00  0.00     0.031 C 
ATOM     51  C   UNL A   1      46.732  31.628  27.713  1.00  0.00     0.029 A 
ATOM     52  C   UNL A   1      45.457  31.460  28.226  1.00  0.00     0.049 A 
ATOM     53  H   UNL A   1      44.192  29.772  28.114  1.00  0.00     0.167 HD
ATOM     54  C   UNL A   1      43.410  32.180  29.431  1.00  0.00     0.074 A 
ATOM     55  C   UNL A   1      42.602  33.155  30.136  1.00  0.00     0.031 C 
ATOM     56  C   UNL A   1      44.660  32.406  28.963  1.00  0.00     0.037 A 
BRANCH  43  57
ATOM     57  C   UNL A   1      47.177  27.649  25.900  1.00  0.00     0.064 A 
ATOM     58  C   UNL A   1      47.269  27.715  24.498  1.00  0.00     0.173 A 
ATOM     59  C   UNL A   1      48.279  27.119  26.592  1.00  0.00     0.173 A 
ATOM     60  F   UNL A   1      46.253  28.215  23.778  1.00  0.00    -0.203 F 
ATOM     61  C   UNL A   1      48.394  27.244  23.822  1.00  0.00     0.198 A 
ATOM     62  C   UNL A   1      49.417  26.681  25.914  1.00  0.00     0.198 A 
ATOM     63  F   UNL A   1      48.264  27.043  27.931  1.00  0.00    -0.203 F 
ATOM     64  F   UNL A   1      48.430  27.277  22.482  1.00  0.00    -0.200 F 
ATOM     65  C   UNL A   1      49.470  26.736  24.530  1.00  0.00     0.200 A 
ATOM     66  F   UNL A   1      50.468  26.212  26.602  1.00  0.00    -0.200 F 
ATOM     67  F   UNL A   1      50.557  26.297  23.880  1.00  0.00    -0.200 F 
ENDBRANCH  43  57
BRANCH  44  68
ATOM     68  C   UNL A   1      39.167  30.837  30.954  1.00  0.00     0.064 A 
ATOM     69  C   UNL A   1      38.075  31.477  30.349  1.00  0.00     0.173 A 
ATOM     70  C   UNL A   1      39.056  30.524  32.319  1.00  0.00     0.173 A 
ATOM     71  F   UNL A   1      38.118  31.783  29.044  1.00  0.00    -0.203 F 
ATOM     72  C   UNL A   1      36.939  31.819  31.082  1.00  0.00     0.198 A 
ATOM     73  C   UNL A   1      37.903  30.830  33.042  1.00  0.00     0.198 A 
ATOM     74  F   UNL A   1      40.050  29.871  32.941  1.00  0.00    -0.203 F 
ATOM     75  F   UNL A   1      35.930  32.468  30.485  1.00  0.00    -0.200 F 
ATOM     76  C   UNL A   1      36.851  31.489  32.425  1.00  0.00     0.200 A 
ATOM     77  F   UNL A   1      37.806  30.472  34.330  1.00  0.00    -0.200 F 
ATOM     78  F   UNL A   1      35.751  31.803  33.125  1.00  0.00    -0.200 F 
ENDBRANCH  44  68
BRANCH  56  79
ATOM     79  C   UNL A   1      45.207  33.776  29.213  1.00  0.00     0.064 A 
ATOM     80  C   UNL A   1      45.019  34.818  28.291  1.00  0.00     0.173 A 
ATOM     81  C   UNL A   1      45.976  34.032  30.356  1.00  0.00     0.173 A 
ATOM     82  F   UNL A   1      44.313  34.611  27.169  1.00  0.00    -0.203 F 
ATOM     83  C   UNL A   1      45.636  36.050  28.476  1.00  0.00     0.198 A 
ATOM     84  C   UNL A   1      46.551  35.280  30.561  1.00  0.00     0.198 A 
ATOM     85  F   UNL A   1      46.184  33.067  31.263  1.00  0.00    -0.203 F 
ATOM     86  F   UNL A   1      45.529  36.997  27.535  1.00  0.00    -0.200 F 
ATOM     87  C   UNL A   1      46.397  36.281  29.613  1.00  0.00     0.200 A 
ATOM     88  F   UNL A   1      47.274  35.507  31.666  1.00  0.00    -0.200 F 
ATOM     89  F   UNL A   1      47.000  37.465  29.785  1.00  0.00    -0.200 F 
ENDBRANCH  56  79
ENDBRANCH  30  31
ENDBRANCH  23  25
ENDBRANCH  22  23
ENDBRANCH  21  22
ENDBRANCH   1  21
TORSDOF 13
ENDMDL
MODEL 2
REMARK VINA RESULT:     -12.8      4.513     10.223
REMARK SMILES C=C(C(=O)OCCOC(=O)c1ccc(-c2c3nc(c(-c4c(F)c(F)c(F)c(F)c4F)c4ccc([nH]4)c(-c4c(F)c(F)c(F)c(F)c4F)c4nc(c(-c5c(F)c(F)c(F)c(F)c5F)c5ccc2[nH]5)C=C4)C=C3)cc1)[C@@H]1CC[C@]2(C)CCCC(=C)[C@H]2[C@H]1O
REMARK SMILES IDX 6 1 5 2 3 3 4 4 2 5 1 6 74 7 75 8 85 9 76 10 84 11 77 12
REMARK SMILES IDX 82 13 78 14 79 15 81 16 83 17 80 18 86 19 7 21 8 22 9 23
REMARK SMILES IDX 10 24 11 25 12 26 73 27 13 28 72 29 14 30 15 31 16 32 66 33
REMARK SMILES IDX 17 34 71 35 65 36 67 37 18 38 70 39 64 40 63 41 19 43 51 44
REMARK SMILES IDX 31 45 50 46 32 47 35 48 49 49 68 50 33 51 34 52 48 54 69 55
REMARK SMILES IDX 36 56 20 57 21 58 29 59 22 60 23 61 27 62 30 63 24 64 25 65
REMARK SMILES IDX 28 66 26 67 52 68 53 69 61 70 54 71 55 72 59 73 62 74 56 75
REMARK SMILES IDX 57 76 60 77 58 78 37 79 38 80 46 81 39 82 40 83 44 84 47 85
REMARK SMILES IDX 41 86 42 87 45 88 43 89
REMARK H PARENT 86 20 67 42 35 53
REMARK Flexibility Score: inf
ROOT
ATOM      1  C   UNL A   1      30.741  30.647  24.883  1.00  0.00     0.275 C 
ENDROOT
BRANCH   1   2
ATOM      2  O   UNL A   1      31.475  29.533  25.469  1.00  0.00    -0.459 OA
BRANCH   2   3
ATOM      3  C   UNL A   1      32.477  29.002  24.716  1.00  0.00     0.333 C 
ATOM      4  O   UNL A   1      33.241  29.654  24.024  1.00  0.00    -0.247 OA
BRANCH   3   5
ATOM      5  C   UNL A   1      32.538  27.494  24.852  1.00  0.00     0.036 C 
ATOM      6  C   UNL A   1      32.906  27.076  26.073  1.00  0.00     0.020 C 
BRANCH   5   7
ATOM      7  C   UNL A   1      32.165  26.526  23.654  1.00  0.00     0.055 C 
ATOM      8  C   UNL A   1      30.496  25.562  23.929  1.00  0.00     0.012 C 
ATOM      9  C   UNL A   1      33.746  25.616  23.247  1.00  0.00     0.129 C 
ATOM     10  C   UNL A   1      30.552  23.664  24.466  1.00  0.00     0.008 C 
ATOM     11  C   UNL A   1      34.189  23.916  24.116  1.00  0.00     0.050 C 
ATOM     12  C   UNL A   1      32.417  22.848  24.213  1.00  0.00    -0.024 C 
ATOM     13  C   UNL A   1      35.613  22.650  24.071  1.00  0.00    -0.071 C 
ATOM     14  C   UNL A   1      33.742  23.210  22.598  1.00  0.00     0.012 C 
ATOM     15  C   UNL A   1      32.131  21.087  25.197  1.00  0.00     0.008 C 
ATOM     16  C   UNL A   1      35.425  20.908  24.720  1.00  0.00     0.031 C 
ATOM     17  C   UNL A   1      36.706  22.904  23.323  1.00  0.00     0.008 C 
ATOM     18  C   UNL A   1      33.792  20.073  25.362  1.00  0.00     0.005 C 
BRANCH   9  19
ATOM     19  O   UNL A   1      33.840  25.712  21.796  1.00  0.00    -0.392 OA
ATOM     20  H   UNL A   1      34.557  25.139  21.480  1.00  0.00     0.211 HD
ENDBRANCH   9  19
ENDBRANCH   5   7
ENDBRANCH   3   5
ENDBRANCH   2   3
ENDBRANCH   1   2
BRANCH   1  21
ATOM     21  C   UNL A   1      30.887  31.912  25.746  1.00  0.00     0.275 C 
BRANCH  21  22
ATOM     22  O   UNL A   1      31.711  31.604  26.881  1.00  0.00    -0.458 OA
BRANCH  22  23
ATOM     23  C   UNL A   1      32.492  32.640  27.237  1.00  0.00     0.338 C 
ATOM     24  O   UNL A   1      32.167  33.783  27.508  1.00  0.00    -0.246 OA
BRANCH  23  25
ATOM     25  C   UNL A   1      33.797  32.116  27.594  1.00  0.00     0.060 A 
ATOM     26  C   UNL A   1      34.054  30.397  27.539  1.00  0.00     0.016 A 
ATOM     27  C   UNL A   1      35.215  32.987  28.027  1.00  0.00     0.016 A 
ATOM     28  C   UNL A   1      35.545  29.435  28.387  1.00  0.00     0.010 A 
ATOM     29  C   UNL A   1      36.775  32.195  28.936  1.00  0.00     0.010 A 
ATOM     30  C   UNL A   1      36.809  30.390  29.397  1.00  0.00    -0.014 A 
BRANCH  30  31
ATOM     31  C   UNL A   1      38.062  29.860  30.108  1.00  0.00     0.031 A 
ATOM     32  C   UNL A   1      38.386  30.452  31.475  1.00  0.00     0.074 A 
ATOM     33  C   UNL A   1      39.003  29.045  29.541  1.00  0.00     0.049 A 
ATOM     34  N   UNL A   1      39.400  30.225  32.277  1.00  0.00    -0.248 NA
ATOM     35  C   UNL A   1      37.448  31.456  31.997  1.00  0.00     0.031 C 
ATOM     36  C   UNL A   1      38.989  28.416  28.217  1.00  0.00     0.029 A 
ATOM     37  N   UNL A   1      40.234  28.615  30.022  1.00  0.00    -0.354 N 
ATOM     38  C   UNL A   1      39.202  31.033  33.395  1.00  0.00     0.074 A 
ATOM     39  C   UNL A   1      38.025  31.828  33.131  1.00  0.00     0.031 C 
ATOM     40  C   UNL A   1      40.117  27.762  27.966  1.00  0.00     0.029 A 
ATOM     41  C   UNL A   1      40.961  27.859  29.121  1.00  0.00     0.049 A 
ATOM     42  H   UNL A   1      40.560  28.830  30.926  1.00  0.00     0.167 HD
ATOM     43  C   UNL A   1      39.906  31.074  34.557  1.00  0.00     0.037 A 
ATOM     44  C   UNL A   1      42.157  27.248  29.157  1.00  0.00     0.037 A 
ATOM     45  C   UNL A   1      41.096  30.295  34.803  1.00  0.00     0.049 A 
ATOM     46  C   UNL A   1      42.895  27.267  30.443  1.00  0.00     0.074 A 
ATOM     47  C   UNL A   1      41.848  30.200  35.961  1.00  0.00     0.029 A 
ATOM     48  N   UNL A   1      41.718  29.487  33.861  1.00  0.00    -0.354 N 
ATOM     49  N   UNL A   1      42.601  27.919  31.537  1.00  0.00    -0.248 NA
ATOM     50  C   UNL A   1      44.090  26.425  30.523  1.00  0.00     0.031 C 
ATOM     51  C   UNL A   1      42.954  29.383  35.704  1.00  0.00     0.029 A 
ATOM     52  C   UNL A   1      42.856  28.909  34.407  1.00  0.00     0.049 A 
ATOM     53  H   UNL A   1      41.400  29.345  32.940  1.00  0.00     0.167 HD
ATOM     54  C   UNL A   1      43.566  27.552  32.453  1.00  0.00     0.074 A 
ATOM     55  C   UNL A   1      44.424  26.587  31.794  1.00  0.00     0.031 C 
ATOM     56  C   UNL A   1      43.725  27.983  33.726  1.00  0.00     0.037 A 
BRANCH  43  57
ATOM     57  C   UNL A   1      39.391  31.955  35.672  1.00  0.00     0.064 A 
ATOM     58  C   UNL A   1      38.454  31.479  36.606  1.00  0.00     0.173 A 
ATOM     59  C   UNL A   1      39.885  33.257  35.863  1.00  0.00     0.173 A 
ATOM     60  F   UNL A   1      37.947  30.243  36.484  1.00  0.00    -0.203 F 
ATOM     61  C   UNL A   1      38.011  32.278  37.660  1.00  0.00     0.198 A 
ATOM     62  C   UNL A   1      39.466  34.040  36.940  1.00  0.00     0.198 A 
ATOM     63  F   UNL A   1      40.794  33.768  35.019  1.00  0.00    -0.203 F 
ATOM     64  F   UNL A   1      37.081  31.811  38.506  1.00  0.00    -0.200 F 
ATOM     65  C   UNL A   1      38.523  33.553  37.831  1.00  0.00     0.200 A 
ATOM     66  F   UNL A   1      39.979  35.265  37.117  1.00  0.00    -0.200 F 
ATOM     67  F   UNL A   1      38.107  34.313  38.854  1.00  0.00    -0.200 F 
ENDBRANCH  43  57
BRANCH  44  68
ATOM     68  C   UNL A   1      42.642  26.486  27.966  1.00  0.00     0.064 A 
ATOM     69  C   UNL A   1      42.225  25.169  27.722  1.00  0.00     0.173 A 
ATOM     70  C   UNL A   1      43.459  27.094  26.998  1.00  0.00     0.173 A 
ATOM     71  F   UNL A   1      41.430  24.545  28.604  1.00  0.00    -0.203 F 
ATOM     72  C   UNL A   1      42.634  24.479  26.581  1.00  0.00     0.198 A 
ATOM     73  C   UNL A   1      43.833  26.417  25.837  1.00  0.00     0.198 A 
ATOM     74  F   UNL A   1      43.849  28.368  27.153  1.00  0.00    -0.203 F 
ATOM     75  F   UNL A   1      42.255  23.207  26.399  1.00  0.00    -0.200 F 
ATOM     76  C   UNL A   1      43.431  25.106  25.637  1.00  0.00     0.200 A 
ATOM     77  F   UNL A   1      44.570  27.041  24.907  1.00  0.00    -0.200 F 
ATOM     78  F   UNL A   1      43.810  24.447  24.532  1.00  0.00    -0.200 F 
ENDBRANCH  44  68
BRANCH  56  79
ATOM     79  C   UNL A   1      44.881  27.394  34.471  1.00  0.00     0.064 A 
ATOM     80  C   UNL A   1      44.746  26.214  35.218  1.00  0.00     0.173 A 
ATOM     81  C   UNL A   1      46.119  28.049  34.484  1.00  0.00     0.173 A 
ATOM     82  F   UNL A   1      43.571  25.567  35.257  1.00  0.00    -0.203 F 
ATOM     83  C   UNL A   1      45.793  25.745  36.003  1.00  0.00     0.198 A 
ATOM     84  C   UNL A   1      47.180  27.551  35.232  1.00  0.00     0.198 A 
ATOM     85  F   UNL A   1      46.296  29.181  33.786  1.00  0.00    -0.203 F 
ATOM     86  F   UNL A   1      45.611  24.675  36.788  1.00  0.00    -0.200 F 
ATOM     87  C   UNL A   1      47.010  26.412  36.005  1.00  0.00     0.200 A 
ATOM     88  F   UNL A   1      48.359  28.187  35.223  1.00  0.00    -0.200 F 
ATOM     89  F   UNL A   1      48.015  25.966  36.769  1.00  0.00    -0.200 F 
ENDBRANCH  56  79
ENDBRANCH  30  31
ENDBRANCH  23  25
ENDBRANCH  22  23
ENDBRANCH  21  22
ENDBRANCH   1  21
TORSDOF 13
ENDMDL
MODEL 3
REMARK VINA RESULT:     -12.7      7.210     12.407
REMARK SMILES C=C(C(=O)OCCOC(=O)c1ccc(-c2c3nc(c(-c4c(F)c(F)c(F)c(F)c4F)c4ccc([nH]4)c(-c4c(F)c(F)c(F)c(F)c4F)c4nc(c(-c5c(F)c(F)c(F)c(F)c5F)c5ccc2[nH]5)C=C4)C=C3)cc1)[C@@H]1CC[C@]2(C)CCCC(=C)[C@H]2[C@H]1O
REMARK SMILES IDX 6 1 5 2 3 3 4 4 2 5 1 6 74 7 75 8 85 9 76 10 84 11 77 12
REMARK SMILES IDX 82 13 78 14 79 15 81 16 83 17 80 18 86 19 7 21 8 22 9 23
REMARK SMILES IDX 10 24 11 25 12 26 73 27 13 28 72 29 14 30 15 31 16 32 66 33
REMARK SMILES IDX 17 34 71 35 65 36 67 37 18 38 70 39 64 40 63 41 19 43 51 44
REMARK SMILES IDX 31 45 50 46 32 47 35 48 49 49 68 50 33 51 34 52 48 54 69 55
REMARK SMILES IDX 36 56 20 57 21 58 29 59 22 60 23 61 27 62 30 63 24 64 25 65
REMARK SMILES IDX 28 66 26 67 52 68 53 69 61 70 54 71 55 72 59 73 62 74 56 75
REMARK SMILES IDX 57 76 60 77 58 78 37 79 38 80 46 81 39 82 40 83 44 84 47 85
REMARK SMILES IDX 41 86 42 87 45 88 43 89
REMARK H PARENT 86 20 67 42 35 53
REMARK Flexibility Score: inf
ROOT
ATOM      1  C   UNL A   1      51.050  23.688  35.140  1.00  0.00     0.275 C 
ENDROOT
BRANCH   1   2
ATOM      2  O   UNL A   1      50.334  22.739  34.298  1.00  0.00    -0.459 OA
BRANCH   2   3
ATOM      3  C   UNL A   1      51.019  22.231  33.237  1.00  0.00     0.333 C 
ATOM      4  O   UNL A   1      51.204  22.822  32.186  1.00  0.00    -0.247 OA
BRANCH   3   5
ATOM      5  C   UNL A   1      51.540  20.838  33.525  1.00  0.00     0.036 C 
ATOM      6  C   UNL A   1      52.834  20.670  33.212  1.00  0.00     0.020 C 
BRANCH   5   7
ATOM      7  C   UNL A   1      50.626  19.714  34.166  1.00  0.00     0.055 C 
ATOM      8  C   UNL A   1      48.829  19.658  33.417  1.00  0.00     0.012 C 
ATOM      9  C   UNL A   1      50.896  19.852  36.010  1.00  0.00     0.129 C 
ATOM     10  C   UNL A   1      47.328  20.422  34.446  1.00  0.00     0.008 C 
ATOM     11  C   UNL A   1      49.766  21.011  37.115  1.00  0.00     0.050 C 
ATOM     12  C   UNL A   1      47.836  20.771  36.403  1.00  0.00    -0.024 C 
ATOM     13  C   UNL A   1      49.636  21.499  38.954  1.00  0.00    -0.071 C 
ATOM     14  C   UNL A   1      49.034  19.528  37.635  1.00  0.00     0.012 C 
ATOM     15  C   UNL A   1      46.206  21.855  36.967  1.00  0.00     0.008 C 
ATOM     16  C   UNL A   1      48.102  22.287  39.674  1.00  0.00     0.031 C 
ATOM     17  C   UNL A   1      50.551  21.039  39.831  1.00  0.00     0.008 C 
ATOM     18  C   UNL A   1      46.406  22.575  38.771  1.00  0.00     0.005 C 
BRANCH   9  19
ATOM     19  O   UNL A   1      51.123  18.476  36.434  1.00  0.00    -0.392 OA
ATOM     20  H   UNL A   1      50.288  17.984  36.394  1.00  0.00     0.211 HD
ENDBRANCH   9  19
ENDBRANCH   5   7
ENDBRANCH   3   5
ENDBRANCH   2   3
ENDBRANCH   1   2
BRANCH   1  21
ATOM     21  C   UNL A   1      50.238  24.984  35.315  1.00  0.00     0.275 C 
BRANCH  21  22
ATOM     22  O   UNL A   1      48.852  24.643  35.471  1.00  0.00    -0.458 OA
BRANCH  22  23
ATOM     23  C   UNL A   1      48.320  25.179  36.584  1.00  0.00     0.338 C 
ATOM     24  O   UNL A   1      48.811  25.271  37.696  1.00  0.00    -0.246 OA
BRANCH  23  25
ATOM     25  C   UNL A   1      47.164  25.964  36.196  1.00  0.00     0.060 A 
ATOM     26  C   UNL A   1      45.576  25.318  36.484  1.00  0.00     0.016 A 
ATOM     27  C   UNL A   1      47.125  27.542  35.514  1.00  0.00     0.016 A 
ATOM     28  C   UNL A   1      43.910  25.963  35.662  1.00  0.00     0.010 A 
ATOM     29  C   UNL A   1      45.563  28.324  34.600  1.00  0.00     0.010 A 
ATOM     30  C   UNL A   1      43.976  27.365  34.413  1.00  0.00    -0.014 A 
BRANCH  30  31
ATOM     31  C   UNL A   1      42.813  28.050  33.682  1.00  0.00     0.031 A 
ATOM     32  C   UNL A   1      42.723  27.840  32.174  1.00  0.00     0.074 A 
ATOM     33  C   UNL A   1      41.969  28.971  34.236  1.00  0.00     0.049 A 
ATOM     34  N   UNL A   1      41.875  28.332  31.301  1.00  0.00    -0.248 NA
ATOM     35  C   UNL A   1      43.745  26.975  31.567  1.00  0.00     0.031 C 
ATOM     36  C   UNL A   1      41.899  29.427  35.628  1.00  0.00     0.029 A 
ATOM     37  N   UNL A   1      40.982  29.757  33.654  1.00  0.00    -0.354 N 
ATOM     38  C   UNL A   1      42.249  27.815  30.061  1.00  0.00     0.074 A 
ATOM     39  C   UNL A   1      43.456  27.050  30.276  1.00  0.00     0.031 C 
ATOM     40  C   UNL A   1      41.014  30.404  35.787  1.00  0.00     0.029 A 
ATOM     41  C   UNL A   1      40.384  30.651  34.523  1.00  0.00     0.049 A 
ATOM     42  H   UNL A   1      40.728  29.683  32.705  1.00  0.00     0.167 HD
ATOM     43  C   UNL A   1      41.619  27.926  28.862  1.00  0.00     0.037 A 
ATOM     44  C   UNL A   1      39.409  31.569  34.404  1.00  0.00     0.037 A 
ATOM     45  C   UNL A   1      40.427  28.714  28.651  1.00  0.00     0.049 A 
ATOM     46  C   UNL A   1      38.704  31.651  33.103  1.00  0.00     0.074 A 
ATOM     47  C   UNL A   1      39.663  28.843  27.504  1.00  0.00     0.029 A 
ATOM     48  N   UNL A   1      39.838  29.525  29.612  1.00  0.00    -0.354 N 
ATOM     49  N   UNL A   1      38.986  31.032  31.986  1.00  0.00    -0.248 NA
ATOM     50  C   UNL A   1      37.516  32.505  33.056  1.00  0.00     0.031 C 
ATOM     51  C   UNL A   1      38.648  29.773  27.752  1.00  0.00     0.029 A 
ATOM     52  C   UNL A   1      38.733  30.172  29.075  1.00  0.00     0.049 A 
ATOM     53  H   UNL A   1      40.156  29.626  30.538  1.00  0.00     0.167 HD
ATOM     54  C   UNL A   1      37.996  31.404  31.100  1.00  0.00     0.074 A 
ATOM     55  C   UNL A   1      37.085  32.266  31.828  1.00  0.00     0.031 C 
ATOM     56  C   UNL A   1      37.860  31.060  29.798  1.00  0.00     0.037 A 
BRANCH  43  57
ATOM     57  C   UNL A   1      42.172  27.147  27.691  1.00  0.00     0.064 A 
ATOM     58  C   UNL A   1      43.148  27.698  26.842  1.00  0.00     0.173 A 
ATOM     59  C   UNL A   1      41.789  25.816  27.452  1.00  0.00     0.173 A 
ATOM     60  F   UNL A   1      43.561  28.962  27.020  1.00  0.00    -0.203 F 
ATOM     61  C   UNL A   1      43.690  26.964  25.787  1.00  0.00     0.198 A 
ATOM     62  C   UNL A   1      42.360  25.073  26.417  1.00  0.00     0.198 A 
ATOM     63  F   UNL A   1      40.875  25.223  28.234  1.00  0.00    -0.203 F 
ATOM     64  F   UNL A   1      44.584  27.535  24.967  1.00  0.00    -0.200 F 
ATOM     65  C   UNL A   1      43.302  25.651  25.581  1.00  0.00     0.200 A 
ATOM     66  F   UNL A   1      42.001  23.795  26.233  1.00  0.00    -0.200 F 
ATOM     67  F   UNL A   1      43.835  24.942  24.576  1.00  0.00    -0.200 F 
ENDBRANCH  43  57
BRANCH  44  68
ATOM     68  C   UNL A   1      38.998  32.378  35.592  1.00  0.00     0.064 A 
ATOM     69  C   UNL A   1      38.223  31.822  36.621  1.00  0.00     0.173 A 
ATOM     70  C   UNL A   1      39.449  33.697  35.765  1.00  0.00     0.173 A 
ATOM     71  F   UNL A   1      37.779  30.560  36.518  1.00  0.00    -0.203 F 
ATOM     72  C   UNL A   1      37.887  32.561  37.755  1.00  0.00     0.198 A 
ATOM     73  C   UNL A   1      39.146  34.421  36.918  1.00  0.00     0.198 A 
ATOM     74  F   UNL A   1      40.232  34.265  34.836  1.00  0.00    -0.203 F 
ATOM     75  F   UNL A   1      37.109  32.016  38.700  1.00  0.00    -0.200 F 
ATOM     76  C   UNL A   1      38.354  33.857  37.906  1.00  0.00     0.200 A 
ATOM     77  F   UNL A   1      39.636  35.659  37.078  1.00  0.00    -0.200 F 
ATOM     78  F   UNL A   1      38.044  34.561  39.004  1.00  0.00    -0.200 F 
ENDBRANCH  44  68
BRANCH  56  79
ATOM     79  C   UNL A   1      36.669  31.634  29.097  1.00  0.00     0.064 A 
ATOM     80  C   UNL A   1      36.601  32.997  28.767  1.00  0.00     0.173 A 
ATOM     81  C   UNL A   1      35.563  30.825  28.806  1.00  0.00     0.173 A 
ATOM     82  F   UNL A   1      37.625  33.815  29.052  1.00  0.00    -0.203 F 
ATOM     83  C   UNL A   1      35.440  33.540  28.228  1.00  0.00     0.198 A 
ATOM     84  C   UNL A   1      34.423  31.363  28.222  1.00  0.00     0.198 A 
ATOM     85  F   UNL A   1      35.582  29.517  29.105  1.00  0.00    -0.203 F 
ATOM     86  F   UNL A   1      35.358  34.860  28.016  1.00  0.00    -0.200 F 
ATOM     87  C   UNL A   1      34.355  32.722  27.952  1.00  0.00     0.200 A 
ATOM     88  F   UNL A   1      33.380  30.569  27.943  1.00  0.00    -0.200 F 
ATOM     89  F   UNL A   1      33.234  33.247  27.442  1.00  0.00    -0.200 F 
ENDBRANCH  56  79
ENDBRANCH  30  31
ENDBRANCH  23  25
ENDBRANCH  22  23
ENDBRANCH  21  22
ENDBRANCH   1  21
TORSDOF 13
ENDMDL
