MODEL 1
REMARK VINA RESULT:     -11.8      0.000      0.000
REMARK SMILES O=C(OCCOC(=O)[C@]1(CCc2cccnc2)CCC[NH2+]C1)c1ccc(-c2c3nc(c(-c4c(F)c(F)c(F)c(F)c4F)c4ccc([nH]4)c(-c4c(F)c(F)c(F)c(F)c4F)c4nc(c(-c5c(F)c(F)c(F)c(F)c5F)c5ccc2[nH]5)C=C4)C=C3)cc1
REMARK SMILES IDX 5 1 4 2 3 3 2 4 1 5 23 6 24 7 85 8 25 9 84 10 26 11 27 12
REMARK SMILES IDX 28 13 78 14 29 15 83 16 77 17 79 18 30 19 82 20 76 21 75 22
REMARK SMILES IDX 31 24 63 25 43 26 62 27 44 28 47 29 61 30 80 31 45 32 46 33
REMARK SMILES IDX 60 35 81 36 48 37 32 38 33 39 41 40 34 41 35 42 39 43 42 44
REMARK SMILES IDX 36 45 37 46 40 47 38 48 64 49 65 50 73 51 66 52 67 53 71 54
REMARK SMILES IDX 74 55 68 56 69 57 72 58 70 59 49 60 50 61 58 62 51 63 52 64
REMARK SMILES IDX 56 65 59 66 53 67 54 68 57 69 55 70 6 71 7 72 8 73 9 74
REMARK SMILES IDX 18 75 22 76 19 77 21 78 20 79 10 82 11 83 12 84 13 85 17 86
REMARK SMILES IDX 14 87 16 88 15 89
REMARK H PARENT 79 23 47 34 21 80 21 81
REMARK Flexibility Score: inf
ROOT
ATOM      1  C   UNL A   1      36.582  22.633  23.723  1.00  0.00     0.274 C 
ENDROOT
BRANCH   1   2
ATOM      2  C   UNL A   1      37.214  21.371  24.311  1.00  0.00     0.275 C 
BRANCH   2   3
ATOM      3  O   UNL A   1      37.626  21.445  25.679  1.00  0.00    -0.458 OA
BRANCH   3   4
ATOM      4  C   UNL A   1      38.892  21.442  26.134  1.00  0.00     0.338 C 
ATOM      5  O   UNL A   1      39.542  20.395  26.061  1.00  0.00    -0.246 OA
BRANCH   4   6
ATOM      6  C   UNL A   1      39.567  22.661  26.691  1.00  0.00     0.060 A 
ATOM      7  C   UNL A   1      40.623  22.711  27.606  1.00  0.00     0.016 A 
ATOM      8  C   UNL A   1      39.103  23.880  26.177  1.00  0.00     0.016 A 
ATOM      9  C   UNL A   1      41.260  23.924  27.915  1.00  0.00     0.010 A 
ATOM     10  C   UNL A   1      39.783  25.072  26.412  1.00  0.00     0.010 A 
ATOM     11  C   UNL A   1      40.863  25.111  27.298  1.00  0.00    -0.014 A 
BRANCH  11  12
ATOM     12  C   UNL A   1      41.466  26.417  27.657  1.00  0.00     0.031 A 
ATOM     13  C   UNL A   1      42.862  26.706  27.193  1.00  0.00     0.074 A 
ATOM     14  C   UNL A   1      40.818  27.296  28.448  1.00  0.00     0.049 A 
ATOM     15  N   UNL A   1      43.631  27.726  27.464  1.00  0.00    -0.248 NA
ATOM     16  C   UNL A   1      43.512  25.664  26.378  1.00  0.00     0.031 C 
ATOM     17  C   UNL A   1      39.519  27.061  29.067  1.00  0.00     0.029 A 
ATOM     18  N   UNL A   1      41.162  28.550  28.882  1.00  0.00    -0.354 N 
ATOM     19  C   UNL A   1      44.853  27.424  26.884  1.00  0.00     0.074 A 
ATOM     20  C   UNL A   1      44.766  26.076  26.373  1.00  0.00     0.031 C 
ATOM     21  C   UNL A   1      39.157  28.138  29.785  1.00  0.00     0.029 A 
ATOM     22  C   UNL A   1      40.202  29.148  29.669  1.00  0.00     0.049 A 
ATOM     23  H   UNL A   1      42.016  28.982  28.654  1.00  0.00     0.167 HD
ATOM     24  C   UNL A   1      45.927  28.227  26.712  1.00  0.00     0.037 A 
ATOM     25  C   UNL A   1      40.174  30.384  30.201  1.00  0.00     0.037 A 
ATOM     26  C   UNL A   1      45.964  29.592  27.149  1.00  0.00     0.049 A 
ATOM     27  C   UNL A   1      41.329  31.306  29.901  1.00  0.00     0.074 A 
ATOM     28  C   UNL A   1      46.957  30.534  26.977  1.00  0.00     0.029 A 
ATOM     29  N   UNL A   1      44.926  30.215  27.830  1.00  0.00    -0.354 N 
ATOM     30  N   UNL A   1      42.446  31.046  29.263  1.00  0.00    -0.248 NA
ATOM     31  C   UNL A   1      41.213  32.696  30.363  1.00  0.00     0.031 C 
ATOM     32  C   UNL A   1      46.517  31.734  27.548  1.00  0.00     0.029 A 
ATOM     33  C   UNL A   1      45.242  31.540  28.059  1.00  0.00     0.049 A 
ATOM     34  H   UNL A   1      44.089  29.777  28.107  1.00  0.00     0.167 HD
ATOM     35  C   UNL A   1      43.151  32.240  29.223  1.00  0.00     0.074 A 
ATOM     36  C   UNL A   1      42.324  33.232  29.880  1.00  0.00     0.031 C 
ATOM     37  C   UNL A   1      44.376  32.497  28.701  1.00  0.00     0.037 A 
BRANCH  24  38
ATOM     38  C   UNL A   1      47.081  27.640  25.957  1.00  0.00     0.064 A 
ATOM     39  C   UNL A   1      48.189  27.100  26.635  1.00  0.00     0.173 A 
ATOM     40  C   UNL A   1      47.132  27.692  24.557  1.00  0.00     0.173 A 
ATOM     41  F   UNL A   1      48.201  27.054  27.976  1.00  0.00    -0.203 F 
ATOM     42  C   UNL A   1      49.328  26.699  25.946  1.00  0.00     0.198 A 
ATOM     43  C   UNL A   1      48.260  27.251  23.869  1.00  0.00     0.198 A 
ATOM     44  F   UNL A   1      46.104  28.197  23.861  1.00  0.00    -0.203 F 
ATOM     45  F   UNL A   1      50.408  26.286  26.625  1.00  0.00    -0.200 F 
ATOM     46  C   UNL A   1      49.363  26.774  24.563  1.00  0.00     0.200 A 
ATOM     47  F   UNL A   1      48.294  27.318  22.530  1.00  0.00    -0.200 F 
ATOM     48  F   UNL A   1      50.468  26.406  23.900  1.00  0.00    -0.200 F 
ENDBRANCH  24  38
BRANCH  25  49
ATOM     49  C   UNL A   1      39.001  30.856  30.988  1.00  0.00     0.064 A 
ATOM     50  C   UNL A   1      38.942  30.665  32.377  1.00  0.00     0.173 A 
ATOM     51  C   UNL A   1      37.902  31.475  30.376  1.00  0.00     0.173 A 
ATOM     52  F   UNL A   1      39.962  30.068  33.012  1.00  0.00    -0.203 F 
ATOM     53  C   UNL A   1      37.817  31.033  33.115  1.00  0.00     0.198 A 
ATOM     54  C   UNL A   1      36.787  31.867  31.118  1.00  0.00     0.198 A 
ATOM     55  F   UNL A   1      37.909  31.700  29.054  1.00  0.00    -0.203 F 
ATOM     56  F   UNL A   1      37.768  30.780  34.430  1.00  0.00    -0.200 F 
ATOM     57  C   UNL A   1      36.740  31.634  32.485  1.00  0.00     0.200 A 
ATOM     58  F   UNL A   1      35.753  32.462  30.507  1.00  0.00    -0.200 F 
ATOM     59  F   UNL A   1      35.654  31.979  33.191  1.00  0.00    -0.200 F 
ENDBRANCH  25  49
BRANCH  37  60
ATOM     60  C   UNL A   1      44.869  33.907  28.797  1.00  0.00     0.064 A 
ATOM     61  C   UNL A   1      45.654  34.333  29.877  1.00  0.00     0.173 A 
ATOM     62  C   UNL A   1      44.589  34.827  27.776  1.00  0.00     0.173 A 
ATOM     63  F   UNL A   1      45.930  33.490  30.884  1.00  0.00    -0.203 F 
ATOM     64  C   UNL A   1      46.126  35.639  29.941  1.00  0.00     0.198 A 
ATOM     65  C   UNL A   1      45.084  36.124  27.831  1.00  0.00     0.198 A 
ATOM     66  F   UNL A   1      43.844  34.460  26.721  1.00  0.00    -0.203 F 
ATOM     67  F   UNL A   1      46.840  36.038  31.002  1.00  0.00    -0.200 F 
ATOM     68  C   UNL A   1      45.848  36.531  28.915  1.00  0.00     0.200 A 
ATOM     69  F   UNL A   1      44.825  36.981  26.835  1.00  0.00    -0.200 F 
ATOM     70  F   UNL A   1      46.310  37.786  28.976  1.00  0.00    -0.200 F 
ENDBRANCH  37  60
ENDBRANCH  11  12
ENDBRANCH   4   6
ENDBRANCH   3   4
ENDBRANCH   2   3
ENDBRANCH   1   2
BRANCH   1  71
ATOM     71  O   UNL A   1      35.362  23.102  24.344  1.00  0.00    -0.461 OA
BRANCH  71  72
ATOM     72  C   UNL A   1      34.254  22.984  23.554  1.00  0.00     0.317 C 
ATOM     73  O   UNL A   1      34.201  23.442  22.414  1.00  0.00    -0.251 OA
BRANCH  72  74
ATOM     74  C   UNL A   1      33.005  22.397  24.244  1.00  0.00     0.117 C 
ATOM     75  C   UNL A   1      31.648  23.105  24.028  1.00  0.00     0.030 C 
ATOM     76  C   UNL A   1      33.305  22.371  25.776  1.00  0.00     0.279 C 
ATOM     77  C   UNL A   1      31.325  24.269  24.972  1.00  0.00     0.063 C 
ATOM     78  N   UNL A   1      33.175  23.670  26.440  1.00  0.00    -0.345 N 
ATOM     79  C   UNL A   1      31.789  24.107  26.406  1.00  0.00     0.260 C 
ATOM     80  H   UNL A   1      33.481  23.587  27.409  1.00  0.00     0.346 HD
ATOM     81  H   UNL A   1      33.754  24.355  25.954  1.00  0.00     0.346 HD
BRANCH  74  82
ATOM     82  C   UNL A   1      32.903  20.903  23.778  1.00  0.00     0.029 C 
BRANCH  82  83
ATOM     83  C   UNL A   1      32.315  19.878  24.768  1.00  0.00     0.038 C 
BRANCH  83  84
ATOM     84  C   UNL A   1      32.742  18.441  24.658  1.00  0.00    -0.030 A 
ATOM     85  C   UNL A   1      33.386  17.931  23.528  1.00  0.00     0.007 A 
ATOM     86  C   UNL A   1      32.600  17.574  25.742  1.00  0.00     0.114 A 
ATOM     87  C   UNL A   1      33.822  16.608  23.512  1.00  0.00     0.020 A 
ATOM     88  N   UNL A   1      32.997  16.280  25.750  1.00  0.00    -0.264 NA
ATOM     89  C   UNL A   1      33.610  15.828  24.636  1.00  0.00     0.111 A 
ENDBRANCH  83  84
ENDBRANCH  82  83
ENDBRANCH  74  82
ENDBRANCH  72  74
ENDBRANCH  71  72
ENDBRANCH   1  71
TORSDOF 14
ENDMDL
MODEL 2
REMARK VINA RESULT:     -11.8      4.924     10.441
REMARK SMILES O=C(OCCOC(=O)[C@]1(CCc2cccnc2)CCC[NH2+]C1)c1ccc(-c2c3nc(c(-c4c(F)c(F)c(F)c(F)c4F)c4ccc([nH]4)c(-c4c(F)c(F)c(F)c(F)c4F)c4nc(c(-c5c(F)c(F)c(F)c(F)c5F)c5ccc2[nH]5)C=C4)C=C3)cc1
REMARK SMILES IDX 5 1 4 2 3 3 2 4 1 5 23 6 24 7 85 8 25 9 84 10 26 11 27 12
REMARK SMILES IDX 28 13 78 14 29 15 83 16 77 17 79 18 30 19 82 20 76 21 75 22
REMARK SMILES IDX 31 24 63 25 43 26 62 27 44 28 47 29 61 30 80 31 45 32 46 33
REMARK SMILES IDX 60 35 81 36 48 37 32 38 33 39 41 40 34 41 35 42 39 43 42 44
REMARK SMILES IDX 36 45 37 46 40 47 38 48 64 49 65 50 73 51 66 52 67 53 71 54
REMARK SMILES IDX 74 55 68 56 69 57 72 58 70 59 49 60 50 61 58 62 51 63 52 64
REMARK SMILES IDX 56 65 59 66 53 67 54 68 57 69 55 70 6 71 7 72 8 73 9 74
REMARK SMILES IDX 18 75 22 76 19 77 21 78 20 79 10 82 11 83 12 84 13 85 17 86
REMARK SMILES IDX 14 87 16 88 15 89
REMARK H PARENT 79 23 47 34 21 80 21 81
REMARK Flexibility Score: inf
ROOT
ATOM      1  C   UNL A   1      31.983  28.287  27.275  1.00  0.00     0.274 C 
ENDROOT
BRANCH   1   2
ATOM      2  C   UNL A   1      31.748  29.706  26.758  1.00  0.00     0.275 C 
BRANCH   2   3
ATOM      3  O   UNL A   1      32.915  30.463  26.422  1.00  0.00    -0.458 OA
BRANCH   3   4
ATOM      4  C   UNL A   1      33.548  31.348  27.212  1.00  0.00     0.338 C 
ATOM      5  O   UNL A   1      32.977  32.407  27.488  1.00  0.00    -0.246 OA
BRANCH   4   6
ATOM      6  C   UNL A   1      34.903  31.095  27.807  1.00  0.00     0.060 A 
ATOM      7  C   UNL A   1      35.937  32.016  28.000  1.00  0.00     0.016 A 
ATOM      8  C   UNL A   1      35.113  29.786  28.264  1.00  0.00     0.016 A 
ATOM      9  C   UNL A   1      37.094  31.669  28.717  1.00  0.00     0.010 A 
ATOM     10  C   UNL A   1      36.216  29.461  29.048  1.00  0.00     0.010 A 
ATOM     11  C   UNL A   1      37.230  30.396  29.272  1.00  0.00    -0.014 A 
BRANCH  11  12
ATOM     12  C   UNL A   1      38.469  29.977  29.970  1.00  0.00     0.031 A 
ATOM     13  C   UNL A   1      38.703  30.480  31.363  1.00  0.00     0.074 A 
ATOM     14  C   UNL A   1      39.406  29.232  29.351  1.00  0.00     0.049 A 
ATOM     15  N   UNL A   1      39.749  30.335  32.132  1.00  0.00    -0.248 NA
ATOM     16  C   UNL A   1      37.649  31.333  31.939  1.00  0.00     0.031 C 
ATOM     17  C   UNL A   1      39.347  28.805  27.958  1.00  0.00     0.029 A 
ATOM     18  N   UNL A   1      40.594  28.715  29.798  1.00  0.00    -0.354 N 
ATOM     19  C   UNL A   1      39.485  31.105  33.254  1.00  0.00     0.074 A 
ATOM     20  C   UNL A   1      38.255  31.820  33.005  1.00  0.00     0.031 C 
ATOM     21  C   UNL A   1      40.434  28.073  27.661  1.00  0.00     0.029 A 
ATOM     22  C   UNL A   1      41.267  27.972  28.853  1.00  0.00     0.049 A 
ATOM     23  H   UNL A   1      40.936  28.862  30.709  1.00  0.00     0.167 HD
ATOM     24  C   UNL A   1      40.158  31.147  34.425  1.00  0.00     0.037 A 
ATOM     25  C   UNL A   1      42.410  27.269  28.965  1.00  0.00     0.037 A 
ATOM     26  C   UNL A   1      41.329  30.362  34.686  1.00  0.00     0.049 A 
ATOM     27  C   UNL A   1      43.086  27.235  30.313  1.00  0.00     0.074 A 
ATOM     28  C   UNL A   1      42.065  30.257  35.849  1.00  0.00     0.029 A 
ATOM     29  N   UNL A   1      41.917  29.516  33.755  1.00  0.00    -0.354 N 
ATOM     30  N   UNL A   1      42.775  27.889  31.407  1.00  0.00    -0.248 NA
ATOM     31  C   UNL A   1      44.247  26.346  30.456  1.00  0.00     0.031 C 
ATOM     32  C   UNL A   1      43.097  29.338  35.624  1.00  0.00     0.029 A 
ATOM     33  C   UNL A   1      42.991  28.860  34.326  1.00  0.00     0.049 A 
ATOM     34  H   UNL A   1      41.613  29.400  32.826  1.00  0.00     0.167 HD
ATOM     35  C   UNL A   1      43.680  27.474  32.372  1.00  0.00     0.074 A 
ATOM     36  C   UNL A   1      44.537  26.491  31.740  1.00  0.00     0.031 C 
ATOM     37  C   UNL A   1      43.804  27.873  33.663  1.00  0.00     0.037 A 
BRANCH  24  38
ATOM     38  C   UNL A   1      39.571  32.014  35.498  1.00  0.00     0.064 A 
ATOM     39  C   UNL A   1      40.036  33.325  35.702  1.00  0.00     0.173 A 
ATOM     40  C   UNL A   1      38.605  31.516  36.383  1.00  0.00     0.173 A 
ATOM     41  F   UNL A   1      40.981  33.838  34.899  1.00  0.00    -0.203 F 
ATOM     42  C   UNL A   1      39.610  34.078  36.791  1.00  0.00     0.198 A 
ATOM     43  C   UNL A   1      38.151  32.290  37.450  1.00  0.00     0.198 A 
ATOM     44  F   UNL A   1      38.128  30.273  36.235  1.00  0.00    -0.203 F 
ATOM     45  F   UNL A   1      40.148  35.284  37.021  1.00  0.00    -0.200 F 
ATOM     46  C   UNL A   1      38.667  33.560  37.664  1.00  0.00     0.200 A 
ATOM     47  F   UNL A   1      37.234  31.792  38.292  1.00  0.00    -0.200 F 
ATOM     48  F   UNL A   1      38.270  34.278  38.724  1.00  0.00    -0.200 F 
ENDBRANCH  24  38
BRANCH  25  49
ATOM     49  C   UNL A   1      42.945  26.483  27.819  1.00  0.00     0.064 A 
ATOM     50  C   UNL A   1      43.847  27.057  26.910  1.00  0.00     0.173 A 
ATOM     51  C   UNL A   1      42.548  25.159  27.584  1.00  0.00     0.173 A 
ATOM     52  F   UNL A   1      44.252  28.324  27.082  1.00  0.00    -0.203 F 
ATOM     53  C   UNL A   1      44.296  26.356  25.790  1.00  0.00     0.198 A 
ATOM     54  C   UNL A   1      43.017  24.449  26.478  1.00  0.00     0.198 A 
ATOM     55  F   UNL A   1      41.701  24.552  28.428  1.00  0.00    -0.203 F 
ATOM     56  F   UNL A   1      45.108  26.955  24.909  1.00  0.00    -0.200 F 
ATOM     57  C   UNL A   1      43.881  25.053  25.575  1.00  0.00     0.200 A 
ATOM     58  F   UNL A   1      42.626  23.183  26.280  1.00  0.00    -0.200 F 
ATOM     59  F   UNL A   1      44.303  24.382  24.494  1.00  0.00    -0.200 F 
ENDBRANCH  25  49
BRANCH  37  60
ATOM     60  C   UNL A   1      44.882  27.221  34.471  1.00  0.00     0.064 A 
ATOM     61  C   UNL A   1      46.164  27.777  34.558  1.00  0.00     0.173 A 
ATOM     62  C   UNL A   1      44.613  26.053  35.199  1.00  0.00     0.173 A 
ATOM     63  F   UNL A   1      46.469  28.885  33.863  1.00  0.00    -0.203 F 
ATOM     64  C   UNL A   1      47.150  27.175  35.333  1.00  0.00     0.198 A 
ATOM     65  C   UNL A   1      45.592  25.468  35.993  1.00  0.00     0.198 A 
ATOM     66  F   UNL A   1      43.397  25.488  35.147  1.00  0.00    -0.203 F 
ATOM     67  F   UNL A   1      48.382  27.700  35.371  1.00  0.00    -0.200 F 
ATOM     68  C   UNL A   1      46.861  26.026  36.055  1.00  0.00     0.200 A 
ATOM     69  F   UNL A   1      45.311  24.365  36.699  1.00  0.00    -0.200 F 
ATOM     70  F   UNL A   1      47.809  25.452  36.807  1.00  0.00    -0.200 F 
ENDBRANCH  37  60
ENDBRANCH  11  12
ENDBRANCH   4   6
ENDBRANCH   3   4
ENDBRANCH   2   3
ENDBRANCH   1   2
BRANCH   1  71
ATOM     71  O   UNL A   1      32.504  27.326  26.327  1.00  0.00    -0.461 OA
BRANCH  71  72
ATOM     72  C   UNL A   1      31.645  26.303  26.040  1.00  0.00     0.317 C 
ATOM     73  O   UNL A   1      31.252  25.509  26.893  1.00  0.00    -0.251 OA
BRANCH  72  74
ATOM     74  C   UNL A   1      31.335  26.097  24.543  1.00  0.00     0.117 C 
ATOM     75  C   UNL A   1      31.439  24.668  23.964  1.00  0.00     0.030 C 
ATOM     76  C   UNL A   1      32.311  27.020  23.748  1.00  0.00     0.279 C 
ATOM     77  C   UNL A   1      32.828  24.221  23.490  1.00  0.00     0.063 C 
ATOM     78  N   UNL A   1      33.675  26.501  23.632  1.00  0.00    -0.345 N 
ATOM     79  C   UNL A   1      33.678  25.288  22.829  1.00  0.00     0.260 C 
ATOM     80  H   UNL A   1      34.268  27.202  23.188  1.00  0.00     0.346 HD
ATOM     81  H   UNL A   1      34.033  26.287  24.563  1.00  0.00     0.346 HD
BRANCH  74  82
ATOM     82  C   UNL A   1      29.889  26.659  24.309  1.00  0.00     0.029 C 
BRANCH  82  83
ATOM     83  C   UNL A   1      29.650  27.535  23.063  1.00  0.00     0.038 C 
BRANCH  83  84
ATOM     84  C   UNL A   1      29.026  28.891  23.243  1.00  0.00    -0.030 A 
ATOM     85  C   UNL A   1      29.765  30.015  23.616  1.00  0.00     0.007 A 
ATOM     86  C   UNL A   1      27.680  29.099  22.937  1.00  0.00     0.114 A 
ATOM     87  C   UNL A   1      29.145  31.260  23.699  1.00  0.00     0.020 A 
ATOM     88  N   UNL A   1      27.046  30.292  23.025  1.00  0.00    -0.264 NA
ATOM     89  C   UNL A   1      27.798  31.350  23.394  1.00  0.00     0.111 A 
ENDBRANCH  83  84
ENDBRANCH  82  83
ENDBRANCH  74  82
ENDBRANCH  72  74
ENDBRANCH  71  72
ENDBRANCH   1  71
TORSDOF 14
ENDMDL
MODEL 3
REMARK VINA RESULT:     -11.8      0.602      1.781
REMARK SMILES O=C(OCCOC(=O)[C@]1(CCc2cccnc2)CCC[NH2+]C1)c1ccc(-c2c3nc(c(-c4c(F)c(F)c(F)c(F)c4F)c4ccc([nH]4)c(-c4c(F)c(F)c(F)c(F)c4F)c4nc(c(-c5c(F)c(F)c(F)c(F)c5F)c5ccc2[nH]5)C=C4)C=C3)cc1
REMARK SMILES IDX 5 1 4 2 3 3 2 4 1 5 23 6 24 7 85 8 25 9 84 10 26 11 27 12
REMARK SMILES IDX 28 13 78 14 29 15 83 16 77 17 79 18 30 19 82 20 76 21 75 22
REMARK SMILES IDX 31 24 63 25 43 26 62 27 44 28 47 29 61 30 80 31 45 32 46 33
REMARK SMILES IDX 60 35 81 36 48 37 32 38 33 39 41 40 34 41 35 42 39 43 42 44
REMARK SMILES IDX 36 45 37 46 40 47 38 48 64 49 65 50 73 51 66 52 67 53 71 54
REMARK SMILES IDX 74 55 68 56 69 57 72 58 70 59 49 60 50 61 58 62 51 63 52 64
REMARK SMILES IDX 56 65 59 66 53 67 54 68 57 69 55 70 6 71 7 72 8 73 9 74
REMARK SMILES IDX 18 75 22 76 19 77 21 78 20 79 10 82 11 83 12 84 13 85 17 86
REMARK SMILES IDX 14 87 16 88 15 89
REMARK H PARENT 79 23 47 34 21 80 21 81
REMARK Flexibility Score: inf
ROOT
ATOM      1  C   UNL A   1      36.963  22.271  24.025  1.00  0.00     0.274 C 
ENDROOT
BRANCH   1   2
ATOM      2  C   UNL A   1      37.528  20.971  24.597  1.00  0.00     0.275 C 
BRANCH   2   3
ATOM      3  O   UNL A   1      38.030  21.031  25.936  1.00  0.00    -0.458 OA
BRANCH   3   4
ATOM      4  C   UNL A   1      39.320  21.130  26.302  1.00  0.00     0.338 C 
ATOM      5  O   UNL A   1      40.051  20.146  26.161  1.00  0.00    -0.246 OA
BRANCH   4   6
ATOM      6  C   UNL A   1      39.926  22.394  26.839  1.00  0.00     0.060 A 
ATOM      7  C   UNL A   1      40.957  22.518  27.776  1.00  0.00     0.016 A 
ATOM      8  C   UNL A   1      39.419  23.576  26.282  1.00  0.00     0.016 A 
ATOM      9  C   UNL A   1      41.530  23.766  28.065  1.00  0.00     0.010 A 
ATOM     10  C   UNL A   1      40.039  24.804  26.499  1.00  0.00     0.010 A 
ATOM     11  C   UNL A   1      41.094  24.917  27.406  1.00  0.00    -0.014 A 
BRANCH  11  12
ATOM     12  C   UNL A   1      41.629  26.259  27.743  1.00  0.00     0.031 A 
ATOM     13  C   UNL A   1      42.999  26.619  27.254  1.00  0.00     0.074 A 
ATOM     14  C   UNL A   1      40.945  27.109  28.534  1.00  0.00     0.049 A 
ATOM     15  N   UNL A   1      43.715  27.683  27.503  1.00  0.00    -0.248 NA
ATOM     16  C   UNL A   1      43.694  25.605  26.441  1.00  0.00     0.031 C 
ATOM     17  C   UNL A   1      39.670  26.809  29.175  1.00  0.00     0.029 A 
ATOM     18  N   UNL A   1      41.225  28.385  28.949  1.00  0.00    -0.354 N 
ATOM     19  C   UNL A   1      44.943  27.443  26.907  1.00  0.00     0.074 A 
ATOM     20  C   UNL A   1      44.923  26.087  26.412  1.00  0.00     0.031 C 
ATOM     21  C   UNL A   1      39.259  27.872  29.887  1.00  0.00     0.029 A 
ATOM     22  C   UNL A   1      40.245  28.937  29.744  1.00  0.00     0.049 A 
ATOM     23  H   UNL A   1      42.050  28.861  28.704  1.00  0.00     0.167 HD
ATOM     24  C   UNL A   1      45.968  28.303  26.710  1.00  0.00     0.037 A 
ATOM     25  C   UNL A   1      40.155  30.177  30.263  1.00  0.00     0.037 A 
ATOM     26  C   UNL A   1      45.935  29.672  27.132  1.00  0.00     0.049 A 
ATOM     27  C   UNL A   1      41.253  31.157  29.936  1.00  0.00     0.074 A 
ATOM     28  C   UNL A   1      46.872  30.666  26.934  1.00  0.00     0.029 A 
ATOM     29  N   UNL A   1      44.874  30.244  27.821  1.00  0.00    -0.354 N 
ATOM     30  N   UNL A   1      42.372  30.953  29.283  1.00  0.00    -0.248 NA
ATOM     31  C   UNL A   1      41.066  32.544  30.385  1.00  0.00     0.031 C 
ATOM     32  C   UNL A   1      46.373  31.846  27.499  1.00  0.00     0.029 A 
ATOM     33  C   UNL A   1      45.119  31.588  28.032  1.00  0.00     0.049 A 
ATOM     34  H   UNL A   1      44.067  29.764  28.116  1.00  0.00     0.167 HD
ATOM     35  C   UNL A   1      43.009  32.183  29.219  1.00  0.00     0.074 A 
ATOM     36  C   UNL A   1      42.138  33.135  29.878  1.00  0.00     0.031 C 
ATOM     37  C   UNL A   1      44.211  32.503  28.676  1.00  0.00     0.037 A 
BRANCH  24  38
ATOM     38  C   UNL A   1      47.142  27.772  25.944  1.00  0.00     0.064 A 
ATOM     39  C   UNL A   1      48.298  27.327  26.609  1.00  0.00     0.173 A 
ATOM     40  C   UNL A   1      47.157  27.785  24.543  1.00  0.00     0.173 A 
ATOM     41  F   UNL A   1      48.343  27.322  27.951  1.00  0.00    -0.203 F 
ATOM     42  C   UNL A   1      49.446  26.983  25.905  1.00  0.00     0.198 A 
ATOM     43  C   UNL A   1      48.297  27.401  23.839  1.00  0.00     0.198 A 
ATOM     44  F   UNL A   1      46.082  28.200  23.857  1.00  0.00    -0.203 F 
ATOM     45  F   UNL A   1      50.567  26.664  26.568  1.00  0.00    -0.200 F 
ATOM     46  C   UNL A   1      49.445  27.020  24.520  1.00  0.00     0.200 A 
ATOM     47  F   UNL A   1      48.296  27.429  22.499  1.00  0.00    -0.200 F 
ATOM     48  F   UNL A   1      50.557  26.706  23.840  1.00  0.00    -0.200 F 
ENDBRANCH  24  38
BRANCH  25  49
ATOM     49  C   UNL A   1      38.970  30.592  31.063  1.00  0.00     0.064 A 
ATOM     50  C   UNL A   1      37.848  31.167  30.445  1.00  0.00     0.173 A 
ATOM     51  C   UNL A   1      38.938  30.457  32.458  1.00  0.00     0.173 A 
ATOM     52  F   UNL A   1      37.830  31.328  29.113  1.00  0.00    -0.203 F 
ATOM     53  C   UNL A   1      36.764  31.630  31.191  1.00  0.00     0.198 A 
ATOM     54  C   UNL A   1      37.842  30.896  33.202  1.00  0.00     0.198 A 
ATOM     55  F   UNL A   1      39.973  29.899  33.103  1.00  0.00    -0.203 F 
ATOM     56  F   UNL A   1      35.737  32.230  30.575  1.00  0.00    -0.200 F 
ATOM     57  C   UNL A   1      36.762  31.494  32.569  1.00  0.00     0.200 A 
ATOM     58  F   UNL A   1      37.836  30.749  34.534  1.00  0.00    -0.200 F 
ATOM     59  F   UNL A   1      35.725  31.947  33.288  1.00  0.00    -0.200 F 
ENDBRANCH  25  49
BRANCH  37  60
ATOM     60  C   UNL A   1      44.625  33.938  28.750  1.00  0.00     0.064 A 
ATOM     61  C   UNL A   1      44.254  34.856  27.758  1.00  0.00     0.173 A 
ATOM     62  C   UNL A   1      45.363  34.408  29.846  1.00  0.00     0.173 A 
ATOM     63  F   UNL A   1      43.563  34.445  26.683  1.00  0.00    -0.203 F 
ATOM     64  C   UNL A   1      44.625  36.193  27.851  1.00  0.00     0.198 A 
ATOM     65  C   UNL A   1      45.709  35.750  29.949  1.00  0.00     0.198 A 
ATOM     66  F   UNL A   1      45.736  33.564  30.821  1.00  0.00    -0.203 F 
ATOM     67  F   UNL A   1      44.295  37.046  26.871  1.00  0.00    -0.200 F 
ATOM     68  C   UNL A   1      45.345  36.640  28.949  1.00  0.00     0.200 A 
ATOM     69  F   UNL A   1      46.395  36.184  31.014  1.00  0.00    -0.200 F 
ATOM     70  F   UNL A   1      45.694  37.930  29.040  1.00  0.00    -0.200 F 
ENDBRANCH  37  60
ENDBRANCH  11  12
ENDBRANCH   4   6
ENDBRANCH   3   4
ENDBRANCH   2   3
ENDBRANCH   1   2
BRANCH   1  71
ATOM     71  O   UNL A   1      35.570  22.259  23.631  1.00  0.00    -0.461 OA
BRANCH  71  72
ATOM     72  C   UNL A   1      34.737  22.884  24.515  1.00  0.00     0.317 C 
ATOM     73  O   UNL A   1      34.968  24.004  24.966  1.00  0.00    -0.251 OA
BRANCH  72  74
ATOM     74  C   UNL A   1      33.573  22.025  25.052  1.00  0.00     0.117 C 
ATOM     75  C   UNL A   1      32.318  22.747  25.591  1.00  0.00     0.030 C 
ATOM     76  C   UNL A   1      34.156  21.137  26.195  1.00  0.00     0.279 C 
ATOM     77  C   UNL A   1      32.356  23.180  27.061  1.00  0.00     0.063 C 
ATOM     78  N   UNL A   1      34.348  21.837  27.467  1.00  0.00    -0.345 N 
ATOM     79  C   UNL A   1      33.060  22.233  28.013  1.00  0.00     0.260 C 
ATOM     80  H   UNL A   1      34.819  21.219  28.127  1.00  0.00     0.346 HD
ATOM     81  H   UNL A   1      34.915  22.670  27.310  1.00  0.00     0.346 HD
BRANCH  74  82
ATOM     82  C   UNL A   1      33.167  21.054  23.888  1.00  0.00     0.029 C 
BRANCH  82  83
ATOM     83  C   UNL A   1      32.157  19.933  24.205  1.00  0.00     0.038 C 
BRANCH  83  84
ATOM     84  C   UNL A   1      32.660  18.521  24.321  1.00  0.00    -0.030 A 
ATOM     85  C   UNL A   1      33.347  17.879  23.289  1.00  0.00     0.007 A 
ATOM     86  C   UNL A   1      32.545  17.824  25.525  1.00  0.00     0.114 A 
ATOM     87  C   UNL A   1      33.850  16.594  23.480  1.00  0.00     0.020 A 
ATOM     88  N   UNL A   1      33.008  16.570  25.736  1.00  0.00    -0.264 NA
ATOM     89  C   UNL A   1      33.661  15.985  24.709  1.00  0.00     0.111 A 
ENDBRANCH  83  84
ENDBRANCH  82  83
ENDBRANCH  74  82
ENDBRANCH  72  74
ENDBRANCH  71  72
ENDBRANCH   1  71
TORSDOF 14
ENDMDL
