MODEL 1
REMARK VINA RESULT:     -12.8      0.000      0.000
REMARK SMILES Cc1ccc(C)c([C@@H](C)[C@](C)(O)C(=O)OCCOC(=O)c2ccc(-c3c4nc(c(-c5c(F)c(F)c(F)c(F)c5F)c5ccc([nH]5)c(-c5c(F)c(F)c(F)c(F)c5F)c5nc(c(-c6c(F)c(F)c(F)c(F)c6F)c6ccc3[nH]6)C=C5)C=C4)cc2)c1
REMARK SMILES IDX 16 1 15 2 13 3 14 4 10 5 11 6 8 7 9 8 7 9 1 10 2 11 3 12
REMARK SMILES IDX 84 13 4 14 5 15 6 16 12 17 17 19 18 20 19 21 20 22 21 23
REMARK SMILES IDX 22 24 83 25 23 26 82 27 24 28 25 29 26 30 76 31 27 32 81 33
REMARK SMILES IDX 75 34 77 35 28 36 80 37 74 38 73 39 29 41 61 42 41 43 60 44
REMARK SMILES IDX 42 45 45 46 59 47 78 48 43 49 44 50 58 52 79 53 46 54 30 55
REMARK SMILES IDX 31 56 39 57 32 58 33 59 37 60 40 61 34 62 35 63 38 64 36 65
REMARK SMILES IDX 62 66 63 67 71 68 64 69 65 70 69 71 72 72 66 73 67 74 70 75
REMARK SMILES IDX 68 76 47 77 48 78 56 79 49 80 50 81 54 82 57 83 51 84 52 85
REMARK SMILES IDX 55 86 53 87
REMARK H PARENT 12 18 77 40 45 51
REMARK Flexibility Score: inf
ROOT
ATOM      1  C   UNL A   1      39.539  21.778  26.173  1.00  0.00     0.274 C 
ENDROOT
BRANCH   1   2
ATOM      2  O   UNL A   1      38.158  22.079  25.881  1.00  0.00    -0.460 OA
BRANCH   2   3
ATOM      3  C   UNL A   1      37.494  21.065  25.239  1.00  0.00     0.338 C 
ATOM      4  O   UNL A   1      38.078  20.051  24.867  1.00  0.00    -0.249 OA
BRANCH   3   5
ATOM      5  C   UNL A   1      35.919  21.267  25.129  1.00  0.00     0.165 C 
ATOM      6  C   UNL A   1      35.352  19.825  24.953  1.00  0.00     0.055 C 
BRANCH   5   7
ATOM      7  C   UNL A   1      35.399  22.383  24.034  1.00  0.00     0.059 C 
ATOM      8  C   UNL A   1      36.545  23.009  23.202  1.00  0.00     0.016 C 
BRANCH   7   9
ATOM      9  C   UNL A   1      34.287  23.464  24.407  1.00  0.00    -0.039 A 
ATOM     10  C   UNL A   1      33.346  27.459  26.453  1.00  0.00     0.044 C 
ATOM     11  C   UNL A   1      33.214  26.078  25.923  1.00  0.00    -0.051 A 
ATOM     12  C   UNL A   1      31.544  25.492  25.627  1.00  0.00     0.004 A 
ATOM     13  C   UNL A   1      34.608  25.059  25.349  1.00  0.00     0.007 A 
ATOM     14  C   UNL A   1      31.252  23.957  24.666  1.00  0.00     0.004 A 
ATOM     15  C   UNL A   1      32.609  22.978  24.070  1.00  0.00    -0.048 A 
ATOM     16  C   UNL A   1      32.273  21.747  23.277  1.00  0.00     0.044 C 
ENDBRANCH   7   9
ENDBRANCH   5   7
BRANCH   5  17
ATOM     17  O   UNL A   1      35.306  21.705  26.365  1.00  0.00    -0.378 OA
ATOM     18  H   UNL A   1      35.998  21.925  27.008  1.00  0.00     0.212 HD
ENDBRANCH   5  17
ENDBRANCH   3   5
ENDBRANCH   2   3
ENDBRANCH   1   2
BRANCH   1  19
ATOM     19  C   UNL A   1      40.403  22.898  26.800  1.00  0.00     0.275 C 
BRANCH  19  20
ATOM     20  O   UNL A   1      40.028  24.252  26.495  1.00  0.00    -0.458 OA
BRANCH  20  21
ATOM     21  C   UNL A   1      40.539  25.330  27.146  1.00  0.00     0.338 C 
ATOM     22  O   UNL A   1      41.750  25.462  27.282  1.00  0.00    -0.246 OA
BRANCH  21  23
ATOM     23  C   UNL A   1      39.579  26.195  27.890  1.00  0.00     0.060 A 
ATOM     24  C   UNL A   1      39.644  27.487  27.504  1.00  0.00     0.016 A 
ATOM     25  C   UNL A   1      39.005  25.947  29.137  1.00  0.00     0.016 A 
ATOM     26  C   UNL A   1      39.749  28.405  28.539  1.00  0.00     0.010 A 
ATOM     27  C   UNL A   1      39.006  26.957  30.151  1.00  0.00     0.010 A 
ATOM     28  C   UNL A   1      39.662  28.187  29.964  1.00  0.00    -0.014 A 
BRANCH  28  29
ATOM     29  C   UNL A   1      40.042  29.356  31.329  1.00  0.00     0.031 A 
ATOM     30  C   UNL A   1      42.048  29.936  31.967  1.00  0.00     0.074 A 
ATOM     31  C   UNL A   1      38.653  29.959  31.535  1.00  0.00     0.049 A 
ATOM     32  N   UNL A   1      42.569  30.872  32.855  1.00  0.00    -0.248 NA
ATOM     33  C   UNL A   1      43.636  29.557  31.373  1.00  0.00     0.031 C 
ATOM     34  C   UNL A   1      37.277  29.439  31.266  1.00  0.00     0.029 A 
ATOM     35  N   UNL A   1      38.188  31.243  31.986  1.00  0.00    -0.354 N 
ATOM     36  C   UNL A   1      43.638  31.577  32.266  1.00  0.00     0.074 A 
ATOM     37  C   UNL A   1      44.326  30.689  31.415  1.00  0.00     0.031 C 
ATOM     38  C   UNL A   1      36.327  30.407  31.219  1.00  0.00     0.029 A 
ATOM     39  C   UNL A   1      36.917  31.661  31.582  1.00  0.00     0.049 A 
ATOM     40  H   UNL A   1      38.748  31.811  32.562  1.00  0.00     0.167 HD
ATOM     41  C   UNL A   1      43.743  32.930  32.410  1.00  0.00     0.037 A 
ATOM     42  C   UNL A   1      36.407  32.931  31.543  1.00  0.00     0.037 A 
ATOM     43  C   UNL A   1      43.108  33.358  33.627  1.00  0.00     0.049 A 
ATOM     44  C   UNL A   1      37.365  33.835  32.222  1.00  0.00     0.074 A 
ATOM     45  C   UNL A   1      43.269  32.921  34.924  1.00  0.00     0.029 A 
ATOM     46  N   UNL A   1      41.957  34.103  33.597  1.00  0.00    -0.354 N 
ATOM     47  N   UNL A   1      37.612  33.849  33.496  1.00  0.00    -0.248 NA
ATOM     48  C   UNL A   1      38.305  34.573  31.394  1.00  0.00     0.031 C 
ATOM     49  C   UNL A   1      41.996  33.052  35.523  1.00  0.00     0.029 A 
ATOM     50  C   UNL A   1      41.142  33.707  34.635  1.00  0.00     0.049 A 
ATOM     51  H   UNL A   1      41.748  34.806  32.940  1.00  0.00     0.167 HD
ATOM     52  C   UNL A   1      38.937  34.233  33.592  1.00  0.00     0.074 A 
ATOM     53  C   UNL A   1      39.278  34.773  32.283  1.00  0.00     0.031 C 
ATOM     54  C   UNL A   1      39.697  33.824  34.647  1.00  0.00     0.037 A 
BRANCH  41  55
ATOM     55  C   UNL A   1      44.236  33.911  31.372  1.00  0.00     0.064 A 
ATOM     56  C   UNL A   1      43.543  34.046  30.156  1.00  0.00     0.173 A 
ATOM     57  C   UNL A   1      45.529  34.468  31.397  1.00  0.00     0.173 A 
ATOM     58  F   UNL A   1      42.290  33.584  30.042  1.00  0.00    -0.203 F 
ATOM     59  C   UNL A   1      44.138  34.602  29.017  1.00  0.00     0.198 A 
ATOM     60  C   UNL A   1      46.141  34.990  30.249  1.00  0.00     0.198 A 
ATOM     61  F   UNL A   1      46.248  34.482  32.523  1.00  0.00    -0.203 F 
ATOM     62  F   UNL A   1      43.454  34.658  27.867  1.00  0.00    -0.200 F 
ATOM     63  C   UNL A   1      45.451  35.037  29.053  1.00  0.00     0.200 A 
ATOM     64  F   UNL A   1      47.420  35.395  30.295  1.00  0.00    -0.200 F 
ATOM     65  F   UNL A   1      46.052  35.481  27.940  1.00  0.00    -0.200 F 
ENDBRANCH  41  55
BRANCH  42  66
ATOM     66  C   UNL A   1      35.303  33.551  30.734  1.00  0.00     0.064 A 
ATOM     67  C   UNL A   1      34.264  34.305  31.334  1.00  0.00     0.173 A 
ATOM     68  C   UNL A   1      35.413  33.683  29.340  1.00  0.00     0.173 A 
ATOM     69  F   UNL A   1      34.096  34.293  32.666  1.00  0.00    -0.203 F 
ATOM     70  C   UNL A   1      33.424  35.153  30.591  1.00  0.00     0.198 A 
ATOM     71  C   UNL A   1      34.575  34.526  28.600  1.00  0.00     0.198 A 
ATOM     72  F   UNL A   1      36.405  33.074  28.678  1.00  0.00    -0.203 F 
ATOM     73  F   UNL A   1      32.498  35.901  31.210  1.00  0.00    -0.200 F 
ATOM     74  C   UNL A   1      33.590  35.271  29.224  1.00  0.00     0.200 A 
ATOM     75  F   UNL A   1      34.775  34.664  27.281  1.00  0.00    -0.200 F 
ATOM     76  F   UNL A   1      32.840  36.129  28.517  1.00  0.00    -0.200 F 
ENDBRANCH  42  66
BRANCH  54  77
ATOM     77  C   UNL A   1      38.967  33.268  35.853  1.00  0.00     0.064 A 
ATOM     78  C   UNL A   1      38.536  31.935  35.989  1.00  0.00     0.173 A 
ATOM     79  C   UNL A   1      38.809  34.100  36.972  1.00  0.00     0.173 A 
ATOM     80  F   UNL A   1      38.729  31.040  35.010  1.00  0.00    -0.203 F 
ATOM     81  C   UNL A   1      37.949  31.474  37.168  1.00  0.00     0.198 A 
ATOM     82  C   UNL A   1      38.270  33.624  38.165  1.00  0.00     0.198 A 
ATOM     83  F   UNL A   1      39.234  35.373  36.929  1.00  0.00    -0.203 F 
ATOM     84  F   UNL A   1      37.532  30.202  37.258  1.00  0.00    -0.200 F 
ATOM     85  C   UNL A   1      37.828  32.316  38.259  1.00  0.00     0.200 A 
ATOM     86  F   UNL A   1      38.208  34.431  39.233  1.00  0.00    -0.200 F 
ATOM     87  F   UNL A   1      37.308  31.863  39.408  1.00  0.00    -0.200 F 
ENDBRANCH  54  77
ENDBRANCH  28  29
ENDBRANCH  21  23
ENDBRANCH  20  21
ENDBRANCH  19  20
ENDBRANCH   1  19
TORSDOF 14
ENDMDL
MODEL 2
REMARK VINA RESULT:     -12.7      1.516      2.129
REMARK SMILES Cc1ccc(C)c([C@@H](C)[C@](C)(O)C(=O)OCCOC(=O)c2ccc(-c3c4nc(c(-c5c(F)c(F)c(F)c(F)c5F)c5ccc([nH]5)c(-c5c(F)c(F)c(F)c(F)c5F)c5nc(c(-c6c(F)c(F)c(F)c(F)c6F)c6ccc3[nH]6)C=C5)C=C4)cc2)c1
REMARK SMILES IDX 16 1 15 2 13 3 14 4 10 5 11 6 8 7 9 8 7 9 1 10 2 11 3 12
REMARK SMILES IDX 84 13 4 14 5 15 6 16 12 17 17 19 18 20 19 21 20 22 21 23
REMARK SMILES IDX 22 24 83 25 23 26 82 27 24 28 25 29 26 30 76 31 27 32 81 33
REMARK SMILES IDX 75 34 77 35 28 36 80 37 74 38 73 39 29 41 61 42 41 43 60 44
REMARK SMILES IDX 42 45 45 46 59 47 78 48 43 49 44 50 58 52 79 53 46 54 30 55
REMARK SMILES IDX 31 56 39 57 32 58 33 59 37 60 40 61 34 62 35 63 38 64 36 65
REMARK SMILES IDX 62 66 63 67 71 68 64 69 65 70 69 71 72 72 66 73 67 74 70 75
REMARK SMILES IDX 68 76 47 77 48 78 56 79 49 80 50 81 54 82 57 83 51 84 52 85
REMARK SMILES IDX 55 86 53 87
REMARK H PARENT 12 18 77 40 45 51
REMARK Flexibility Score: inf
ROOT
ATOM      1  C   UNL A   1      39.945  21.933  26.953  1.00  0.00     0.274 C 
ENDROOT
BRANCH   1   2
ATOM      2  O   UNL A   1      39.141  21.749  25.768  1.00  0.00    -0.460 OA
BRANCH   2   3
ATOM      3  C   UNL A   1      37.965  22.456  25.781  1.00  0.00     0.338 C 
ATOM      4  O   UNL A   1      37.944  23.659  26.023  1.00  0.00    -0.249 OA
BRANCH   3   5
ATOM      5  C   UNL A   1      36.682  21.620  25.351  1.00  0.00     0.165 C 
ATOM      6  C   UNL A   1      37.235  20.202  25.010  1.00  0.00     0.055 C 
BRANCH   5   7
ATOM      7  C   UNL A   1      35.709  22.305  24.211  1.00  0.00     0.059 C 
ATOM      8  C   UNL A   1      36.487  22.875  23.000  1.00  0.00     0.016 C 
BRANCH   7   9
ATOM      9  C   UNL A   1      34.484  23.243  24.614  1.00  0.00    -0.039 A 
ATOM     10  C   UNL A   1      33.133  27.285  26.309  1.00  0.00     0.044 C 
ATOM     11  C   UNL A   1      33.174  25.841  25.962  1.00  0.00    -0.051 A 
ATOM     12  C   UNL A   1      31.605  24.972  25.974  1.00  0.00     0.004 A 
ATOM     13  C   UNL A   1      34.641  24.981  25.315  1.00  0.00     0.007 A 
ATOM     14  C   UNL A   1      31.463  23.296  25.244  1.00  0.00     0.004 A 
ATOM     15  C   UNL A   1      32.884  22.465  24.576  1.00  0.00    -0.048 A 
ATOM     16  C   UNL A   1      32.669  21.101  23.982  1.00  0.00     0.044 C 
ENDBRANCH   7   9
ENDBRANCH   5   7
BRANCH   5  17
ATOM     17  O   UNL A   1      35.774  21.354  26.446  1.00  0.00    -0.378 OA
ATOM     18  H   UNL A   1      36.283  21.181  27.253  1.00  0.00     0.212 HD
ENDBRANCH   5  17
ENDBRANCH   3   5
ENDBRANCH   2   3
ENDBRANCH   1   2
BRANCH   1  19
ATOM     19  C   UNL A   1      41.409  22.398  26.764  1.00  0.00     0.275 C 
BRANCH  19  20
ATOM     20  O   UNL A   1      41.621  23.539  25.916  1.00  0.00    -0.458 OA
BRANCH  20  21
ATOM     21  C   UNL A   1      41.981  24.762  26.389  1.00  0.00     0.338 C 
ATOM     22  O   UNL A   1      43.163  25.075  26.475  1.00  0.00    -0.246 OA
BRANCH  21  23
ATOM     23  C   UNL A   1      40.915  25.590  27.021  1.00  0.00     0.060 A 
ATOM     24  C   UNL A   1      40.833  26.825  26.481  1.00  0.00     0.016 A 
ATOM     25  C   UNL A   1      40.354  25.428  28.288  1.00  0.00     0.016 A 
ATOM     26  C   UNL A   1      40.812  27.866  27.396  1.00  0.00     0.010 A 
ATOM     27  C   UNL A   1      40.219  26.545  29.171  1.00  0.00     0.010 A 
ATOM     28  C   UNL A   1      40.729  27.812  28.838  1.00  0.00    -0.014 A 
BRANCH  28  29
ATOM     29  C   UNL A   1      40.946  29.175  30.050  1.00  0.00     0.031 A 
ATOM     30  C   UNL A   1      42.857  30.083  30.593  1.00  0.00     0.074 A 
ATOM     31  C   UNL A   1      39.490  29.610  30.200  1.00  0.00     0.049 A 
ATOM     32  N   UNL A   1      43.247  31.177  31.359  1.00  0.00    -0.248 NA
ATOM     33  C   UNL A   1      44.483  29.847  30.030  1.00  0.00     0.031 C 
ATOM     34  C   UNL A   1      38.195  28.887  30.010  1.00  0.00     0.029 A 
ATOM     35  N   UNL A   1      38.858  30.867  30.502  1.00  0.00    -0.354 N 
ATOM     36  C   UNL A   1      44.216  31.941  30.679  1.00  0.00     0.074 A 
ATOM     37  C   UNL A   1      45.019  31.057  29.930  1.00  0.00     0.031 C 
ATOM     38  C   UNL A   1      37.127  29.710  29.860  1.00  0.00     0.029 A 
ATOM     39  C   UNL A   1      37.545  31.065  30.066  1.00  0.00     0.049 A 
ATOM     40  H   UNL A   1      39.337  31.567  31.001  1.00  0.00     0.167 HD
ATOM     41  C   UNL A   1      44.142  33.304  30.661  1.00  0.00     0.037 A 
ATOM     42  C   UNL A   1      36.873  32.244  29.883  1.00  0.00     0.037 A 
ATOM     43  C   UNL A   1      43.452  33.786  31.827  1.00  0.00     0.049 A 
ATOM     44  C   UNL A   1      37.702  33.339  30.440  1.00  0.00     0.074 A 
ATOM     45  C   UNL A   1      43.663  33.531  33.164  1.00  0.00     0.029 A 
ATOM     46  N   UNL A   1      42.214  34.366  31.722  1.00  0.00    -0.354 N 
ATOM     47  N   UNL A   1      37.940  33.535  31.702  1.00  0.00    -0.248 NA
ATOM     48  C   UNL A   1      38.540  34.090  29.521  1.00  0.00     0.031 C 
ATOM     49  C   UNL A   1      42.382  33.564  33.758  1.00  0.00     0.029 A 
ATOM     50  C   UNL A   1      41.453  33.992  32.808  1.00  0.00     0.049 A 
ATOM     51  H   UNL A   1      41.917  34.952  30.990  1.00  0.00     0.167 HD
ATOM     52  C   UNL A   1      39.203  34.098  31.737  1.00  0.00     0.074 A 
ATOM     53  C   UNL A   1      39.475  34.519  30.370  1.00  0.00     0.031 C 
ATOM     54  C   UNL A   1      40.005  33.920  32.823  1.00  0.00     0.037 A 
BRANCH  41  55
ATOM     55  C   UNL A   1      44.507  34.211  29.509  1.00  0.00     0.064 A 
ATOM     56  C   UNL A   1      43.595  34.401  28.456  1.00  0.00     0.173 A 
ATOM     57  C   UNL A   1      45.827  34.627  29.249  1.00  0.00     0.173 A 
ATOM     58  F   UNL A   1      42.305  34.075  28.617  1.00  0.00    -0.203 F 
ATOM     59  C   UNL A   1      43.995  34.874  27.200  1.00  0.00     0.198 A 
ATOM     60  C   UNL A   1      46.237  35.064  27.982  1.00  0.00     0.198 A 
ATOM     61  F   UNL A   1      46.761  34.581  30.203  1.00  0.00    -0.203 F 
ATOM     62  F   UNL A   1      43.097  34.986  26.213  1.00  0.00    -0.200 F 
ATOM     63  C   UNL A   1      45.324  35.167  26.952  1.00  0.00     0.200 A 
ATOM     64  F   UNL A   1      47.533  35.330  27.751  1.00  0.00    -0.200 F 
ATOM     65  F   UNL A   1      45.723  35.528  25.724  1.00  0.00    -0.200 F 
ENDBRANCH  41  55
BRANCH  42  66
ATOM     66  C   UNL A   1      35.701  32.614  29.020  1.00  0.00     0.064 A 
ATOM     67  C   UNL A   1      35.231  31.765  27.987  1.00  0.00     0.173 A 
ATOM     68  C   UNL A   1      34.829  33.650  29.390  1.00  0.00     0.173 A 
ATOM     69  F   UNL A   1      35.961  30.713  27.586  1.00  0.00    -0.203 F 
ATOM     70  C   UNL A   1      33.965  31.929  27.397  1.00  0.00     0.198 A 
ATOM     71  C   UNL A   1      33.569  33.814  28.801  1.00  0.00     0.198 A 
ATOM     72  F   UNL A   1      35.139  34.467  30.405  1.00  0.00    -0.203 F 
ATOM     73  F   UNL A   1      33.533  31.060  26.470  1.00  0.00    -0.200 F 
ATOM     74  C   UNL A   1      33.130  32.948  27.815  1.00  0.00     0.200 A 
ATOM     75  F   UNL A   1      32.752  34.780  29.246  1.00  0.00    -0.200 F 
ATOM     76  F   UNL A   1      31.895  33.069  27.308  1.00  0.00    -0.200 F 
ENDBRANCH  42  66
BRANCH  54  77
ATOM     77  C   UNL A   1      39.349  33.420  34.094  1.00  0.00     0.064 A 
ATOM     78  C   UNL A   1      39.075  32.069  34.382  1.00  0.00     0.173 A 
ATOM     79  C   UNL A   1      39.102  34.346  35.120  1.00  0.00     0.173 A 
ATOM     80  F   UNL A   1      39.365  31.100  33.502  1.00  0.00    -0.203 F 
ATOM     81  C   UNL A   1      38.551  31.676  35.613  1.00  0.00     0.198 A 
ATOM     82  C   UNL A   1      38.626  33.945  36.366  1.00  0.00     0.198 A 
ATOM     83  F   UNL A   1      39.377  35.646  34.932  1.00  0.00    -0.203 F 
ATOM     84  F   UNL A   1      38.284  30.382  35.848  1.00  0.00    -0.200 F 
ATOM     85  C   UNL A   1      38.339  32.613  36.609  1.00  0.00     0.200 A 
ATOM     86  F   UNL A   1      38.476  34.851  37.342  1.00  0.00    -0.200 F 
ATOM     87  F   UNL A   1      37.879  32.232  37.809  1.00  0.00    -0.200 F 
ENDBRANCH  54  77
ENDBRANCH  28  29
ENDBRANCH  21  23
ENDBRANCH  20  21
ENDBRANCH  19  20
ENDBRANCH   1  19
TORSDOF 14
ENDMDL
MODEL 3
REMARK VINA RESULT:     -12.6      1.213      2.339
REMARK SMILES Cc1ccc(C)c([C@@H](C)[C@](C)(O)C(=O)OCCOC(=O)c2ccc(-c3c4nc(c(-c5c(F)c(F)c(F)c(F)c5F)c5ccc([nH]5)c(-c5c(F)c(F)c(F)c(F)c5F)c5nc(c(-c6c(F)c(F)c(F)c(F)c6F)c6ccc3[nH]6)C=C5)C=C4)cc2)c1
REMARK SMILES IDX 16 1 15 2 13 3 14 4 10 5 11 6 8 7 9 8 7 9 1 10 2 11 3 12
REMARK SMILES IDX 84 13 4 14 5 15 6 16 12 17 17 19 18 20 19 21 20 22 21 23
REMARK SMILES IDX 22 24 83 25 23 26 82 27 24 28 25 29 26 30 76 31 27 32 81 33
REMARK SMILES IDX 75 34 77 35 28 36 80 37 74 38 73 39 29 41 61 42 41 43 60 44
REMARK SMILES IDX 42 45 45 46 59 47 78 48 43 49 44 50 58 52 79 53 46 54 30 55
REMARK SMILES IDX 31 56 39 57 32 58 33 59 37 60 40 61 34 62 35 63 38 64 36 65
REMARK SMILES IDX 62 66 63 67 71 68 64 69 65 70 69 71 72 72 66 73 67 74 70 75
REMARK SMILES IDX 68 76 47 77 48 78 56 79 49 80 50 81 54 82 57 83 51 84 52 85
REMARK SMILES IDX 55 86 53 87
REMARK H PARENT 12 18 77 40 45 51
REMARK Flexibility Score: inf
ROOT
ATOM      1  C   UNL A   1      39.175  22.547  26.422  1.00  0.00     0.274 C 
ENDROOT
BRANCH   1   2
ATOM      2  O   UNL A   1      37.845  23.024  26.129  1.00  0.00    -0.460 OA
BRANCH   2   3
ATOM      3  C   UNL A   1      37.142  22.215  25.273  1.00  0.00     0.338 C 
ATOM      4  O   UNL A   1      37.555  21.101  24.959  1.00  0.00    -0.249 OA
BRANCH   3   5
ATOM      5  C   UNL A   1      35.726  22.787  24.828  1.00  0.00     0.165 C 
ATOM      6  C   UNL A   1      35.795  24.307  25.168  1.00  0.00     0.055 C 
BRANCH   5   7
ATOM      7  C   UNL A   1      34.401  21.984  25.390  1.00  0.00     0.059 C 
ATOM      8  C   UNL A   1      34.446  21.715  26.913  1.00  0.00     0.016 C 
BRANCH   7   9
ATOM      9  C   UNL A   1      33.772  20.753  24.595  1.00  0.00    -0.039 A 
ATOM     10  C   UNL A   1      33.990  16.268  23.659  1.00  0.00     0.044 C 
ATOM     11  C   UNL A   1      33.750  17.728  23.529  1.00  0.00    -0.051 A 
ATOM     12  C   UNL A   1      32.552  18.234  22.294  1.00  0.00     0.004 A 
ATOM     13  C   UNL A   1      34.402  18.983  24.675  1.00  0.00     0.007 A 
ATOM     14  C   UNL A   1      31.916  19.954  22.262  1.00  0.00     0.004 A 
ATOM     15  C   UNL A   1      32.521  21.175  23.403  1.00  0.00    -0.048 A 
ATOM     16  C   UNL A   1      31.928  22.553  23.314  1.00  0.00     0.044 C 
ENDBRANCH   7   9
ENDBRANCH   5   7
BRANCH   5  17
ATOM     17  O   UNL A   1      35.530  22.787  23.393  1.00  0.00    -0.378 OA
ATOM     18  H   UNL A   1      35.493  23.702  23.073  1.00  0.00     0.212 HD
ENDBRANCH   5  17
ENDBRANCH   3   5
ENDBRANCH   2   3
ENDBRANCH   1   2
BRANCH   1  19
ATOM     19  C   UNL A   1      40.178  23.548  27.044  1.00  0.00     0.275 C 
BRANCH  19  20
ATOM     20  O   UNL A   1      40.144  24.894  26.541  1.00  0.00    -0.458 OA
BRANCH  20  21
ATOM     21  C   UNL A   1      40.573  25.968  27.256  1.00  0.00     0.338 C 
ATOM     22  O   UNL A   1      41.769  26.206  27.369  1.00  0.00    -0.246 OA
BRANCH  21  23
ATOM     23  C   UNL A   1      39.562  26.679  28.091  1.00  0.00     0.060 A 
ATOM     24  C   UNL A   1      39.526  28.004  27.837  1.00  0.00     0.016 A 
ATOM     25  C   UNL A   1      39.024  26.264  29.309  1.00  0.00     0.016 A 
ATOM     26  C   UNL A   1      39.576  28.819  28.959  1.00  0.00     0.010 A 
ATOM     27  C   UNL A   1      38.964  27.164  30.420  1.00  0.00     0.010 A 
ATOM     28  C   UNL A   1      39.525  28.451  30.355  1.00  0.00    -0.014 A 
BRANCH  28  29
ATOM     29  C   UNL A   1      39.835  29.503  31.829  1.00  0.00     0.031 A 
ATOM     30  C   UNL A   1      41.807  30.046  32.594  1.00  0.00     0.074 A 
ATOM     31  C   UNL A   1      38.431  30.070  32.032  1.00  0.00     0.049 A 
ATOM     32  N   UNL A   1      42.280  30.907  33.579  1.00  0.00    -0.248 NA
ATOM     33  C   UNL A   1      43.422  29.736  32.033  1.00  0.00     0.031 C 
ATOM     34  C   UNL A   1      37.075  29.561  31.664  1.00  0.00     0.029 A 
ATOM     35  N   UNL A   1      37.931  31.305  32.572  1.00  0.00    -0.354 N 
ATOM     36  C   UNL A   1      43.361  31.672  33.096  1.00  0.00     0.074 A 
ATOM     37  C   UNL A   1      44.094  30.868  32.200  1.00  0.00     0.031 C 
ATOM     38  C   UNL A   1      36.113  30.519  31.663  1.00  0.00     0.029 A 
ATOM     39  C   UNL A   1      36.671  31.744  32.156  1.00  0.00     0.049 A 
ATOM     40  H   UNL A   1      38.461  31.827  33.217  1.00  0.00     0.167 HD
ATOM     41  C   UNL A   1      43.441  33.008  33.360  1.00  0.00     0.037 A 
ATOM     42  C   UNL A   1      36.145  33.007  32.206  1.00  0.00     0.037 A 
ATOM     43  C   UNL A   1      42.754  33.322  34.583  1.00  0.00     0.049 A 
ATOM     44  C   UNL A   1      37.064  33.858  32.997  1.00  0.00     0.074 A 
ATOM     45  C   UNL A   1      42.871  32.777  35.843  1.00  0.00     0.029 A 
ATOM     46  N   UNL A   1      41.596  34.055  34.572  1.00  0.00    -0.354 N 
ATOM     47  N   UNL A   1      37.262  33.765  34.277  1.00  0.00    -0.248 NA
ATOM     48  C   UNL A   1      38.025  34.675  32.274  1.00  0.00     0.031 C 
ATOM     49  C   UNL A   1      41.575  32.842  36.401  1.00  0.00     0.029 A 
ATOM     50  C   UNL A   1      40.747  33.562  35.539  1.00  0.00     0.049 A 
ATOM     51  H   UNL A   1      41.402  34.810  33.970  1.00  0.00     0.167 HD
ATOM     52  C   UNL A   1      38.576  34.153  34.459  1.00  0.00     0.074 A 
ATOM     53  C   UNL A   1      38.959  34.808  33.216  1.00  0.00     0.031 C 
ATOM     54  C   UNL A   1      39.301  33.663  35.503  1.00  0.00     0.037 A 
BRANCH  41  55
ATOM     55  C   UNL A   1      43.961  34.080  32.430  1.00  0.00     0.064 A 
ATOM     56  C   UNL A   1      43.157  34.530  31.368  1.00  0.00     0.173 A 
ATOM     57  C   UNL A   1      45.322  34.434  32.352  1.00  0.00     0.173 A 
ATOM     58  F   UNL A   1      41.840  34.280  31.369  1.00  0.00    -0.203 F 
ATOM     59  C   UNL A   1      43.694  35.192  30.257  1.00  0.00     0.198 A 
ATOM     60  C   UNL A   1      45.867  35.063  31.224  1.00  0.00     0.198 A 
ATOM     61  F   UNL A   1      46.165  34.141  33.346  1.00  0.00    -0.203 F 
ATOM     62  F   UNL A   1      42.894  35.553  29.245  1.00  0.00    -0.200 F 
ATOM     63  C   UNL A   1      45.055  35.423  30.167  1.00  0.00     0.200 A 
ATOM     64  F   UNL A   1      47.192  35.266  31.145  1.00  0.00    -0.200 F 
ATOM     65  F   UNL A   1      45.581  35.971  29.063  1.00  0.00    -0.200 F 
ENDBRANCH  41  55
BRANCH  42  66
ATOM     66  C   UNL A   1      35.065  33.683  31.410  1.00  0.00     0.064 A 
ATOM     67  C   UNL A   1      34.131  34.565  32.009  1.00  0.00     0.173 A 
ATOM     68  C   UNL A   1      35.118  33.725  30.008  1.00  0.00     0.173 A 
ATOM     69  F   UNL A   1      34.029  34.643  33.345  1.00  0.00    -0.203 F 
ATOM     70  C   UNL A   1      33.338  35.445  31.253  1.00  0.00     0.198 A 
ATOM     71  C   UNL A   1      34.326  34.601  29.255  1.00  0.00     0.198 A 
ATOM     72  F   UNL A   1      36.015  32.987  29.341  1.00  0.00    -0.203 F 
ATOM     73  F   UNL A   1      32.517  36.312  31.866  1.00  0.00    -0.200 F 
ATOM     74  C   UNL A   1      33.446  35.470  29.875  1.00  0.00     0.200 A 
ATOM     75  F   UNL A   1      34.472  34.645  27.923  1.00  0.00    -0.200 F 
ATOM     76  F   UNL A   1      32.745  36.355  29.151  1.00  0.00    -0.200 F 
ENDBRANCH  42  66
BRANCH  54  77
ATOM     77  C   UNL A   1      38.533  32.997  36.627  1.00  0.00     0.064 A 
ATOM     78  C   UNL A   1      38.144  31.643  36.646  1.00  0.00     0.173 A 
ATOM     79  C   UNL A   1      38.289  33.740  37.793  1.00  0.00     0.173 A 
ATOM     80  F   UNL A   1      38.418  30.829  35.618  1.00  0.00    -0.203 F 
ATOM     81  C   UNL A   1      37.517  31.079  37.757  1.00  0.00     0.198 A 
ATOM     82  C   UNL A   1      37.709  33.161  38.919  1.00  0.00     0.198 A 
ATOM     83  F   UNL A   1      38.668  35.025  37.862  1.00  0.00    -0.203 F 
ATOM     84  F   UNL A   1      37.143  29.790  37.735  1.00  0.00    -0.200 F 
ATOM     85  C   UNL A   1      37.311  31.835  38.897  1.00  0.00     0.200 A 
ATOM     86  F   UNL A   1      37.564  33.885  40.037  1.00  0.00    -0.200 F 
ATOM     87  F   UNL A   1      36.752  31.283  39.982  1.00  0.00    -0.200 F 
ENDBRANCH  54  77
ENDBRANCH  28  29
ENDBRANCH  21  23
ENDBRANCH  20  21
ENDBRANCH  19  20
ENDBRANCH   1  19
TORSDOF 14
ENDMDL
