MODEL 1
REMARK VINA RESULT:     -12.9      0.000      0.000
REMARK SMILES CS(=O)(=O)c1ccc(/C=C(/C(=O)OCCOC(=O)c2ccc(-c3c4nc(c(-c5c(F)c(F)c(F)c(F)c5F)c5ccc([nH]5)c(-c5c(F)c(F)c(F)c(F)c5F)c5nc(c(-c6c(F)c(F)c(F)c(F)c6F)c6ccc3[nH]6)C=C5)C=C4)cc2)c2cccc(Br)c2)cc1
REMARK SMILES IDX 14 1 13 2 11 3 12 4 10 5 9 6 8 7 5 8 6 9 90 10 7 11 89 12
REMARK SMILES IDX 2 13 1 14 3 15 4 16 82 17 83 18 88 19 84 20 86 21 85 22
REMARK SMILES IDX 87 23 15 24 16 25 17 26 18 27 19 28 20 29 81 30 21 31 80 32
REMARK SMILES IDX 22 33 23 34 24 35 74 36 25 37 79 38 73 39 75 40 26 41 78 42
REMARK SMILES IDX 72 43 71 44 27 46 59 47 39 48 58 49 40 50 43 51 57 52 76 53
REMARK SMILES IDX 41 54 42 55 56 57 77 58 44 59 28 60 29 61 37 62 30 63 31 64
REMARK SMILES IDX 35 65 38 66 32 67 33 68 36 69 34 70 60 71 61 72 69 73 62 74
REMARK SMILES IDX 63 75 67 76 70 77 64 78 65 79 68 80 66 81 45 82 46 83 54 84
REMARK SMILES IDX 47 85 48 86 52 87 55 88 49 89 50 90 53 91 51 92
REMARK H PARENT 75 45 43 56
REMARK Flexibility Score: inf
ROOT
ATOM      1  C   UNL A   1      34.815  22.609  24.636  1.00  0.00     0.275 C 
ENDROOT
BRANCH   1   2
ATOM      2  O   UNL A   1      34.606  24.031  24.775  1.00  0.00    -0.458 OA
BRANCH   2   3
ATOM      3  C   UNL A   1      33.588  24.391  25.598  1.00  0.00     0.338 C 
ATOM      4  O   UNL A   1      33.294  23.839  26.650  1.00  0.00    -0.246 OA
BRANCH   3   5
ATOM      5  C   UNL A   1      32.865  25.602  25.102  1.00  0.00     0.067 C 
ATOM      6  C   UNL A   1      32.135  25.508  23.966  1.00  0.00     0.024 C 
BRANCH   6   7
ATOM      7  C   UNL A   1      31.130  26.469  23.447  1.00  0.00    -0.025 A 
ATOM      8  C   UNL A   1      29.187  28.403  22.826  1.00  0.00     0.067 A 
ATOM      9  C   UNL A   1      30.486  28.561  22.361  1.00  0.00     0.021 A 
ATOM     10  C   UNL A   1      28.816  27.243  23.509  1.00  0.00     0.021 A 
ATOM     11  C   UNL A   1      31.434  27.576  22.642  1.00  0.00     0.009 A 
ATOM     12  C   UNL A   1      29.791  26.288  23.824  1.00  0.00     0.009 A 
BRANCH   8  13
ATOM     13  S   UNL A   1      27.990  29.685  22.557  1.00  0.00     0.175 S 
ATOM     14  C   UNL A   1      28.680  31.074  23.424  1.00  0.00     0.163 C 
ATOM     15  O   UNL A   1      26.774  29.281  23.221  1.00  0.00    -0.224 OA
ATOM     16  O   UNL A   1      28.001  30.008  21.139  1.00  0.00    -0.224 OA
ENDBRANCH   8  13
ENDBRANCH   6   7
BRANCH   5  17
ATOM     17  C   UNL A   1      32.844  26.794  25.971  1.00  0.00    -0.010 A 
ATOM     18  C   UNL A   1      31.671  27.106  26.680  1.00  0.00     0.009 A 
ATOM     19  C   UNL A   1      33.996  27.562  26.175  1.00  0.00     0.024 A 
ATOM     20  C   UNL A   1      31.664  28.141  27.616  1.00  0.00     0.002 A 
ATOM     21  C   UNL A   1      33.976  28.602  27.106  1.00  0.00     0.018 A 
ATOM     22  C   UNL A   1      32.820  28.889  27.833  1.00  0.00     0.016 A 
ATOM     23  Br  UNL A   1      35.545  29.610  27.413  1.00  0.00    -0.051 Br
ENDBRANCH   5  17
ENDBRANCH   3   5
ENDBRANCH   2   3
ENDBRANCH   1   2
BRANCH   1  24
ATOM     24  C   UNL A   1      36.302  22.290  24.482  1.00  0.00     0.275 C 
BRANCH  24  25
ATOM     25  O   UNL A   1      36.842  21.853  25.743  1.00  0.00    -0.458 OA
BRANCH  25  26
ATOM     26  C   UNL A   1      38.184  21.702  25.786  1.00  0.00     0.338 C 
ATOM     27  O   UNL A   1      38.852  20.824  25.262  1.00  0.00    -0.246 OA
BRANCH  26  28
ATOM     28  C   UNL A   1      38.802  22.805  26.545  1.00  0.00     0.060 A 
ATOM     29  C   UNL A   1      38.267  24.083  26.463  1.00  0.00     0.016 A 
ATOM     30  C   UNL A   1      40.029  22.608  27.179  1.00  0.00     0.016 A 
ATOM     31  C   UNL A   1      39.025  25.178  26.875  1.00  0.00     0.010 A 
ATOM     32  C   UNL A   1      40.729  23.703  27.705  1.00  0.00     0.010 A 
ATOM     33  C   UNL A   1      40.272  25.017  27.501  1.00  0.00    -0.014 A 
BRANCH  33  34
ATOM     34  C   UNL A   1      41.109  26.205  27.870  1.00  0.00     0.031 A 
ATOM     35  C   UNL A   1      40.549  27.301  28.752  1.00  0.00     0.074 A 
ATOM     36  C   UNL A   1      42.390  26.312  27.459  1.00  0.00     0.049 A 
ATOM     37  N   UNL A   1      41.023  28.501  28.989  1.00  0.00    -0.248 NA
ATOM     38  C   UNL A   1      39.283  27.019  29.446  1.00  0.00     0.031 C 
ATOM     39  C   UNL A   1      43.113  25.326  26.657  1.00  0.00     0.029 A 
ATOM     40  N   UNL A   1      43.324  27.301  27.676  1.00  0.00    -0.354 N 
ATOM     41  C   UNL A   1      40.074  29.142  29.779  1.00  0.00     0.074 A 
ATOM     42  C   UNL A   1      39.004  28.191  29.999  1.00  0.00     0.031 C 
ATOM     43  C   UNL A   1      44.386  25.715  26.514  1.00  0.00     0.029 A 
ATOM     44  C   UNL A   1      44.541  27.043  27.094  1.00  0.00     0.049 A 
ATOM     45  H   UNL A   1      43.137  28.113  28.200  1.00  0.00     0.167 HD
ATOM     46  C   UNL A   1      40.090  30.406  30.269  1.00  0.00     0.037 A 
ATOM     47  C   UNL A   1      45.646  27.804  26.976  1.00  0.00     0.037 A 
ATOM     48  C   UNL A   1      41.197  31.321  30.133  1.00  0.00     0.049 A 
ATOM     49  C   UNL A   1      45.640  29.206  27.512  1.00  0.00     0.074 A 
ATOM     50  C   UNL A   1      41.313  32.613  30.618  1.00  0.00     0.029 A 
ATOM     51  N   UNL A   1      42.389  31.030  29.489  1.00  0.00    -0.354 N 
ATOM     52  N   UNL A   1      44.694  29.838  28.159  1.00  0.00    -0.248 NA
ATOM     53  C   UNL A   1      46.845  30.012  27.267  1.00  0.00     0.031 C 
ATOM     54  C   UNL A   1      42.564  33.116  30.241  1.00  0.00     0.029 A 
ATOM     55  C   UNL A   1      43.244  32.121  29.559  1.00  0.00     0.049 A 
ATOM     56  H   UNL A   1      42.600  30.176  29.049  1.00  0.00     0.167 HD
ATOM     57  C   UNL A   1      45.185  31.114  28.399  1.00  0.00     0.074 A 
ATOM     58  C   UNL A   1      46.525  31.157  27.853  1.00  0.00     0.031 C 
ATOM     59  C   UNL A   1      44.573  32.158  29.008  1.00  0.00     0.037 A 
BRANCH  46  60
ATOM     60  C   UNL A   1      38.859  30.908  30.969  1.00  0.00     0.064 A 
ATOM     61  C   UNL A   1      37.778  31.470  30.275  1.00  0.00     0.173 A 
ATOM     62  C   UNL A   1      38.736  30.760  32.361  1.00  0.00     0.173 A 
ATOM     63  F   UNL A   1      37.846  31.645  28.948  1.00  0.00    -0.203 F 
ATOM     64  C   UNL A   1      36.632  31.887  30.951  1.00  0.00     0.198 A 
ATOM     65  C   UNL A   1      37.578  31.148  33.029  1.00  0.00     0.198 A 
ATOM     66  F   UNL A   1      39.736  30.217  33.073  1.00  0.00    -0.203 F 
ATOM     67  F   UNL A   1      35.627  32.459  30.273  1.00  0.00    -0.200 F 
ATOM     68  C   UNL A   1      36.529  31.717  32.324  1.00  0.00     0.200 A 
ATOM     69  F   UNL A   1      37.476  30.968  34.353  1.00  0.00    -0.200 F 
ATOM     70  F   UNL A   1      35.420  32.106  32.969  1.00  0.00    -0.200 F 
ENDBRANCH  46  60
BRANCH  47  71
ATOM     71  C   UNL A   1      46.831  27.269  26.254  1.00  0.00     0.064 A 
ATOM     72  C   UNL A   1      47.001  27.489  24.882  1.00  0.00     0.173 A 
ATOM     73  C   UNL A   1      47.830  26.549  26.929  1.00  0.00     0.173 A 
ATOM     74  F   UNL A   1      46.059  28.142  24.186  1.00  0.00    -0.203 F 
ATOM     75  C   UNL A   1      48.126  27.013  24.211  1.00  0.00     0.198 A 
ATOM     76  C   UNL A   1      48.971  26.105  26.265  1.00  0.00     0.198 A 
ATOM     77  F   UNL A   1      47.712  26.306  28.242  1.00  0.00    -0.203 F 
ATOM     78  F   UNL A   1      48.249  27.206  22.891  1.00  0.00    -0.200 F 
ATOM     79  C   UNL A   1      49.116  26.333  24.907  1.00  0.00     0.200 A 
ATOM     80  F   UNL A   1      49.931  25.465  26.946  1.00  0.00    -0.200 F 
ATOM     81  F   UNL A   1      50.207  25.893  24.265  1.00  0.00    -0.200 F 
ENDBRANCH  47  71
BRANCH  59  82
ATOM     82  C   UNL A   1      45.358  33.429  29.133  1.00  0.00     0.064 A 
ATOM     83  C   UNL A   1      46.191  33.670  30.234  1.00  0.00     0.173 A 
ATOM     84  C   UNL A   1      45.288  34.410  28.133  1.00  0.00     0.173 A 
ATOM     85  F   UNL A   1      46.277  32.770  31.226  1.00  0.00    -0.203 F 
ATOM     86  C   UNL A   1      46.906  34.860  30.343  1.00  0.00     0.198 A 
ATOM     87  C   UNL A   1      46.024  35.588  28.232  1.00  0.00     0.198 A 
ATOM     88  F   UNL A   1      44.508  34.224  27.057  1.00  0.00    -0.203 F 
ATOM     89  F   UNL A   1      47.660  35.091  31.427  1.00  0.00    -0.200 F 
ATOM     90  C   UNL A   1      46.826  35.815  29.340  1.00  0.00     0.200 A 
ATOM     91  F   UNL A   1      45.952  36.505  27.257  1.00  0.00    -0.200 F 
ATOM     92  F   UNL A   1      47.515  36.960  29.445  1.00  0.00    -0.200 F 
ENDBRANCH  59  82
ENDBRANCH  33  34
ENDBRANCH  26  28
ENDBRANCH  25  26
ENDBRANCH  24  25
ENDBRANCH   1  24
TORSDOF 14
ENDMDL
MODEL 2
REMARK VINA RESULT:     -12.2      4.512      9.712
REMARK SMILES CS(=O)(=O)c1ccc(/C=C(/C(=O)OCCOC(=O)c2ccc(-c3c4nc(c(-c5c(F)c(F)c(F)c(F)c5F)c5ccc([nH]5)c(-c5c(F)c(F)c(F)c(F)c5F)c5nc(c(-c6c(F)c(F)c(F)c(F)c6F)c6ccc3[nH]6)C=C5)C=C4)cc2)c2cccc(Br)c2)cc1
REMARK SMILES IDX 14 1 13 2 11 3 12 4 10 5 9 6 8 7 5 8 6 9 90 10 7 11 89 12
REMARK SMILES IDX 2 13 1 14 3 15 4 16 82 17 83 18 88 19 84 20 86 21 85 22
REMARK SMILES IDX 87 23 15 24 16 25 17 26 18 27 19 28 20 29 81 30 21 31 80 32
REMARK SMILES IDX 22 33 23 34 24 35 74 36 25 37 79 38 73 39 75 40 26 41 78 42
REMARK SMILES IDX 72 43 71 44 27 46 59 47 39 48 58 49 40 50 43 51 57 52 76 53
REMARK SMILES IDX 41 54 42 55 56 57 77 58 44 59 28 60 29 61 37 62 30 63 31 64
REMARK SMILES IDX 35 65 38 66 32 67 33 68 36 69 34 70 60 71 61 72 69 73 62 74
REMARK SMILES IDX 63 75 67 76 70 77 64 78 65 79 68 80 66 81 45 82 46 83 54 84
REMARK SMILES IDX 47 85 48 86 52 87 55 88 49 89 50 90 53 91 51 92
REMARK H PARENT 75 45 43 56
REMARK Flexibility Score: inf
ROOT
ATOM      1  C   UNL A   1      33.606  27.440  24.966  1.00  0.00     0.275 C 
ENDROOT
BRANCH   1   2
ATOM      2  O   UNL A   1      32.849  26.215  25.076  1.00  0.00    -0.458 OA
BRANCH   2   3
ATOM      3  C   UNL A   1      32.835  25.439  23.962  1.00  0.00     0.338 C 
ATOM      4  O   UNL A   1      32.602  25.827  22.825  1.00  0.00    -0.246 OA
BRANCH   3   5
ATOM      5  C   UNL A   1      33.194  24.019  24.262  1.00  0.00     0.067 C 
ATOM      6  C   UNL A   1      32.203  23.105  24.381  1.00  0.00     0.024 C 
BRANCH   6   7
ATOM      7  C   UNL A   1      32.325  21.626  24.394  1.00  0.00    -0.025 A 
ATOM      8  C   UNL A   1      32.860  18.874  24.195  1.00  0.00     0.067 A 
ATOM      9  C   UNL A   1      32.994  19.512  25.420  1.00  0.00     0.021 A 
ATOM     10  C   UNL A   1      32.363  19.564  23.087  1.00  0.00     0.021 A 
ATOM     11  C   UNL A   1      32.689  20.870  25.517  1.00  0.00     0.009 A 
ATOM     12  C   UNL A   1      32.108  20.938  23.190  1.00  0.00     0.009 A 
BRANCH   8  13
ATOM     13  S   UNL A   1      33.328  17.170  24.029  1.00  0.00     0.175 S 
ATOM     14  C   UNL A   1      34.987  17.141  24.665  1.00  0.00     0.163 C 
ATOM     15  O   UNL A   1      33.368  16.872  22.617  1.00  0.00    -0.224 OA
ATOM     16  O   UNL A   1      32.500  16.394  24.939  1.00  0.00    -0.224 OA
ENDBRANCH   8  13
ENDBRANCH   6   7
BRANCH   5  17
ATOM     17  C   UNL A   1      34.623  23.653  24.244  1.00  0.00    -0.010 A 
ATOM     18  C   UNL A   1      35.174  23.098  23.075  1.00  0.00     0.009 A 
ATOM     19  C   UNL A   1      35.458  23.935  25.332  1.00  0.00     0.024 A 
ATOM     20  C   UNL A   1      36.549  22.874  22.979  1.00  0.00     0.002 A 
ATOM     21  C   UNL A   1      36.829  23.697  25.228  1.00  0.00     0.018 A 
ATOM     22  C   UNL A   1      37.379  23.177  24.056  1.00  0.00     0.016 A 
ATOM     23  Br  UNL A   1      37.961  24.119  26.682  1.00  0.00    -0.051 Br
ENDBRANCH   5  17
ENDBRANCH   3   5
ENDBRANCH   2   3
ENDBRANCH   1   2
BRANCH   1  24
ATOM     24  C   UNL A   1      32.743  28.649  25.325  1.00  0.00     0.275 C 
BRANCH  24  25
ATOM     25  O   UNL A   1      33.572  29.816  25.475  1.00  0.00    -0.458 OA
BRANCH  25  26
ATOM     26  C   UNL A   1      33.244  30.642  26.493  1.00  0.00     0.338 C 
ATOM     27  O   UNL A   1      32.234  31.321  26.605  1.00  0.00    -0.246 OA
BRANCH  26  28
ATOM     28  C   UNL A   1      34.279  30.604  27.542  1.00  0.00     0.060 A 
ATOM     29  C   UNL A   1      35.203  31.636  27.637  1.00  0.00     0.016 A 
ATOM     30  C   UNL A   1      34.451  29.448  28.304  1.00  0.00     0.016 A 
ATOM     31  C   UNL A   1      36.373  31.449  28.372  1.00  0.00     0.010 A 
ATOM     32  C   UNL A   1      35.571  29.320  29.138  1.00  0.00     0.010 A 
ATOM     33  C   UNL A   1      36.588  30.290  29.135  1.00  0.00    -0.014 A 
BRANCH  33  34
ATOM     34  C   UNL A   1      37.883  30.071  29.858  1.00  0.00     0.031 A 
ATOM     35  C   UNL A   1      38.988  29.248  29.230  1.00  0.00     0.074 A 
ATOM     36  C   UNL A   1      38.113  30.629  31.065  1.00  0.00     0.049 A 
ATOM     37  N   UNL A   1      40.073  28.755  29.780  1.00  0.00    -0.248 NA
ATOM     38  C   UNL A   1      38.852  28.923  27.802  1.00  0.00     0.031 C 
ATOM     39  C   UNL A   1      37.189  31.498  31.792  1.00  0.00     0.029 A 
ATOM     40  N   UNL A   1      39.211  30.559  31.893  1.00  0.00    -0.354 N 
ATOM     41  C   UNL A   1      40.693  27.992  28.795  1.00  0.00     0.074 A 
ATOM     42  C   UNL A   1      39.875  28.103  27.607  1.00  0.00     0.031 C 
ATOM     43  C   UNL A   1      37.779  31.941  32.909  1.00  0.00     0.029 A 
ATOM     44  C   UNL A   1      39.071  31.281  33.053  1.00  0.00     0.049 A 
ATOM     45  H   UNL A   1      40.020  30.042  31.673  1.00  0.00     0.167 HD
ATOM     46  C   UNL A   1      41.832  27.263  28.879  1.00  0.00     0.037 A 
ATOM     47  C   UNL A   1      39.852  31.363  34.147  1.00  0.00     0.037 A 
ATOM     48  C   UNL A   1      42.700  27.229  30.031  1.00  0.00     0.049 A 
ATOM     49  C   UNL A   1      41.103  30.537  34.225  1.00  0.00     0.074 A 
ATOM     50  C   UNL A   1      43.889  26.539  30.196  1.00  0.00     0.029 A 
ATOM     51  N   UNL A   1      42.487  27.939  31.202  1.00  0.00    -0.354 N 
ATOM     52  N   UNL A   1      41.620  29.733  33.331  1.00  0.00    -0.248 NA
ATOM     53  C   UNL A   1      41.861  30.604  35.484  1.00  0.00     0.031 C 
ATOM     54  C   UNL A   1      44.380  26.805  31.480  1.00  0.00     0.029 A 
ATOM     55  C   UNL A   1      43.518  27.697  32.097  1.00  0.00     0.049 A 
ATOM     56  H   UNL A   1      41.717  28.529  31.374  1.00  0.00     0.167 HD
ATOM     57  C   UNL A   1      42.758  29.196  33.914  1.00  0.00     0.074 A 
ATOM     58  C   UNL A   1      42.875  29.789  35.230  1.00  0.00     0.031 C 
ATOM     59  C   UNL A   1      43.624  28.286  33.406  1.00  0.00     0.037 A 
BRANCH  46  60
ATOM     60  C   UNL A   1      42.203  26.398  27.707  1.00  0.00     0.064 A 
ATOM     61  C   UNL A   1      43.119  26.811  26.729  1.00  0.00     0.173 A 
ATOM     62  C   UNL A   1      41.675  25.100  27.601  1.00  0.00     0.173 A 
ATOM     63  F   UNL A   1      43.646  28.043  26.776  1.00  0.00    -0.203 F 
ATOM     64  C   UNL A   1      43.474  25.967  25.678  1.00  0.00     0.198 A 
ATOM     65  C   UNL A   1      42.055  24.249  26.567  1.00  0.00     0.198 A 
ATOM     66  F   UNL A   1      40.802  24.649  28.516  1.00  0.00    -0.203 F 
ATOM     67  F   UNL A   1      44.321  26.397  24.732  1.00  0.00    -0.200 F 
ATOM     68  C   UNL A   1      42.949  24.685  25.603  1.00  0.00     0.200 A 
ATOM     69  F   UNL A   1      41.558  23.005  26.507  1.00  0.00    -0.200 F 
ATOM     70  F   UNL A   1      43.303  23.870  24.599  1.00  0.00    -0.200 F 
ENDBRANCH  46  60
BRANCH  47  71
ATOM     71  C   UNL A   1      39.429  32.216  35.289  1.00  0.00     0.064 A 
ATOM     72  C   UNL A   1      39.823  33.557  35.372  1.00  0.00     0.173 A 
ATOM     73  C   UNL A   1      38.600  31.714  36.304  1.00  0.00     0.173 A 
ATOM     74  F   UNL A   1      40.641  34.074  34.445  1.00  0.00    -0.203 F 
ATOM     75  C   UNL A   1      39.401  34.365  36.427  1.00  0.00     0.198 A 
ATOM     76  C   UNL A   1      38.151  32.531  37.338  1.00  0.00     0.198 A 
ATOM     77  F   UNL A   1      38.200  30.435  36.273  1.00  0.00    -0.203 F 
ATOM     78  F   UNL A   1      39.820  35.636  36.504  1.00  0.00    -0.200 F 
ATOM     79  C   UNL A   1      38.555  33.855  37.401  1.00  0.00     0.200 A 
ATOM     80  F   UNL A   1      37.319  32.037  38.265  1.00  0.00    -0.200 F 
ATOM     81  F   UNL A   1      38.134  34.638  38.403  1.00  0.00    -0.200 F 
ENDBRANCH  47  71
BRANCH  59  82
ATOM     82  C   UNL A   1      44.784  27.891  34.271  1.00  0.00     0.064 A 
ATOM     83  C   UNL A   1      45.955  28.660  34.321  1.00  0.00     0.173 A 
ATOM     84  C   UNL A   1      44.716  26.740  35.070  1.00  0.00     0.173 A 
ATOM     85  F   UNL A   1      46.074  29.760  33.561  1.00  0.00    -0.203 F 
ATOM     86  C   UNL A   1      47.028  28.276  35.120  1.00  0.00     0.198 A 
ATOM     87  C   UNL A   1      45.781  26.373  35.887  1.00  0.00     0.198 A 
ATOM     88  F   UNL A   1      43.615  25.974  35.060  1.00  0.00    -0.203 F 
ATOM     89  F   UNL A   1      48.157  28.999  35.117  1.00  0.00    -0.200 F 
ATOM     90  C   UNL A   1      46.939  27.136  35.905  1.00  0.00     0.200 A 
ATOM     91  F   UNL A   1      45.690  25.277  36.652  1.00  0.00    -0.200 F 
ATOM     92  F   UNL A   1      47.973  26.768  36.675  1.00  0.00    -0.200 F 
ENDBRANCH  59  82
ENDBRANCH  33  34
ENDBRANCH  26  28
ENDBRANCH  25  26
ENDBRANCH  24  25
ENDBRANCH   1  24
TORSDOF 14
ENDMDL
MODEL 3
REMARK VINA RESULT:     -12.0      2.881      7.798
REMARK SMILES CS(=O)(=O)c1ccc(/C=C(/C(=O)OCCOC(=O)c2ccc(-c3c4nc(c(-c5c(F)c(F)c(F)c(F)c5F)c5ccc([nH]5)c(-c5c(F)c(F)c(F)c(F)c5F)c5nc(c(-c6c(F)c(F)c(F)c(F)c6F)c6ccc3[nH]6)C=C5)C=C4)cc2)c2cccc(Br)c2)cc1
REMARK SMILES IDX 14 1 13 2 11 3 12 4 10 5 9 6 8 7 5 8 6 9 90 10 7 11 89 12
REMARK SMILES IDX 2 13 1 14 3 15 4 16 82 17 83 18 88 19 84 20 86 21 85 22
REMARK SMILES IDX 87 23 15 24 16 25 17 26 18 27 19 28 20 29 81 30 21 31 80 32
REMARK SMILES IDX 22 33 23 34 24 35 74 36 25 37 79 38 73 39 75 40 26 41 78 42
REMARK SMILES IDX 72 43 71 44 27 46 59 47 39 48 58 49 40 50 43 51 57 52 76 53
REMARK SMILES IDX 41 54 42 55 56 57 77 58 44 59 28 60 29 61 37 62 30 63 31 64
REMARK SMILES IDX 35 65 38 66 32 67 33 68 36 69 34 70 60 71 61 72 69 73 62 74
REMARK SMILES IDX 63 75 67 76 70 77 64 78 65 79 68 80 66 81 45 82 46 83 54 84
REMARK SMILES IDX 47 85 48 86 52 87 55 88 49 89 50 90 53 91 51 92
REMARK H PARENT 75 45 43 56
REMARK Flexibility Score: inf
ROOT
ATOM      1  C   UNL A   1      35.081  23.125  26.039  1.00  0.00     0.275 C 
ENDROOT
BRANCH   1   2
ATOM      2  O   UNL A   1      34.139  23.845  25.217  1.00  0.00    -0.458 OA
BRANCH   2   3
ATOM      3  C   UNL A   1      32.980  24.196  25.831  1.00  0.00     0.338 C 
ATOM      4  O   UNL A   1      32.467  23.607  26.774  1.00  0.00    -0.246 OA
BRANCH   3   5
ATOM      5  C   UNL A   1      32.395  25.445  25.257  1.00  0.00     0.067 C 
ATOM      6  C   UNL A   1      31.676  25.365  24.112  1.00  0.00     0.024 C 
BRANCH   6   7
ATOM      7  C   UNL A   1      30.785  26.395  23.522  1.00  0.00    -0.025 A 
ATOM      8  C   UNL A   1      29.062  28.480  22.759  1.00  0.00     0.067 A 
ATOM      9  C   UNL A   1      30.379  28.481  22.318  1.00  0.00     0.021 A 
ATOM     10  C   UNL A   1      28.562  27.401  23.491  1.00  0.00     0.021 A 
ATOM     11  C   UNL A   1      31.216  27.421  22.670  1.00  0.00     0.009 A 
ATOM     12  C   UNL A   1      29.428  26.370  23.876  1.00  0.00     0.009 A 
BRANCH   8  13
ATOM     13  S   UNL A   1      28.008  29.861  22.398  1.00  0.00     0.175 S 
ATOM     14  C   UNL A   1      28.865  31.231  23.135  1.00  0.00     0.163 C 
ATOM     15  O   UNL A   1      26.769  29.652  23.109  1.00  0.00    -0.224 OA
ATOM     16  O   UNL A   1      28.023  30.063  20.957  1.00  0.00    -0.224 OA
ENDBRANCH   8  13
ENDBRANCH   6   7
BRANCH   5  17
ATOM     17  C   UNL A   1      32.485  26.680  26.060  1.00  0.00    -0.010 A 
ATOM     18  C   UNL A   1      31.400  27.049  26.875  1.00  0.00     0.009 A 
ATOM     19  C   UNL A   1      33.663  27.435  26.099  1.00  0.00     0.024 A 
ATOM     20  C   UNL A   1      31.510  28.130  27.752  1.00  0.00     0.002 A 
ATOM     21  C   UNL A   1      33.758  28.520  26.972  1.00  0.00     0.018 A 
ATOM     22  C   UNL A   1      32.693  28.865  27.803  1.00  0.00     0.016 A 
ATOM     23  Br  UNL A   1      35.365  29.511  27.055  1.00  0.00    -0.051 Br
ENDBRANCH   5  17
ENDBRANCH   3   5
ENDBRANCH   2   3
ENDBRANCH   1   2
BRANCH   1  24
ATOM     24  C   UNL A   1      36.468  23.114  25.398  1.00  0.00     0.275 C 
BRANCH  24  25
ATOM     25  O   UNL A   1      37.336  24.030  26.090  1.00  0.00    -0.458 OA
BRANCH  25  26
ATOM     26  C   UNL A   1      38.590  23.584  26.330  1.00  0.00     0.338 C 
ATOM     27  O   UNL A   1      39.074  22.513  25.999  1.00  0.00    -0.246 OA
BRANCH  26  28
ATOM     28  C   UNL A   1      39.375  24.610  27.039  1.00  0.00     0.060 A 
ATOM     29  C   UNL A   1      39.267  24.730  28.418  1.00  0.00     0.016 A 
ATOM     30  C   UNL A   1      40.065  25.581  26.312  1.00  0.00     0.016 A 
ATOM     31  C   UNL A   1      39.713  25.891  29.048  1.00  0.00     0.010 A 
ATOM     32  C   UNL A   1      40.621  26.686  26.972  1.00  0.00     0.010 A 
ATOM     33  C   UNL A   1      40.395  26.896  28.343  1.00  0.00    -0.014 A 
BRANCH  33  34
ATOM     34  C   UNL A   1      40.802  28.172  29.019  1.00  0.00     0.031 A 
ATOM     35  C   UNL A   1      42.247  28.422  29.391  1.00  0.00     0.074 A 
ATOM     36  C   UNL A   1      39.901  29.143  29.279  1.00  0.00     0.049 A 
ATOM     37  N   UNL A   1      42.757  29.342  30.176  1.00  0.00    -0.248 NA
ATOM     38  C   UNL A   1      43.252  27.513  28.820  1.00  0.00     0.031 C 
ATOM     39  C   UNL A   1      38.479  29.100  28.937  1.00  0.00     0.029 A 
ATOM     40  N   UNL A   1      40.052  30.371  29.881  1.00  0.00    -0.354 N 
ATOM     41  C   UNL A   1      44.117  29.065  30.264  1.00  0.00     0.074 A 
ATOM     42  C   UNL A   1      44.360  27.903  29.436  1.00  0.00     0.031 C 
ATOM     43  C   UNL A   1      37.909  30.267  29.260  1.00  0.00     0.029 A 
ATOM     44  C   UNL A   1      38.886  31.093  29.958  1.00  0.00     0.049 A 
ATOM     45  H   UNL A   1      40.915  30.701  30.223  1.00  0.00     0.167 HD
ATOM     46  C   UNL A   1      45.072  29.715  30.974  1.00  0.00     0.037 A 
ATOM     47  C   UNL A   1      38.602  32.257  30.572  1.00  0.00     0.037 A 
ATOM     48  C   UNL A   1      44.851  30.929  31.721  1.00  0.00     0.049 A 
ATOM     49  C   UNL A   1      39.669  32.955  31.364  1.00  0.00     0.074 A 
ATOM     50  C   UNL A   1      45.764  31.672  32.450  1.00  0.00     0.029 A 
ATOM     51  N   UNL A   1      43.638  31.594  31.809  1.00  0.00    -0.354 N 
ATOM     52  N   UNL A   1      40.924  32.623  31.531  1.00  0.00    -0.248 NA
ATOM     53  C   UNL A   1      39.267  34.172  32.085  1.00  0.00     0.031 C 
ATOM     54  C   UNL A   1      45.097  32.770  33.007  1.00  0.00     0.029 A 
ATOM     55  C   UNL A   1      43.778  32.734  32.587  1.00  0.00     0.049 A 
ATOM     56  H   UNL A   1      42.801  31.301  31.383  1.00  0.00     0.167 HD
ATOM     57  C   UNL A   1      41.463  33.584  32.374  1.00  0.00     0.074 A 
ATOM     58  C   UNL A   1      40.406  34.530  32.662  1.00  0.00     0.031 C 
ATOM     59  C   UNL A   1      42.720  33.667  32.873  1.00  0.00     0.037 A 
BRANCH  46  60
ATOM     60  C   UNL A   1      46.448  29.113  31.021  1.00  0.00     0.064 A 
ATOM     61  C   UNL A   1      46.805  28.127  31.951  1.00  0.00     0.173 A 
ATOM     62  C   UNL A   1      47.410  29.491  30.068  1.00  0.00     0.173 A 
ATOM     63  F   UNL A   1      45.929  27.738  32.890  1.00  0.00    -0.203 F 
ATOM     64  C   UNL A   1      48.077  27.559  31.941  1.00  0.00     0.198 A 
ATOM     65  C   UNL A   1      48.670  28.899  30.041  1.00  0.00     0.198 A 
ATOM     66  F   UNL A   1      47.118  30.422  29.147  1.00  0.00    -0.203 F 
ATOM     67  F   UNL A   1      48.409  26.646  32.865  1.00  0.00    -0.200 F 
ATOM     68  C   UNL A   1      49.004  27.938  30.982  1.00  0.00     0.200 A 
ATOM     69  F   UNL A   1      49.557  29.256  29.103  1.00  0.00    -0.200 F 
ATOM     70  F   UNL A   1      50.223  27.379  30.965  1.00  0.00    -0.200 F 
ENDBRANCH  46  60
BRANCH  47  71
ATOM     71  C   UNL A   1      37.218  32.799  30.513  1.00  0.00     0.064 A 
ATOM     72  C   UNL A   1      36.303  32.555  31.545  1.00  0.00     0.173 A 
ATOM     73  C   UNL A   1      36.793  33.594  29.437  1.00  0.00     0.173 A 
ATOM     74  F   UNL A   1      36.651  31.774  32.578  1.00  0.00    -0.203 F 
ATOM     75  C   UNL A   1      35.016  33.087  31.504  1.00  0.00     0.198 A 
ATOM     76  C   UNL A   1      35.519  34.155  29.415  1.00  0.00     0.198 A 
ATOM     77  F   UNL A   1      37.629  33.852  28.422  1.00  0.00    -0.203 F 
ATOM     78  F   UNL A   1      34.147  32.810  32.486  1.00  0.00    -0.200 F 
ATOM     79  C   UNL A   1      34.630  33.898  30.446  1.00  0.00     0.200 A 
ATOM     80  F   UNL A   1      35.159  34.951  28.399  1.00  0.00    -0.200 F 
ATOM     81  F   UNL A   1      33.399  34.425  30.418  1.00  0.00    -0.200 F 
ENDBRANCH  47  71
BRANCH  59  82
ATOM     82  C   UNL A   1      43.024  34.834  33.764  1.00  0.00     0.064 A 
ATOM     83  C   UNL A   1      42.935  34.732  35.159  1.00  0.00     0.173 A 
ATOM     84  C   UNL A   1      43.425  36.062  33.217  1.00  0.00     0.173 A 
ATOM     85  F   UNL A   1      42.538  33.584  35.729  1.00  0.00    -0.203 F 
ATOM     86  C   UNL A   1      43.209  35.827  35.975  1.00  0.00     0.198 A 
ATOM     87  C   UNL A   1      43.723  37.147  34.036  1.00  0.00     0.198 A 
ATOM     88  F   UNL A   1      43.530  36.207  31.887  1.00  0.00    -0.203 F 
ATOM     89  F   UNL A   1      43.071  35.723  37.303  1.00  0.00    -0.200 F 
ATOM     90  C   UNL A   1      43.607  37.031  35.413  1.00  0.00     0.200 A 
ATOM     91  F   UNL A   1      44.117  38.307  33.492  1.00  0.00    -0.200 F 
ATOM     92  F   UNL A   1      43.872  38.084  36.199  1.00  0.00    -0.200 F 
ENDBRANCH  59  82
ENDBRANCH  33  34
ENDBRANCH  26  28
ENDBRANCH  25  26
ENDBRANCH  24  25
ENDBRANCH   1  24
TORSDOF 14
ENDMDL
