MODEL 1
REMARK VINA RESULT:     -11.1      0.000      0.000
REMARK SMILES C[NH2+][C@](C)(CCSc1ccncc1)C(=O)OCCOC(=O)c1ccc(-c2c3nc(c(-c4c(F)c(F)c(F)c(F)c4F)c4ccc([nH]4)c(-c4c(F)c(F)c(F)c(F)c4F)c4nc(c(-c5c(F)c(F)c(F)c(F)c5F)c5ccc2[nH]5)C=C4)C=C3)cc1
REMARK SMILES IDX 17 1 16 2 14 3 15 4 3 5 4 6 2 7 1 8 5 11 6 12 7 13 8 14 9 15
REMARK SMILES IDX 13 16 10 17 12 18 11 19 18 20 19 21 20 22 21 23 22 24 23 25
REMARK SMILES IDX 84 26 24 27 83 28 25 29 26 30 27 31 77 32 28 33 82 34 76 35
REMARK SMILES IDX 78 36 29 37 81 38 75 39 74 40 30 42 62 43 42 44 61 45 43 46
REMARK SMILES IDX 46 47 60 48 79 49 44 50 45 51 59 53 80 54 47 55 31 56 32 57
REMARK SMILES IDX 40 58 33 59 34 60 38 61 41 62 35 63 36 64 39 65 37 66 63 67
REMARK SMILES IDX 64 68 72 69 65 70 66 71 70 72 73 73 67 74 68 75 71 76 69 77
REMARK SMILES IDX 48 78 49 79 57 80 50 81 51 82 55 83 58 84 52 85 53 86 56 87
REMARK SMILES IDX 54 88
REMARK H PARENT 2 9 2 10 78 41 46 52
REMARK Flexibility Score: inf
ROOT
ATOM      1  C   UNL A   1      31.325  31.910  26.490  1.00  0.00     0.274 C 
ENDROOT
BRANCH   1   2
ATOM      2  O   UNL A   1      31.703  30.707  25.738  1.00  0.00    -0.457 OA
BRANCH   2   3
ATOM      3  C   UNL A   1      31.887  29.407  26.213  1.00  0.00     0.367 C 
ATOM      4  O   UNL A   1      31.529  29.028  27.299  1.00  0.00    -0.245 OA
BRANCH   3   5
ATOM      5  C   UNL A   1      32.755  28.501  25.120  1.00  0.00     0.192 C 
ATOM      6  C   UNL A   1      33.968  27.564  25.427  1.00  0.00     0.092 C 
BRANCH   5   7
ATOM      7  N   UNL A   1      33.262  29.458  24.064  1.00  0.00    -0.335 N 
ATOM      8  C   UNL A   1      33.806  28.779  22.868  1.00  0.00     0.331 C 
ATOM      9  H   UNL A   1      32.487  30.056  23.772  1.00  0.00     0.347 HD
ATOM     10  H   UNL A   1      34.025  29.990  24.481  1.00  0.00     0.347 HD
ENDBRANCH   5   7
BRANCH   5  11
ATOM     11  C   UNL A   1      31.713  27.508  24.600  1.00  0.00     0.092 C 
BRANCH  11  12
ATOM     12  C   UNL A   1      30.336  28.223  24.371  1.00  0.00     0.082 C 
BRANCH  12  13
ATOM     13  S   UNL A   1      29.700  28.930  22.653  1.00  0.00    -0.126 SA
BRANCH  13  14
ATOM     14  C   UNL A   1      28.892  30.527  22.459  1.00  0.00     0.010 A 
ATOM     15  C   UNL A   1      28.479  30.877  21.177  1.00  0.00     0.035 A 
ATOM     16  C   UNL A   1      28.976  31.596  23.358  1.00  0.00     0.035 A 
ATOM     17  C   UNL A   1      28.064  32.172  20.893  1.00  0.00     0.112 A 
ATOM     18  C   UNL A   1      28.544  32.872  22.998  1.00  0.00     0.112 A 
ATOM     19  N   UNL A   1      28.080  33.181  21.780  1.00  0.00    -0.265 NA
ENDBRANCH  13  14
ENDBRANCH  12  13
ENDBRANCH  11  12
ENDBRANCH   5  11
ENDBRANCH   3   5
ENDBRANCH   2   3
ENDBRANCH   1   2
BRANCH   1  20
ATOM     20  C   UNL A   1      32.574  32.609  27.201  1.00  0.00     0.275 C 
BRANCH  20  21
ATOM     21  O   UNL A   1      32.219  33.637  28.186  1.00  0.00    -0.458 OA
BRANCH  21  22
ATOM     22  C   UNL A   1      33.111  34.589  28.603  1.00  0.00     0.338 C 
ATOM     23  O   UNL A   1      32.852  35.763  28.802  1.00  0.00    -0.246 OA
BRANCH  22  24
ATOM     24  C   UNL A   1      34.413  33.948  29.036  1.00  0.00     0.060 A 
ATOM     25  C   UNL A   1      34.306  32.883  29.932  1.00  0.00     0.016 A 
ATOM     26  C   UNL A   1      35.691  34.258  28.558  1.00  0.00     0.016 A 
ATOM     27  C   UNL A   1      35.359  31.968  30.101  1.00  0.00     0.010 A 
ATOM     28  C   UNL A   1      36.811  33.443  28.904  1.00  0.00     0.010 A 
ATOM     29  C   UNL A   1      36.647  32.253  29.637  1.00  0.00    -0.014 A 
BRANCH  29  30
ATOM     30  C   UNL A   1      37.769  31.439  30.220  1.00  0.00     0.031 A 
ATOM     31  C   UNL A   1      38.054  31.638  31.696  1.00  0.00     0.074 A 
ATOM     32  C   UNL A   1      38.424  30.446  29.577  1.00  0.00     0.049 A 
ATOM     33  N   UNL A   1      38.966  31.092  32.464  1.00  0.00    -0.248 NA
ATOM     34  C   UNL A   1      37.145  32.546  32.416  1.00  0.00     0.031 C 
ATOM     35  C   UNL A   1      38.150  29.968  28.223  1.00  0.00     0.029 A 
ATOM     36  N   UNL A   1      39.457  29.632  30.006  1.00  0.00    -0.354 N 
ATOM     37  C   UNL A   1      38.730  31.595  33.739  1.00  0.00     0.074 A 
ATOM     38  C   UNL A   1      37.567  32.442  33.661  1.00  0.00     0.031 C 
ATOM     39  C   UNL A   1      39.003  28.965  27.928  1.00  0.00     0.029 A 
ATOM     40  C   UNL A   1      39.922  28.755  29.050  1.00  0.00     0.049 A 
ATOM     41  H   UNL A   1      39.828  29.674  30.918  1.00  0.00     0.167 HD
ATOM     42  C   UNL A   1      39.437  31.414  34.878  1.00  0.00     0.037 A 
ATOM     43  C   UNL A   1      40.986  27.919  29.064  1.00  0.00     0.037 A 
ATOM     44  C   UNL A   1      40.628  30.624  34.971  1.00  0.00     0.049 A 
ATOM     45  C   UNL A   1      41.871  27.855  30.293  1.00  0.00     0.074 A 
ATOM     46  C   UNL A   1      41.477  30.467  36.051  1.00  0.00     0.029 A 
ATOM     47  N   UNL A   1      41.142  29.865  33.934  1.00  0.00    -0.354 N 
ATOM     48  N   UNL A   1      41.710  28.425  31.463  1.00  0.00    -0.248 NA
ATOM     49  C   UNL A   1      43.104  27.051  30.195  1.00  0.00     0.031 C 
ATOM     50  C   UNL A   1      42.534  29.643  35.651  1.00  0.00     0.029 A 
ATOM     51  C   UNL A   1      42.311  29.249  34.342  1.00  0.00     0.049 A 
ATOM     52  H   UNL A   1      40.738  29.778  33.041  1.00  0.00     0.167 HD
ATOM     53  C   UNL A   1      42.800  28.039  32.237  1.00  0.00     0.074 A 
ATOM     54  C   UNL A   1      43.613  27.172  31.413  1.00  0.00     0.031 C 
ATOM     55  C   UNL A   1      43.104  28.378  33.515  1.00  0.00     0.037 A 
BRANCH  42  56
ATOM     56  C   UNL A   1      38.989  32.197  36.075  1.00  0.00     0.064 A 
ATOM     57  C   UNL A   1      39.421  33.510  36.310  1.00  0.00     0.173 A 
ATOM     58  C   UNL A   1      38.152  31.595  37.027  1.00  0.00     0.173 A 
ATOM     59  F   UNL A   1      40.257  34.111  35.451  1.00  0.00    -0.203 F 
ATOM     60  C   UNL A   1      39.047  34.184  37.470  1.00  0.00     0.198 A 
ATOM     61  C   UNL A   1      37.760  32.282  38.171  1.00  0.00     0.198 A 
ATOM     62  F   UNL A   1      37.730  30.333  36.854  1.00  0.00    -0.203 F 
ATOM     63  F   UNL A   1      39.518  35.416  37.708  1.00  0.00    -0.200 F 
ATOM     64  C   UNL A   1      38.214  33.572  38.396  1.00  0.00     0.200 A 
ATOM     65  F   UNL A   1      36.956  31.688  39.063  1.00  0.00    -0.200 F 
ATOM     66  F   UNL A   1      37.861  34.221  39.514  1.00  0.00    -0.200 F 
ENDBRANCH  42  56
BRANCH  43  67
ATOM     67  C   UNL A   1      41.361  27.130  27.849  1.00  0.00     0.064 A 
ATOM     68  C   UNL A   1      41.005  25.779  27.701  1.00  0.00     0.173 A 
ATOM     69  C   UNL A   1      42.164  27.693  26.844  1.00  0.00     0.173 A 
ATOM     70  F   UNL A   1      40.288  25.167  28.654  1.00  0.00    -0.203 F 
ATOM     71  C   UNL A   1      41.439  25.029  26.605  1.00  0.00     0.198 A 
ATOM     72  C   UNL A   1      42.571  26.952  25.734  1.00  0.00     0.198 A 
ATOM     73  F   UNL A   1      42.571  28.968  26.947  1.00  0.00    -0.203 F 
ATOM     74  F   UNL A   1      41.130  23.728  26.519  1.00  0.00    -0.200 F 
ATOM     75  C   UNL A   1      42.214  25.619  25.618  1.00  0.00     0.200 A 
ATOM     76  F   UNL A   1      43.326  27.527  24.788  1.00  0.00    -0.200 F 
ATOM     77  F   UNL A   1      42.633  24.898  24.568  1.00  0.00    -0.200 F 
ENDBRANCH  43  67
BRANCH  55  78
ATOM     78  C   UNL A   1      44.343  27.791  34.124  1.00  0.00     0.064 A 
ATOM     79  C   UNL A   1      45.567  28.474  34.105  1.00  0.00     0.173 A 
ATOM     80  C   UNL A   1      44.285  26.565  34.805  1.00  0.00     0.173 A 
ATOM     81  F   UNL A   1      45.676  29.647  33.463  1.00  0.00    -0.203 F 
ATOM     82  C   UNL A   1      46.693  27.940  34.728  1.00  0.00     0.198 A 
ATOM     83  C   UNL A   1      45.405  26.048  35.448  1.00  0.00     0.198 A 
ATOM     84  F   UNL A   1      43.133  25.880  34.864  1.00  0.00    -0.203 F 
ATOM     85  F   UNL A   1      47.862  28.594  34.669  1.00  0.00    -0.200 F 
ATOM     86  C   UNL A   1      46.609  26.733  35.405  1.00  0.00     0.200 A 
ATOM     87  F   UNL A   1      45.317  24.889  36.117  1.00  0.00    -0.200 F 
ATOM     88  F   UNL A   1      47.690  26.228  36.015  1.00  0.00    -0.200 F 
ENDBRANCH  55  78
ENDBRANCH  29  30
ENDBRANCH  22  24
ENDBRANCH  21  22
ENDBRANCH  20  21
ENDBRANCH   1  20
TORSDOF 16
ENDMDL
MODEL 2
REMARK VINA RESULT:     -11.0      1.421      7.533
REMARK SMILES C[NH2+][C@](C)(CCSc1ccncc1)C(=O)OCCOC(=O)c1ccc(-c2c3nc(c(-c4c(F)c(F)c(F)c(F)c4F)c4ccc([nH]4)c(-c4c(F)c(F)c(F)c(F)c4F)c4nc(c(-c5c(F)c(F)c(F)c(F)c5F)c5ccc2[nH]5)C=C4)C=C3)cc1
REMARK SMILES IDX 17 1 16 2 14 3 15 4 3 5 4 6 2 7 1 8 5 11 6 12 7 13 8 14 9 15
REMARK SMILES IDX 13 16 10 17 12 18 11 19 18 20 19 21 20 22 21 23 22 24 23 25
REMARK SMILES IDX 84 26 24 27 83 28 25 29 26 30 27 31 77 32 28 33 82 34 76 35
REMARK SMILES IDX 78 36 29 37 81 38 75 39 74 40 30 42 62 43 42 44 61 45 43 46
REMARK SMILES IDX 46 47 60 48 79 49 44 50 45 51 59 53 80 54 47 55 31 56 32 57
REMARK SMILES IDX 40 58 33 59 34 60 38 61 41 62 35 63 36 64 39 65 37 66 63 67
REMARK SMILES IDX 64 68 72 69 65 70 66 71 70 72 73 73 67 74 68 75 71 76 69 77
REMARK SMILES IDX 48 78 49 79 57 80 50 81 51 82 55 83 58 84 52 85 53 86 56 87
REMARK SMILES IDX 54 88
REMARK H PARENT 2 9 2 10 78 41 46 52
REMARK Flexibility Score: inf
ROOT
ATOM      1  C   UNL A   1      33.252  31.668  27.570  1.00  0.00     0.274 C 
ENDROOT
BRANCH   1   2
ATOM      2  O   UNL A   1      33.074  30.728  26.457  1.00  0.00    -0.457 OA
BRANCH   2   3
ATOM      3  C   UNL A   1      33.563  29.426  26.333  1.00  0.00     0.367 C 
ATOM      4  O   UNL A   1      34.405  28.951  27.049  1.00  0.00    -0.245 OA
BRANCH   3   5
ATOM      5  C   UNL A   1      32.902  28.677  25.001  1.00  0.00     0.192 C 
ATOM      6  C   UNL A   1      33.099  27.189  24.564  1.00  0.00     0.092 C 
BRANCH   5   7
ATOM      7  N   UNL A   1      33.306  29.493  23.795  1.00  0.00    -0.335 N 
ATOM      8  C   UNL A   1      34.103  28.729  22.809  1.00  0.00     0.331 C 
ATOM      9  H   UNL A   1      32.459  29.829  23.334  1.00  0.00     0.347 HD
ATOM     10  H   UNL A   1      33.893  30.256  24.130  1.00  0.00     0.347 HD
ENDBRANCH   5   7
BRANCH   5  11
ATOM     11  C   UNL A   1      31.401  28.722  25.299  1.00  0.00     0.092 C 
BRANCH  11  12
ATOM     12  C   UNL A   1      30.583  28.106  24.112  1.00  0.00     0.082 C 
BRANCH  12  13
ATOM     13  S   UNL A   1      30.137  29.037  22.442  1.00  0.00    -0.126 SA
BRANCH  13  14
ATOM     14  C   UNL A   1      29.140  30.534  22.361  1.00  0.00     0.010 A 
ATOM     15  C   UNL A   1      28.606  30.874  21.121  1.00  0.00     0.035 A 
ATOM     16  C   UNL A   1      29.159  31.577  23.294  1.00  0.00     0.035 A 
ATOM     17  C   UNL A   1      28.028  32.121  20.914  1.00  0.00     0.112 A 
ATOM     18  C   UNL A   1      28.562  32.804  23.012  1.00  0.00     0.112 A 
ATOM     19  N   UNL A   1      27.987  33.095  21.837  1.00  0.00    -0.265 NA
ENDBRANCH  13  14
ENDBRANCH  12  13
ENDBRANCH  11  12
ENDBRANCH   5  11
ENDBRANCH   3   5
ENDBRANCH   2   3
ENDBRANCH   1   2
BRANCH   1  20
ATOM     20  C   UNL A   1      32.696  33.129  27.237  1.00  0.00     0.275 C 
BRANCH  20  21
ATOM     21  O   UNL A   1      32.265  33.901  28.409  1.00  0.00    -0.458 OA
BRANCH  21  22
ATOM     22  C   UNL A   1      32.980  34.969  28.883  1.00  0.00     0.338 C 
ATOM     23  O   UNL A   1      32.554  36.104  29.011  1.00  0.00    -0.246 OA
BRANCH  22  24
ATOM     24  C   UNL A   1      34.296  34.511  29.475  1.00  0.00     0.060 A 
ATOM     25  C   UNL A   1      34.220  33.827  30.689  1.00  0.00     0.016 A 
ATOM     26  C   UNL A   1      35.559  34.627  28.881  1.00  0.00     0.016 A 
ATOM     27  C   UNL A   1      35.282  33.022  31.136  1.00  0.00     0.010 A 
ATOM     28  C   UNL A   1      36.691  33.977  29.457  1.00  0.00     0.010 A 
ATOM     29  C   UNL A   1      36.554  33.119  30.564  1.00  0.00    -0.014 A 
BRANCH  29  30
ATOM     30  C   UNL A   1      37.696  32.552  31.362  1.00  0.00     0.031 A 
ATOM     31  C   UNL A   1      38.491  31.438  30.708  1.00  0.00     0.074 A 
ATOM     32  C   UNL A   1      38.156  33.059  32.528  1.00  0.00     0.049 A 
ATOM     33  N   UNL A   1      39.510  30.747  31.159  1.00  0.00    -0.248 NA
ATOM     34  C   UNL A   1      38.110  31.092  29.328  1.00  0.00     0.031 C 
ATOM     35  C   UNL A   1      37.655  34.251  33.208  1.00  0.00     0.029 A 
ATOM     36  N   UNL A   1      39.192  32.632  33.341  1.00  0.00    -0.354 N 
ATOM     37  C   UNL A   1      39.876  29.900  30.119  1.00  0.00     0.074 A 
ATOM     38  C   UNL A   1      39.014  30.191  29.001  1.00  0.00     0.031 C 
ATOM     39  C   UNL A   1      38.366  34.447  34.338  1.00  0.00     0.029 A 
ATOM     40  C   UNL A   1      39.344  33.367  34.497  1.00  0.00     0.049 A 
ATOM     41  H   UNL A   1      39.772  31.869  33.114  1.00  0.00     0.167 HD
ATOM     42  C   UNL A   1      40.814  28.926  30.094  1.00  0.00     0.037 A 
ATOM     43  C   UNL A   1      40.144  33.167  35.570  1.00  0.00     0.037 A 
ATOM     44  C   UNL A   1      41.644  28.577  31.208  1.00  0.00     0.049 A 
ATOM     45  C   UNL A   1      41.071  31.967  35.599  1.00  0.00     0.074 A 
ATOM     46  C   UNL A   1      42.546  27.535  31.320  1.00  0.00     0.029 A 
ATOM     47  N   UNL A   1      41.661  29.262  32.411  1.00  0.00    -0.354 N 
ATOM     48  N   UNL A   1      41.330  31.095  34.654  1.00  0.00    -0.248 NA
ATOM     49  C   UNL A   1      41.799  31.709  36.854  1.00  0.00     0.031 C 
ATOM     50  C   UNL A   1      43.080  27.564  32.612  1.00  0.00     0.029 A 
ATOM     51  C   UNL A   1      42.548  28.654  33.282  1.00  0.00     0.049 A 
ATOM     52  H   UNL A   1      41.123  30.060  32.616  1.00  0.00     0.167 HD
ATOM     53  C   UNL A   1      42.253  30.204  35.191  1.00  0.00     0.074 A 
ATOM     54  C   UNL A   1      42.526  30.644  36.541  1.00  0.00     0.031 C 
ATOM     55  C   UNL A   1      42.819  29.112  34.619  1.00  0.00     0.037 A 
BRANCH  42  56
ATOM     56  C   UNL A   1      40.886  28.096  28.848  1.00  0.00     0.064 A 
ATOM     57  C   UNL A   1      41.701  28.450  27.764  1.00  0.00     0.173 A 
ATOM     58  C   UNL A   1      40.082  26.953  28.726  1.00  0.00     0.173 A 
ATOM     59  F   UNL A   1      42.452  29.560  27.817  1.00  0.00    -0.203 F 
ATOM     60  C   UNL A   1      41.689  27.700  26.590  1.00  0.00     0.198 A 
ATOM     61  C   UNL A   1      40.094  26.191  27.562  1.00  0.00     0.198 A 
ATOM     62  F   UNL A   1      39.272  26.585  29.730  1.00  0.00    -0.203 F 
ATOM     63  F   UNL A   1      42.428  28.088  25.541  1.00  0.00    -0.200 F 
ATOM     64  C   UNL A   1      40.891  26.569  26.493  1.00  0.00     0.200 A 
ATOM     65  F   UNL A   1      39.322  25.100  27.471  1.00  0.00    -0.200 F 
ATOM     66  F   UNL A   1      40.877  25.852  25.361  1.00  0.00    -0.200 F 
ENDBRANCH  42  56
BRANCH  43  67
ATOM     67  C   UNL A   1      40.056  34.054  36.772  1.00  0.00     0.064 A 
ATOM     68  C   UNL A   1      39.162  33.793  37.825  1.00  0.00     0.173 A 
ATOM     69  C   UNL A   1      40.811  35.235  36.852  1.00  0.00     0.173 A 
ATOM     70  F   UNL A   1      38.372  32.711  37.779  1.00  0.00    -0.203 F 
ATOM     71  C   UNL A   1      39.025  34.678  38.897  1.00  0.00     0.198 A 
ATOM     72  C   UNL A   1      40.696  36.102  37.939  1.00  0.00     0.198 A 
ATOM     73  F   UNL A   1      41.654  35.560  35.860  1.00  0.00    -0.203 F 
ATOM     74  F   UNL A   1      38.123  34.432  39.857  1.00  0.00    -0.200 F 
ATOM     75  C   UNL A   1      39.799  35.827  38.958  1.00  0.00     0.200 A 
ATOM     76  F   UNL A   1      41.442  37.215  37.988  1.00  0.00    -0.200 F 
ATOM     77  F   UNL A   1      39.665  36.677  39.986  1.00  0.00    -0.200 F 
ENDBRANCH  43  67
BRANCH  55  78
ATOM     78  C   UNL A   1      43.817  28.332  35.424  1.00  0.00     0.064 A 
ATOM     79  C   UNL A   1      45.191  28.602  35.353  1.00  0.00     0.173 A 
ATOM     80  C   UNL A   1      43.384  27.356  36.335  1.00  0.00     0.173 A 
ATOM     81  F   UNL A   1      45.655  29.522  34.495  1.00  0.00    -0.203 F 
ATOM     82  C   UNL A   1      46.097  27.908  36.152  1.00  0.00     0.198 A 
ATOM     83  C   UNL A   1      44.290  26.683  37.149  1.00  0.00     0.198 A 
ATOM     84  F   UNL A   1      42.078  27.071  36.449  1.00  0.00    -0.203 F 
ATOM     85  F   UNL A   1      47.409  28.158  36.045  1.00  0.00    -0.200 F 
ATOM     86  C   UNL A   1      45.645  26.956  37.054  1.00  0.00     0.200 A 
ATOM     87  F   UNL A   1      43.849  25.776  38.033  1.00  0.00    -0.200 F 
ATOM     88  F   UNL A   1      46.518  26.299  37.830  1.00  0.00    -0.200 F 
ENDBRANCH  55  78
ENDBRANCH  29  30
ENDBRANCH  22  24
ENDBRANCH  21  22
ENDBRANCH  20  21
ENDBRANCH   1  20
TORSDOF 16
ENDMDL
MODEL 3
REMARK VINA RESULT:     -11.0      0.492      1.827
REMARK SMILES C[NH2+][C@](C)(CCSc1ccncc1)C(=O)OCCOC(=O)c1ccc(-c2c3nc(c(-c4c(F)c(F)c(F)c(F)c4F)c4ccc([nH]4)c(-c4c(F)c(F)c(F)c(F)c4F)c4nc(c(-c5c(F)c(F)c(F)c(F)c5F)c5ccc2[nH]5)C=C4)C=C3)cc1
REMARK SMILES IDX 17 1 16 2 14 3 15 4 3 5 4 6 2 7 1 8 5 11 6 12 7 13 8 14 9 15
REMARK SMILES IDX 13 16 10 17 12 18 11 19 18 20 19 21 20 22 21 23 22 24 23 25
REMARK SMILES IDX 84 26 24 27 83 28 25 29 26 30 27 31 77 32 28 33 82 34 76 35
REMARK SMILES IDX 78 36 29 37 81 38 75 39 74 40 30 42 62 43 42 44 61 45 43 46
REMARK SMILES IDX 46 47 60 48 79 49 44 50 45 51 59 53 80 54 47 55 31 56 32 57
REMARK SMILES IDX 40 58 33 59 34 60 38 61 41 62 35 63 36 64 39 65 37 66 63 67
REMARK SMILES IDX 64 68 72 69 65 70 66 71 70 72 73 73 67 74 68 75 71 76 69 77
REMARK SMILES IDX 48 78 49 79 57 80 50 81 51 82 55 83 58 84 52 85 53 86 56 87
REMARK SMILES IDX 54 88
REMARK H PARENT 2 9 2 10 78 41 46 52
REMARK Flexibility Score: inf
ROOT
ATOM      1  C   UNL A   1      32.889  31.712  27.327  1.00  0.00     0.274 C 
ENDROOT
BRANCH   1   2
ATOM      2  O   UNL A   1      32.125  30.771  26.500  1.00  0.00    -0.457 OA
BRANCH   2   3
ATOM      3  C   UNL A   1      31.992  29.389  26.653  1.00  0.00     0.367 C 
ATOM      4  O   UNL A   1      31.421  28.863  27.573  1.00  0.00    -0.245 OA
BRANCH   3   5
ATOM      5  C   UNL A   1      32.820  28.585  25.453  1.00  0.00     0.192 C 
ATOM      6  C   UNL A   1      32.914  27.038  25.248  1.00  0.00     0.092 C 
BRANCH   5   7
ATOM      7  N   UNL A   1      34.255  29.055  25.521  1.00  0.00    -0.335 N 
ATOM      8  C   UNL A   1      34.882  28.836  26.843  1.00  0.00     0.331 C 
ATOM      9  H   UNL A   1      34.795  28.547  24.820  1.00  0.00     0.347 HD
ATOM     10  H   UNL A   1      34.251  30.060  25.352  1.00  0.00     0.347 HD
ENDBRANCH   5   7
BRANCH   5  11
ATOM     11  C   UNL A   1      32.088  29.028  24.183  1.00  0.00     0.092 C 
BRANCH  11  12
ATOM     12  C   UNL A   1      30.760  28.214  23.999  1.00  0.00     0.082 C 
BRANCH  12  13
ATOM     13  S   UNL A   1      29.191  28.823  22.989  1.00  0.00    -0.126 SA
BRANCH  13  14
ATOM     14  C   UNL A   1      28.960  30.513  22.414  1.00  0.00     0.010 A 
ATOM     15  C   UNL A   1      28.944  31.516  23.380  1.00  0.00     0.035 A 
ATOM     16  C   UNL A   1      28.421  30.886  21.177  1.00  0.00     0.035 A 
ATOM     17  C   UNL A   1      28.541  32.806  23.059  1.00  0.00     0.112 A 
ATOM     18  C   UNL A   1      28.032  32.202  20.931  1.00  0.00     0.112 A 
ATOM     19  N   UNL A   1      28.090  33.176  21.849  1.00  0.00    -0.265 NA
ENDBRANCH  13  14
ENDBRANCH  12  13
ENDBRANCH  11  12
ENDBRANCH   5  11
ENDBRANCH   3   5
ENDBRANCH   2   3
ENDBRANCH   1   2
BRANCH   1  20
ATOM     20  C   UNL A   1      32.328  33.205  27.238  1.00  0.00     0.275 C 
BRANCH  20  21
ATOM     21  O   UNL A   1      32.315  33.930  28.515  1.00  0.00    -0.458 OA
BRANCH  21  22
ATOM     22  C   UNL A   1      33.283  34.841  28.847  1.00  0.00     0.338 C 
ATOM     23  O   UNL A   1      33.101  36.034  29.023  1.00  0.00    -0.246 OA
BRANCH  22  24
ATOM     24  C   UNL A   1      34.571  34.139  29.225  1.00  0.00     0.060 A 
ATOM     25  C   UNL A   1      34.471  33.162  30.216  1.00  0.00     0.016 A 
ATOM     26  C   UNL A   1      35.820  34.313  28.617  1.00  0.00     0.016 A 
ATOM     27  C   UNL A   1      35.470  32.186  30.375  1.00  0.00     0.010 A 
ATOM     28  C   UNL A   1      36.907  33.445  28.938  1.00  0.00     0.010 A 
ATOM     29  C   UNL A   1      36.728  32.334  29.783  1.00  0.00    -0.014 A 
BRANCH  29  30
ATOM     30  C   UNL A   1      37.838  31.486  30.339  1.00  0.00     0.031 A 
ATOM     31  C   UNL A   1      38.132  31.640  31.818  1.00  0.00     0.074 A 
ATOM     32  C   UNL A   1      38.475  30.501  29.666  1.00  0.00     0.049 A 
ATOM     33  N   UNL A   1      39.038  31.060  32.567  1.00  0.00    -0.248 NA
ATOM     34  C   UNL A   1      37.240  32.543  32.567  1.00  0.00     0.031 C 
ATOM     35  C   UNL A   1      38.188  30.064  28.301  1.00  0.00     0.029 A 
ATOM     36  N   UNL A   1      39.496  29.659  30.069  1.00  0.00    -0.354 N 
ATOM     37  C   UNL A   1      38.815  31.531  33.856  1.00  0.00     0.074 A 
ATOM     38  C   UNL A   1      37.665  32.399  33.806  1.00  0.00     0.031 C 
ATOM     39  C   UNL A   1      39.023  29.055  27.976  1.00  0.00     0.029 A 
ATOM     40  C   UNL A   1      39.943  28.801  29.087  1.00  0.00     0.049 A 
ATOM     41  H   UNL A   1      39.871  29.670  30.980  1.00  0.00     0.167 HD
ATOM     42  C   UNL A   1      39.523  31.309  34.987  1.00  0.00     0.037 A 
ATOM     43  C   UNL A   1      40.994  27.947  29.074  1.00  0.00     0.037 A 
ATOM     44  C   UNL A   1      40.701  30.497  35.054  1.00  0.00     0.049 A 
ATOM     45  C   UNL A   1      41.882  27.836  30.298  1.00  0.00     0.074 A 
ATOM     46  C   UNL A   1      41.552  30.297  36.125  1.00  0.00     0.029 A 
ATOM     47  N   UNL A   1      41.200  29.758  33.994  1.00  0.00    -0.354 N 
ATOM     48  N   UNL A   1      41.734  28.376  31.484  1.00  0.00    -0.248 NA
ATOM     49  C   UNL A   1      43.101  27.015  30.172  1.00  0.00     0.031 C 
ATOM     50  C   UNL A   1      42.594  29.468  35.699  1.00  0.00     0.029 A 
ATOM     51  C   UNL A   1      42.360  29.112  34.380  1.00  0.00     0.049 A 
ATOM     52  H   UNL A   1      40.790  29.702  33.101  1.00  0.00     0.167 HD
ATOM     53  C   UNL A   1      42.821  27.952  32.242  1.00  0.00     0.074 A 
ATOM     54  C   UNL A   1      43.617  27.095  31.392  1.00  0.00     0.031 C 
ATOM     55  C   UNL A   1      43.136  28.251  33.527  1.00  0.00     0.037 A 
BRANCH  42  56
ATOM     56  C   UNL A   1      39.093  32.066  36.207  1.00  0.00     0.064 A 
ATOM     57  C   UNL A   1      38.167  31.543  37.120  1.00  0.00     0.173 A 
ATOM     58  C   UNL A   1      39.585  33.360  36.432  1.00  0.00     0.173 A 
ATOM     59  F   UNL A   1      37.635  30.327  36.923  1.00  0.00    -0.203 F 
ATOM     60  C   UNL A   1      37.731  32.301  38.204  1.00  0.00     0.198 A 
ATOM     61  C   UNL A   1      39.167  34.103  37.530  1.00  0.00     0.198 A 
ATOM     62  F   UNL A   1      40.459  33.910  35.574  1.00  0.00    -0.203 F 
ATOM     63  F   UNL A   1      36.800  31.809  39.033  1.00  0.00    -0.200 F 
ATOM     64  C   UNL A   1      38.235  33.577  38.411  1.00  0.00     0.200 A 
ATOM     65  F   UNL A   1      39.655  35.336  37.727  1.00  0.00    -0.200 F 
ATOM     66  F   UNL A   1      37.810  34.307  39.451  1.00  0.00    -0.200 F 
ENDBRANCH  42  56
BRANCH  43  67
ATOM     67  C   UNL A   1      41.352  27.185  27.837  1.00  0.00     0.064 A 
ATOM     68  C   UNL A   1      40.918  25.865  27.626  1.00  0.00     0.173 A 
ATOM     69  C   UNL A   1      42.211  27.738  26.874  1.00  0.00     0.173 A 
ATOM     70  F   UNL A   1      40.143  25.261  28.537  1.00  0.00    -0.203 F 
ATOM     71  C   UNL A   1      41.335  25.135  26.510  1.00  0.00     0.198 A 
ATOM     72  C   UNL A   1      42.601  27.018  25.745  1.00  0.00     0.198 A 
ATOM     73  F   UNL A   1      42.691  28.981  27.038  1.00  0.00    -0.203 F 
ATOM     74  F   UNL A   1      40.951  23.858  26.365  1.00  0.00    -0.200 F 
ATOM     75  C   UNL A   1      42.168  25.715  25.566  1.00  0.00     0.200 A 
ATOM     76  F   UNL A   1      43.412  27.583  24.840  1.00  0.00    -0.200 F 
ATOM     77  F   UNL A   1      42.569  25.012  24.497  1.00  0.00    -0.200 F 
ENDBRANCH  43  67
BRANCH  55  78
ATOM     78  C   UNL A   1      44.367  27.628  34.115  1.00  0.00     0.064 A 
ATOM     79  C   UNL A   1      44.338  26.357  34.706  1.00  0.00     0.173 A 
ATOM     80  C   UNL A   1      45.607  28.279  34.014  1.00  0.00     0.173 A 
ATOM     81  F   UNL A   1      43.177  25.697  34.830  1.00  0.00    -0.203 F 
ATOM     82  C   UNL A   1      45.503  25.769  35.193  1.00  0.00     0.198 A 
ATOM     83  C   UNL A   1      46.772  27.676  34.479  1.00  0.00     0.198 A 
ATOM     84  F   UNL A   1      45.689  29.490  33.444  1.00  0.00    -0.203 F 
ATOM     85  F   UNL A   1      45.447  24.567  35.784  1.00  0.00    -0.200 F 
ATOM     86  C   UNL A   1      46.719  26.425  35.072  1.00  0.00     0.200 A 
ATOM     87  F   UNL A   1      47.949  28.305  34.346  1.00  0.00    -0.200 F 
ATOM     88  F   UNL A   1      47.840  25.851  35.530  1.00  0.00    -0.200 F 
ENDBRANCH  55  78
ENDBRANCH  29  30
ENDBRANCH  22  24
ENDBRANCH  21  22
ENDBRANCH  20  21
ENDBRANCH   1  20
TORSDOF 16
ENDMDL
