MODEL 1
REMARK VINA RESULT:     -11.2      0.000      0.000
REMARK SMILES O=C(NCC(=O)OCCOC(=O)c1ccc(-c2c3nc(c(-c4c(F)c(F)c(F)c(F)c4F)c4ccc([nH]4)c(-c4c(F)c(F)c(F)c(F)c4F)c4nc(c(-c5c(F)c(F)c(F)c(F)c5F)c5ccc2[nH]5)C=C4)C=C3)cc1)Nc1cccc2c1CCCC2
REMARK SMILES IDX 8 1 7 2 5 3 6 4 4 5 3 6 1 7 2 8 76 9 77 12 78 13 82 14 79 15
REMARK SMILES IDX 81 16 83 17 80 18 86 19 84 20 85 21 9 22 10 23 11 24 12 25
REMARK SMILES IDX 13 26 14 27 75 28 15 29 74 30 16 31 17 32 18 33 68 34 19 35
REMARK SMILES IDX 73 36 67 37 69 38 20 39 72 40 66 41 65 42 21 44 53 45 33 46
REMARK SMILES IDX 52 47 34 48 37 49 51 50 70 51 35 52 36 53 50 55 71 56 38 57
REMARK SMILES IDX 22 58 23 59 31 60 24 61 25 62 29 63 32 64 26 65 27 66 30 67
REMARK SMILES IDX 28 68 54 69 55 70 63 71 56 72 57 73 61 74 64 75 58 76 59 77
REMARK SMILES IDX 62 78 60 79 39 80 40 81 48 82 41 83 42 84 46 85 49 86 43 87
REMARK SMILES IDX 44 88 47 89 45 90
REMARK H PARENT 3 10 76 11 69 43 37 54
REMARK Flexibility Score: inf
ROOT
ATOM      1  C   UNL A   1      33.580  34.172  28.009  1.00  0.00     0.274 C 
ENDROOT
BRANCH   1   2
ATOM      2  O   UNL A   1      32.668  34.738  28.967  1.00  0.00    -0.461 OA
BRANCH   2   3
ATOM      3  C   UNL A   1      32.964  35.979  29.438  1.00  0.00     0.325 C 
ATOM      4  O   UNL A   1      33.054  36.991  28.750  1.00  0.00    -0.250 OA
BRANCH   3   5
ATOM      5  C   UNL A   1      33.091  36.014  30.959  1.00  0.00     0.240 C 
BRANCH   5   6
ATOM      6  N   UNL A   1      33.375  34.725  31.563  1.00  0.00    -0.327 N 
ATOM      7  O   UNL A   1      34.308  32.762  31.948  1.00  0.00    -0.248 OA
ATOM      8  C   UNL A   1      34.417  33.862  31.413  1.00  0.00     0.319 C 
ATOM      9  N   UNL A   1      35.526  34.352  30.752  1.00  0.00    -0.308 N 
ATOM     10  H   UNL A   1      32.689  34.419  32.199  1.00  0.00     0.166 HD
ATOM     11  H   UNL A   1      35.437  35.179  30.226  1.00  0.00     0.171 HD
BRANCH   9  12
ATOM     12  C   UNL A   1      36.791  33.703  30.806  1.00  0.00     0.046 A 
ATOM     13  C   UNL A   1      37.453  33.646  29.585  1.00  0.00     0.026 A 
ATOM     14  C   UNL A   1      37.564  33.696  31.964  1.00  0.00    -0.021 A 
ATOM     15  C   UNL A   1      38.795  34.033  29.547  1.00  0.00     0.002 A 
ATOM     16  C   UNL A   1      38.799  34.350  31.943  1.00  0.00    -0.043 A 
ATOM     17  C   UNL A   1      37.667  32.387  32.760  1.00  0.00     0.038 C 
ATOM     18  C   UNL A   1      39.427  34.500  30.709  1.00  0.00     0.004 A 
ATOM     19  C   UNL A   1      39.434  34.699  33.262  1.00  0.00     0.036 C 
ATOM     20  C   UNL A   1      38.374  32.540  34.113  1.00  0.00     0.005 C 
ATOM     21  C   UNL A   1      38.745  33.987  34.439  1.00  0.00     0.005 C 
ENDBRANCH   9  12
ENDBRANCH   5   6
ENDBRANCH   3   5
ENDBRANCH   2   3
ENDBRANCH   1   2
BRANCH   1  22
ATOM     22  C   UNL A   1      33.447  32.647  27.957  1.00  0.00     0.275 C 
BRANCH  22  23
ATOM     23  O   UNL A   1      34.688  31.977  28.255  1.00  0.00    -0.458 OA
BRANCH  23  24
ATOM     24  C   UNL A   1      34.733  30.662  27.934  1.00  0.00     0.338 C 
ATOM     25  O   UNL A   1      33.886  30.006  27.357  1.00  0.00    -0.246 OA
BRANCH  24  26
ATOM     26  C   UNL A   1      36.055  30.119  28.287  1.00  0.00     0.060 A 
ATOM     27  C   UNL A   1      36.243  29.619  29.578  1.00  0.00     0.016 A 
ATOM     28  C   UNL A   1      37.115  30.171  27.382  1.00  0.00     0.016 A 
ATOM     29  C   UNL A   1      37.505  29.186  29.980  1.00  0.00     0.010 A 
ATOM     30  C   UNL A   1      38.375  29.719  27.780  1.00  0.00     0.010 A 
ATOM     31  C   UNL A   1      38.581  29.235  29.085  1.00  0.00    -0.014 A 
BRANCH  31  32
ATOM     32  C   UNL A   1      39.934  28.798  29.508  1.00  0.00     0.031 A 
ATOM     33  C   UNL A   1      40.764  29.680  30.394  1.00  0.00     0.074 A 
ATOM     34  C   UNL A   1      40.423  27.623  29.071  1.00  0.00     0.049 A 
ATOM     35  N   UNL A   1      42.011  29.544  30.767  1.00  0.00    -0.248 NA
ATOM     36  C   UNL A   1      40.103  30.881  30.927  1.00  0.00     0.031 C 
ATOM     37  C   UNL A   1      39.698  26.667  28.233  1.00  0.00     0.029 A 
ATOM     38  N   UNL A   1      41.653  27.043  29.253  1.00  0.00    -0.354 N 
ATOM     39  C   UNL A   1      42.292  30.650  31.558  1.00  0.00     0.074 A 
ATOM     40  C   UNL A   1      41.093  31.459  31.594  1.00  0.00     0.031 C 
ATOM     41  C   UNL A   1      40.499  25.624  27.967  1.00  0.00     0.029 A 
ATOM     42  C   UNL A   1      41.809  25.864  28.566  1.00  0.00     0.049 A 
ATOM     43  H   UNL A   1      42.356  27.433  29.822  1.00  0.00     0.167 HD
ATOM     44  C   UNL A   1      43.446  30.955  32.199  1.00  0.00     0.037 A 
ATOM     45  C   UNL A   1      42.898  25.087  28.405  1.00  0.00     0.037 A 
ATOM     46  C   UNL A   1      44.632  30.138  32.161  1.00  0.00     0.049 A 
ATOM     47  C   UNL A   1      44.190  25.488  29.065  1.00  0.00     0.074 A 
ATOM     48  C   UNL A   1      45.845  30.346  32.797  1.00  0.00     0.029 A 
ATOM     49  N   UNL A   1      44.757  28.959  31.439  1.00  0.00    -0.354 N 
ATOM     50  N   UNL A   1      44.443  26.523  29.829  1.00  0.00    -0.248 NA
ATOM     51  C   UNL A   1      45.349  24.614  28.839  1.00  0.00     0.031 C 
ATOM     52  C   UNL A   1      46.722  29.328  32.411  1.00  0.00     0.029 A 
ATOM     53  C   UNL A   1      46.037  28.446  31.590  1.00  0.00     0.049 A 
ATOM     54  H   UNL A   1      44.044  28.548  30.901  1.00  0.00     0.167 HD
ATOM     55  C   UNL A   1      45.777  26.407  30.201  1.00  0.00     0.074 A 
ATOM     56  C   UNL A   1      46.277  25.195  29.586  1.00  0.00     0.031 C 
ATOM     57  C   UNL A   1      46.517  27.229  30.984  1.00  0.00     0.037 A 
BRANCH  44  58
ATOM     58  C   UNL A   1      43.497  32.242  32.973  1.00  0.00     0.064 A 
ATOM     59  C   UNL A   1      43.987  33.429  32.409  1.00  0.00     0.173 A 
ATOM     60  C   UNL A   1      43.006  32.296  34.287  1.00  0.00     0.173 A 
ATOM     61  F   UNL A   1      44.476  33.431  31.159  1.00  0.00    -0.203 F 
ATOM     62  C   UNL A   1      44.011  34.614  33.141  1.00  0.00     0.198 A 
ATOM     63  C   UNL A   1      43.001  33.490  35.004  1.00  0.00     0.198 A 
ATOM     64  F   UNL A   1      42.517  31.193  34.874  1.00  0.00    -0.203 F 
ATOM     65  F   UNL A   1      44.530  35.724  32.598  1.00  0.00    -0.200 F 
ATOM     66  C   UNL A   1      43.511  34.645  34.434  1.00  0.00     0.200 A 
ATOM     67  F   UNL A   1      42.502  33.521  36.248  1.00  0.00    -0.200 F 
ATOM     68  F   UNL A   1      43.528  35.789  35.133  1.00  0.00    -0.200 F 
ENDBRANCH  44  58
BRANCH  45  69
ATOM     69  C   UNL A   1      42.817  23.863  27.565  1.00  0.00     0.064 A 
ATOM     70  C   UNL A   1      42.452  22.630  28.121  1.00  0.00     0.173 A 
ATOM     71  C   UNL A   1      43.113  23.896  26.194  1.00  0.00     0.173 A 
ATOM     72  F   UNL A   1      42.182  22.540  29.432  1.00  0.00    -0.203 F 
ATOM     73  C   UNL A   1      42.407  21.474  27.344  1.00  0.00     0.198 A 
ATOM     74  C   UNL A   1      43.035  22.747  25.411  1.00  0.00     0.198 A 
ATOM     75  F   UNL A   1      43.468  25.052  25.611  1.00  0.00    -0.203 F 
ATOM     76  F   UNL A   1      42.104  20.299  27.912  1.00  0.00    -0.200 F 
ATOM     77  C   UNL A   1      42.692  21.535  25.989  1.00  0.00     0.200 A 
ATOM     78  F   UNL A   1      43.296  22.814  24.098  1.00  0.00    -0.200 F 
ATOM     79  F   UNL A   1      42.643  20.424  25.240  1.00  0.00    -0.200 F 
ENDBRANCH  45  69
BRANCH  57  80
ATOM     80  C   UNL A   1      47.935  26.824  31.271  1.00  0.00     0.064 A 
ATOM     81  C   UNL A   1      48.254  25.912  32.288  1.00  0.00     0.173 A 
ATOM     82  C   UNL A   1      48.984  27.313  30.476  1.00  0.00     0.173 A 
ATOM     83  F   UNL A   1      47.291  25.426  33.086  1.00  0.00    -0.203 F 
ATOM     84  C   UNL A   1      49.572  25.519  32.509  1.00  0.00     0.198 A 
ATOM     85  C   UNL A   1      50.294  26.893  30.678  1.00  0.00     0.198 A 
ATOM     86  F   UNL A   1      48.732  28.184  29.487  1.00  0.00    -0.203 F 
ATOM     87  F   UNL A   1      49.858  24.680  33.513  1.00  0.00    -0.200 F 
ATOM     88  C   UNL A   1      50.588  26.001  31.698  1.00  0.00     0.200 A 
ATOM     89  F   UNL A   1      51.272  27.347  29.883  1.00  0.00    -0.200 F 
ATOM     90  F   UNL A   1      51.853  25.609  31.903  1.00  0.00    -0.200 F 
ENDBRANCH  57  80
ENDBRANCH  31  32
ENDBRANCH  24  26
ENDBRANCH  23  24
ENDBRANCH  22  23
ENDBRANCH   1  22
TORSDOF 13
ENDMDL
MODEL 2
REMARK VINA RESULT:     -11.2      4.194     11.147
REMARK SMILES O=C(NCC(=O)OCCOC(=O)c1ccc(-c2c3nc(c(-c4c(F)c(F)c(F)c(F)c4F)c4ccc([nH]4)c(-c4c(F)c(F)c(F)c(F)c4F)c4nc(c(-c5c(F)c(F)c(F)c(F)c5F)c5ccc2[nH]5)C=C4)C=C3)cc1)Nc1cccc2c1CCCC2
REMARK SMILES IDX 8 1 7 2 5 3 6 4 4 5 3 6 1 7 2 8 76 9 77 12 78 13 82 14 79 15
REMARK SMILES IDX 81 16 83 17 80 18 86 19 84 20 85 21 9 22 10 23 11 24 12 25
REMARK SMILES IDX 13 26 14 27 75 28 15 29 74 30 16 31 17 32 18 33 68 34 19 35
REMARK SMILES IDX 73 36 67 37 69 38 20 39 72 40 66 41 65 42 21 44 53 45 33 46
REMARK SMILES IDX 52 47 34 48 37 49 51 50 70 51 35 52 36 53 50 55 71 56 38 57
REMARK SMILES IDX 22 58 23 59 31 60 24 61 25 62 29 63 32 64 26 65 27 66 30 67
REMARK SMILES IDX 28 68 54 69 55 70 63 71 56 72 57 73 61 74 64 75 58 76 59 77
REMARK SMILES IDX 62 78 60 79 39 80 40 81 48 82 41 83 42 84 46 85 49 86 43 87
REMARK SMILES IDX 44 88 47 89 45 90
REMARK H PARENT 3 10 76 11 69 43 37 54
REMARK Flexibility Score: inf
ROOT
ATOM      1  C   UNL A   1      41.069  19.774  26.568  1.00  0.00     0.274 C 
ENDROOT
BRANCH   1   2
ATOM      2  O   UNL A   1      41.897  19.275  25.503  1.00  0.00    -0.461 OA
BRANCH   2   3
ATOM      3  C   UNL A   1      43.031  18.616  25.863  1.00  0.00     0.325 C 
ATOM      4  O   UNL A   1      43.073  17.642  26.608  1.00  0.00    -0.250 OA
BRANCH   3   5
ATOM      5  C   UNL A   1      44.273  19.161  25.163  1.00  0.00     0.240 C 
BRANCH   5   6
ATOM      6  N   UNL A   1      44.094  20.472  24.565  1.00  0.00    -0.327 N 
ATOM      7  O   UNL A   1      43.519  22.587  24.310  1.00  0.00    -0.248 OA
ATOM      8  C   UNL A   1      43.740  21.672  25.100  1.00  0.00     0.319 C 
ATOM      9  N   UNL A   1      43.760  21.758  26.477  1.00  0.00    -0.308 N 
ATOM     10  H   UNL A   1      44.260  20.497  23.596  1.00  0.00     0.166 HD
ATOM     11  H   UNL A   1      43.787  20.926  27.003  1.00  0.00     0.171 HD
BRANCH   9  12
ATOM     12  C   UNL A   1      43.741  23.005  27.162  1.00  0.00     0.046 A 
ATOM     13  C   UNL A   1      42.920  23.025  28.284  1.00  0.00     0.026 A 
ATOM     14  C   UNL A   1      44.832  23.871  27.140  1.00  0.00    -0.021 A 
ATOM     15  C   UNL A   1      43.446  23.538  29.473  1.00  0.00     0.002 A 
ATOM     16  C   UNL A   1      45.497  24.133  28.340  1.00  0.00    -0.043 A 
ATOM     17  C   UNL A   1      44.723  25.151  26.298  1.00  0.00     0.038 C 
ATOM     18  C   UNL A   1      44.777  23.979  29.523  1.00  0.00     0.004 A 
ATOM     19  C   UNL A   1      46.882  24.714  28.265  1.00  0.00     0.036 C 
ATOM     20  C   UNL A   1      46.041  25.929  26.185  1.00  0.00     0.005 C 
ATOM     21  C   UNL A   1      47.220  25.218  26.851  1.00  0.00     0.005 C 
ENDBRANCH   9  12
ENDBRANCH   5   6
ENDBRANCH   3   5
ENDBRANCH   2   3
ENDBRANCH   1   2
BRANCH   1  22
ATOM     22  C   UNL A   1      39.990  20.718  26.030  1.00  0.00     0.275 C 
BRANCH  22  23
ATOM     23  O   UNL A   1      40.194  22.082  26.448  1.00  0.00    -0.458 OA
BRANCH  23  24
ATOM     24  C   UNL A   1      39.114  22.893  26.348  1.00  0.00     0.338 C 
ATOM     25  O   UNL A   1      38.002  22.605  25.947  1.00  0.00    -0.246 OA
BRANCH  24  26
ATOM     26  C   UNL A   1      39.435  24.208  26.924  1.00  0.00     0.060 A 
ATOM     27  C   UNL A   1      40.117  25.132  26.127  1.00  0.00     0.016 A 
ATOM     28  C   UNL A   1      39.137  24.500  28.255  1.00  0.00     0.016 A 
ATOM     29  C   UNL A   1      40.524  26.351  26.666  1.00  0.00     0.010 A 
ATOM     30  C   UNL A   1      39.529  25.728  28.789  1.00  0.00     0.010 A 
ATOM     31  C   UNL A   1      40.235  26.658  28.002  1.00  0.00    -0.014 A 
BRANCH  31  32
ATOM     32  C   UNL A   1      40.683  27.942  28.594  1.00  0.00     0.031 A 
ATOM     33  C   UNL A   1      42.112  28.114  29.019  1.00  0.00     0.074 A 
ATOM     34  C   UNL A   1      39.797  28.938  28.775  1.00  0.00     0.049 A 
ATOM     35  N   UNL A   1      42.671  29.101  29.672  1.00  0.00    -0.248 NA
ATOM     36  C   UNL A   1      43.036  27.025  28.667  1.00  0.00     0.031 C 
ATOM     37  C   UNL A   1      38.391  28.899  28.373  1.00  0.00     0.029 A 
ATOM     38  N   UNL A   1      39.944  30.170  29.363  1.00  0.00    -0.354 N 
ATOM     39  C   UNL A   1      44.004  28.744  29.829  1.00  0.00     0.074 A 
ATOM     40  C   UNL A   1      44.166  27.440  29.223  1.00  0.00     0.031 C 
ATOM     41  C   UNL A   1      37.801  30.050  28.733  1.00  0.00     0.029 A 
ATOM     42  C   UNL A   1      38.771  30.882  29.440  1.00  0.00     0.049 A 
ATOM     43  H   UNL A   1      40.805  30.511  29.696  1.00  0.00     0.167 HD
ATOM     44  C   UNL A   1      44.999  29.447  30.421  1.00  0.00     0.037 A 
ATOM     45  C   UNL A   1      38.502  32.053  30.048  1.00  0.00     0.037 A 
ATOM     46  C   UNL A   1      44.827  30.748  31.016  1.00  0.00     0.049 A 
ATOM     47  C   UNL A   1      39.609  32.779  30.766  1.00  0.00     0.074 A 
ATOM     48  C   UNL A   1      45.777  31.555  31.618  1.00  0.00     0.029 A 
ATOM     49  N   UNL A   1      43.620  31.429  31.091  1.00  0.00    -0.354 N 
ATOM     50  N   UNL A   1      40.871  32.446  30.893  1.00  0.00    -0.248 NA
ATOM     51  C   UNL A   1      39.254  34.041  31.428  1.00  0.00     0.031 C 
ATOM     52  C   UNL A   1      45.135  32.694  32.112  1.00  0.00     0.029 A 
ATOM     53  C   UNL A   1      43.796  32.633  31.757  1.00  0.00     0.049 A 
ATOM     54  H   UNL A   1      42.765  31.107  30.725  1.00  0.00     0.167 HD
ATOM     55  C   UNL A   1      41.466  33.472  31.617  1.00  0.00     0.074 A 
ATOM     56  C   UNL A   1      40.428  34.443  31.894  1.00  0.00     0.031 C 
ATOM     57  C   UNL A   1      42.757  33.598  32.012  1.00  0.00     0.037 A 
BRANCH  44  58
ATOM     58  C   UNL A   1      46.360  28.813  30.485  1.00  0.00     0.064 A 
ATOM     59  C   UNL A   1      47.287  28.939  29.440  1.00  0.00     0.173 A 
ATOM     60  C   UNL A   1      46.757  28.105  31.631  1.00  0.00     0.173 A 
ATOM     61  F   UNL A   1      46.955  29.598  28.319  1.00  0.00    -0.203 F 
ATOM     62  C   UNL A   1      48.548  28.355  29.527  1.00  0.00     0.198 A 
ATOM     63  C   UNL A   1      48.031  27.551  31.727  1.00  0.00     0.198 A 
ATOM     64  F   UNL A   1      45.914  27.961  32.664  1.00  0.00    -0.203 F 
ATOM     65  F   UNL A   1      49.399  28.446  28.495  1.00  0.00    -0.200 F 
ATOM     66  C   UNL A   1      48.922  27.669  30.672  1.00  0.00     0.200 A 
ATOM     67  F   UNL A   1      48.395  26.903  32.842  1.00  0.00    -0.200 F 
ATOM     68  F   UNL A   1      50.140  27.115  30.757  1.00  0.00    -0.200 F 
ENDBRANCH  44  58
BRANCH  45  69
ATOM     69  C   UNL A   1      37.121  32.602  30.023  1.00  0.00     0.064 A 
ATOM     70  C   UNL A   1      36.694  33.434  28.980  1.00  0.00     0.173 A 
ATOM     71  C   UNL A   1      36.202  32.315  31.044  1.00  0.00     0.173 A 
ATOM     72  F   UNL A   1      37.542  33.757  27.991  1.00  0.00    -0.203 F 
ATOM     73  C   UNL A   1      35.410  33.976  28.969  1.00  0.00     0.198 A 
ATOM     74  C   UNL A   1      34.908  32.830  31.016  1.00  0.00     0.198 A 
ATOM     75  F   UNL A   1      36.559  31.523  32.066  1.00  0.00    -0.203 F 
ATOM     76  F   UNL A   1      35.046  34.809  27.985  1.00  0.00    -0.200 F 
ATOM     77  C   UNL A   1      34.517  33.668  29.983  1.00  0.00     0.200 A 
ATOM     78  F   UNL A   1      34.043  32.518  31.990  1.00  0.00    -0.200 F 
ATOM     79  F   UNL A   1      33.281  34.185  29.970  1.00  0.00    -0.200 F 
ENDBRANCH  45  69
BRANCH  57  80
ATOM     80  C   UNL A   1      43.140  34.854  32.742  1.00  0.00     0.064 A 
ATOM     81  C   UNL A   1      43.508  36.023  32.060  1.00  0.00     0.173 A 
ATOM     82  C   UNL A   1      43.080  34.903  34.144  1.00  0.00     0.173 A 
ATOM     83  F   UNL A   1      43.596  36.026  30.722  1.00  0.00    -0.203 F 
ATOM     84  C   UNL A   1      43.820  37.189  32.757  1.00  0.00     0.198 A 
ATOM     85  C   UNL A   1      43.359  36.077  34.834  1.00  0.00     0.198 A 
ATOM     86  F   UNL A   1      42.728  33.813  34.843  1.00  0.00    -0.203 F 
ATOM     87  F   UNL A   1      44.211  38.282  32.087  1.00  0.00    -0.200 F 
ATOM     88  C   UNL A   1      43.735  37.218  34.141  1.00  0.00     0.200 A 
ATOM     89  F   UNL A   1      43.260  36.108  36.170  1.00  0.00    -0.200 F 
ATOM     90  F   UNL A   1      44.020  38.345  34.807  1.00  0.00    -0.200 F 
ENDBRANCH  57  80
ENDBRANCH  31  32
ENDBRANCH  24  26
ENDBRANCH  23  24
ENDBRANCH  22  23
ENDBRANCH   1  22
TORSDOF 13
ENDMDL
MODEL 3
REMARK VINA RESULT:     -11.0      5.135     10.913
REMARK SMILES O=C(NCC(=O)OCCOC(=O)c1ccc(-c2c3nc(c(-c4c(F)c(F)c(F)c(F)c4F)c4ccc([nH]4)c(-c4c(F)c(F)c(F)c(F)c4F)c4nc(c(-c5c(F)c(F)c(F)c(F)c5F)c5ccc2[nH]5)C=C4)C=C3)cc1)Nc1cccc2c1CCCC2
REMARK SMILES IDX 8 1 7 2 5 3 6 4 4 5 3 6 1 7 2 8 76 9 77 12 78 13 82 14 79 15
REMARK SMILES IDX 81 16 83 17 80 18 86 19 84 20 85 21 9 22 10 23 11 24 12 25
REMARK SMILES IDX 13 26 14 27 75 28 15 29 74 30 16 31 17 32 18 33 68 34 19 35
REMARK SMILES IDX 73 36 67 37 69 38 20 39 72 40 66 41 65 42 21 44 53 45 33 46
REMARK SMILES IDX 52 47 34 48 37 49 51 50 70 51 35 52 36 53 50 55 71 56 38 57
REMARK SMILES IDX 22 58 23 59 31 60 24 61 25 62 29 63 32 64 26 65 27 66 30 67
REMARK SMILES IDX 28 68 54 69 55 70 63 71 56 72 57 73 61 74 64 75 58 76 59 77
REMARK SMILES IDX 62 78 60 79 39 80 40 81 48 82 41 83 42 84 46 85 49 86 43 87
REMARK SMILES IDX 44 88 47 89 45 90
REMARK H PARENT 3 10 76 11 69 43 37 54
REMARK Flexibility Score: inf
ROOT
ATOM      1  C   UNL A   1      42.755  20.922  26.117  1.00  0.00     0.274 C 
ENDROOT
BRANCH   1   2
ATOM      2  O   UNL A   1      41.372  21.203  25.837  1.00  0.00    -0.461 OA
BRANCH   2   3
ATOM      3  C   UNL A   1      40.545  21.345  26.906  1.00  0.00     0.325 C 
ATOM      4  O   UNL A   1      40.704  20.806  27.996  1.00  0.00    -0.250 OA
BRANCH   3   5
ATOM      5  C   UNL A   1      39.413  22.336  26.644  1.00  0.00     0.240 C 
BRANCH   5   6
ATOM      6  N   UNL A   1      38.722  22.132  25.384  1.00  0.00    -0.327 N 
ATOM      7  O   UNL A   1      37.139  21.629  23.931  1.00  0.00    -0.248 OA
ATOM      8  C   UNL A   1      37.409  21.922  25.093  1.00  0.00     0.319 C 
ATOM      9  N   UNL A   1      36.512  22.155  26.115  1.00  0.00    -0.308 N 
ATOM     10  H   UNL A   1      39.310  22.150  24.595  1.00  0.00     0.166 HD
ATOM     11  H   UNL A   1      36.850  22.221  27.037  1.00  0.00     0.171 HD
BRANCH   9  12
ATOM     12  C   UNL A   1      35.116  22.301  25.883  1.00  0.00     0.046 A 
ATOM     13  C   UNL A   1      34.315  21.562  26.746  1.00  0.00     0.026 A 
ATOM     14  C   UNL A   1      34.580  23.466  25.339  1.00  0.00    -0.021 A 
ATOM     15  C   UNL A   1      33.245  22.211  27.367  1.00  0.00     0.002 A 
ATOM     16  C   UNL A   1      33.715  24.230  26.125  1.00  0.00    -0.043 A 
ATOM     17  C   UNL A   1      34.086  23.425  23.885  1.00  0.00     0.038 C 
ATOM     18  C   UNL A   1      33.025  23.579  27.144  1.00  0.00     0.004 A 
ATOM     19  C   UNL A   1      33.468  25.657  25.718  1.00  0.00     0.036 C 
ATOM     20  C   UNL A   1      33.701  24.802  23.325  1.00  0.00     0.005 C 
ATOM     21  C   UNL A   1      33.983  25.948  24.297  1.00  0.00     0.005 C 
ENDBRANCH   9  12
ENDBRANCH   5   6
ENDBRANCH   3   5
ENDBRANCH   2   3
ENDBRANCH   1   2
BRANCH   1  22
ATOM     22  C   UNL A   1      43.678  21.830  25.298  1.00  0.00     0.275 C 
BRANCH  22  23
ATOM     23  O   UNL A   1      43.041  23.068  24.924  1.00  0.00    -0.458 OA
BRANCH  23  24
ATOM     24  C   UNL A   1      43.814  24.175  25.021  1.00  0.00     0.338 C 
ATOM     25  O   UNL A   1      44.764  24.484  24.325  1.00  0.00    -0.246 OA
BRANCH  24  26
ATOM     26  C   UNL A   1      43.264  25.066  26.055  1.00  0.00     0.060 A 
ATOM     27  C   UNL A   1      43.762  26.369  26.141  1.00  0.00     0.016 A 
ATOM     28  C   UNL A   1      42.324  24.601  26.976  1.00  0.00     0.016 A 
ATOM     29  C   UNL A   1      43.337  27.211  27.166  1.00  0.00     0.010 A 
ATOM     30  C   UNL A   1      41.885  25.452  27.991  1.00  0.00     0.010 A 
ATOM     31  C   UNL A   1      42.397  26.758  28.101  1.00  0.00    -0.014 A 
BRANCH  31  32
ATOM     32  C   UNL A   1      41.954  27.638  29.210  1.00  0.00     0.031 A 
ATOM     33  C   UNL A   1      42.684  27.618  30.521  1.00  0.00     0.074 A 
ATOM     34  C   UNL A   1      40.878  28.430  29.045  1.00  0.00     0.049 A 
ATOM     35  N   UNL A   1      42.380  28.206  31.650  1.00  0.00    -0.248 NA
ATOM     36  C   UNL A   1      43.921  26.823  30.569  1.00  0.00     0.031 C 
ATOM     37  C   UNL A   1      40.108  28.558  27.808  1.00  0.00     0.029 A 
ATOM     38  N   UNL A   1      40.235  29.259  29.929  1.00  0.00    -0.354 N 
ATOM     39  C   UNL A   1      43.373  27.836  32.548  1.00  0.00     0.074 A 
ATOM     40  C   UNL A   1      44.276  26.954  31.840  1.00  0.00     0.031 C 
ATOM     41  C   UNL A   1      39.090  29.410  28.013  1.00  0.00     0.029 A 
ATOM     42  C   UNL A   1      39.104  29.841  29.408  1.00  0.00     0.049 A 
ATOM     43  H   UNL A   1      40.553  29.423  30.846  1.00  0.00     0.167 HD
ATOM     44  C   UNL A   1      43.515  28.206  33.844  1.00  0.00     0.037 A 
ATOM     45  C   UNL A   1      38.164  30.602  30.002  1.00  0.00     0.037 A 
ATOM     46  C   UNL A   1      42.613  29.090  34.536  1.00  0.00     0.049 A 
ATOM     47  C   UNL A   1      38.306  30.937  31.463  1.00  0.00     0.074 A 
ATOM     48  C   UNL A   1      42.683  29.547  35.841  1.00  0.00     0.029 A 
ATOM     49  N   UNL A   1      41.468  29.645  33.980  1.00  0.00    -0.354 N 
ATOM     50  N   UNL A   1      39.256  30.601  32.301  1.00  0.00    -0.248 NA
ATOM     51  C   UNL A   1      37.241  31.753  32.061  1.00  0.00     0.031 C 
ATOM     52  C   UNL A   1      41.551  30.327  36.094  1.00  0.00     0.029 A 
ATOM     53  C   UNL A   1      40.808  30.415  34.927  1.00  0.00     0.049 A 
ATOM     54  H   UNL A   1      41.169  29.513  33.052  1.00  0.00     0.167 HD
ATOM     55  C   UNL A   1      38.924  31.192  33.513  1.00  0.00     0.074 A 
ATOM     56  C   UNL A   1      37.687  31.915  33.299  1.00  0.00     0.031 C 
ATOM     57  C   UNL A   1      39.586  31.142  34.695  1.00  0.00     0.037 A 
BRANCH  44  58
ATOM     58  C   UNL A   1      44.673  27.633  34.611  1.00  0.00     0.064 A 
ATOM     59  C   UNL A   1      45.936  28.243  34.616  1.00  0.00     0.173 A 
ATOM     60  C   UNL A   1      44.503  26.477  35.389  1.00  0.00     0.173 A 
ATOM     61  F   UNL A   1      46.156  29.345  33.882  1.00  0.00    -0.203 F 
ATOM     62  C   UNL A   1      46.991  27.702  35.345  1.00  0.00     0.198 A 
ATOM     63  C   UNL A   1      45.551  25.957  36.144  1.00  0.00     0.198 A 
ATOM     64  F   UNL A   1      43.314  25.856  35.429  1.00  0.00    -0.203 F 
ATOM     65  F   UNL A   1      48.202  28.274  35.294  1.00  0.00    -0.200 F 
ATOM     66  C   UNL A   1      46.796  26.564  36.115  1.00  0.00     0.200 A 
ATOM     67  F   UNL A   1      45.355  24.867  36.899  1.00  0.00    -0.200 F 
ATOM     68  F   UNL A   1      47.812  26.050  36.823  1.00  0.00    -0.200 F 
ENDBRANCH  44  58
BRANCH  45  69
ATOM     69  C   UNL A   1      36.996  31.082  29.218  1.00  0.00     0.064 A 
ATOM     70  C   UNL A   1      36.924  32.407  28.769  1.00  0.00     0.173 A 
ATOM     71  C   UNL A   1      35.923  30.231  28.911  1.00  0.00     0.173 A 
ATOM     72  F   UNL A   1      37.914  33.266  29.056  1.00  0.00    -0.203 F 
ATOM     73  C   UNL A   1      35.816  32.869  28.061  1.00  0.00     0.198 A 
ATOM     74  C   UNL A   1      34.830  30.685  28.176  1.00  0.00     0.198 A 
ATOM     75  F   UNL A   1      35.942  28.953  29.317  1.00  0.00    -0.203 F 
ATOM     76  F   UNL A   1      35.750  34.154  27.688  1.00  0.00    -0.200 F 
ATOM     77  C   UNL A   1      34.774  32.006  27.760  1.00  0.00     0.200 A 
ATOM     78  F   UNL A   1      33.833  29.843  27.873  1.00  0.00    -0.200 F 
ATOM     79  F   UNL A   1      33.710  32.449  27.075  1.00  0.00    -0.200 F 
ENDBRANCH  45  69
BRANCH  57  80
ATOM     80  C   UNL A   1      39.021  31.933  35.841  1.00  0.00     0.064 A 
ATOM     81  C   UNL A   1      38.171  31.352  36.794  1.00  0.00     0.173 A 
ATOM     82  C   UNL A   1      39.386  33.277  36.020  1.00  0.00     0.173 A 
ATOM     83  F   UNL A   1      37.779  30.076  36.662  1.00  0.00    -0.203 F 
ATOM     84  C   UNL A   1      37.692  32.094  37.872  1.00  0.00     0.198 A 
ATOM     85  C   UNL A   1      38.934  34.005  37.115  1.00  0.00     0.198 A 
ATOM     86  F   UNL A   1      40.201  33.877  35.140  1.00  0.00    -0.203 F 
ATOM     87  F   UNL A   1      36.847  31.532  38.746  1.00  0.00    -0.200 F 
ATOM     88  C   UNL A   1      38.082  33.415  38.037  1.00  0.00     0.200 A 
ATOM     89  F   UNL A   1      39.325  35.275  37.282  1.00  0.00    -0.200 F 
ATOM     90  F   UNL A   1      37.633  34.121  39.083  1.00  0.00    -0.200 F 
ENDBRANCH  57  80
ENDBRANCH  31  32
ENDBRANCH  24  26
ENDBRANCH  23  24
ENDBRANCH  22  23
ENDBRANCH   1  22
TORSDOF 13
ENDMDL
