MODEL 1
REMARK VINA RESULT:     -12.9      0.000      0.000
REMARK SMILES CC(C)(C)OC(=O)N1CCN(C(=O)c2ccc3c(c2)OCO3)[C@H](C(=O)OCCOC(=O)c2ccc(-c3c4nc(c(-c5c(F)c(F)c(F)c(F)c5F)c5ccc([nH]5)c(-c5c(F)c(F)c(F)c(F)c5F)c5nc(c(-c6c(F)c(F)c(F)c(F)c6F)c6ccc3[nH]6)C=C5)C=C4)cc2)C1
REMARK SMILES IDX 27 1 26 2 24 3 25 4 23 5 8 6 9 7 95 8 10 9 11 10 6 11 7 12
REMARK SMILES IDX 5 13 2 14 1 15 3 16 4 17 12 18 13 19 14 20 15 21 19 22 16 23
REMARK SMILES IDX 18 24 17 25 20 26 22 27 21 28 28 29 29 30 30 31 31 32 32 33
REMARK SMILES IDX 33 34 94 35 34 36 93 37 35 38 36 39 37 40 87 41 38 42 92 43
REMARK SMILES IDX 86 44 88 45 39 46 91 47 85 48 84 49 40 51 72 52 52 53 71 54
REMARK SMILES IDX 53 55 56 56 70 57 89 58 54 59 55 60 69 62 90 63 57 64 41 65
REMARK SMILES IDX 42 66 50 67 43 68 44 69 48 70 51 71 45 72 46 73 49 74 47 75
REMARK SMILES IDX 73 76 74 77 82 78 75 79 76 80 80 81 83 82 77 83 78 84 81 85
REMARK SMILES IDX 79 86 58 87 59 88 67 89 60 90 61 91 65 92 68 93 62 94 63 95
REMARK SMILES IDX 66 96 64 97
REMARK H PARENT 88 50 56 61
REMARK Flexibility Score: inf
ROOT
ATOM      1  C   UNL A   1      32.307  28.944  25.057  1.00  0.00     0.274 C 
ENDROOT
BRANCH   1   2
ATOM      2  O   UNL A   1      32.653  27.784  25.851  1.00  0.00    -0.460 OA
BRANCH   2   3
ATOM      3  C   UNL A   1      31.577  27.027  26.182  1.00  0.00     0.330 C 
ATOM      4  O   UNL A   1      30.783  27.366  27.045  1.00  0.00    -0.250 OA
BRANCH   3   5
ATOM      5  C   UNL A   1      31.413  25.751  25.359  1.00  0.00     0.215 C 
ATOM      6  N   UNL A   1      33.111  24.471  23.867  1.00  0.00    -0.304 N 
ATOM      7  C   UNL A   1      32.258  24.714  22.717  1.00  0.00     0.144 C 
ATOM      8  C   UNL A   1      32.880  25.281  25.070  1.00  0.00     0.160 C 
ATOM      9  C   UNL A   1      30.798  24.816  23.127  1.00  0.00     0.142 C 
ATOM     10  N   UNL A   1      30.584  25.892  24.099  1.00  0.00    -0.321 N 
BRANCH   6  11
ATOM     11  C   UNL A   1      34.311  23.805  23.644  1.00  0.00     0.410 C 
ATOM     12  O   UNL A   1      34.783  23.631  22.531  1.00  0.00    -0.224 OA
BRANCH  11  13
ATOM     13  O   UNL A   1      34.864  23.351  24.794  1.00  0.00    -0.444 OA
BRANCH  13  14
ATOM     14  C   UNL A   1      34.738  21.958  25.188  1.00  0.00     0.106 C 
ATOM     15  C   UNL A   1      34.428  22.020  26.690  1.00  0.00     0.056 C 
ATOM     16  C   UNL A   1      36.057  21.208  24.979  1.00  0.00     0.056 C 
ATOM     17  C   UNL A   1      33.571  21.250  24.485  1.00  0.00     0.056 C 
ENDBRANCH  13  14
ENDBRANCH  11  13
ENDBRANCH   6  11
BRANCH  10  18
ATOM     18  C   UNL A   1      29.372  26.587  23.935  1.00  0.00     0.254 C 
ATOM     19  O   UNL A   1      28.276  26.121  24.244  1.00  0.00    -0.269 OA
BRANCH  18  20
ATOM     20  C   UNL A   1      29.322  27.891  23.254  1.00  0.00     0.044 A 
ATOM     21  C   UNL A   1      30.441  28.300  22.487  1.00  0.00     0.018 A 
ATOM     22  C   UNL A   1      28.185  28.694  23.360  1.00  0.00     0.064 A 
ATOM     23  C   UNL A   1      30.480  29.581  21.927  1.00  0.00     0.051 A 
ATOM     24  C   UNL A   1      28.251  29.942  22.774  1.00  0.00     0.166 A 
ATOM     25  C   UNL A   1      29.372  30.382  22.100  1.00  0.00     0.165 A 
ATOM     26  O   UNL A   1      27.278  30.891  22.826  1.00  0.00    -0.454 OA
ATOM     27  O   UNL A   1      29.251  31.668  21.674  1.00  0.00    -0.454 OA
ATOM     28  C   UNL A   1      27.917  31.980  22.124  1.00  0.00     0.468 C 
ENDBRANCH  18  20
ENDBRANCH  10  18
ENDBRANCH   3   5
ENDBRANCH   2   3
ENDBRANCH   1   2
BRANCH   1  29
ATOM     29  C   UNL A   1      31.741  30.148  25.839  1.00  0.00     0.275 C 
BRANCH  29  30
ATOM     30  O   UNL A   1      32.326  30.358  27.146  1.00  0.00    -0.458 OA
BRANCH  30  31
ATOM     31  C   UNL A   1      33.082  31.477  27.260  1.00  0.00     0.338 C 
ATOM     32  O   UNL A   1      32.678  32.629  27.184  1.00  0.00    -0.246 OA
BRANCH  31  33
ATOM     33  C   UNL A   1      34.487  31.189  27.627  1.00  0.00     0.060 A 
ATOM     34  C   UNL A   1      34.847  29.869  27.922  1.00  0.00     0.016 A 
ATOM     35  C   UNL A   1      35.372  32.218  27.936  1.00  0.00     0.016 A 
ATOM     36  C   UNL A   1      36.022  29.572  28.592  1.00  0.00     0.010 A 
ATOM     37  C   UNL A   1      36.596  31.913  28.555  1.00  0.00     0.010 A 
ATOM     38  C   UNL A   1      36.915  30.590  28.918  1.00  0.00    -0.014 A 
BRANCH  38  39
ATOM     39  C   UNL A   1      38.134  30.252  29.696  1.00  0.00     0.031 A 
ATOM     40  C   UNL A   1      39.168  29.338  29.102  1.00  0.00     0.074 A 
ATOM     41  C   UNL A   1      38.338  30.802  30.909  1.00  0.00     0.049 A 
ATOM     42  N   UNL A   1      40.208  28.781  29.672  1.00  0.00    -0.248 NA
ATOM     43  C   UNL A   1      39.010  28.995  27.679  1.00  0.00     0.031 C 
ATOM     44  C   UNL A   1      37.455  31.773  31.560  1.00  0.00     0.029 A 
ATOM     45  N   UNL A   1      39.353  30.622  31.816  1.00  0.00    -0.354 N 
ATOM     46  C   UNL A   1      40.787  27.978  28.698  1.00  0.00     0.074 A 
ATOM     47  C   UNL A   1      39.993  28.122  27.498  1.00  0.00     0.031 C 
ATOM     48  C   UNL A   1      37.964  32.102  32.756  1.00  0.00     0.029 A 
ATOM     49  C   UNL A   1      39.157  31.299  32.997  1.00  0.00     0.049 A 
ATOM     50  H   UNL A   1      40.144  30.063  31.639  1.00  0.00     0.167 HD
ATOM     51  C   UNL A   1      41.880  27.186  28.810  1.00  0.00     0.037 A 
ATOM     52  C   UNL A   1      39.825  31.232  34.165  1.00  0.00     0.037 A 
ATOM     53  C   UNL A   1      42.698  27.102  29.993  1.00  0.00     0.049 A 
ATOM     54  C   UNL A   1      41.005  30.304  34.273  1.00  0.00     0.074 A 
ATOM     55  C   UNL A   1      43.849  26.362  30.193  1.00  0.00     0.029 A 
ATOM     56  N   UNL A   1      42.452  27.786  31.175  1.00  0.00    -0.354 N 
ATOM     57  N   UNL A   1      41.532  29.523  33.361  1.00  0.00    -0.248 NA
ATOM     58  C   UNL A   1      41.677  30.239  35.577  1.00  0.00     0.031 C 
ATOM     59  C   UNL A   1      44.263  26.546  31.515  1.00  0.00     0.029 A 
ATOM     60  C   UNL A   1      43.412  27.456  32.119  1.00  0.00     0.049 A 
ATOM     61  H   UNL A   1      41.706  28.412  31.321  1.00  0.00     0.167 HD
ATOM     62  C   UNL A   1      42.610  28.899  33.970  1.00  0.00     0.074 A 
ATOM     63  C   UNL A   1      42.675  29.405  35.325  1.00  0.00     0.031 C 
ATOM     64  C   UNL A   1      43.468  27.983  33.458  1.00  0.00     0.037 A 
BRANCH  51  65
ATOM     65  C   UNL A   1      42.239  26.302  27.650  1.00  0.00     0.064 A 
ATOM     66  C   UNL A   1      43.206  26.660  26.702  1.00  0.00     0.173 A 
ATOM     67  C   UNL A   1      41.647  25.033  27.538  1.00  0.00     0.173 A 
ATOM     68  F   UNL A   1      43.793  27.866  26.756  1.00  0.00    -0.203 F 
ATOM     69  C   UNL A   1      43.561  25.784  25.677  1.00  0.00     0.198 A 
ATOM     70  C   UNL A   1      42.025  24.150  26.531  1.00  0.00     0.198 A 
ATOM     71  F   UNL A   1      40.718  24.640  28.421  1.00  0.00    -0.203 F 
ATOM     72  F   UNL A   1      44.465  26.159  24.761  1.00  0.00    -0.200 F 
ATOM     73  C   UNL A   1      42.979  24.527  25.599  1.00  0.00     0.200 A 
ATOM     74  F   UNL A   1      41.473  22.930  26.469  1.00  0.00    -0.200 F 
ATOM     75  F   UNL A   1      43.338  23.679  24.625  1.00  0.00    -0.200 F 
ENDBRANCH  51  65
BRANCH  52  76
ATOM     76  C   UNL A   1      39.348  32.002  35.346  1.00  0.00     0.064 A 
ATOM     77  C   UNL A   1      39.781  33.313  35.585  1.00  0.00     0.173 A 
ATOM     78  C   UNL A   1      38.479  31.424  36.286  1.00  0.00     0.173 A 
ATOM     79  F   UNL A   1      40.632  33.903  34.732  1.00  0.00    -0.203 F 
ATOM     80  C   UNL A   1      39.393  34.003  36.732  1.00  0.00     0.198 A 
ATOM     81  C   UNL A   1      38.059  32.129  37.411  1.00  0.00     0.198 A 
ATOM     82  F   UNL A   1      38.033  30.171  36.111  1.00  0.00    -0.203 F 
ATOM     83  F   UNL A   1      39.879  35.228  36.970  1.00  0.00    -0.200 F 
ATOM     84  C   UNL A   1      38.527  33.412  37.641  1.00  0.00     0.200 A 
ATOM     85  F   UNL A   1      37.210  31.559  38.277  1.00  0.00    -0.200 F 
ATOM     86  F   UNL A   1      38.157  34.075  38.745  1.00  0.00    -0.200 F 
ENDBRANCH  52  76
BRANCH  64  87
ATOM     87  C   UNL A   1      44.581  27.510  34.348  1.00  0.00     0.064 A 
ATOM     88  C   UNL A   1      44.450  26.370  35.154  1.00  0.00     0.173 A 
ATOM     89  C   UNL A   1      45.807  28.194  34.371  1.00  0.00     0.173 A 
ATOM     90  F   UNL A   1      43.294  25.690  35.181  1.00  0.00    -0.203 F 
ATOM     91  C   UNL A   1      45.495  25.950  35.972  1.00  0.00     0.198 A 
ATOM     92  C   UNL A   1      46.860  27.750  35.162  1.00  0.00     0.198 A 
ATOM     93  F   UNL A   1      45.985  29.287  33.613  1.00  0.00    -0.203 F 
ATOM     94  F   UNL A   1      45.329  24.891  36.777  1.00  0.00    -0.200 F 
ATOM     95  C   UNL A   1      46.702  26.635  35.970  1.00  0.00     0.200 A 
ATOM     96  F   UNL A   1      48.031  28.403  35.145  1.00  0.00    -0.200 F 
ATOM     97  F   UNL A   1      47.709  26.224  36.753  1.00  0.00    -0.200 F 
ENDBRANCH  64  87
ENDBRANCH  38  39
ENDBRANCH  31  33
ENDBRANCH  30  31
ENDBRANCH  29  30
ENDBRANCH   1  29
TORSDOF 16
ENDMDL
MODEL 2
REMARK VINA RESULT:     -12.9      0.974      2.063
REMARK SMILES CC(C)(C)OC(=O)N1CCN(C(=O)c2ccc3c(c2)OCO3)[C@H](C(=O)OCCOC(=O)c2ccc(-c3c4nc(c(-c5c(F)c(F)c(F)c(F)c5F)c5ccc([nH]5)c(-c5c(F)c(F)c(F)c(F)c5F)c5nc(c(-c6c(F)c(F)c(F)c(F)c6F)c6ccc3[nH]6)C=C5)C=C4)cc2)C1
REMARK SMILES IDX 27 1 26 2 24 3 25 4 23 5 8 6 9 7 95 8 10 9 11 10 6 11 7 12
REMARK SMILES IDX 5 13 2 14 1 15 3 16 4 17 12 18 13 19 14 20 15 21 19 22 16 23
REMARK SMILES IDX 18 24 17 25 20 26 22 27 21 28 28 29 29 30 30 31 31 32 32 33
REMARK SMILES IDX 33 34 94 35 34 36 93 37 35 38 36 39 37 40 87 41 38 42 92 43
REMARK SMILES IDX 86 44 88 45 39 46 91 47 85 48 84 49 40 51 72 52 52 53 71 54
REMARK SMILES IDX 53 55 56 56 70 57 89 58 54 59 55 60 69 62 90 63 57 64 41 65
REMARK SMILES IDX 42 66 50 67 43 68 44 69 48 70 51 71 45 72 46 73 49 74 47 75
REMARK SMILES IDX 73 76 74 77 82 78 75 79 76 80 80 81 83 82 77 83 78 84 81 85
REMARK SMILES IDX 79 86 58 87 59 88 67 89 60 90 61 91 65 92 68 93 62 94 63 95
REMARK SMILES IDX 66 96 64 97
REMARK H PARENT 88 50 56 61
REMARK Flexibility Score: inf
ROOT
ATOM      1  C   UNL A   1      32.522  29.329  24.970  1.00  0.00     0.274 C 
ENDROOT
BRANCH   1   2
ATOM      2  O   UNL A   1      32.903  28.106  25.645  1.00  0.00    -0.460 OA
BRANCH   2   3
ATOM      3  C   UNL A   1      33.005  27.046  24.804  1.00  0.00     0.330 C 
ATOM      4  O   UNL A   1      33.987  26.865  24.101  1.00  0.00    -0.250 OA
BRANCH   3   5
ATOM      5  C   UNL A   1      31.823  26.081  24.843  1.00  0.00     0.215 C 
ATOM      6  N   UNL A   1      31.752  23.507  25.194  1.00  0.00    -0.304 N 
ATOM      7  C   UNL A   1      31.173  23.360  23.870  1.00  0.00     0.144 C 
ATOM      8  C   UNL A   1      32.397  24.787  25.516  1.00  0.00     0.160 C 
ATOM      9  C   UNL A   1      30.355  24.583  23.489  1.00  0.00     0.142 C 
ATOM     10  N   UNL A   1      31.166  25.803  23.507  1.00  0.00    -0.321 N 
BRANCH   6  11
ATOM     11  C   UNL A   1      32.018  22.345  25.908  1.00  0.00     0.410 C 
ATOM     12  O   UNL A   1      32.516  22.344  27.024  1.00  0.00    -0.224 OA
BRANCH  11  13
ATOM     13  O   UNL A   1      31.691  21.231  25.210  1.00  0.00    -0.444 OA
BRANCH  13  14
ATOM     14  C   UNL A   1      32.718  20.363  24.660  1.00  0.00     0.106 C 
ATOM     15  C   UNL A   1      32.800  19.199  25.658  1.00  0.00     0.056 C 
ATOM     16  C   UNL A   1      34.072  21.079  24.613  1.00  0.00     0.056 C 
ATOM     17  C   UNL A   1      32.336  19.792  23.287  1.00  0.00     0.056 C 
ENDBRANCH  13  14
ENDBRANCH  11  13
ENDBRANCH   6  11
BRANCH  10  18
ATOM     18  C   UNL A   1      30.849  26.724  22.491  1.00  0.00     0.254 C 
ATOM     19  O   UNL A   1      31.420  26.755  21.402  1.00  0.00    -0.269 OA
BRANCH  18  20
ATOM     20  C   UNL A   1      29.883  27.811  22.717  1.00  0.00     0.044 A 
ATOM     21  C   UNL A   1      28.634  27.498  23.310  1.00  0.00     0.018 A 
ATOM     22  C   UNL A   1      30.205  29.122  22.358  1.00  0.00     0.064 A 
ATOM     23  C   UNL A   1      27.645  28.480  23.428  1.00  0.00     0.051 A 
ATOM     24  C   UNL A   1      29.211  30.068  22.511  1.00  0.00     0.166 A 
ATOM     25  C   UNL A   1      27.963  29.753  23.007  1.00  0.00     0.165 A 
ATOM     26  O   UNL A   1      29.309  31.378  22.157  1.00  0.00    -0.454 OA
ATOM     27  O   UNL A   1      27.117  30.818  22.996  1.00  0.00    -0.454 OA
ATOM     28  C   UNL A   1      27.979  31.847  22.470  1.00  0.00     0.468 C 
ENDBRANCH  18  20
ENDBRANCH  10  18
ENDBRANCH   3   5
ENDBRANCH   2   3
ENDBRANCH   1   2
BRANCH   1  29
ATOM     29  C   UNL A   1      31.853  30.404  25.854  1.00  0.00     0.275 C 
BRANCH  29  30
ATOM     30  O   UNL A   1      32.419  30.545  27.179  1.00  0.00    -0.458 OA
BRANCH  30  31
ATOM     31  C   UNL A   1      33.188  31.646  27.356  1.00  0.00     0.338 C 
ATOM     32  O   UNL A   1      32.800  32.805  27.343  1.00  0.00    -0.246 OA
BRANCH  31  33
ATOM     33  C   UNL A   1      34.589  31.320  27.709  1.00  0.00     0.060 A 
ATOM     34  C   UNL A   1      34.906  30.000  28.049  1.00  0.00     0.016 A 
ATOM     35  C   UNL A   1      35.516  32.328  27.963  1.00  0.00     0.016 A 
ATOM     36  C   UNL A   1      36.082  29.686  28.709  1.00  0.00     0.010 A 
ATOM     37  C   UNL A   1      36.739  32.001  28.572  1.00  0.00     0.010 A 
ATOM     38  C   UNL A   1      37.017  30.682  28.981  1.00  0.00    -0.014 A 
BRANCH  38  39
ATOM     39  C   UNL A   1      38.238  30.329  29.751  1.00  0.00     0.031 A 
ATOM     40  C   UNL A   1      39.257  29.404  29.148  1.00  0.00     0.074 A 
ATOM     41  C   UNL A   1      38.456  30.875  30.963  1.00  0.00     0.049 A 
ATOM     42  N   UNL A   1      40.294  28.835  29.709  1.00  0.00    -0.248 NA
ATOM     43  C   UNL A   1      39.086  29.066  27.725  1.00  0.00     0.031 C 
ATOM     44  C   UNL A   1      37.587  31.854  31.621  1.00  0.00     0.029 A 
ATOM     45  N   UNL A   1      39.475  30.681  31.863  1.00  0.00    -0.354 N 
ATOM     46  C   UNL A   1      40.858  28.027  28.731  1.00  0.00     0.074 A 
ATOM     47  C   UNL A   1      40.058  28.182  27.536  1.00  0.00     0.031 C 
ATOM     48  C   UNL A   1      38.108  32.175  32.815  1.00  0.00     0.029 A 
ATOM     49  C   UNL A   1      39.294  31.358  33.046  1.00  0.00     0.049 A 
ATOM     50  H   UNL A   1      40.258  30.114  31.679  1.00  0.00     0.167 HD
ATOM     51  C   UNL A   1      41.943  27.223  28.834  1.00  0.00     0.037 A 
ATOM     52  C   UNL A   1      39.968  31.282  34.209  1.00  0.00     0.037 A 
ATOM     53  C   UNL A   1      42.768  27.127  30.012  1.00  0.00     0.049 A 
ATOM     54  C   UNL A   1      41.138  30.341  34.308  1.00  0.00     0.074 A 
ATOM     55  C   UNL A   1      43.912  26.374  30.203  1.00  0.00     0.029 A 
ATOM     56  N   UNL A   1      42.537  27.812  31.196  1.00  0.00    -0.354 N 
ATOM     57  N   UNL A   1      41.651  29.556  33.391  1.00  0.00    -0.248 NA
ATOM     58  C   UNL A   1      41.819  30.266  35.607  1.00  0.00     0.031 C 
ATOM     59  C   UNL A   1      44.336  26.551  31.522  1.00  0.00     0.029 A 
ATOM     60  C   UNL A   1      43.499  27.470  32.133  1.00  0.00     0.049 A 
ATOM     61  H   UNL A   1      41.799  28.446  31.348  1.00  0.00     0.167 HD
ATOM     62  C   UNL A   1      42.726  28.918  33.992  1.00  0.00     0.074 A 
ATOM     63  C   UNL A   1      42.805  29.421  35.347  1.00  0.00     0.031 C 
ATOM     64  C   UNL A   1      43.571  27.994  33.473  1.00  0.00     0.037 A 
BRANCH  51  65
ATOM     65  C   UNL A   1      42.284  26.337  27.671  1.00  0.00     0.064 A 
ATOM     66  C   UNL A   1      43.270  26.672  26.733  1.00  0.00     0.173 A 
ATOM     67  C   UNL A   1      41.654  25.088  27.543  1.00  0.00     0.173 A 
ATOM     68  F   UNL A   1      43.893  27.858  26.802  1.00  0.00    -0.203 F 
ATOM     69  C   UNL A   1      43.606  25.793  25.704  1.00  0.00     0.198 A 
ATOM     70  C   UNL A   1      42.014  24.201  26.533  1.00  0.00     0.198 A 
ATOM     71  F   UNL A   1      40.705  24.717  28.416  1.00  0.00    -0.203 F 
ATOM     72  F   UNL A   1      44.530  26.146  24.799  1.00  0.00    -0.200 F 
ATOM     73  C   UNL A   1      42.987  24.555  25.612  1.00  0.00     0.200 A 
ATOM     74  F   UNL A   1      41.424  23.000  26.456  1.00  0.00    -0.200 F 
ATOM     75  F   UNL A   1      43.328  23.704  24.634  1.00  0.00    -0.200 F 
ENDBRANCH  51  65
BRANCH  52  76
ATOM     76  C   UNL A   1      39.508  32.055  35.395  1.00  0.00     0.064 A 
ATOM     77  C   UNL A   1      38.608  31.507  36.319  1.00  0.00     0.173 A 
ATOM     78  C   UNL A   1      39.927  33.379  35.605  1.00  0.00     0.173 A 
ATOM     79  F   UNL A   1      38.156  30.255  36.151  1.00  0.00    -0.203 F 
ATOM     80  C   UNL A   1      38.120  32.260  37.385  1.00  0.00     0.198 A 
ATOM     81  C   UNL A   1      39.472  34.118  36.694  1.00  0.00     0.198 A 
ATOM     82  F   UNL A   1      40.787  33.957  34.752  1.00  0.00    -0.203 F 
ATOM     83  F   UNL A   1      37.207  31.734  38.212  1.00  0.00    -0.200 F 
ATOM     84  C   UNL A   1      38.557  33.564  37.575  1.00  0.00     0.200 A 
ATOM     85  F   UNL A   1      39.910  35.370  36.881  1.00  0.00    -0.200 F 
ATOM     86  F   UNL A   1      38.086  34.289  38.598  1.00  0.00    -0.200 F 
ENDBRANCH  52  76
BRANCH  64  87
ATOM     87  C   UNL A   1      44.683  27.507  34.355  1.00  0.00     0.064 A 
ATOM     88  C   UNL A   1      45.915  28.174  34.430  1.00  0.00     0.173 A 
ATOM     89  C   UNL A   1      44.501  26.372  35.161  1.00  0.00     0.173 A 
ATOM     90  F   UNL A   1      46.146  29.254  33.668  1.00  0.00    -0.203 F 
ATOM     91  C   UNL A   1      46.933  27.705  35.255  1.00  0.00     0.198 A 
ATOM     92  C   UNL A   1      45.508  25.928  36.011  1.00  0.00     0.198 A 
ATOM     93  F   UNL A   1      43.339  25.703  35.133  1.00  0.00    -0.203 F 
ATOM     94  F   UNL A   1      48.121  28.324  35.267  1.00  0.00    -0.200 F 
ATOM     95  C   UNL A   1      46.726  26.587  36.051  1.00  0.00     0.200 A 
ATOM     96  F   UNL A   1      45.299  24.859  36.793  1.00  0.00    -0.200 F 
ATOM     97  F   UNL A   1      47.705  26.142  36.850  1.00  0.00    -0.200 F 
ENDBRANCH  64  87
ENDBRANCH  38  39
ENDBRANCH  31  33
ENDBRANCH  30  31
ENDBRANCH  29  30
ENDBRANCH   1  29
TORSDOF 16
ENDMDL
MODEL 3
REMARK VINA RESULT:     -12.8      4.251     10.046
REMARK SMILES CC(C)(C)OC(=O)N1CCN(C(=O)c2ccc3c(c2)OCO3)[C@H](C(=O)OCCOC(=O)c2ccc(-c3c4nc(c(-c5c(F)c(F)c(F)c(F)c5F)c5ccc([nH]5)c(-c5c(F)c(F)c(F)c(F)c5F)c5nc(c(-c6c(F)c(F)c(F)c(F)c6F)c6ccc3[nH]6)C=C5)C=C4)cc2)C1
REMARK SMILES IDX 27 1 26 2 24 3 25 4 23 5 8 6 9 7 95 8 10 9 11 10 6 11 7 12
REMARK SMILES IDX 5 13 2 14 1 15 3 16 4 17 12 18 13 19 14 20 15 21 19 22 16 23
REMARK SMILES IDX 18 24 17 25 20 26 22 27 21 28 28 29 29 30 30 31 31 32 32 33
REMARK SMILES IDX 33 34 94 35 34 36 93 37 35 38 36 39 37 40 87 41 38 42 92 43
REMARK SMILES IDX 86 44 88 45 39 46 91 47 85 48 84 49 40 51 72 52 52 53 71 54
REMARK SMILES IDX 53 55 56 56 70 57 89 58 54 59 55 60 69 62 90 63 57 64 41 65
REMARK SMILES IDX 42 66 50 67 43 68 44 69 48 70 51 71 45 72 46 73 49 74 47 75
REMARK SMILES IDX 73 76 74 77 82 78 75 79 76 80 80 81 83 82 77 83 78 84 81 85
REMARK SMILES IDX 79 86 58 87 59 88 67 89 60 90 61 91 65 92 68 93 62 94 63 95
REMARK SMILES IDX 66 96 64 97
REMARK H PARENT 88 50 56 61
REMARK Flexibility Score: inf
ROOT
ATOM      1  C   UNL A   1      35.726  21.118  24.626  1.00  0.00     0.274 C 
ENDROOT
BRANCH   1   2
ATOM      2  O   UNL A   1      35.063  22.400  24.735  1.00  0.00    -0.460 OA
BRANCH   2   3
ATOM      3  C   UNL A   1      34.823  22.978  23.531  1.00  0.00     0.330 C 
ATOM      4  O   UNL A   1      35.640  22.958  22.625  1.00  0.00    -0.250 OA
BRANCH   3   5
ATOM      5  C   UNL A   1      33.438  23.605  23.386  1.00  0.00     0.215 C 
ATOM      6  N   UNL A   1      32.061  25.062  25.039  1.00  0.00    -0.304 N 
ATOM      7  C   UNL A   1      31.033  24.035  25.059  1.00  0.00     0.144 C 
ATOM      8  C   UNL A   1      33.382  24.692  24.515  1.00  0.00     0.160 C 
ATOM      9  C   UNL A   1      30.990  23.274  23.745  1.00  0.00     0.142 C 
ATOM     10  N   UNL A   1      32.275  22.637  23.447  1.00  0.00    -0.321 N 
BRANCH   6  11
ATOM     11  C   UNL A   1      31.874  26.170  25.857  1.00  0.00     0.410 C 
ATOM     12  O   UNL A   1      31.131  26.169  26.827  1.00  0.00    -0.224 OA
BRANCH  11  13
ATOM     13  O   UNL A   1      32.581  27.244  25.430  1.00  0.00    -0.444 OA
BRANCH  13  14
ATOM     14  C   UNL A   1      31.986  28.229  24.544  1.00  0.00     0.106 C 
ATOM     15  C   UNL A   1      31.814  29.473  25.428  1.00  0.00     0.056 C 
ATOM     16  C   UNL A   1      30.609  27.766  24.056  1.00  0.00     0.056 C 
ATOM     17  C   UNL A   1      32.904  28.598  23.370  1.00  0.00     0.056 C 
ENDBRANCH  13  14
ENDBRANCH  11  13
ENDBRANCH   6  11
BRANCH  10  18
ATOM     18  C   UNL A   1      32.168  21.376  22.832  1.00  0.00     0.254 C 
ATOM     19  O   UNL A   1      31.780  21.218  21.675  1.00  0.00    -0.269 OA
BRANCH  18  20
ATOM     20  C   UNL A   1      32.395  20.133  23.586  1.00  0.00     0.044 A 
ATOM     21  C   UNL A   1      32.395  20.188  25.002  1.00  0.00     0.018 A 
ATOM     22  C   UNL A   1      32.596  18.928  22.909  1.00  0.00     0.064 A 
ATOM     23  C   UNL A   1      32.728  19.053  25.750  1.00  0.00     0.051 A 
ATOM     24  C   UNL A   1      32.899  17.826  23.682  1.00  0.00     0.166 A 
ATOM     25  C   UNL A   1      32.987  17.891  25.057  1.00  0.00     0.165 A 
ATOM     26  O   UNL A   1      33.193  16.585  23.207  1.00  0.00    -0.454 OA
ATOM     27  O   UNL A   1      33.375  16.710  25.609  1.00  0.00    -0.454 OA
ATOM     28  C   UNL A   1      33.490  15.884  24.433  1.00  0.00     0.468 C 
ENDBRANCH  18  20
ENDBRANCH  10  18
ENDBRANCH   3   5
ENDBRANCH   2   3
ENDBRANCH   1   2
BRANCH   1  29
ATOM     29  C   UNL A   1      36.911  20.889  25.588  1.00  0.00     0.275 C 
BRANCH  29  30
ATOM     30  O   UNL A   1      38.143  21.549  25.208  1.00  0.00    -0.458 OA
BRANCH  30  31
ATOM     31  C   UNL A   1      39.193  21.316  26.032  1.00  0.00     0.338 C 
ATOM     32  O   UNL A   1      39.808  20.264  26.133  1.00  0.00    -0.246 OA
BRANCH  31  33
ATOM     33  C   UNL A   1      39.643  22.529  26.750  1.00  0.00     0.060 A 
ATOM     34  C   UNL A   1      39.150  23.774  26.340  1.00  0.00     0.016 A 
ATOM     35  C   UNL A   1      40.724  22.483  27.627  1.00  0.00     0.016 A 
ATOM     36  C   UNL A   1      39.766  24.955  26.718  1.00  0.00     0.010 A 
ATOM     37  C   UNL A   1      41.308  23.683  28.065  1.00  0.00     0.010 A 
ATOM     38  C   UNL A   1      40.855  24.928  27.585  1.00  0.00    -0.014 A 
BRANCH  38  39
ATOM     39  C   UNL A   1      41.538  26.204  27.919  1.00  0.00     0.031 A 
ATOM     40  C   UNL A   1      40.806  27.261  28.696  1.00  0.00     0.074 A 
ATOM     41  C   UNL A   1      42.826  26.394  27.571  1.00  0.00     0.049 A 
ATOM     42  N   UNL A   1      41.152  28.501  28.938  1.00  0.00    -0.248 NA
ATOM     43  C   UNL A   1      39.506  26.879  29.273  1.00  0.00     0.031 C 
ATOM     44  C   UNL A   1      43.675  25.412  26.893  1.00  0.00     0.029 A 
ATOM     45  N   UNL A   1      43.648  27.482  27.736  1.00  0.00    -0.354 N 
ATOM     46  C   UNL A   1      40.090  29.060  29.637  1.00  0.00     0.074 A 
ATOM     47  C   UNL A   1      39.089  28.027  29.790  1.00  0.00     0.031 C 
ATOM     48  C   UNL A   1      44.894  25.939  26.700  1.00  0.00     0.029 A 
ATOM     49  C   UNL A   1      44.885  27.324  27.156  1.00  0.00     0.049 A 
ATOM     50  H   UNL A   1      43.379  28.294  28.222  1.00  0.00     0.167 HD
ATOM     51  C   UNL A   1      39.967  30.327  30.097  1.00  0.00     0.037 A 
ATOM     52  C   UNL A   1      45.876  28.213  26.956  1.00  0.00     0.037 A 
ATOM     53  C   UNL A   1      40.999  31.328  29.992  1.00  0.00     0.049 A 
ATOM     54  C   UNL A   1      45.689  29.627  27.433  1.00  0.00     0.074 A 
ATOM     55  C   UNL A   1      40.989  32.628  30.463  1.00  0.00     0.029 A 
ATOM     56  N   UNL A   1      42.228  31.134  29.378  1.00  0.00    -0.354 N 
ATOM     57  N   UNL A   1      44.673  30.161  28.066  1.00  0.00    -0.248 NA
ATOM     58  C   UNL A   1      46.784  30.568  27.159  1.00  0.00     0.031 C 
ATOM     59  C   UNL A   1      42.183  33.242  30.077  1.00  0.00     0.029 A 
ATOM     60  C   UNL A   1      42.969  32.305  29.428  1.00  0.00     0.049 A 
ATOM     61  H   UNL A   1      42.528  30.292  28.967  1.00  0.00     0.167 HD
ATOM     62  C   UNL A   1      45.015  31.486  28.290  1.00  0.00     0.074 A 
ATOM     63  C   UNL A   1      46.342  31.672  27.742  1.00  0.00     0.031 C 
ATOM     64  C   UNL A   1      44.295  32.466  28.890  1.00  0.00     0.037 A 
BRANCH  51  65
ATOM     65  C   UNL A   1      38.659  30.737  30.711  1.00  0.00     0.064 A 
ATOM     66  C   UNL A   1      38.454  30.766  32.097  1.00  0.00     0.173 A 
ATOM     67  C   UNL A   1      37.616  31.184  29.884  1.00  0.00     0.173 A 
ATOM     68  F   UNL A   1      39.414  30.338  32.931  1.00  0.00    -0.203 F 
ATOM     69  C   UNL A   1      37.248  31.216  32.632  1.00  0.00     0.198 A 
ATOM     70  C   UNL A   1      36.425  31.662  30.422  1.00  0.00     0.198 A 
ATOM     71  F   UNL A   1      37.761  31.181  28.550  1.00  0.00    -0.203 F 
ATOM     72  F   UNL A   1      37.060  31.205  33.959  1.00  0.00    -0.200 F 
ATOM     73  C   UNL A   1      36.240  31.675  31.796  1.00  0.00     0.200 A 
ATOM     74  F   UNL A   1      35.459  32.118  29.612  1.00  0.00    -0.200 F 
ATOM     75  F   UNL A   1      35.090  32.127  32.314  1.00  0.00    -0.200 F 
ENDBRANCH  51  65
BRANCH  52  76
ATOM     76  C   UNL A   1      47.097  27.817  26.202  1.00  0.00     0.064 A 
ATOM     77  C   UNL A   1      47.123  27.822  24.800  1.00  0.00     0.173 A 
ATOM     78  C   UNL A   1      48.254  27.382  26.870  1.00  0.00     0.173 A 
ATOM     79  F   UNL A   1      46.037  28.203  24.113  1.00  0.00    -0.203 F 
ATOM     80  C   UNL A   1      48.242  27.377  24.098  1.00  0.00     0.198 A 
ATOM     81  C   UNL A   1      49.386  26.977  26.168  1.00  0.00     0.198 A 
ATOM     82  F   UNL A   1      48.286  27.354  28.211  1.00  0.00    -0.203 F 
ATOM     83  F   UNL A   1      48.213  27.326  22.760  1.00  0.00    -0.200 F 
ATOM     84  C   UNL A   1      49.374  26.960  24.783  1.00  0.00     0.200 A 
ATOM     85  F   UNL A   1      50.482  26.592  26.835  1.00  0.00    -0.200 F 
ATOM     86  F   UNL A   1      50.448  26.530  24.107  1.00  0.00    -0.200 F 
ENDBRANCH  52  76
BRANCH  64  87
ATOM     87  C   UNL A   1      44.948  33.810  29.032  1.00  0.00     0.064 A 
ATOM     88  C   UNL A   1      45.755  34.129  30.134  1.00  0.00     0.173 A 
ATOM     89  C   UNL A   1      44.787  34.782  28.032  1.00  0.00     0.173 A 
ATOM     90  F   UNL A   1      45.927  33.241  31.125  1.00  0.00    -0.203 F 
ATOM     91  C   UNL A   1      46.350  35.382  30.245  1.00  0.00     0.198 A 
ATOM     92  C   UNL A   1      45.414  36.020  28.129  1.00  0.00     0.198 A 
ATOM     93  F   UNL A   1      44.032  34.525  26.953  1.00  0.00    -0.203 F 
ATOM     94  F   UNL A   1      47.070  35.685  31.335  1.00  0.00    -0.200 F 
ATOM     95  C   UNL A   1      46.186  36.323  29.239  1.00  0.00     0.200 A 
ATOM     96  F   UNL A   1      45.269  36.921  27.148  1.00  0.00    -0.200 F 
ATOM     97  F   UNL A   1      46.767  37.527  29.345  1.00  0.00    -0.200 F 
ENDBRANCH  64  87
ENDBRANCH  38  39
ENDBRANCH  31  33
ENDBRANCH  30  31
ENDBRANCH  29  30
ENDBRANCH   1  29
TORSDOF 16
ENDMDL
