MODEL 1
REMARK VINA RESULT:     -12.7      0.000      0.000
REMARK SMILES CC(C)c1ccc(C(=O)NNC(=O)[C@@H]2CC=CC[C@@H]2C(=O)OCCOC(=O)c2ccc(-c3c4nc(c(-c5c(F)c(F)c(F)c(F)c5F)c5ccc([nH]5)c(-c5c(F)c(F)c(F)c(F)c5F)c5nc(c(-c6c(F)c(F)c(F)c(F)c6F)c6ccc3[nH]6)C=C5)C=C4)cc2)cc1
REMARK SMILES IDX 23 1 22 2 20 3 21 4 19 5 14 6 15 7 16 8 18 9 17 10 12 11
REMARK SMILES IDX 11 12 13 14 10 15 8 16 9 17 7 19 4 20 5 21 92 22 6 23 91 24
REMARK SMILES IDX 2 25 1 26 3 27 24 28 25 29 26 30 27 31 28 32 29 33 90 34
REMARK SMILES IDX 30 35 89 36 31 37 32 38 33 39 83 40 34 41 88 42 82 43 84 44
REMARK SMILES IDX 35 45 87 46 81 47 80 48 36 50 68 51 48 52 67 53 49 54 52 55
REMARK SMILES IDX 66 56 85 57 50 58 51 59 65 61 86 62 53 63 37 64 38 65 46 66
REMARK SMILES IDX 39 67 40 68 44 69 47 70 41 71 42 72 45 73 43 74 69 75 70 76
REMARK SMILES IDX 78 77 71 78 72 79 76 80 79 81 73 82 74 83 77 84 75 85 54 86
REMARK SMILES IDX 55 87 63 88 56 89 57 90 61 91 64 92 58 93 59 94 62 95 60 96
REMARK H PARENT 11 13 10 18 84 49 52 60
REMARK Flexibility Score: inf
ROOT
ATOM      1  C   UNL A   1      32.798  29.277  24.418  1.00  0.00     0.274 C 
ENDROOT
BRANCH   1   2
ATOM      2  O   UNL A   1      33.366  28.068  24.968  1.00  0.00    -0.462 OA
BRANCH   2   3
ATOM      3  C   UNL A   1      33.577  27.034  24.105  1.00  0.00     0.310 C 
ATOM      4  O   UNL A   1      34.069  27.136  22.992  1.00  0.00    -0.252 OA
BRANCH   3   5
ATOM      5  C   UNL A   1      33.058  25.739  24.711  1.00  0.00     0.116 C 
ATOM      6  C   UNL A   1      31.839  25.149  23.972  1.00  0.00     0.098 C 
ATOM      7  C   UNL A   1      30.550  25.960  24.254  1.00  0.00     0.041 C 
ATOM      8  C   UNL A   1      30.418  26.478  25.653  1.00  0.00    -0.030 C 
ATOM      9  C   UNL A   1      32.791  25.953  26.211  1.00  0.00     0.043 C 
ATOM     10  C   UNL A   1      31.422  26.467  26.536  1.00  0.00    -0.030 C 
BRANCH   6  11
ATOM     11  C   UNL A   1      31.998  25.016  22.452  1.00  0.00     0.242 C 
ATOM     12  N   UNL A   1      32.531  23.884  21.896  1.00  0.00    -0.267 N 
ATOM     13  H   UNL A   1      33.066  23.971  21.074  1.00  0.00     0.191 HD
ATOM     14  O   UNL A   1      31.604  25.890  21.677  1.00  0.00    -0.273 OA
BRANCH  12  15
ATOM     15  N   UNL A   1      32.349  22.626  22.436  1.00  0.00    -0.263 N 
ATOM     16  C   UNL A   1      33.105  21.990  23.400  1.00  0.00     0.269 C 
ATOM     17  O   UNL A   1      32.649  20.930  23.840  1.00  0.00    -0.267 OA
ATOM     18  H   UNL A   1      31.581  22.118  22.091  1.00  0.00     0.191 HD
BRANCH  16  19
ATOM     19  C   UNL A   1      34.418  22.471  23.928  1.00  0.00     0.041 A 
ATOM     20  C   UNL A   1      36.924  23.090  25.145  1.00  0.00    -0.045 A 
ATOM     21  C   UNL A   1      35.846  22.643  25.913  1.00  0.00     0.005 A 
ATOM     22  C   UNL A   1      36.722  23.236  23.762  1.00  0.00     0.005 A 
ATOM     23  C   UNL A   1      34.612  22.351  25.314  1.00  0.00     0.014 A 
ATOM     24  C   UNL A   1      35.501  22.894  23.155  1.00  0.00     0.014 A 
BRANCH  20  25
ATOM     25  C   UNL A   1      38.305  23.369  25.726  1.00  0.00     0.013 C 
ATOM     26  C   UNL A   1      38.342  24.398  26.863  1.00  0.00     0.012 C 
ATOM     27  C   UNL A   1      38.955  22.066  26.210  1.00  0.00     0.012 C 
ENDBRANCH  20  25
ENDBRANCH  16  19
ENDBRANCH  12  15
ENDBRANCH   6  11
ENDBRANCH   3   5
ENDBRANCH   2   3
ENDBRANCH   1   2
BRANCH   1  28
ATOM     28  C   UNL A   1      31.897  29.960  25.444  1.00  0.00     0.275 C 
BRANCH  28  29
ATOM     29  O   UNL A   1      32.581  29.966  26.705  1.00  0.00    -0.458 OA
BRANCH  29  30
ATOM     30  C   UNL A   1      33.120  31.143  27.095  1.00  0.00     0.338 C 
ATOM     31  O   UNL A   1      32.588  32.238  27.085  1.00  0.00    -0.246 OA
BRANCH  30  32
ATOM     32  C   UNL A   1      34.479  30.893  27.617  1.00  0.00     0.060 A 
ATOM     33  C   UNL A   1      34.857  29.595  27.946  1.00  0.00     0.016 A 
ATOM     34  C   UNL A   1      35.337  31.955  27.905  1.00  0.00     0.016 A 
ATOM     35  C   UNL A   1      36.026  29.359  28.659  1.00  0.00     0.010 A 
ATOM     36  C   UNL A   1      36.566  31.702  28.530  1.00  0.00     0.010 A 
ATOM     37  C   UNL A   1      36.907  30.404  28.951  1.00  0.00    -0.014 A 
BRANCH  37  38
ATOM     38  C   UNL A   1      38.132  30.140  29.754  1.00  0.00     0.031 A 
ATOM     39  C   UNL A   1      39.256  29.334  29.163  1.00  0.00     0.074 A 
ATOM     40  C   UNL A   1      38.279  30.663  30.988  1.00  0.00     0.049 A 
ATOM     41  N   UNL A   1      40.291  28.793  29.756  1.00  0.00    -0.248 NA
ATOM     42  C   UNL A   1      39.205  29.097  27.712  1.00  0.00     0.031 C 
ATOM     43  C   UNL A   1      37.330  31.557  31.653  1.00  0.00     0.029 A 
ATOM     44  N   UNL A   1      39.299  30.529  31.898  1.00  0.00    -0.354 N 
ATOM     45  C   UNL A   1      40.970  28.093  28.767  1.00  0.00     0.074 A 
ATOM     46  C   UNL A   1      40.243  28.292  27.531  1.00  0.00     0.031 C 
ATOM     47  C   UNL A   1      37.833  31.929  32.839  1.00  0.00     0.029 A 
ATOM     48  C   UNL A   1      39.083  31.214  33.069  1.00  0.00     0.049 A 
ATOM     49  H   UNL A   1      40.107  29.994  31.729  1.00  0.00     0.167 HD
ATOM     50  C   UNL A   1      42.092  27.345  28.889  1.00  0.00     0.037 A 
ATOM     51  C   UNL A   1      39.780  31.223  34.221  1.00  0.00     0.037 A 
ATOM     52  C   UNL A   1      42.855  27.216  30.103  1.00  0.00     0.049 A 
ATOM     53  C   UNL A   1      40.988  30.341  34.351  1.00  0.00     0.074 A 
ATOM     54  C   UNL A   1      44.000  26.474  30.331  1.00  0.00     0.029 A 
ATOM     55  N   UNL A   1      42.561  27.872  31.288  1.00  0.00    -0.354 N 
ATOM     56  N   UNL A   1      41.556  29.575  33.452  1.00  0.00    -0.248 NA
ATOM     57  C   UNL A   1      41.630  30.292  35.673  1.00  0.00     0.031 C 
ATOM     58  C   UNL A   1      44.385  26.660  31.664  1.00  0.00     0.029 A 
ATOM     59  C   UNL A   1      43.498  27.545  32.254  1.00  0.00     0.049 A 
ATOM     60  H   UNL A   1      41.798  28.481  31.423  1.00  0.00     0.167 HD
ATOM     61  C   UNL A   1      42.619  28.959  34.093  1.00  0.00     0.074 A 
ATOM     62  C   UNL A   1      42.634  29.456  35.453  1.00  0.00     0.031 C 
ATOM     63  C   UNL A   1      43.498  28.052  33.602  1.00  0.00     0.037 A 
BRANCH  50  64
ATOM     64  C   UNL A   1      42.535  26.561  27.691  1.00  0.00     0.064 A 
ATOM     65  C   UNL A   1      43.459  27.066  26.766  1.00  0.00     0.173 A 
ATOM     66  C   UNL A   1      42.044  25.261  27.489  1.00  0.00     0.173 A 
ATOM     67  F   UNL A   1      43.944  28.308  26.907  1.00  0.00    -0.203 F 
ATOM     68  C   UNL A   1      43.863  26.304  25.672  1.00  0.00     0.198 A 
ATOM     69  C   UNL A   1      42.468  24.494  26.408  1.00  0.00     0.198 A 
ATOM     70  F   UNL A   1      41.160  24.731  28.347  1.00  0.00    -0.203 F 
ATOM     71  F   UNL A   1      44.720  26.818  24.779  1.00  0.00    -0.200 F 
ATOM     72  C   UNL A   1      43.372  25.018  25.498  1.00  0.00     0.200 A 
ATOM     73  F   UNL A   1      41.999  23.249  26.246  1.00  0.00    -0.200 F 
ATOM     74  F   UNL A   1      43.768  24.285  24.447  1.00  0.00    -0.200 F 
ENDBRANCH  50  64
BRANCH  51  75
ATOM     75  C   UNL A   1      39.308  32.043  35.366  1.00  0.00     0.064 A 
ATOM     76  C   UNL A   1      39.683  33.388  35.492  1.00  0.00     0.173 A 
ATOM     77  C   UNL A   1      38.476  31.502  36.358  1.00  0.00     0.173 A 
ATOM     78  F   UNL A   1      40.503  33.941  34.586  1.00  0.00    -0.203 F 
ATOM     79  C   UNL A   1      39.246  34.157  36.568  1.00  0.00     0.198 A 
ATOM     80  C   UNL A   1      38.016  32.280  37.417  1.00  0.00     0.198 A 
ATOM     81  F   UNL A   1      38.096  30.217  36.289  1.00  0.00    -0.203 F 
ATOM     82  F   UNL A   1      39.650  35.429  36.686  1.00  0.00    -0.200 F 
ATOM     83  C   UNL A   1      38.407  33.606  37.524  1.00  0.00     0.200 A 
ATOM     84  F   UNL A   1      37.195  31.746  38.331  1.00  0.00    -0.200 F 
ATOM     85  F   UNL A   1      37.979  34.350  38.554  1.00  0.00    -0.200 F 
ENDBRANCH  51  75
BRANCH  63  86
ATOM     86  C   UNL A   1      44.560  27.558  34.536  1.00  0.00     0.064 A 
ATOM     87  C   UNL A   1      45.773  28.243  34.690  1.00  0.00     0.173 A 
ATOM     88  C   UNL A   1      44.348  26.406  35.307  1.00  0.00     0.173 A 
ATOM     89  F   UNL A   1      46.026  29.340  33.959  1.00  0.00    -0.203 F 
ATOM     90  C   UNL A   1      46.748  27.780  35.569  1.00  0.00     0.198 A 
ATOM     91  C   UNL A   1      45.316  25.958  36.201  1.00  0.00     0.198 A 
ATOM     92  F   UNL A   1      43.202  25.719  35.196  1.00  0.00    -0.203 F 
ATOM     93  F   UNL A   1      47.917  28.426  35.671  1.00  0.00    -0.200 F 
ATOM     94  C   UNL A   1      46.517  26.641  36.327  1.00  0.00     0.200 A 
ATOM     95  F   UNL A   1      45.090  24.861  36.938  1.00  0.00    -0.200 F 
ATOM     96  F   UNL A   1      47.455  26.198  37.174  1.00  0.00    -0.200 F 
ENDBRANCH  63  86
ENDBRANCH  37  38
ENDBRANCH  30  32
ENDBRANCH  29  30
ENDBRANCH  28  29
ENDBRANCH   1  28
TORSDOF 15
ENDMDL
MODEL 2
REMARK VINA RESULT:     -12.5      4.181      9.583
REMARK SMILES CC(C)c1ccc(C(=O)NNC(=O)[C@@H]2CC=CC[C@@H]2C(=O)OCCOC(=O)c2ccc(-c3c4nc(c(-c5c(F)c(F)c(F)c(F)c5F)c5ccc([nH]5)c(-c5c(F)c(F)c(F)c(F)c5F)c5nc(c(-c6c(F)c(F)c(F)c(F)c6F)c6ccc3[nH]6)C=C5)C=C4)cc2)cc1
REMARK SMILES IDX 23 1 22 2 20 3 21 4 19 5 14 6 15 7 16 8 18 9 17 10 12 11
REMARK SMILES IDX 11 12 13 14 10 15 8 16 9 17 7 19 4 20 5 21 92 22 6 23 91 24
REMARK SMILES IDX 2 25 1 26 3 27 24 28 25 29 26 30 27 31 28 32 29 33 90 34
REMARK SMILES IDX 30 35 89 36 31 37 32 38 33 39 83 40 34 41 88 42 82 43 84 44
REMARK SMILES IDX 35 45 87 46 81 47 80 48 36 50 68 51 48 52 67 53 49 54 52 55
REMARK SMILES IDX 66 56 85 57 50 58 51 59 65 61 86 62 53 63 37 64 38 65 46 66
REMARK SMILES IDX 39 67 40 68 44 69 47 70 41 71 42 72 45 73 43 74 69 75 70 76
REMARK SMILES IDX 78 77 71 78 72 79 76 80 79 81 73 82 74 83 77 84 75 85 54 86
REMARK SMILES IDX 55 87 63 88 56 89 57 90 61 91 64 92 58 93 59 94 62 95 60 96
REMARK H PARENT 11 13 10 18 84 49 52 60
REMARK Flexibility Score: inf
ROOT
ATOM      1  C   UNL A   1      35.445  21.839  25.911  1.00  0.00     0.274 C 
ENDROOT
BRANCH   1   2
ATOM      2  O   UNL A   1      34.920  22.821  24.991  1.00  0.00    -0.462 OA
BRANCH   2   3
ATOM      3  C   UNL A   1      33.943  23.649  25.458  1.00  0.00     0.310 C 
ATOM      4  O   UNL A   1      33.996  24.280  26.502  1.00  0.00    -0.252 OA
BRANCH   3   5
ATOM      5  C   UNL A   1      32.750  23.629  24.514  1.00  0.00     0.116 C 
ATOM      6  C   UNL A   1      31.449  23.112  25.164  1.00  0.00     0.098 C 
ATOM      7  C   UNL A   1      31.484  21.579  25.376  1.00  0.00     0.041 C 
ATOM      8  C   UNL A   1      32.155  20.801  24.287  1.00  0.00    -0.030 C 
ATOM      9  C   UNL A   1      33.124  22.847  23.242  1.00  0.00     0.043 C 
ATOM     10  C   UNL A   1      32.885  21.371  23.322  1.00  0.00    -0.030 C 
BRANCH   6  11
ATOM     11  C   UNL A   1      31.079  23.773  26.498  1.00  0.00     0.242 C 
ATOM     12  N   UNL A   1      30.928  25.130  26.595  1.00  0.00    -0.267 N 
ATOM     13  H   UNL A   1      31.181  25.572  27.438  1.00  0.00     0.191 HD
ATOM     14  O   UNL A   1      30.849  23.109  27.511  1.00  0.00    -0.273 OA
BRANCH  12  15
ATOM     15  N   UNL A   1      30.437  25.905  25.563  1.00  0.00    -0.263 N 
ATOM     16  C   UNL A   1      30.957  27.074  25.046  1.00  0.00     0.269 C 
ATOM     17  O   UNL A   1      30.427  27.498  24.014  1.00  0.00    -0.267 OA
ATOM     18  H   UNL A   1      29.610  25.581  25.140  1.00  0.00     0.191 HD
BRANCH  16  19
ATOM     19  C   UNL A   1      32.080  27.860  25.642  1.00  0.00     0.041 A 
ATOM     20  C   UNL A   1      34.040  29.341  27.095  1.00  0.00    -0.045 A 
ATOM     21  C   UNL A   1      32.677  29.609  27.251  1.00  0.00     0.005 A 
ATOM     22  C   UNL A   1      34.404  28.330  26.189  1.00  0.00     0.005 A 
ATOM     23  C   UNL A   1      31.717  28.889  26.527  1.00  0.00     0.014 A 
ATOM     24  C   UNL A   1      33.439  27.573  25.502  1.00  0.00     0.014 A 
BRANCH  20  25
ATOM     25  C   UNL A   1      35.128  30.049  27.893  1.00  0.00     0.013 C 
ATOM     26  C   UNL A   1      36.554  29.537  27.654  1.00  0.00     0.012 C 
ATOM     27  C   UNL A   1      35.089  31.560  27.626  1.00  0.00     0.012 C 
ENDBRANCH  20  25
ENDBRANCH  16  19
ENDBRANCH  12  15
ENDBRANCH   6  11
ENDBRANCH   3   5
ENDBRANCH   2   3
ENDBRANCH   1   2
BRANCH   1  28
ATOM     28  C   UNL A   1      36.615  21.087  25.282  1.00  0.00     0.275 C 
BRANCH  28  29
ATOM     29  O   UNL A   1      37.748  21.967  25.252  1.00  0.00    -0.458 OA
BRANCH  29  30
ATOM     30  C   UNL A   1      38.817  21.600  25.993  1.00  0.00     0.338 C 
ATOM     31  O   UNL A   1      39.272  20.479  26.129  1.00  0.00    -0.246 OA
BRANCH  30  32
ATOM     32  C   UNL A   1      39.422  22.810  26.588  1.00  0.00     0.060 A 
ATOM     33  C   UNL A   1      39.018  24.065  26.142  1.00  0.00     0.016 A 
ATOM     34  C   UNL A   1      40.479  22.707  27.493  1.00  0.00     0.016 A 
ATOM     35  C   UNL A   1      39.729  25.204  26.501  1.00  0.00     0.010 A 
ATOM     36  C   UNL A   1      41.127  23.868  27.935  1.00  0.00     0.010 A 
ATOM     37  C   UNL A   1      40.786  25.128  27.412  1.00  0.00    -0.014 A 
BRANCH  37  38
ATOM     38  C   UNL A   1      41.565  26.351  27.750  1.00  0.00     0.031 A 
ATOM     39  C   UNL A   1      40.969  27.391  28.659  1.00  0.00     0.074 A 
ATOM     40  C   UNL A   1      42.825  26.517  27.300  1.00  0.00     0.049 A 
ATOM     41  N   UNL A   1      41.367  28.617  28.890  1.00  0.00    -0.248 NA
ATOM     42  C   UNL A   1      39.761  27.003  29.403  1.00  0.00     0.031 C 
ATOM     43  C   UNL A   1      43.580  25.548  26.504  1.00  0.00     0.029 A 
ATOM     44  N   UNL A   1      43.701  27.562  27.466  1.00  0.00    -0.354 N 
ATOM     45  C   UNL A   1      40.420  29.167  29.743  1.00  0.00     0.074 A 
ATOM     46  C   UNL A   1      39.437  28.138  30.006  1.00  0.00     0.031 C 
ATOM     47  C   UNL A   1      44.817  26.020  26.294  1.00  0.00     0.029 A 
ATOM     48  C   UNL A   1      44.908  27.369  26.841  1.00  0.00     0.049 A 
ATOM     49  H   UNL A   1      43.485  28.370  27.984  1.00  0.00     0.167 HD
ATOM     50  C   UNL A   1      40.374  30.423  30.248  1.00  0.00     0.037 A 
ATOM     51  C   UNL A   1      45.952  28.203  26.673  1.00  0.00     0.037 A 
ATOM     52  C   UNL A   1      41.395  31.417  30.047  1.00  0.00     0.049 A 
ATOM     53  C   UNL A   1      45.854  29.610  27.193  1.00  0.00     0.074 A 
ATOM     54  C   UNL A   1      41.437  32.721  30.508  1.00  0.00     0.029 A 
ATOM     55  N   UNL A   1      42.572  31.203  29.346  1.00  0.00    -0.354 N 
ATOM     56  N   UNL A   1      44.897  30.171  27.889  1.00  0.00    -0.248 NA
ATOM     57  C   UNL A   1      46.967  30.513  26.866  1.00  0.00     0.031 C 
ATOM     58  C   UNL A   1      42.628  33.306  30.063  1.00  0.00     0.029 A 
ATOM     59  C   UNL A   1      43.342  32.354  29.354  1.00  0.00     0.049 A 
ATOM     60  H   UNL A   1      42.823  30.358  28.907  1.00  0.00     0.167 HD
ATOM     61  C   UNL A   1      45.290  31.485  28.087  1.00  0.00     0.074 A 
ATOM     62  C   UNL A   1      46.585  31.635  27.457  1.00  0.00     0.031 C 
ATOM     63  C   UNL A   1      44.631  32.483  28.724  1.00  0.00     0.037 A 
BRANCH  50  64
ATOM     64  C   UNL A   1      39.153  30.813  31.023  1.00  0.00     0.064 A 
ATOM     65  C   UNL A   1      39.009  30.527  32.388  1.00  0.00     0.173 A 
ATOM     66  C   UNL A   1      38.120  31.521  30.387  1.00  0.00     0.173 A 
ATOM     67  F   UNL A   1      39.961  29.839  33.036  1.00  0.00    -0.203 F 
ATOM     68  C   UNL A   1      37.868  30.919  33.083  1.00  0.00     0.198 A 
ATOM     69  C   UNL A   1      36.992  31.932  31.091  1.00  0.00     0.198 A 
ATOM     70  F   UNL A   1      38.210  31.822  29.084  1.00  0.00    -0.203 F 
ATOM     71  F   UNL A   1      37.733  30.603  34.379  1.00  0.00    -0.200 F 
ATOM     72  C   UNL A   1      36.864  31.626  32.437  1.00  0.00     0.200 A 
ATOM     73  F   UNL A   1      36.028  32.621  30.466  1.00  0.00    -0.200 F 
ATOM     74  F   UNL A   1      35.770  32.007  33.111  1.00  0.00    -0.200 F 
ENDBRANCH  50  64
BRANCH  51  75
ATOM     75  C   UNL A   1      47.150  27.751  25.919  1.00  0.00     0.064 A 
ATOM     76  C   UNL A   1      47.173  27.786  24.519  1.00  0.00     0.173 A 
ATOM     77  C   UNL A   1      48.291  27.275  26.580  1.00  0.00     0.173 A 
ATOM     78  F   UNL A   1      46.093  28.203  23.841  1.00  0.00    -0.203 F 
ATOM     79  C   UNL A   1      48.292  27.358  23.809  1.00  0.00     0.198 A 
ATOM     80  C   UNL A   1      49.421  26.876  25.871  1.00  0.00     0.198 A 
ATOM     81  F   UNL A   1      48.316  27.213  27.920  1.00  0.00    -0.203 F 
ATOM     82  F   UNL A   1      48.276  27.364  22.469  1.00  0.00    -0.200 F 
ATOM     83  C   UNL A   1      49.418  26.912  24.485  1.00  0.00     0.200 A 
ATOM     84  F   UNL A   1      50.510  26.457  26.529  1.00  0.00    -0.200 F 
ATOM     85  F   UNL A   1      50.498  26.509  23.801  1.00  0.00    -0.200 F 
ENDBRANCH  51  75
BRANCH  63  86
ATOM     86  C   UNL A   1      45.311  33.817  28.787  1.00  0.00     0.064 A 
ATOM     87  C   UNL A   1      45.087  34.797  27.810  1.00  0.00     0.173 A 
ATOM     88  C   UNL A   1      46.171  34.126  29.849  1.00  0.00     0.173 A 
ATOM     89  F   UNL A   1      44.285  34.538  26.766  1.00  0.00    -0.203 F 
ATOM     90  C   UNL A   1      45.717  36.036  27.885  1.00  0.00     0.198 A 
ATOM     91  C   UNL A   1      46.783  35.374  29.933  1.00  0.00     0.198 A 
ATOM     92  F   UNL A   1      46.415  33.221  30.809  1.00  0.00    -0.203 F 
ATOM     93  F   UNL A   1      45.521  36.945  26.920  1.00  0.00    -0.200 F 
ATOM     94  C   UNL A   1      46.560  36.325  28.948  1.00  0.00     0.200 A 
ATOM     95  F   UNL A   1      47.593  35.655  30.964  1.00  0.00    -0.200 F 
ATOM     96  F   UNL A   1      47.164  37.518  29.020  1.00  0.00    -0.200 F 
ENDBRANCH  63  86
ENDBRANCH  37  38
ENDBRANCH  30  32
ENDBRANCH  29  30
ENDBRANCH  28  29
ENDBRANCH   1  28
TORSDOF 15
ENDMDL
MODEL 3
REMARK VINA RESULT:     -12.5      1.276      2.211
REMARK SMILES CC(C)c1ccc(C(=O)NNC(=O)[C@@H]2CC=CC[C@@H]2C(=O)OCCOC(=O)c2ccc(-c3c4nc(c(-c5c(F)c(F)c(F)c(F)c5F)c5ccc([nH]5)c(-c5c(F)c(F)c(F)c(F)c5F)c5nc(c(-c6c(F)c(F)c(F)c(F)c6F)c6ccc3[nH]6)C=C5)C=C4)cc2)cc1
REMARK SMILES IDX 23 1 22 2 20 3 21 4 19 5 14 6 15 7 16 8 18 9 17 10 12 11
REMARK SMILES IDX 11 12 13 14 10 15 8 16 9 17 7 19 4 20 5 21 92 22 6 23 91 24
REMARK SMILES IDX 2 25 1 26 3 27 24 28 25 29 26 30 27 31 28 32 29 33 90 34
REMARK SMILES IDX 30 35 89 36 31 37 32 38 33 39 83 40 34 41 88 42 82 43 84 44
REMARK SMILES IDX 35 45 87 46 81 47 80 48 36 50 68 51 48 52 67 53 49 54 52 55
REMARK SMILES IDX 66 56 85 57 50 58 51 59 65 61 86 62 53 63 37 64 38 65 46 66
REMARK SMILES IDX 39 67 40 68 44 69 47 70 41 71 42 72 45 73 43 74 69 75 70 76
REMARK SMILES IDX 78 77 71 78 72 79 76 80 79 81 73 82 74 83 77 84 75 85 54 86
REMARK SMILES IDX 55 87 63 88 56 89 57 90 61 91 64 92 58 93 59 94 62 95 60 96
REMARK H PARENT 11 13 10 18 84 49 52 60
REMARK Flexibility Score: inf
ROOT
ATOM      1  C   UNL A   1      31.142  30.054  25.010  1.00  0.00     0.274 C 
ENDROOT
BRANCH   1   2
ATOM      2  O   UNL A   1      30.759  28.774  24.461  1.00  0.00    -0.462 OA
BRANCH   2   3
ATOM      3  C   UNL A   1      31.676  28.134  23.682  1.00  0.00     0.310 C 
ATOM      4  O   UNL A   1      32.655  28.657  23.174  1.00  0.00    -0.252 OA
BRANCH   3   5
ATOM      5  C   UNL A   1      31.269  26.681  23.488  1.00  0.00     0.116 C 
ATOM      6  C   UNL A   1      32.102  25.684  24.321  1.00  0.00     0.098 C 
ATOM      7  C   UNL A   1      33.528  25.506  23.744  1.00  0.00     0.041 C 
ATOM      8  C   UNL A   1      33.615  25.513  22.249  1.00  0.00    -0.030 C 
ATOM      9  C   UNL A   1      31.281  26.348  21.985  1.00  0.00     0.043 C 
ATOM     10  C   UNL A   1      32.602  25.883  21.457  1.00  0.00    -0.030 C 
BRANCH   6  11
ATOM     11  C   UNL A   1      32.226  26.021  25.812  1.00  0.00     0.242 C 
ATOM     12  N   UNL A   1      31.232  25.692  26.694  1.00  0.00    -0.267 N 
ATOM     13  H   UNL A   1      31.067  26.289  27.459  1.00  0.00     0.191 HD
ATOM     14  O   UNL A   1      33.239  26.546  26.278  1.00  0.00    -0.273 OA
BRANCH  12  15
ATOM     15  N   UNL A   1      30.453  24.560  26.558  1.00  0.00    -0.263 N 
ATOM     16  C   UNL A   1      30.862  23.248  26.431  1.00  0.00     0.269 C 
ATOM     17  O   UNL A   1      29.974  22.392  26.487  1.00  0.00    -0.267 OA
ATOM     18  H   UNL A   1      29.481  24.707  26.551  1.00  0.00     0.191 HD
BRANCH  16  19
ATOM     19  C   UNL A   1      32.271  22.797  26.218  1.00  0.00     0.041 A 
ATOM     20  C   UNL A   1      34.932  22.082  25.475  1.00  0.00    -0.045 A 
ATOM     21  C   UNL A   1      33.865  21.885  24.595  1.00  0.00     0.005 A 
ATOM     22  C   UNL A   1      34.642  22.628  26.737  1.00  0.00     0.005 A 
ATOM     23  C   UNL A   1      32.557  22.225  24.967  1.00  0.00     0.014 A 
ATOM     24  C   UNL A   1      33.339  23.018  27.090  1.00  0.00     0.014 A 
BRANCH  20  25
ATOM     25  C   UNL A   1      36.382  21.785  25.112  1.00  0.00     0.013 C 
ATOM     26  C   UNL A   1      36.722  20.301  24.927  1.00  0.00     0.012 C 
ATOM     27  C   UNL A   1      36.782  22.551  23.843  1.00  0.00     0.012 C 
ENDBRANCH  20  25
ENDBRANCH  16  19
ENDBRANCH  12  15
ENDBRANCH   6  11
ENDBRANCH   3   5
ENDBRANCH   2   3
ENDBRANCH   1   2
BRANCH   1  28
ATOM     28  C   UNL A   1      31.788  29.878  26.381  1.00  0.00     0.275 C 
BRANCH  28  29
ATOM     29  O   UNL A   1      33.150  30.322  26.294  1.00  0.00    -0.458 OA
BRANCH  29  30
ATOM     30  C   UNL A   1      33.515  31.320  27.129  1.00  0.00     0.338 C 
ATOM     31  O   UNL A   1      32.855  32.290  27.454  1.00  0.00    -0.246 OA
BRANCH  30  32
ATOM     32  C   UNL A   1      34.858  31.022  27.668  1.00  0.00     0.060 A 
ATOM     33  C   UNL A   1      35.187  29.709  27.994  1.00  0.00     0.016 A 
ATOM     34  C   UNL A   1      35.747  32.052  27.973  1.00  0.00     0.016 A 
ATOM     35  C   UNL A   1      36.339  29.430  28.720  1.00  0.00     0.010 A 
ATOM     36  C   UNL A   1      36.959  31.755  28.612  1.00  0.00     0.010 A 
ATOM     37  C   UNL A   1      37.250  30.443  29.030  1.00  0.00    -0.014 A 
BRANCH  37  38
ATOM     38  C   UNL A   1      38.455  30.134  29.847  1.00  0.00     0.031 A 
ATOM     39  C   UNL A   1      39.555  29.286  29.268  1.00  0.00     0.074 A 
ATOM     40  C   UNL A   1      38.608  30.651  31.082  1.00  0.00     0.049 A 
ATOM     41  N   UNL A   1      40.562  28.707  29.873  1.00  0.00    -0.248 NA
ATOM     42  C   UNL A   1      39.512  29.051  27.817  1.00  0.00     0.031 C 
ATOM     43  C   UNL A   1      37.685  31.580  31.737  1.00  0.00     0.029 A 
ATOM     44  N   UNL A   1      39.611  30.480  32.005  1.00  0.00    -0.354 N 
ATOM     45  C   UNL A   1      41.226  27.982  28.892  1.00  0.00     0.074 A 
ATOM     46  C   UNL A   1      40.521  28.207  27.648  1.00  0.00     0.031 C 
ATOM     47  C   UNL A   1      38.187  31.934  32.929  1.00  0.00     0.029 A 
ATOM     48  C   UNL A   1      39.407  31.173  33.173  1.00  0.00     0.049 A 
ATOM     49  H   UNL A   1      40.401  29.915  31.844  1.00  0.00     0.167 HD
ATOM     50  C   UNL A   1      42.317  27.192  29.027  1.00  0.00     0.037 A 
ATOM     51  C   UNL A   1      40.090  31.156  34.333  1.00  0.00     0.037 A 
ATOM     52  C   UNL A   1      43.061  27.035  30.250  1.00  0.00     0.049 A 
ATOM     53  C   UNL A   1      41.264  30.229  34.477  1.00  0.00     0.074 A 
ATOM     54  C   UNL A   1      44.174  26.250  30.491  1.00  0.00     0.029 A 
ATOM     55  N   UNL A   1      42.778  27.702  31.432  1.00  0.00    -0.354 N 
ATOM     56  N   UNL A   1      41.813  29.442  33.584  1.00  0.00    -0.248 NA
ATOM     57  C   UNL A   1      41.888  30.156  35.806  1.00  0.00     0.031 C 
ATOM     58  C   UNL A   1      44.551  26.422  31.828  1.00  0.00     0.029 A 
ATOM     59  C   UNL A   1      43.691  27.340  32.409  1.00  0.00     0.049 A 
ATOM     60  H   UNL A   1      42.037  28.339  31.558  1.00  0.00     0.167 HD
ATOM     61  C   UNL A   1      42.844  28.786  34.237  1.00  0.00     0.074 A 
ATOM     62  C   UNL A   1      42.862  29.283  35.597  1.00  0.00     0.031 C 
ATOM     63  C   UNL A   1      43.694  27.847  33.756  1.00  0.00     0.037 A 
BRANCH  50  64
ATOM     64  C   UNL A   1      42.744  26.392  27.835  1.00  0.00     0.064 A 
ATOM     65  C   UNL A   1      42.186  25.142  27.533  1.00  0.00     0.173 A 
ATOM     66  C   UNL A   1      43.713  26.909  26.959  1.00  0.00     0.173 A 
ATOM     67  F   UNL A   1      41.269  24.599  28.347  1.00  0.00    -0.203 F 
ATOM     68  C   UNL A   1      42.594  24.432  26.406  1.00  0.00     0.198 A 
ATOM     69  C   UNL A   1      44.100  26.207  25.822  1.00  0.00     0.198 A 
ATOM     70  F   UNL A   1      44.276  28.101  27.202  1.00  0.00    -0.203 F 
ATOM     71  F   UNL A   1      42.074  23.222  26.154  1.00  0.00    -0.200 F 
ATOM     72  C   UNL A   1      43.545  24.967  25.549  1.00  0.00     0.200 A 
ATOM     73  F   UNL A   1      45.014  26.729  24.992  1.00  0.00    -0.200 F 
ATOM     74  F   UNL A   1      43.931  24.282  24.463  1.00  0.00    -0.200 F 
ENDBRANCH  50  64
BRANCH  51  75
ATOM     75  C   UNL A   1      39.636  31.993  35.473  1.00  0.00     0.064 A 
ATOM     76  C   UNL A   1      40.158  33.278  35.674  1.00  0.00     0.173 A 
ATOM     77  C   UNL A   1      38.677  31.528  36.383  1.00  0.00     0.173 A 
ATOM     78  F   UNL A   1      41.102  33.754  34.848  1.00  0.00    -0.203 F 
ATOM     79  C   UNL A   1      39.738  34.063  36.745  1.00  0.00     0.198 A 
ATOM     80  C   UNL A   1      38.235  32.325  37.436  1.00  0.00     0.198 A 
ATOM     81  F   UNL A   1      38.153  30.301  36.240  1.00  0.00    -0.203 F 
ATOM     82  F   UNL A   1      40.280  35.274  36.939  1.00  0.00    -0.200 F 
ATOM     83  C   UNL A   1      38.771  33.590  37.620  1.00  0.00     0.200 A 
ATOM     84  F   UNL A   1      37.293  31.867  38.272  1.00  0.00    -0.200 F 
ATOM     85  F   UNL A   1      38.361  34.350  38.645  1.00  0.00    -0.200 F 
ENDBRANCH  51  75
BRANCH  63  86
ATOM     86  C   UNL A   1      44.726  27.314  34.703  1.00  0.00     0.064 A 
ATOM     87  C   UNL A   1      45.959  27.957  34.876  1.00  0.00     0.173 A 
ATOM     88  C   UNL A   1      44.465  26.166  35.464  1.00  0.00     0.173 A 
ATOM     89  F   UNL A   1      46.258  29.049  34.154  1.00  0.00    -0.203 F 
ATOM     90  C   UNL A   1      46.905  27.458  35.766  1.00  0.00     0.198 A 
ATOM     91  C   UNL A   1      45.405  25.682  36.370  1.00  0.00     0.198 A 
ATOM     92  F   UNL A   1      43.299  25.518  35.335  1.00  0.00    -0.203 F 
ATOM     93  F   UNL A   1      48.094  28.064  35.888  1.00  0.00    -0.200 F 
ATOM     94  C   UNL A   1      46.626  26.324  36.516  1.00  0.00     0.200 A 
ATOM     95  F   UNL A   1      45.132  24.590  37.098  1.00  0.00    -0.200 F 
ATOM     96  F   UNL A   1      47.537  25.846  37.374  1.00  0.00    -0.200 F 
ENDBRANCH  63  86
ENDBRANCH  37  38
ENDBRANCH  30  32
ENDBRANCH  29  30
ENDBRANCH  28  29
ENDBRANCH   1  28
TORSDOF 15
ENDMDL
