MODEL 1
REMARK VINA RESULT:     -12.3      0.000      0.000
REMARK SMILES Cc1c(C(=O)OCCOC(=O)c2ccc(-c3c4nc(c(-c5c(F)c(F)c(F)c(F)c5F)c5ccc([nH]5)c(-c5c(F)c(F)c(F)c(F)c5F)c5nc(c(-c6c(F)c(F)c(F)c(F)c6F)c6ccc3[nH]6)C=C5)C=C4)cc2)nnn1-c1ccc(Cl)cc1[N+](=O)[O-]
REMARK SMILES IDX 7 1 6 2 4 3 5 4 3 5 1 6 2 7 77 8 75 9 76 10 78 11 79 12
REMARK SMILES IDX 84 13 80 14 83 15 81 16 82 17 85 18 86 19 87 20 8 21 9 22
REMARK SMILES IDX 10 23 11 24 12 25 13 26 74 27 14 28 73 29 15 30 16 31 17 32
REMARK SMILES IDX 67 33 18 34 72 35 66 36 68 37 19 38 71 39 65 40 64 41 20 43
REMARK SMILES IDX 52 44 32 45 51 46 33 47 36 48 50 49 69 50 34 51 35 52 49 54
REMARK SMILES IDX 70 55 37 56 21 57 22 58 30 59 23 60 24 61 28 62 31 63 25 64
REMARK SMILES IDX 26 65 29 66 27 67 53 68 54 69 62 70 55 71 56 72 60 73 63 74
REMARK SMILES IDX 57 75 58 76 61 77 59 78 38 79 39 80 47 81 40 82 41 83 45 84
REMARK SMILES IDX 48 85 42 86 43 87 46 88 44 89
REMARK H PARENT 68 42 36 53
REMARK Flexibility Score: inf
ROOT
ATOM      1  C   UNL A   1      32.813  29.659  25.823  1.00  0.00     0.275 C 
ENDROOT
BRANCH   1   2
ATOM      2  O   UNL A   1      31.506  29.097  26.038  1.00  0.00    -0.457 OA
BRANCH   2   3
ATOM      3  C   UNL A   1      31.465  27.941  26.780  1.00  0.00     0.360 C 
ATOM      4  O   UNL A   1      31.481  27.916  27.997  1.00  0.00    -0.244 OA
BRANCH   3   5
ATOM      5  C   UNL A   1      31.297  26.748  25.953  1.00  0.00     0.193 A 
ATOM      6  C   UNL A   1      33.680  25.668  25.841  1.00  0.00     0.069 C 
ATOM      7  C   UNL A   1      32.216  25.763  25.618  1.00  0.00     0.077 A 
ATOM      8  N   UNL A   1      31.457  24.849  24.916  1.00  0.00    -0.210 N 
ATOM      9  N   UNL A   1      30.128  26.507  25.267  1.00  0.00    -0.122 NA
ATOM     10  N   UNL A   1      30.287  25.407  24.543  1.00  0.00    -0.061 NA
BRANCH   8  11
ATOM     11  C   UNL A   1      31.719  23.495  24.623  1.00  0.00     0.144 A 
ATOM     12  C   UNL A   1      31.919  23.127  23.284  1.00  0.00     0.037 A 
ATOM     13  C   UNL A   1      31.754  22.506  25.619  1.00  0.00     0.296 A 
ATOM     14  C   UNL A   1      32.221  21.798  22.967  1.00  0.00     0.023 A 
ATOM     15  C   UNL A   1      32.044  21.173  25.302  1.00  0.00     0.108 A 
ATOM     16  C   UNL A   1      32.287  20.833  23.974  1.00  0.00     0.048 A 
ATOM     17  Cl  UNL A   1      32.645  19.200  23.569  1.00  0.00    -0.084 Cl
BRANCH  13  18
ATOM     18  N   UNL A   1      31.345  22.778  26.992  1.00  0.00     0.065 N 
ATOM     19  O   UNL A   1      30.133  22.923  27.197  1.00  0.00    -0.258 OA
ATOM     20  O   UNL A   1      32.231  22.863  27.850  1.00  0.00    -0.258 OA
ENDBRANCH  13  18
ENDBRANCH   8  11
ENDBRANCH   3   5
ENDBRANCH   2   3
ENDBRANCH   1   2
BRANCH   1  21
ATOM     21  C   UNL A   1      33.220  30.574  26.974  1.00  0.00     0.275 C 
BRANCH  21  22
ATOM     22  O   UNL A   1      34.619  30.473  27.233  1.00  0.00    -0.458 OA
BRANCH  22  23
ATOM     23  C   UNL A   1      35.169  31.546  27.844  1.00  0.00     0.338 C 
ATOM     24  O   UNL A   1      34.980  32.722  27.576  1.00  0.00    -0.246 OA
BRANCH  23  25
ATOM     25  C   UNL A   1      36.209  31.095  28.771  1.00  0.00     0.060 A 
ATOM     26  C   UNL A   1      37.195  32.023  29.129  1.00  0.00     0.016 A 
ATOM     27  C   UNL A   1      36.378  29.717  28.957  1.00  0.00     0.016 A 
ATOM     28  C   UNL A   1      38.444  31.554  29.473  1.00  0.00     0.010 A 
ATOM     29  C   UNL A   1      37.630  29.252  29.260  1.00  0.00     0.010 A 
ATOM     30  C   UNL A   1      38.661  30.177  29.436  1.00  0.00    -0.014 A 
BRANCH  30  31
ATOM     31  C   UNL A   1      40.014  29.680  29.560  1.00  0.00     0.031 A 
ATOM     32  C   UNL A   1      40.515  29.589  30.951  1.00  0.00     0.074 A 
ATOM     33  C   UNL A   1      40.629  29.143  28.489  1.00  0.00     0.049 A 
ATOM     34  N   UNL A   1      41.594  30.092  31.454  1.00  0.00    -0.248 NA
ATOM     35  C   UNL A   1      39.642  28.933  31.941  1.00  0.00     0.031 C 
ATOM     36  C   UNL A   1      40.052  28.874  27.166  1.00  0.00     0.029 A 
ATOM     37  N   UNL A   1      41.859  28.578  28.404  1.00  0.00    -0.354 N 
ATOM     38  C   UNL A   1      41.616  29.675  32.783  1.00  0.00     0.074 A 
ATOM     39  C   UNL A   1      40.317  29.134  33.069  1.00  0.00     0.031 C 
ATOM     40  C   UNL A   1      40.838  27.985  26.517  1.00  0.00     0.029 A 
ATOM     41  C   UNL A   1      42.006  27.706  27.338  1.00  0.00     0.049 A 
ATOM     42  H   UNL A   1      42.583  28.770  29.043  1.00  0.00     0.167 HD
ATOM     43  C   UNL A   1      42.782  29.567  33.473  1.00  0.00     0.037 A 
ATOM     44  C   UNL A   1      42.950  26.738  27.232  1.00  0.00     0.037 A 
ATOM     45  C   UNL A   1      43.814  30.380  32.881  1.00  0.00     0.049 A 
ATOM     46  C   UNL A   1      44.020  27.047  28.223  1.00  0.00     0.074 A 
ATOM     47  C   UNL A   1      43.922  31.726  32.579  1.00  0.00     0.029 A 
ATOM     48  N   UNL A   1      44.815  29.766  32.166  1.00  0.00    -0.354 N 
ATOM     49  N   UNL A   1      44.825  28.071  28.138  1.00  0.00    -0.248 NA
ATOM     50  C   UNL A   1      43.885  26.472  29.556  1.00  0.00     0.031 C 
ATOM     51  C   UNL A   1      44.619  31.770  31.336  1.00  0.00     0.029 A 
ATOM     52  C   UNL A   1      44.935  30.457  30.987  1.00  0.00     0.049 A 
ATOM     53  H   UNL A   1      45.342  28.984  32.446  1.00  0.00     0.167 HD
ATOM     54  C   UNL A   1      44.972  28.520  29.444  1.00  0.00     0.074 A 
ATOM     55  C   UNL A   1      44.435  27.450  30.280  1.00  0.00     0.031 C 
ATOM     56  C   UNL A   1      45.239  29.830  29.725  1.00  0.00     0.037 A 
BRANCH  43  57
ATOM     57  C   UNL A   1      43.074  28.445  34.444  1.00  0.00     0.064 A 
ATOM     58  C   UNL A   1      43.497  28.772  35.748  1.00  0.00     0.173 A 
ATOM     59  C   UNL A   1      43.250  27.091  34.075  1.00  0.00     0.173 A 
ATOM     60  F   UNL A   1      43.385  30.027  36.208  1.00  0.00    -0.203 F 
ATOM     61  C   UNL A   1      44.139  27.844  36.571  1.00  0.00     0.198 A 
ATOM     62  C   UNL A   1      43.836  26.154  34.923  1.00  0.00     0.198 A 
ATOM     63  F   UNL A   1      42.972  26.632  32.851  1.00  0.00    -0.203 F 
ATOM     64  F   UNL A   1      44.652  28.241  37.743  1.00  0.00    -0.200 F 
ATOM     65  C   UNL A   1      44.318  26.538  36.154  1.00  0.00     0.200 A 
ATOM     66  F   UNL A   1      44.008  24.895  34.493  1.00  0.00    -0.200 F 
ATOM     67  F   UNL A   1      44.995  25.666  36.911  1.00  0.00    -0.200 F 
ENDBRANCH  43  57
BRANCH  44  68
ATOM     68  C   UNL A   1      42.786  25.401  26.604  1.00  0.00     0.064 A 
ATOM     69  C   UNL A   1      43.558  25.019  25.496  1.00  0.00     0.173 A 
ATOM     70  C   UNL A   1      42.028  24.379  27.214  1.00  0.00     0.173 A 
ATOM     71  F   UNL A   1      44.357  25.910  24.893  1.00  0.00    -0.203 F 
ATOM     72  C   UNL A   1      43.565  23.699  25.027  1.00  0.00     0.198 A 
ATOM     73  C   UNL A   1      42.022  23.069  26.734  1.00  0.00     0.198 A 
ATOM     74  F   UNL A   1      41.343  24.604  28.344  1.00  0.00    -0.203 F 
ATOM     75  F   UNL A   1      44.355  23.360  23.998  1.00  0.00    -0.200 F 
ATOM     76  C   UNL A   1      42.798  22.726  25.647  1.00  0.00     0.200 A 
ATOM     77  F   UNL A   1      41.301  22.134  27.369  1.00  0.00    -0.200 F 
ATOM     78  F   UNL A   1      42.837  21.455  25.223  1.00  0.00    -0.200 F 
ENDBRANCH  44  68
BRANCH  56  79
ATOM     79  C   UNL A   1      45.603  30.747  28.592  1.00  0.00     0.064 A 
ATOM     80  C   UNL A   1      44.655  31.415  27.798  1.00  0.00     0.173 A 
ATOM     81  C   UNL A   1      46.948  31.104  28.425  1.00  0.00     0.173 A 
ATOM     82  F   UNL A   1      43.344  31.217  27.978  1.00  0.00    -0.203 F 
ATOM     83  C   UNL A   1      45.040  32.362  26.852  1.00  0.00     0.198 A 
ATOM     84  C   UNL A   1      47.328  32.078  27.506  1.00  0.00     0.198 A 
ATOM     85  F   UNL A   1      47.894  30.546  29.197  1.00  0.00    -0.203 F 
ATOM     86  F   UNL A   1      44.113  32.980  26.105  1.00  0.00    -0.200 F 
ATOM     87  C   UNL A   1      46.375  32.699  26.713  1.00  0.00     0.200 A 
ATOM     88  F   UNL A   1      48.615  32.441  27.412  1.00  0.00    -0.200 F 
ATOM     89  F   UNL A   1      46.742  33.647  25.838  1.00  0.00    -0.200 F 
ENDBRANCH  56  79
ENDBRANCH  30  31
ENDBRANCH  23  25
ENDBRANCH  22  23
ENDBRANCH  21  22
ENDBRANCH   1  21
TORSDOF 13
ENDMDL
MODEL 2
REMARK VINA RESULT:     -12.3      3.470      8.361
REMARK SMILES Cc1c(C(=O)OCCOC(=O)c2ccc(-c3c4nc(c(-c5c(F)c(F)c(F)c(F)c5F)c5ccc([nH]5)c(-c5c(F)c(F)c(F)c(F)c5F)c5nc(c(-c6c(F)c(F)c(F)c(F)c6F)c6ccc3[nH]6)C=C5)C=C4)cc2)nnn1-c1ccc(Cl)cc1[N+](=O)[O-]
REMARK SMILES IDX 7 1 6 2 4 3 5 4 3 5 1 6 2 7 77 8 75 9 76 10 78 11 79 12
REMARK SMILES IDX 84 13 80 14 83 15 81 16 82 17 85 18 86 19 87 20 8 21 9 22
REMARK SMILES IDX 10 23 11 24 12 25 13 26 74 27 14 28 73 29 15 30 16 31 17 32
REMARK SMILES IDX 67 33 18 34 72 35 66 36 68 37 19 38 71 39 65 40 64 41 20 43
REMARK SMILES IDX 52 44 32 45 51 46 33 47 36 48 50 49 69 50 34 51 35 52 49 54
REMARK SMILES IDX 70 55 37 56 21 57 22 58 30 59 23 60 24 61 28 62 31 63 25 64
REMARK SMILES IDX 26 65 29 66 27 67 53 68 54 69 62 70 55 71 56 72 60 73 63 74
REMARK SMILES IDX 57 75 58 76 61 77 59 78 38 79 39 80 47 81 40 82 41 83 45 84
REMARK SMILES IDX 48 85 42 86 43 87 46 88 44 89
REMARK H PARENT 68 42 36 53
REMARK Flexibility Score: inf
ROOT
ATOM      1  C   UNL A   1      36.765  21.331  25.253  1.00  0.00     0.275 C 
ENDROOT
BRANCH   1   2
ATOM      2  O   UNL A   1      36.173  22.624  25.040  1.00  0.00    -0.457 OA
BRANCH   2   3
ATOM      3  C   UNL A   1      35.883  22.945  23.736  1.00  0.00     0.360 C 
ATOM      4  O   UNL A   1      36.660  22.791  22.811  1.00  0.00    -0.244 OA
BRANCH   3   5
ATOM      5  C   UNL A   1      34.505  23.400  23.560  1.00  0.00     0.193 A 
ATOM      6  C   UNL A   1      34.297  25.520  25.081  1.00  0.00     0.069 C 
ATOM      7  C   UNL A   1      33.866  24.519  24.076  1.00  0.00     0.077 A 
ATOM      8  N   UNL A   1      32.622  24.474  23.480  1.00  0.00    -0.210 N 
ATOM      9  N   UNL A   1      33.577  22.637  22.887  1.00  0.00    -0.122 NA
ATOM     10  N   UNL A   1      32.404  23.252  22.954  1.00  0.00    -0.061 NA
BRANCH   8  11
ATOM     11  C   UNL A   1      31.662  25.494  23.320  1.00  0.00     0.144 A 
ATOM     12  C   UNL A   1      30.435  25.368  23.986  1.00  0.00     0.037 A 
ATOM     13  C   UNL A   1      31.884  26.608  22.495  1.00  0.00     0.296 A 
ATOM     14  C   UNL A   1      29.477  26.383  23.878  1.00  0.00     0.023 A 
ATOM     15  C   UNL A   1      30.922  27.620  22.376  1.00  0.00     0.108 A 
ATOM     16  C   UNL A   1      29.728  27.502  23.082  1.00  0.00     0.048 A 
ATOM     17  Cl  UNL A   1      28.539  28.737  22.947  1.00  0.00    -0.084 Cl
BRANCH  13  18
ATOM     18  N   UNL A   1      33.040  26.697  21.611  1.00  0.00     0.065 N 
ATOM     19  O   UNL A   1      33.139  25.833  20.730  1.00  0.00    -0.258 OA
ATOM     20  O   UNL A   1      33.846  27.612  21.809  1.00  0.00    -0.258 OA
ENDBRANCH  13  18
ENDBRANCH   8  11
ENDBRANCH   3   5
ENDBRANCH   2   3
ENDBRANCH   1   2
BRANCH   1  21
ATOM     21  C   UNL A   1      38.279  21.432  25.405  1.00  0.00     0.275 C 
BRANCH  21  22
ATOM     22  O   UNL A   1      38.637  22.561  26.199  1.00  0.00    -0.458 OA
BRANCH  22  23
ATOM     23  C   UNL A   1      39.806  22.446  26.869  1.00  0.00     0.338 C 
ATOM     24  O   UNL A   1      40.199  21.476  27.499  1.00  0.00    -0.246 OA
BRANCH  23  25
ATOM     25  C   UNL A   1      40.473  23.748  26.907  1.00  0.00     0.060 A 
ATOM     26  C   UNL A   1      41.636  23.850  27.680  1.00  0.00     0.016 A 
ATOM     27  C   UNL A   1      39.750  24.874  26.495  1.00  0.00     0.016 A 
ATOM     28  C   UNL A   1      41.956  25.074  28.226  1.00  0.00     0.010 A 
ATOM     29  C   UNL A   1      40.046  26.082  27.069  1.00  0.00     0.010 A 
ATOM     30  C   UNL A   1      41.096  26.145  27.986  1.00  0.00    -0.014 A 
BRANCH  30  31
ATOM     31  C   UNL A   1      41.280  27.369  28.735  1.00  0.00     0.031 A 
ATOM     32  C   UNL A   1      42.416  28.206  28.285  1.00  0.00     0.074 A 
ATOM     33  C   UNL A   1      40.330  27.771  29.601  1.00  0.00     0.049 A 
ATOM     34  N   UNL A   1      43.400  28.672  28.981  1.00  0.00    -0.248 NA
ATOM     35  C   UNL A   1      42.524  28.475  26.840  1.00  0.00     0.031 C 
ATOM     36  C   UNL A   1      39.010  27.170  29.826  1.00  0.00     0.029 A 
ATOM     37  N   UNL A   1      40.280  28.899  30.353  1.00  0.00    -0.354 N 
ATOM     38  C   UNL A   1      44.160  29.430  28.092  1.00  0.00     0.074 A 
ATOM     39  C   UNL A   1      43.685  29.121  26.773  1.00  0.00     0.031 C 
ATOM     40  C   UNL A   1      38.218  28.070  30.451  1.00  0.00     0.029 A 
ATOM     41  C   UNL A   1      39.003  29.257  30.747  1.00  0.00     0.049 A 
ATOM     42  H   UNL A   1      41.082  29.417  30.597  1.00  0.00     0.167 HD
ATOM     43  C   UNL A   1      44.948  30.450  28.525  1.00  0.00     0.037 A 
ATOM     44  C   UNL A   1      38.617  30.493  31.152  1.00  0.00     0.037 A 
ATOM     45  C   UNL A   1      45.278  30.298  29.919  1.00  0.00     0.049 A 
ATOM     46  C   UNL A   1      39.851  31.256  31.495  1.00  0.00     0.074 A 
ATOM     47  C   UNL A   1      45.879  29.296  30.660  1.00  0.00     0.029 A 
ATOM     48  N   UNL A   1      44.660  31.110  30.840  1.00  0.00    -0.354 N 
ATOM     49  N   UNL A   1      40.624  30.984  32.512  1.00  0.00    -0.248 NA
ATOM     50  C   UNL A   1      40.475  32.032  30.431  1.00  0.00     0.031 C 
ATOM     51  C   UNL A   1      45.167  29.273  31.895  1.00  0.00     0.029 A 
ATOM     52  C   UNL A   1      44.216  30.292  31.848  1.00  0.00     0.049 A 
ATOM     53  H   UNL A   1      44.557  32.087  30.787  1.00  0.00     0.167 HD
ATOM     54  C   UNL A   1      41.915  31.189  32.044  1.00  0.00     0.074 A 
ATOM     55  C   UNL A   1      41.757  31.909  30.784  1.00  0.00     0.031 C 
ATOM     56  C   UNL A   1      42.980  30.505  32.560  1.00  0.00     0.037 A 
BRANCH  43  57
ATOM     57  C   UNL A   1      45.096  31.759  27.782  1.00  0.00     0.064 A 
ATOM     58  C   UNL A   1      46.281  31.993  27.056  1.00  0.00     0.173 A 
ATOM     59  C   UNL A   1      44.283  32.896  27.992  1.00  0.00     0.173 A 
ATOM     60  F   UNL A   1      47.136  30.991  26.799  1.00  0.00    -0.203 F 
ATOM     61  C   UNL A   1      46.667  33.278  26.667  1.00  0.00     0.198 A 
ATOM     62  C   UNL A   1      44.643  34.167  27.548  1.00  0.00     0.198 A 
ATOM     63  F   UNL A   1      43.165  32.862  28.725  1.00  0.00    -0.203 F 
ATOM     64  F   UNL A   1      47.870  33.467  26.108  1.00  0.00    -0.200 F 
ATOM     65  C   UNL A   1      45.853  34.366  26.923  1.00  0.00     0.200 A 
ATOM     66  F   UNL A   1      43.843  35.209  27.817  1.00  0.00    -0.200 F 
ATOM     67  F   UNL A   1      46.253  35.605  26.614  1.00  0.00    -0.200 F 
ENDBRANCH  43  57
BRANCH  44  68
ATOM     68  C   UNL A   1      37.305  31.143  30.900  1.00  0.00     0.064 A 
ATOM     69  C   UNL A   1      36.455  31.500  31.959  1.00  0.00     0.173 A 
ATOM     70  C   UNL A   1      36.949  31.635  29.627  1.00  0.00     0.173 A 
ATOM     71  F   UNL A   1      36.749  31.129  33.212  1.00  0.00    -0.203 F 
ATOM     72  C   UNL A   1      35.320  32.295  31.752  1.00  0.00     0.198 A 
ATOM     73  C   UNL A   1      35.809  32.410  29.419  1.00  0.00     0.198 A 
ATOM     74  F   UNL A   1      37.747  31.451  28.564  1.00  0.00    -0.203 F 
ATOM     75  F   UNL A   1      34.561  32.659  32.795  1.00  0.00    -0.200 F 
ATOM     76  C   UNL A   1      34.999  32.749  30.483  1.00  0.00     0.200 A 
ATOM     77  F   UNL A   1      35.534  32.871  28.191  1.00  0.00    -0.200 F 
ATOM     78  F   UNL A   1      33.936  33.543  30.293  1.00  0.00    -0.200 F 
ENDBRANCH  44  68
BRANCH  56  79
ATOM     79  C   UNL A   1      42.775  29.689  33.804  1.00  0.00     0.064 A 
ATOM     80  C   UNL A   1      42.253  28.385  33.800  1.00  0.00     0.173 A 
ATOM     81  C   UNL A   1      43.292  30.172  35.014  1.00  0.00     0.173 A 
ATOM     82  F   UNL A   1      41.847  27.809  32.663  1.00  0.00    -0.203 F 
ATOM     83  C   UNL A   1      42.212  27.617  34.962  1.00  0.00     0.198 A 
ATOM     84  C   UNL A   1      43.285  29.389  36.166  1.00  0.00     0.198 A 
ATOM     85  F   UNL A   1      43.860  31.387  35.067  1.00  0.00    -0.203 F 
ATOM     86  F   UNL A   1      41.704  26.376  34.929  1.00  0.00    -0.200 F 
ATOM     87  C   UNL A   1      42.736  28.117  36.142  1.00  0.00     0.200 A 
ATOM     88  F   UNL A   1      43.842  29.855  37.292  1.00  0.00    -0.200 F 
ATOM     89  F   UNL A   1      42.743  27.360  37.248  1.00  0.00    -0.200 F 
ENDBRANCH  56  79
ENDBRANCH  30  31
ENDBRANCH  23  25
ENDBRANCH  22  23
ENDBRANCH  21  22
ENDBRANCH   1  21
TORSDOF 13
ENDMDL
MODEL 3
REMARK VINA RESULT:     -12.2      4.752      6.825
REMARK SMILES Cc1c(C(=O)OCCOC(=O)c2ccc(-c3c4nc(c(-c5c(F)c(F)c(F)c(F)c5F)c5ccc([nH]5)c(-c5c(F)c(F)c(F)c(F)c5F)c5nc(c(-c6c(F)c(F)c(F)c(F)c6F)c6ccc3[nH]6)C=C5)C=C4)cc2)nnn1-c1ccc(Cl)cc1[N+](=O)[O-]
REMARK SMILES IDX 7 1 6 2 4 3 5 4 3 5 1 6 2 7 77 8 75 9 76 10 78 11 79 12
REMARK SMILES IDX 84 13 80 14 83 15 81 16 82 17 85 18 86 19 87 20 8 21 9 22
REMARK SMILES IDX 10 23 11 24 12 25 13 26 74 27 14 28 73 29 15 30 16 31 17 32
REMARK SMILES IDX 67 33 18 34 72 35 66 36 68 37 19 38 71 39 65 40 64 41 20 43
REMARK SMILES IDX 52 44 32 45 51 46 33 47 36 48 50 49 69 50 34 51 35 52 49 54
REMARK SMILES IDX 70 55 37 56 21 57 22 58 30 59 23 60 24 61 28 62 31 63 25 64
REMARK SMILES IDX 26 65 29 66 27 67 53 68 54 69 62 70 55 71 56 72 60 73 63 74
REMARK SMILES IDX 57 75 58 76 61 77 59 78 38 79 39 80 47 81 40 82 41 83 45 84
REMARK SMILES IDX 48 85 42 86 43 87 46 88 44 89
REMARK H PARENT 68 42 36 53
REMARK Flexibility Score: inf
ROOT
ATOM      1  C   UNL A   1      34.219  34.573  29.245  1.00  0.00     0.275 C 
ENDROOT
BRANCH   1   2
ATOM      2  O   UNL A   1      35.324  34.249  30.106  1.00  0.00    -0.457 OA
BRANCH   2   3
ATOM      3  C   UNL A   1      35.002  33.625  31.287  1.00  0.00     0.360 C 
ATOM      4  O   UNL A   1      34.028  32.909  31.433  1.00  0.00    -0.244 OA
BRANCH   3   5
ATOM      5  C   UNL A   1      36.010  33.831  32.326  1.00  0.00     0.193 A 
ATOM      6  C   UNL A   1      36.939  31.440  32.846  1.00  0.00     0.069 C 
ATOM      7  C   UNL A   1      36.865  32.919  32.928  1.00  0.00     0.077 A 
ATOM      8  N   UNL A   1      37.650  33.712  33.741  1.00  0.00    -0.210 N 
ATOM      9  N   UNL A   1      36.158  35.049  32.952  1.00  0.00    -0.122 NA
ATOM     10  N   UNL A   1      37.080  34.924  33.896  1.00  0.00    -0.061 NA
BRANCH   8  11
ATOM     11  C   UNL A   1      38.904  33.440  34.326  1.00  0.00     0.144 A 
ATOM     12  C   UNL A   1      40.062  33.765  33.606  1.00  0.00     0.037 A 
ATOM     13  C   UNL A   1      39.026  32.829  35.584  1.00  0.00     0.296 A 
ATOM     14  C   UNL A   1      41.321  33.543  34.177  1.00  0.00     0.023 A 
ATOM     15  C   UNL A   1      40.285  32.595  36.153  1.00  0.00     0.108 A 
ATOM     16  C   UNL A   1      41.425  32.968  35.444  1.00  0.00     0.048 A 
ATOM     17  Cl  UNL A   1      42.977  32.688  36.130  1.00  0.00    -0.084 Cl
BRANCH  13  18
ATOM     18  N   UNL A   1      37.877  32.272  36.288  1.00  0.00     0.065 N 
ATOM     19  O   UNL A   1      37.082  33.080  36.787  1.00  0.00    -0.258 OA
ATOM     20  O   UNL A   1      37.783  31.042  36.354  1.00  0.00    -0.258 OA
ENDBRANCH  13  18
ENDBRANCH   8  11
ENDBRANCH   3   5
ENDBRANCH   2   3
ENDBRANCH   1   2
BRANCH   1  21
ATOM     21  C   UNL A   1      34.016  33.505  28.175  1.00  0.00     0.275 C 
BRANCH  21  22
ATOM     22  O   UNL A   1      35.250  32.869  27.850  1.00  0.00    -0.458 OA
BRANCH  22  23
ATOM     23  C   UNL A   1      35.242  31.520  27.938  1.00  0.00     0.338 C 
ATOM     24  O   UNL A   1      34.418  30.757  27.457  1.00  0.00    -0.246 OA
BRANCH  23  25
ATOM     25  C   UNL A   1      36.275  31.089  28.882  1.00  0.00     0.060 A 
ATOM     26  C   UNL A   1      37.329  31.978  29.126  1.00  0.00     0.016 A 
ATOM     27  C   UNL A   1      36.358  29.727  29.196  1.00  0.00     0.016 A 
ATOM     28  C   UNL A   1      38.554  31.459  29.488  1.00  0.00     0.010 A 
ATOM     29  C   UNL A   1      37.585  29.209  29.516  1.00  0.00     0.010 A 
ATOM     30  C   UNL A   1      38.679  30.073  29.580  1.00  0.00    -0.014 A 
BRANCH  30  31
ATOM     31  C   UNL A   1      39.999  29.499  29.722  1.00  0.00     0.031 A 
ATOM     32  C   UNL A   1      40.473  29.377  31.120  1.00  0.00     0.074 A 
ATOM     33  C   UNL A   1      40.598  28.930  28.659  1.00  0.00     0.049 A 
ATOM     34  N   UNL A   1      41.572  29.816  31.641  1.00  0.00    -0.248 NA
ATOM     35  C   UNL A   1      39.549  28.771  32.095  1.00  0.00     0.031 C 
ATOM     36  C   UNL A   1      40.027  28.697  27.327  1.00  0.00     0.029 A 
ATOM     37  N   UNL A   1      41.795  28.295  28.591  1.00  0.00    -0.354 N 
ATOM     38  C   UNL A   1      41.550  29.396  32.969  1.00  0.00     0.074 A 
ATOM     39  C   UNL A   1      40.217  28.930  33.234  1.00  0.00     0.031 C 
ATOM     40  C   UNL A   1      40.770  27.765  26.688  1.00  0.00     0.029 A 
ATOM     41  C   UNL A   1      41.907  27.419  27.525  1.00  0.00     0.049 A 
ATOM     42  H   UNL A   1      42.519  28.444  29.241  1.00  0.00     0.167 HD
ATOM     43  C   UNL A   1      42.698  29.220  33.676  1.00  0.00     0.037 A 
ATOM     44  C   UNL A   1      42.795  26.398  27.430  1.00  0.00     0.037 A 
ATOM     45  C   UNL A   1      43.783  29.973  33.102  1.00  0.00     0.049 A 
ATOM     46  C   UNL A   1      43.867  26.643  28.437  1.00  0.00     0.074 A 
ATOM     47  C   UNL A   1      43.972  31.311  32.805  1.00  0.00     0.029 A 
ATOM     48  N   UNL A   1      44.757  29.304  32.400  1.00  0.00    -0.354 N 
ATOM     49  N   UNL A   1      44.731  27.620  28.368  1.00  0.00    -0.248 NA
ATOM     50  C   UNL A   1      43.679  26.075  29.766  1.00  0.00     0.031 C 
ATOM     51  C   UNL A   1      44.689  31.317  31.572  1.00  0.00     0.029 A 
ATOM     52  C   UNL A   1      44.934  29.990  31.225  1.00  0.00     0.049 A 
ATOM     53  H   UNL A   1      45.235  28.492  32.685  1.00  0.00     0.167 HD
ATOM     54  C   UNL A   1      44.884  28.056  29.677  1.00  0.00     0.074 A 
ATOM     55  C   UNL A   1      44.273  27.018  30.502  1.00  0.00     0.031 C 
ATOM     56  C   UNL A   1      45.221  29.349  29.965  1.00  0.00     0.037 A 
BRANCH  43  57
ATOM     57  C   UNL A   1      42.910  28.081  34.648  1.00  0.00     0.064 A 
ATOM     58  C   UNL A   1      43.324  28.381  35.961  1.00  0.00     0.173 A 
ATOM     59  C   UNL A   1      43.020  26.721  34.277  1.00  0.00     0.173 A 
ATOM     60  F   UNL A   1      43.271  29.639  36.424  1.00  0.00    -0.203 F 
ATOM     61  C   UNL A   1      43.899  27.417  36.792  1.00  0.00     0.198 A 
ATOM     62  C   UNL A   1      43.538  25.751  35.133  1.00  0.00     0.198 A 
ATOM     63  F   UNL A   1      42.741  26.281  33.046  1.00  0.00    -0.203 F 
ATOM     64  F   UNL A   1      44.410  27.783  37.976  1.00  0.00    -0.200 F 
ATOM     65  C   UNL A   1      44.016  26.105  36.374  1.00  0.00     0.200 A 
ATOM     66  F   UNL A   1      43.651  24.486  34.701  1.00  0.00    -0.200 F 
ATOM     67  F   UNL A   1      44.630  25.195  37.140  1.00  0.00    -0.200 F 
ENDBRANCH  43  57
BRANCH  44  68
ATOM     68  C   UNL A   1      42.565  25.074  26.796  1.00  0.00     0.064 A 
ATOM     69  C   UNL A   1      43.279  24.681  25.654  1.00  0.00     0.173 A 
ATOM     70  C   UNL A   1      41.800  24.069  27.426  1.00  0.00     0.173 A 
ATOM     71  F   UNL A   1      44.081  25.552  25.028  1.00  0.00    -0.203 F 
ATOM     72  C   UNL A   1      43.226  23.366  25.172  1.00  0.00     0.198 A 
ATOM     73  C   UNL A   1      41.733  22.766  26.934  1.00  0.00     0.198 A 
ATOM     74  F   UNL A   1      41.168  24.303  28.585  1.00  0.00    -0.203 F 
ATOM     75  F   UNL A   1      43.963  23.014  24.109  1.00  0.00    -0.200 F 
ATOM     76  C   UNL A   1      42.453  22.411  25.813  1.00  0.00     0.200 A 
ATOM     77  F   UNL A   1      41.008  21.846  27.587  1.00  0.00    -0.200 F 
ATOM     78  F   UNL A   1      42.435  21.144  25.375  1.00  0.00    -0.200 F 
ENDBRANCH  44  68
BRANCH  56  79
ATOM     79  C   UNL A   1      45.654  30.245  28.841  1.00  0.00     0.064 A 
ATOM     80  C   UNL A   1      44.758  30.969  28.036  1.00  0.00     0.173 A 
ATOM     81  C   UNL A   1      47.020  30.523  28.694  1.00  0.00     0.173 A 
ATOM     82  F   UNL A   1      43.436  30.847  28.196  1.00  0.00    -0.203 F 
ATOM     83  C   UNL A   1      45.211  31.894  27.098  1.00  0.00     0.198 A 
ATOM     84  C   UNL A   1      47.469  31.476  27.783  1.00  0.00     0.198 A 
ATOM     85  F   UNL A   1      47.920  29.910  29.478  1.00  0.00    -0.203 F 
ATOM     86  F   UNL A   1      44.332  32.567  26.340  1.00  0.00    -0.200 F 
ATOM     87  C   UNL A   1      46.566  32.153  26.979  1.00  0.00     0.200 A 
ATOM     88  F   UNL A   1      48.776  31.763  27.708  1.00  0.00    -0.200 F 
ATOM     89  F   UNL A   1      46.999  33.080  26.112  1.00  0.00    -0.200 F 
ENDBRANCH  56  79
ENDBRANCH  30  31
ENDBRANCH  23  25
ENDBRANCH  22  23
ENDBRANCH  21  22
ENDBRANCH   1  21
TORSDOF 13
ENDMDL
