MODEL 1
REMARK VINA RESULT:     -11.2      0.000      0.000
REMARK SMILES CN(CC(=O)NCC(=O)OCCOC(=O)c1ccc(-c2c3nc(c(-c4c(F)c(F)c(F)c(F)c4F)c4ccc([nH]4)c(-c4c(F)c(F)c(F)c(F)c4F)c4nc(c(-c5c(F)c(F)c(F)c(F)c5F)c5ccc2[nH]5)C=C4)C=C3)cc1)c1ncccn1
REMARK SMILES IDX 11 1 10 2 8 3 9 4 7 5 6 6 4 7 5 8 3 10 2 11 1 12 79 13 80 14
REMARK SMILES IDX 84 15 81 16 83 17 82 18 12 19 13 20 14 21 15 22 16 23 17 24
REMARK SMILES IDX 78 25 18 26 77 27 19 28 20 29 21 30 71 31 22 32 76 33 70 34
REMARK SMILES IDX 72 35 23 36 75 37 69 38 68 39 24 41 56 42 36 43 55 44 37 45
REMARK SMILES IDX 40 46 54 47 73 48 38 49 39 50 53 52 74 53 41 54 25 55 26 56
REMARK SMILES IDX 34 57 27 58 28 59 32 60 35 61 29 62 30 63 33 64 31 65 57 66
REMARK SMILES IDX 58 67 66 68 59 69 60 70 64 71 67 72 61 73 62 74 65 75 63 76
REMARK SMILES IDX 42 77 43 78 51 79 44 80 45 81 49 82 52 83 46 84 47 85 50 86
REMARK SMILES IDX 48 87
REMARK H PARENT 6 9 72 40 40 51
REMARK Flexibility Score: inf
ROOT
ATOM      1  C   UNL A   1      35.029  20.983  25.078  1.00  0.00     0.274 C 
ENDROOT
BRANCH   1   2
ATOM      2  O   UNL A   1      34.163  19.957  24.563  1.00  0.00    -0.461 OA
BRANCH   2   3
ATOM      3  C   UNL A   1      32.874  19.970  24.985  1.00  0.00     0.325 C 
ATOM      4  O   UNL A   1      32.279  19.008  25.461  1.00  0.00    -0.250 OA
BRANCH   3   5
ATOM      5  C   UNL A   1      32.228  21.351  24.896  1.00  0.00     0.238 C 
BRANCH   5   6
ATOM      6  N   UNL A   1      31.510  21.836  26.056  1.00  0.00    -0.344 N 
ATOM      7  C   UNL A   1      31.149  23.129  26.321  1.00  0.00     0.240 C 
ATOM      8  O   UNL A   1      30.372  23.346  27.254  1.00  0.00    -0.273 OA
ATOM      9  H   UNL A   1      31.254  21.163  26.727  1.00  0.00     0.164 HD
BRANCH   7  10
ATOM     10  C   UNL A   1      31.626  24.246  25.378  1.00  0.00     0.219 C 
BRANCH  10  11
ATOM     11  N   UNL A   1      32.826  24.942  25.856  1.00  0.00    -0.335 N 
ATOM     12  C   UNL A   1      34.135  24.547  25.381  1.00  0.00     0.147 C 
BRANCH  11  13
ATOM     13  C   UNL A   1      32.668  26.243  26.295  1.00  0.00     0.225 A 
ATOM     14  N   UNL A   1      33.678  27.106  26.122  1.00  0.00    -0.221 NA
ATOM     15  N   UNL A   1      31.513  26.604  26.878  1.00  0.00    -0.221 NA
ATOM     16  C   UNL A   1      33.520  28.372  26.539  1.00  0.00     0.117 A 
ATOM     17  C   UNL A   1      31.403  27.875  27.311  1.00  0.00     0.117 A 
ATOM     18  C   UNL A   1      32.386  28.819  27.160  1.00  0.00     0.040 A 
ENDBRANCH  11  13
ENDBRANCH  10  11
ENDBRANCH   7  10
ENDBRANCH   5   6
ENDBRANCH   3   5
ENDBRANCH   2   3
ENDBRANCH   1   2
BRANCH   1  19
ATOM     19  C   UNL A   1      36.489  20.529  25.015  1.00  0.00     0.275 C 
BRANCH  19  20
ATOM     20  O   UNL A   1      37.398  21.628  25.229  1.00  0.00    -0.458 OA
BRANCH  20  21
ATOM     21  C   UNL A   1      38.569  21.287  25.812  1.00  0.00     0.338 C 
ATOM     22  O   UNL A   1      39.155  20.219  25.752  1.00  0.00    -0.246 OA
BRANCH  21  23
ATOM     23  C   UNL A   1      39.173  22.461  26.454  1.00  0.00     0.060 A 
ATOM     24  C   UNL A   1      38.651  23.711  26.120  1.00  0.00     0.016 A 
ATOM     25  C   UNL A   1      40.324  22.358  27.233  1.00  0.00     0.016 A 
ATOM     26  C   UNL A   1      39.308  24.870  26.502  1.00  0.00     0.010 A 
ATOM     27  C   UNL A   1      40.968  23.529  27.651  1.00  0.00     0.010 A 
ATOM     28  C   UNL A   1      40.481  24.791  27.260  1.00  0.00    -0.014 A 
BRANCH  28  29
ATOM     29  C   UNL A   1      41.228  26.035  27.562  1.00  0.00     0.031 A 
ATOM     30  C   UNL A   1      40.582  27.108  28.390  1.00  0.00     0.074 A 
ATOM     31  C   UNL A   1      42.505  26.166  27.158  1.00  0.00     0.049 A 
ATOM     32  N   UNL A   1      41.024  28.304  28.685  1.00  0.00    -0.248 NA
ATOM     33  C   UNL A   1      39.264  26.796  28.963  1.00  0.00     0.031 C 
ATOM     34  C   UNL A   1      43.264  25.158  26.416  1.00  0.00     0.029 A 
ATOM     35  N   UNL A   1      43.394  27.197  27.327  1.00  0.00    -0.354 N 
ATOM     36  C   UNL A   1      40.024  28.899  29.443  1.00  0.00     0.074 A 
ATOM     37  C   UNL A   1      38.952  27.935  29.564  1.00  0.00     0.031 C 
ATOM     38  C   UNL A   1      44.511  25.613  26.211  1.00  0.00     0.029 A 
ATOM     39  C   UNL A   1      44.619  26.964  26.753  1.00  0.00     0.049 A 
ATOM     40  H   UNL A   1      43.174  28.024  27.815  1.00  0.00     0.167 HD
ATOM     41  C   UNL A   1      40.007  30.139  29.987  1.00  0.00     0.037 A 
ATOM     42  C   UNL A   1      45.695  27.765  26.651  1.00  0.00     0.037 A 
ATOM     43  C   UNL A   1      41.092  31.080  29.894  1.00  0.00     0.049 A 
ATOM     44  C   UNL A   1      45.636  29.150  27.231  1.00  0.00     0.074 A 
ATOM     45  C   UNL A   1      41.163  32.371  30.386  1.00  0.00     0.029 A 
ATOM     46  N   UNL A   1      42.307  30.818  29.279  1.00  0.00    -0.354 N 
ATOM     47  N   UNL A   1      44.661  29.729  27.888  1.00  0.00    -0.248 NA
ATOM     48  C   UNL A   1      46.822  29.997  27.045  1.00  0.00     0.031 C 
ATOM     49  C   UNL A   1      42.415  32.899  30.050  1.00  0.00     0.029 A 
ATOM     50  C   UNL A   1      43.134  31.925  29.376  1.00  0.00     0.049 A 
ATOM     51  H   UNL A   1      42.546  29.971  28.837  1.00  0.00     0.167 HD
ATOM     52  C   UNL A   1      45.117  31.000  28.205  1.00  0.00     0.074 A 
ATOM     53  C   UNL A   1      46.465  31.103  27.683  1.00  0.00     0.031 C 
ATOM     54  C   UNL A   1      44.476  31.996  28.862  1.00  0.00     0.037 A 
BRANCH  41  55
ATOM     55  C   UNL A   1      38.761  30.562  30.704  1.00  0.00     0.064 A 
ATOM     56  C   UNL A   1      38.652  30.491  32.100  1.00  0.00     0.173 A 
ATOM     57  C   UNL A   1      37.673  31.078  29.984  1.00  0.00     0.173 A 
ATOM     58  F   UNL A   1      39.660  29.989  32.830  1.00  0.00    -0.203 F 
ATOM     59  C   UNL A   1      37.492  30.905  32.748  1.00  0.00     0.198 A 
ATOM     60  C   UNL A   1      36.523  31.512  30.637  1.00  0.00     0.198 A 
ATOM     61  F   UNL A   1      37.730  31.168  28.647  1.00  0.00    -0.203 F 
ATOM     62  F   UNL A   1      37.395  30.797  34.080  1.00  0.00    -0.200 F 
ATOM     63  C   UNL A   1      36.432  31.422  32.018  1.00  0.00     0.200 A 
ATOM     64  F   UNL A   1      35.503  32.017  29.930  1.00  0.00    -0.200 F 
ATOM     65  F   UNL A   1      35.318  31.826  32.643  1.00  0.00    -0.200 F 
ENDBRANCH  41  55
BRANCH  42  66
ATOM     66  C   UNL A   1      46.911  27.284  25.945  1.00  0.00     0.064 A 
ATOM     67  C   UNL A   1      47.911  26.582  26.628  1.00  0.00     0.173 A 
ATOM     68  C   UNL A   1      47.096  27.522  24.575  1.00  0.00     0.173 A 
ATOM     69  F   UNL A   1      47.790  26.353  27.943  1.00  0.00    -0.203 F 
ATOM     70  C   UNL A   1      49.059  26.143  25.970  1.00  0.00     0.198 A 
ATOM     71  C   UNL A   1      48.231  27.062  23.913  1.00  0.00     0.198 A 
ATOM     72  F   UNL A   1      46.167  28.193  23.877  1.00  0.00    -0.203 F 
ATOM     73  F   UNL A   1      50.020  25.508  26.654  1.00  0.00    -0.200 F 
ATOM     74  C   UNL A   1      49.214  26.378  24.612  1.00  0.00     0.200 A 
ATOM     75  F   UNL A   1      48.372  27.281  22.598  1.00  0.00    -0.200 F 
ATOM     76  F   UNL A   1      50.316  25.954  23.978  1.00  0.00    -0.200 F 
ENDBRANCH  42  66
BRANCH  54  77
ATOM     77  C   UNL A   1      45.238  33.268  29.080  1.00  0.00     0.064 A 
ATOM     78  C   UNL A   1      46.025  33.461  30.223  1.00  0.00     0.173 A 
ATOM     79  C   UNL A   1      45.204  34.289  28.119  1.00  0.00     0.173 A 
ATOM     80  F   UNL A   1      46.073  32.518  31.177  1.00  0.00    -0.203 F 
ATOM     81  C   UNL A   1      46.737  34.642  30.407  1.00  0.00     0.198 A 
ATOM     82  C   UNL A   1      45.935  35.459  28.295  1.00  0.00     0.198 A 
ATOM     83  F   UNL A   1      44.467  34.146  27.008  1.00  0.00    -0.203 F 
ATOM     84  F   UNL A   1      47.455  34.823  31.524  1.00  0.00    -0.200 F 
ATOM     85  C   UNL A   1      46.696  35.637  29.440  1.00  0.00     0.200 A 
ATOM     86  F   UNL A   1      45.899  36.417  27.358  1.00  0.00    -0.200 F 
ATOM     87  F   UNL A   1      47.386  36.773  29.618  1.00  0.00    -0.200 F 
ENDBRANCH  54  77
ENDBRANCH  28  29
ENDBRANCH  21  23
ENDBRANCH  20  21
ENDBRANCH  19  20
ENDBRANCH   1  19
TORSDOF 15
ENDMDL
MODEL 2
REMARK VINA RESULT:     -11.2      4.513      9.735
REMARK SMILES CN(CC(=O)NCC(=O)OCCOC(=O)c1ccc(-c2c3nc(c(-c4c(F)c(F)c(F)c(F)c4F)c4ccc([nH]4)c(-c4c(F)c(F)c(F)c(F)c4F)c4nc(c(-c5c(F)c(F)c(F)c(F)c5F)c5ccc2[nH]5)C=C4)C=C3)cc1)c1ncccn1
REMARK SMILES IDX 11 1 10 2 8 3 9 4 7 5 6 6 4 7 5 8 3 10 2 11 1 12 79 13 80 14
REMARK SMILES IDX 84 15 81 16 83 17 82 18 12 19 13 20 14 21 15 22 16 23 17 24
REMARK SMILES IDX 78 25 18 26 77 27 19 28 20 29 21 30 71 31 22 32 76 33 70 34
REMARK SMILES IDX 72 35 23 36 75 37 69 38 68 39 24 41 56 42 36 43 55 44 37 45
REMARK SMILES IDX 40 46 54 47 73 48 38 49 39 50 53 52 74 53 41 54 25 55 26 56
REMARK SMILES IDX 34 57 27 58 28 59 32 60 35 61 29 62 30 63 33 64 31 65 57 66
REMARK SMILES IDX 58 67 66 68 59 69 60 70 64 71 67 72 61 73 62 74 65 75 63 76
REMARK SMILES IDX 42 77 43 78 51 79 44 80 45 81 49 82 52 83 46 84 47 85 50 86
REMARK SMILES IDX 48 87
REMARK H PARENT 6 9 72 40 40 51
REMARK Flexibility Score: inf
ROOT
ATOM      1  C   UNL A   1      31.400  29.432  24.634  1.00  0.00     0.274 C 
ENDROOT
BRANCH   1   2
ATOM      2  O   UNL A   1      30.244  29.707  23.823  1.00  0.00    -0.461 OA
BRANCH   2   3
ATOM      3  C   UNL A   1      30.171  29.080  22.622  1.00  0.00     0.325 C 
ATOM      4  O   UNL A   1      29.778  29.596  21.581  1.00  0.00    -0.250 OA
BRANCH   3   5
ATOM      5  C   UNL A   1      30.716  27.654  22.656  1.00  0.00     0.238 C 
BRANCH   5   6
ATOM      6  N   UNL A   1      31.860  27.349  21.823  1.00  0.00    -0.344 N 
ATOM      7  C   UNL A   1      32.396  26.115  21.579  1.00  0.00     0.240 C 
ATOM      8  O   UNL A   1      33.247  26.004  20.693  1.00  0.00    -0.273 OA
ATOM      9  H   UNL A   1      32.300  28.113  21.384  1.00  0.00     0.164 HD
BRANCH   7  10
ATOM     10  C   UNL A   1      31.837  24.895  22.331  1.00  0.00     0.219 C 
BRANCH  10  11
ATOM     11  N   UNL A   1      32.672  24.471  23.460  1.00  0.00    -0.335 N 
ATOM     12  C   UNL A   1      33.819  23.616  23.238  1.00  0.00     0.147 C 
BRANCH  11  13
ATOM     13  C   UNL A   1      32.686  25.286  24.577  1.00  0.00     0.225 A 
ATOM     14  N   UNL A   1      33.799  25.978  24.852  1.00  0.00    -0.221 NA
ATOM     15  N   UNL A   1      31.589  25.362  25.348  1.00  0.00    -0.221 NA
ATOM     16  C   UNL A   1      33.809  26.778  25.931  1.00  0.00     0.117 A 
ATOM     17  C   UNL A   1      31.646  26.153  26.438  1.00  0.00     0.117 A 
ATOM     18  C   UNL A   1      32.744  26.900  26.780  1.00  0.00     0.040 A 
ENDBRANCH  11  13
ENDBRANCH  10  11
ENDBRANCH   7  10
ENDBRANCH   5   6
ENDBRANCH   3   5
ENDBRANCH   2   3
ENDBRANCH   1   2
BRANCH   1  19
ATOM     19  C   UNL A   1      31.541  30.485  25.735  1.00  0.00     0.275 C 
BRANCH  19  20
ATOM     20  O   UNL A   1      32.716  30.257  26.540  1.00  0.00    -0.458 OA
BRANCH  20  21
ATOM     21  C   UNL A   1      33.252  31.373  27.084  1.00  0.00     0.338 C 
ATOM     22  O   UNL A   1      32.714  32.450  27.273  1.00  0.00    -0.246 OA
BRANCH  21  23
ATOM     23  C   UNL A   1      34.603  31.090  27.586  1.00  0.00     0.060 A 
ATOM     24  C   UNL A   1      34.912  29.760  27.871  1.00  0.00     0.016 A 
ATOM     25  C   UNL A   1      35.487  32.112  27.925  1.00  0.00     0.016 A 
ATOM     26  C   UNL A   1      36.075  29.442  28.557  1.00  0.00     0.010 A 
ATOM     27  C   UNL A   1      36.678  31.789  28.585  1.00  0.00     0.010 A 
ATOM     28  C   UNL A   1      36.963  30.454  28.933  1.00  0.00    -0.014 A 
BRANCH  28  29
ATOM     29  C   UNL A   1      38.141  30.107  29.762  1.00  0.00     0.031 A 
ATOM     30  C   UNL A   1      39.223  29.237  29.189  1.00  0.00     0.074 A 
ATOM     31  C   UNL A   1      38.274  30.630  30.994  1.00  0.00     0.049 A 
ATOM     32  N   UNL A   1      40.283  28.739  29.775  1.00  0.00    -0.248 NA
ATOM     33  C   UNL A   1      39.098  28.878  27.768  1.00  0.00     0.031 C 
ATOM     34  C   UNL A   1      37.327  31.550  31.627  1.00  0.00     0.029 A 
ATOM     35  N   UNL A   1      39.265  30.474  31.929  1.00  0.00    -0.354 N 
ATOM     36  C   UNL A   1      40.927  27.980  28.808  1.00  0.00     0.074 A 
ATOM     37  C   UNL A   1      40.143  28.081  27.596  1.00  0.00     0.031 C 
ATOM     38  C   UNL A   1      37.793  31.892  32.839  1.00  0.00     0.029 A 
ATOM     39  C   UNL A   1      39.037  31.170  33.091  1.00  0.00     0.049 A 
ATOM     40  H   UNL A   1      40.063  29.917  31.782  1.00  0.00     0.167 HD
ATOM     41  C   UNL A   1      42.071  27.265  28.925  1.00  0.00     0.037 A 
ATOM     42  C   UNL A   1      39.739  31.197  34.238  1.00  0.00     0.037 A 
ATOM     43  C   UNL A   1      42.865  27.198  30.123  1.00  0.00     0.049 A 
ATOM     44  C   UNL A   1      40.985  30.364  34.354  1.00  0.00     0.074 A 
ATOM     45  C   UNL A   1      44.026  26.480  30.353  1.00  0.00     0.029 A 
ATOM     46  N   UNL A   1      42.588  27.896  31.289  1.00  0.00    -0.354 N 
ATOM     47  N   UNL A   1      41.551  29.596  33.456  1.00  0.00    -0.248 NA
ATOM     48  C   UNL A   1      41.682  30.393  35.647  1.00  0.00     0.031 C 
ATOM     49  C   UNL A   1      44.438  26.726  31.668  1.00  0.00     0.029 A 
ATOM     50  C   UNL A   1      43.552  27.623  32.245  1.00  0.00     0.049 A 
ATOM     51  H   UNL A   1      41.817  28.494  31.419  1.00  0.00     0.167 HD
ATOM     52  C   UNL A   1      42.675  29.060  34.067  1.00  0.00     0.074 A 
ATOM     53  C   UNL A   1      42.722  29.605  35.409  1.00  0.00     0.031 C 
ATOM     54  C   UNL A   1      43.584  28.189  33.567  1.00  0.00     0.037 A 
BRANCH  41  55
ATOM     55  C   UNL A   1      42.513  26.469  27.735  1.00  0.00     0.064 A 
ATOM     56  C   UNL A   1      43.454  26.966  26.823  1.00  0.00     0.173 A 
ATOM     57  C   UNL A   1      42.012  25.175  27.525  1.00  0.00     0.173 A 
ATOM     58  F   UNL A   1      43.949  28.204  26.972  1.00  0.00    -0.203 F 
ATOM     59  C   UNL A   1      43.865  26.203  25.733  1.00  0.00     0.198 A 
ATOM     60  C   UNL A   1      42.442  24.407  26.447  1.00  0.00     0.198 A 
ATOM     61  F   UNL A   1      41.111  24.655  28.372  1.00  0.00    -0.203 F 
ATOM     62  F   UNL A   1      44.740  26.711  24.854  1.00  0.00    -0.200 F 
ATOM     63  C   UNL A   1      43.365  24.923  25.550  1.00  0.00     0.200 A 
ATOM     64  F   UNL A   1      41.961  23.167  26.276  1.00  0.00    -0.200 F 
ATOM     65  F   UNL A   1      43.765  24.187  24.504  1.00  0.00    -0.200 F 
ENDBRANCH  41  55
BRANCH  42  66
ATOM     66  C   UNL A   1      39.262  32.020  35.378  1.00  0.00     0.064 A 
ATOM     67  C   UNL A   1      38.449  31.469  36.376  1.00  0.00     0.173 A 
ATOM     68  C   UNL A   1      39.607  33.375  35.489  1.00  0.00     0.173 A 
ATOM     69  F   UNL A   1      38.071  30.185  36.299  1.00  0.00    -0.203 F 
ATOM     70  C   UNL A   1      37.988  32.246  37.438  1.00  0.00     0.198 A 
ATOM     71  C   UNL A   1      39.168  34.144  36.564  1.00  0.00     0.198 A 
ATOM     72  F   UNL A   1      40.382  33.950  34.557  1.00  0.00    -0.203 F 
ATOM     73  F   UNL A   1      37.179  31.705  38.359  1.00  0.00    -0.200 F 
ATOM     74  C   UNL A   1      38.354  33.580  37.535  1.00  0.00     0.200 A 
ATOM     75  F   UNL A   1      39.533  35.430  36.659  1.00  0.00    -0.200 F 
ATOM     76  F   UNL A   1      37.914  34.325  38.558  1.00  0.00    -0.200 F 
ENDBRANCH  42  66
BRANCH  54  77
ATOM     77  C   UNL A   1      44.720  27.800  34.463  1.00  0.00     0.064 A 
ATOM     78  C   UNL A   1      45.897  28.559  34.523  1.00  0.00     0.173 A 
ATOM     79  C   UNL A   1      44.615  26.675  35.293  1.00  0.00     0.173 A 
ATOM     80  F   UNL A   1      46.047  29.635  33.734  1.00  0.00    -0.203 F 
ATOM     81  C   UNL A   1      46.938  28.194  35.370  1.00  0.00     0.198 A 
ATOM     82  C   UNL A   1      45.650  26.325  36.154  1.00  0.00     0.198 A 
ATOM     83  F   UNL A   1      43.506  25.921  35.272  1.00  0.00    -0.203 F 
ATOM     84  F   UNL A   1      48.070  28.912  35.386  1.00  0.00    -0.200 F 
ATOM     85  C   UNL A   1      46.812  27.081  36.189  1.00  0.00     0.200 A 
ATOM     86  F   UNL A   1      45.524  25.253  36.950  1.00  0.00    -0.200 F 
ATOM     87  F   UNL A   1      47.816  26.733  37.006  1.00  0.00    -0.200 F 
ENDBRANCH  54  77
ENDBRANCH  28  29
ENDBRANCH  21  23
ENDBRANCH  20  21
ENDBRANCH  19  20
ENDBRANCH   1  19
TORSDOF 15
ENDMDL
MODEL 3
REMARK VINA RESULT:     -11.1      4.317      9.769
REMARK SMILES CN(CC(=O)NCC(=O)OCCOC(=O)c1ccc(-c2c3nc(c(-c4c(F)c(F)c(F)c(F)c4F)c4ccc([nH]4)c(-c4c(F)c(F)c(F)c(F)c4F)c4nc(c(-c5c(F)c(F)c(F)c(F)c5F)c5ccc2[nH]5)C=C4)C=C3)cc1)c1ncccn1
REMARK SMILES IDX 11 1 10 2 8 3 9 4 7 5 6 6 4 7 5 8 3 10 2 11 1 12 79 13 80 14
REMARK SMILES IDX 84 15 81 16 83 17 82 18 12 19 13 20 14 21 15 22 16 23 17 24
REMARK SMILES IDX 78 25 18 26 77 27 19 28 20 29 21 30 71 31 22 32 76 33 70 34
REMARK SMILES IDX 72 35 23 36 75 37 69 38 68 39 24 41 56 42 36 43 55 44 37 45
REMARK SMILES IDX 40 46 54 47 73 48 38 49 39 50 53 52 74 53 41 54 25 55 26 56
REMARK SMILES IDX 34 57 27 58 28 59 32 60 35 61 29 62 30 63 33 64 31 65 57 66
REMARK SMILES IDX 58 67 66 68 59 69 60 70 64 71 67 72 61 73 62 74 65 75 63 76
REMARK SMILES IDX 42 77 43 78 51 79 44 80 45 81 49 82 52 83 46 84 47 85 50 86
REMARK SMILES IDX 48 87
REMARK H PARENT 6 9 72 40 40 51
REMARK Flexibility Score: inf
ROOT
ATOM      1  C   UNL A   1      32.410  28.775  25.401  1.00  0.00     0.274 C 
ENDROOT
BRANCH   1   2
ATOM      2  O   UNL A   1      31.175  28.052  25.250  1.00  0.00    -0.461 OA
BRANCH   2   3
ATOM      3  C   UNL A   1      30.969  27.003  26.084  1.00  0.00     0.325 C 
ATOM      4  O   UNL A   1      31.292  26.970  27.267  1.00  0.00    -0.250 OA
BRANCH   3   5
ATOM      5  C   UNL A   1      30.201  25.858  25.428  1.00  0.00     0.238 C 
BRANCH   5   6
ATOM      6  N   UNL A   1      29.704  24.802  26.285  1.00  0.00    -0.344 N 
ATOM      7  C   UNL A   1      30.374  23.675  26.678  1.00  0.00     0.240 C 
ATOM      8  O   UNL A   1      29.881  22.974  27.564  1.00  0.00    -0.273 OA
ATOM      9  H   UNL A   1      28.785  24.905  26.622  1.00  0.00     0.164 HD
BRANCH   7  10
ATOM     10  C   UNL A   1      31.765  23.390  26.088  1.00  0.00     0.219 C 
BRANCH  10  11
ATOM     11  N   UNL A   1      31.728  22.567  24.873  1.00  0.00    -0.335 N 
ATOM     12  C   UNL A   1      31.370  23.159  23.603  1.00  0.00     0.147 C 
BRANCH  11  13
ATOM     13  C   UNL A   1      32.522  21.435  24.853  1.00  0.00     0.225 A 
ATOM     14  N   UNL A   1      31.940  20.240  25.018  1.00  0.00    -0.221 NA
ATOM     15  N   UNL A   1      33.846  21.565  24.669  1.00  0.00    -0.221 NA
ATOM     16  C   UNL A   1      32.711  19.140  24.988  1.00  0.00     0.117 A 
ATOM     17  C   UNL A   1      34.590  20.442  24.674  1.00  0.00     0.117 A 
ATOM     18  C   UNL A   1      34.068  19.183  24.825  1.00  0.00     0.040 A 
ENDBRANCH  11  13
ENDBRANCH  10  11
ENDBRANCH   7  10
ENDBRANCH   5   6
ENDBRANCH   3   5
ENDBRANCH   2   3
ENDBRANCH   1   2
BRANCH   1  19
ATOM     19  C   UNL A   1      32.131  30.243  25.730  1.00  0.00     0.275 C 
BRANCH  19  20
ATOM     20  O   UNL A   1      32.427  30.545  27.109  1.00  0.00    -0.458 OA
BRANCH  20  21
ATOM     21  C   UNL A   1      33.150  31.672  27.298  1.00  0.00     0.338 C 
ATOM     22  O   UNL A   1      32.772  32.828  27.224  1.00  0.00    -0.246 OA
BRANCH  21  23
ATOM     23  C   UNL A   1      34.499  31.331  27.768  1.00  0.00     0.060 A 
ATOM     24  C   UNL A   1      34.736  30.002  28.119  1.00  0.00     0.016 A 
ATOM     25  C   UNL A   1      35.457  32.313  28.017  1.00  0.00     0.016 A 
ATOM     26  C   UNL A   1      35.902  29.649  28.782  1.00  0.00     0.010 A 
ATOM     27  C   UNL A   1      36.650  31.951  28.653  1.00  0.00     0.010 A 
ATOM     28  C   UNL A   1      36.865  30.623  29.068  1.00  0.00    -0.014 A 
BRANCH  28  29
ATOM     29  C   UNL A   1      38.050  30.248  29.874  1.00  0.00     0.031 A 
ATOM     30  C   UNL A   1      39.114  29.376  29.273  1.00  0.00     0.074 A 
ATOM     31  C   UNL A   1      38.205  30.748  31.114  1.00  0.00     0.049 A 
ATOM     32  N   UNL A   1      40.175  28.856  29.835  1.00  0.00    -0.248 NA
ATOM     33  C   UNL A   1      38.966  29.044  27.847  1.00  0.00     0.031 C 
ATOM     34  C   UNL A   1      37.277  31.667  31.776  1.00  0.00     0.029 A 
ATOM     35  N   UNL A   1      39.206  30.564  32.033  1.00  0.00    -0.354 N 
ATOM     36  C   UNL A   1      40.798  28.107  28.847  1.00  0.00     0.074 A 
ATOM     37  C   UNL A   1      39.999  28.238  27.647  1.00  0.00     0.031 C 
ATOM     38  C   UNL A   1      37.763  31.983  32.987  1.00  0.00     0.029 A 
ATOM     39  C   UNL A   1      39.002  31.243  33.209  1.00  0.00     0.049 A 
ATOM     40  H   UNL A   1      39.996  30.001  31.865  1.00  0.00     0.167 HD
ATOM     41  C   UNL A   1      41.935  27.377  28.936  1.00  0.00     0.037 A 
ATOM     42  C   UNL A   1      39.719  31.242  34.347  1.00  0.00     0.037 A 
ATOM     43  C   UNL A   1      42.745  27.281  30.122  1.00  0.00     0.049 A 
ATOM     44  C   UNL A   1      40.958  30.393  34.432  1.00  0.00     0.074 A 
ATOM     45  C   UNL A   1      43.900  26.546  30.324  1.00  0.00     0.029 A 
ATOM     46  N   UNL A   1      42.491  27.961  31.304  1.00  0.00    -0.354 N 
ATOM     47  N   UNL A   1      41.503  29.635  33.513  1.00  0.00    -0.248 NA
ATOM     48  C   UNL A   1      41.672  30.392  35.716  1.00  0.00     0.031 C 
ATOM     49  C   UNL A   1      44.333  26.764  31.637  1.00  0.00     0.029 A 
ATOM     50  C   UNL A   1      43.465  27.660  32.241  1.00  0.00     0.049 A 
ATOM     51  H   UNL A   1      41.729  28.566  31.454  1.00  0.00     0.167 HD
ATOM     52  C   UNL A   1      42.628  29.075  34.100  1.00  0.00     0.074 A 
ATOM     53  C   UNL A   1      42.699  29.597  35.450  1.00  0.00     0.031 C 
ATOM     54  C   UNL A   1      43.520  28.203  33.572  1.00  0.00     0.037 A 
BRANCH  41  55
ATOM     55  C   UNL A   1      42.353  26.597  27.727  1.00  0.00     0.064 A 
ATOM     56  C   UNL A   1      43.286  27.100  26.810  1.00  0.00     0.173 A 
ATOM     57  C   UNL A   1      41.835  25.312  27.502  1.00  0.00     0.173 A 
ATOM     58  F   UNL A   1      43.796  28.330  26.973  1.00  0.00    -0.203 F 
ATOM     59  C   UNL A   1      43.674  26.352  25.701  1.00  0.00     0.198 A 
ATOM     60  C   UNL A   1      42.242  24.559  26.405  1.00  0.00     0.198 A 
ATOM     61  F   UNL A   1      40.940  24.787  28.352  1.00  0.00    -0.203 F 
ATOM     62  F   UNL A   1      44.541  26.865  24.818  1.00  0.00    -0.200 F 
ATOM     63  C   UNL A   1      43.158  25.080  25.504  1.00  0.00     0.200 A 
ATOM     64  F   UNL A   1      41.746  23.327  26.220  1.00  0.00    -0.200 F 
ATOM     65  F   UNL A   1      43.536  24.358  24.440  1.00  0.00    -0.200 F 
ENDBRANCH  41  55
BRANCH  42  66
ATOM     66  C   UNL A   1      39.267  32.051  35.508  1.00  0.00     0.064 A 
ATOM     67  C   UNL A   1      38.454  31.493  36.503  1.00  0.00     0.173 A 
ATOM     68  C   UNL A   1      39.635  33.397  35.641  1.00  0.00     0.173 A 
ATOM     69  F   UNL A   1      38.056  30.217  36.405  1.00  0.00    -0.203 F 
ATOM     70  C   UNL A   1      38.017  32.256  37.585  1.00  0.00     0.198 A 
ATOM     71  C   UNL A   1      39.220  34.152  36.735  1.00  0.00     0.198 A 
ATOM     72  F   UNL A   1      40.411  33.977  34.713  1.00  0.00    -0.203 F 
ATOM     73  F   UNL A   1      37.208  31.711  38.502  1.00  0.00    -0.200 F 
ATOM     74  C   UNL A   1      38.406  33.582  37.703  1.00  0.00     0.200 A 
ATOM     75  F   UNL A   1      39.606  35.430  36.851  1.00  0.00    -0.200 F 
ATOM     76  F   UNL A   1      37.988  34.314  38.744  1.00  0.00    -0.200 F 
ENDBRANCH  42  66
BRANCH  54  77
ATOM     77  C   UNL A   1      44.664  27.786  34.446  1.00  0.00     0.064 A 
ATOM     78  C   UNL A   1      44.586  26.646  35.258  1.00  0.00     0.173 A 
ATOM     79  C   UNL A   1      45.860  28.519  34.446  1.00  0.00     0.173 A 
ATOM     80  F   UNL A   1      43.455  25.926  35.302  1.00  0.00    -0.203 F 
ATOM     81  C   UNL A   1      45.661  26.264  36.054  1.00  0.00     0.198 A 
ATOM     82  C   UNL A   1      46.940  28.121  35.227  1.00  0.00     0.198 A 
ATOM     83  F   UNL A   1      45.981  29.615  33.682  1.00  0.00    -0.203 F 
ATOM     84  F   UNL A   1      45.554  25.192  36.851  1.00  0.00    -0.200 F 
ATOM     85  C   UNL A   1      46.838  26.998  36.034  1.00  0.00     0.200 A 
ATOM     86  F   UNL A   1      48.079  28.827  35.202  1.00  0.00    -0.200 F 
ATOM     87  F   UNL A   1      47.873  26.626  36.801  1.00  0.00    -0.200 F 
ENDBRANCH  54  77
ENDBRANCH  28  29
ENDBRANCH  21  23
ENDBRANCH  20  21
ENDBRANCH  19  20
ENDBRANCH   1  19
TORSDOF 15
ENDMDL
