MODEL 1
REMARK VINA RESULT:     -13.4      0.000      0.000
REMARK SMILES O=C(C[C@H](NC(=O)[C@]12C[C@H]3C[C@H](C[C@H](C3)C1)C2)c1cccc([N+](=O)[O-])c1)OCCOC(=O)c1ccc(-c2c3nc(c(-c4c(F)c(F)c(F)c(F)c4F)c4ccc([nH]4)c(-c4c(F)c(F)c(F)c(F)c4F)c4nc(c(-c5c(F)c(F)c(F)c(F)c5F)c5ccc2[nH]5)C=C4)C=C3)cc1
REMARK SMILES IDX 28 1 27 2 2 3 1 4 3 5 4 6 18 7 19 8 26 9 20 10 22 11 21 12
REMARK SMILES IDX 23 13 24 14 25 15 5 16 6 17 7 19 8 20 9 21 16 22 17 23 10 24
REMARK SMILES IDX 14 25 12 26 11 27 15 28 13 29 29 30 30 31 31 32 32 33 33 34
REMARK SMILES IDX 34 35 95 36 35 37 94 38 36 39 37 40 38 41 88 42 39 43 93 44
REMARK SMILES IDX 87 45 89 46 40 47 92 48 86 49 85 50 41 52 73 53 53 54 72 55
REMARK SMILES IDX 54 56 57 57 71 58 90 59 55 60 56 61 70 63 91 64 58 65 42 66
REMARK SMILES IDX 43 67 51 68 44 69 45 70 49 71 52 72 46 73 47 74 50 75 48 76
REMARK SMILES IDX 74 77 75 78 83 79 76 80 77 81 81 82 84 83 78 84 79 85 82 86
REMARK SMILES IDX 80 87 59 88 60 89 68 90 61 91 62 92 66 93 69 94 63 95 64 96
REMARK SMILES IDX 67 97 65 98
REMARK H PARENT 5 18 89 51 57 62
REMARK Flexibility Score: inf
ROOT
ATOM      1  C   UNL A   1      32.524  30.974  27.001  1.00  0.00     0.274 C 
ENDROOT
BRANCH   1   2
ATOM      2  O   UNL A   1      32.142  30.413  25.732  1.00  0.00    -0.462 OA
BRANCH   2   3
ATOM      3  C   UNL A   1      32.889  29.481  25.096  1.00  0.00     0.308 C 
ATOM      4  O   UNL A   1      33.742  28.830  25.696  1.00  0.00    -0.252 OA
BRANCH   3   5
ATOM      5  C   UNL A   1      32.634  29.247  23.632  1.00  0.00     0.152 C 
BRANCH   5   6
ATOM      6  C   UNL A   1      31.693  28.107  23.191  1.00  0.00     0.123 C 
BRANCH   6   7
ATOM      7  C   UNL A   1      30.267  28.564  22.868  1.00  0.00    -0.018 A 
ATOM      8  C   UNL A   1      29.183  27.751  23.260  1.00  0.00     0.006 A 
ATOM      9  C   UNL A   1      29.961  29.753  22.193  1.00  0.00     0.091 A 
ATOM     10  C   UNL A   1      27.863  28.200  23.196  1.00  0.00     0.007 A 
ATOM     11  C   UNL A   1      28.629  30.185  22.084  1.00  0.00     0.269 A 
ATOM     12  C   UNL A   1      27.584  29.438  22.631  1.00  0.00     0.085 A 
BRANCH  11  13
ATOM     13  N   UNL A   1      28.342  31.452  21.403  1.00  0.00     0.062 N 
ATOM     14  O   UNL A   1      27.650  31.411  20.378  1.00  0.00    -0.258 OA
ATOM     15  O   UNL A   1      28.802  32.488  21.903  1.00  0.00    -0.258 OA
ENDBRANCH  11  13
ENDBRANCH   6   7
BRANCH   6  16
ATOM     16  N   UNL A   1      32.340  27.365  22.071  1.00  0.00    -0.348 N 
ATOM     17  C   UNL A   1      32.731  26.081  21.835  1.00  0.00     0.226 C 
ATOM     18  H   UNL A   1      32.535  27.954  21.306  1.00  0.00     0.164 HD
ATOM     19  O   UNL A   1      33.244  25.879  20.730  1.00  0.00    -0.274 OA
BRANCH  17  20
ATOM     20  C   UNL A   1      32.729  24.981  22.893  1.00  0.00     0.050 C 
ATOM     21  C   UNL A   1      33.445  25.394  24.197  1.00  0.00     0.020 C 
ATOM     22  C   UNL A   1      33.303  23.718  22.203  1.00  0.00     0.020 C 
ATOM     23  C   UNL A   1      31.290  24.554  23.331  1.00  0.00     0.020 C 
ATOM     24  C   UNL A   1      33.576  24.214  25.143  1.00  0.00    -0.010 C 
ATOM     25  C   UNL A   1      33.410  22.596  23.214  1.00  0.00    -0.010 C 
ATOM     26  C   UNL A   1      31.345  23.389  24.358  1.00  0.00    -0.010 C 
ATOM     27  C   UNL A   1      32.174  23.799  25.582  1.00  0.00     0.007 C 
ATOM     28  C   UNL A   1      34.288  23.128  24.340  1.00  0.00     0.007 C 
ATOM     29  C   UNL A   1      32.031  22.179  23.717  1.00  0.00     0.007 C 
ENDBRANCH  17  20
ENDBRANCH   6  16
ENDBRANCH   5   6
ENDBRANCH   3   5
ENDBRANCH   2   3
ENDBRANCH   1   2
BRANCH   1  30
ATOM     30  C   UNL A   1      31.932  32.374  27.204  1.00  0.00     0.275 C 
BRANCH  30  31
ATOM     31  O   UNL A   1      32.914  33.436  27.098  1.00  0.00    -0.458 OA
BRANCH  31  32
ATOM     32  C   UNL A   1      33.315  34.015  28.265  1.00  0.00     0.338 C 
ATOM     33  O   UNL A   1      32.777  34.964  28.817  1.00  0.00    -0.246 OA
BRANCH  32  34
ATOM     34  C   UNL A   1      34.472  33.281  28.846  1.00  0.00     0.060 A 
ATOM     35  C   UNL A   1      35.699  33.215  28.160  1.00  0.00     0.016 A 
ATOM     36  C   UNL A   1      34.347  32.605  30.055  1.00  0.00     0.016 A 
ATOM     37  C   UNL A   1      36.810  32.508  28.693  1.00  0.00     0.010 A 
ATOM     38  C   UNL A   1      35.448  31.900  30.572  1.00  0.00     0.010 A 
ATOM     39  C   UNL A   1      36.713  31.844  29.919  1.00  0.00    -0.014 A 
BRANCH  39  40
ATOM     40  C   UNL A   1      37.786  30.987  30.560  1.00  0.00     0.031 A 
ATOM     41  C   UNL A   1      38.391  31.509  31.835  1.00  0.00     0.074 A 
ATOM     42  C   UNL A   1      38.335  29.837  30.089  1.00  0.00     0.049 A 
ATOM     43  N   UNL A   1      39.425  31.058  32.498  1.00  0.00    -0.248 NA
ATOM     44  C   UNL A   1      37.706  32.643  32.476  1.00  0.00     0.031 C 
ATOM     45  C   UNL A   1      37.804  28.928  29.089  1.00  0.00     0.029 A 
ATOM     46  N   UNL A   1      39.586  29.287  30.338  1.00  0.00    -0.354 N 
ATOM     47  C   UNL A   1      39.433  31.772  33.680  1.00  0.00     0.074 A 
ATOM     48  C   UNL A   1      38.445  32.820  33.558  1.00  0.00     0.031 C 
ATOM     49  C   UNL A   1      38.788  28.154  28.595  1.00  0.00     0.029 A 
ATOM     50  C   UNL A   1      39.998  28.399  29.361  1.00  0.00     0.049 A 
ATOM     51  H   UNL A   1      40.126  29.509  31.132  1.00  0.00     0.167 HD
ATOM     52  C   UNL A   1      40.102  31.490  34.819  1.00  0.00     0.037 A 
ATOM     53  C   UNL A   1      41.189  27.809  29.122  1.00  0.00     0.037 A 
ATOM     54  C   UNL A   1      41.096  30.462  34.952  1.00  0.00     0.049 A 
ATOM     55  C   UNL A   1      42.165  27.746  30.261  1.00  0.00     0.074 A 
ATOM     56  C   UNL A   1      41.803  30.090  36.081  1.00  0.00     0.029 A 
ATOM     57  N   UNL A   1      41.548  29.663  33.914  1.00  0.00    -0.354 N 
ATOM     58  N   UNL A   1      42.081  28.318  31.433  1.00  0.00    -0.248 NA
ATOM     59  C   UNL A   1      43.305  26.828  30.119  1.00  0.00     0.031 C 
ATOM     60  C   UNL A   1      42.740  29.120  35.708  1.00  0.00     0.029 A 
ATOM     61  C   UNL A   1      42.575  28.844  34.360  1.00  0.00     0.049 A 
ATOM     62  H   UNL A   1      41.193  29.675  32.996  1.00  0.00     0.167 HD
ATOM     63  C   UNL A   1      43.065  27.731  32.211  1.00  0.00     0.074 A 
ATOM     64  C   UNL A   1      43.776  26.802  31.359  1.00  0.00     0.031 C 
ATOM     65  C   UNL A   1      43.297  27.911  33.534  1.00  0.00     0.037 A 
BRANCH  52  66
ATOM     66  C   UNL A   1      39.714  32.301  36.013  1.00  0.00     0.064 A 
ATOM     67  C   UNL A   1      38.617  31.929  36.810  1.00  0.00     0.173 A 
ATOM     68  C   UNL A   1      40.394  33.479  36.329  1.00  0.00     0.173 A 
ATOM     69  F   UNL A   1      37.918  30.818  36.525  1.00  0.00    -0.203 F 
ATOM     70  C   UNL A   1      38.187  32.739  37.853  1.00  0.00     0.198 A 
ATOM     71  C   UNL A   1      39.981  34.272  37.394  1.00  0.00     0.198 A 
ATOM     72  F   UNL A   1      41.441  33.876  35.589  1.00  0.00    -0.203 F 
ATOM     73  F   UNL A   1      37.090  32.409  38.549  1.00  0.00    -0.200 F 
ATOM     74  C   UNL A   1      38.870  33.910  38.145  1.00  0.00     0.200 A 
ATOM     75  F   UNL A   1      40.641  35.402  37.679  1.00  0.00    -0.200 F 
ATOM     76  F   UNL A   1      38.448  34.700  39.141  1.00  0.00    -0.200 F 
ENDBRANCH  52  66
BRANCH  53  77
ATOM     77  C   UNL A   1      41.481  27.083  27.852  1.00  0.00     0.064 A 
ATOM     78  C   UNL A   1      41.303  25.697  27.737  1.00  0.00     0.173 A 
ATOM     79  C   UNL A   1      42.062  27.751  26.761  1.00  0.00     0.173 A 
ATOM     80  F   UNL A   1      40.789  25.005  28.764  1.00  0.00    -0.203 F 
ATOM     81  C   UNL A   1      41.720  25.003  26.600  1.00  0.00     0.198 A 
ATOM     82  C   UNL A   1      42.466  27.058  25.617  1.00  0.00     0.198 A 
ATOM     83  F   UNL A   1      42.280  29.073  26.822  1.00  0.00    -0.203 F 
ATOM     84  F   UNL A   1      41.593  23.670  26.547  1.00  0.00    -0.200 F 
ATOM     85  C   UNL A   1      42.303  25.683  25.541  1.00  0.00     0.200 A 
ATOM     86  F   UNL A   1      43.040  27.716  24.600  1.00  0.00    -0.200 F 
ATOM     87  F   UNL A   1      42.728  25.011  24.461  1.00  0.00    -0.200 F 
ENDBRANCH  53  77
BRANCH  65  88
ATOM     88  C   UNL A   1      44.339  27.047  34.181  1.00  0.00     0.064 A 
ATOM     89  C   UNL A   1      45.679  27.446  34.276  1.00  0.00     0.173 A 
ATOM     90  C   UNL A   1      43.978  25.815  34.749  1.00  0.00     0.173 A 
ATOM     91  F   UNL A   1      46.080  28.604  33.731  1.00  0.00    -0.203 F 
ATOM     92  C   UNL A   1      46.624  26.633  34.896  1.00  0.00     0.198 A 
ATOM     93  C   UNL A   1      44.917  25.023  35.401  1.00  0.00     0.198 A 
ATOM     94  F   UNL A   1      42.709  25.384  34.683  1.00  0.00    -0.203 F 
ATOM     95  F   UNL A   1      47.909  27.011  34.928  1.00  0.00    -0.200 F 
ATOM     96  C   UNL A   1      46.241  25.429  35.468  1.00  0.00     0.200 A 
ATOM     97  F   UNL A   1      44.542  23.868  35.967  1.00  0.00    -0.200 F 
ATOM     98  F   UNL A   1      47.150  24.656  36.078  1.00  0.00    -0.200 F 
ENDBRANCH  65  88
ENDBRANCH  39  40
ENDBRANCH  32  34
ENDBRANCH  31  32
ENDBRANCH  30  31
ENDBRANCH   1  30
TORSDOF 16
ENDMDL
MODEL 2
REMARK VINA RESULT:     -13.2      0.756      1.569
REMARK SMILES O=C(C[C@H](NC(=O)[C@]12C[C@H]3C[C@H](C[C@H](C3)C1)C2)c1cccc([N+](=O)[O-])c1)OCCOC(=O)c1ccc(-c2c3nc(c(-c4c(F)c(F)c(F)c(F)c4F)c4ccc([nH]4)c(-c4c(F)c(F)c(F)c(F)c4F)c4nc(c(-c5c(F)c(F)c(F)c(F)c5F)c5ccc2[nH]5)C=C4)C=C3)cc1
REMARK SMILES IDX 28 1 27 2 2 3 1 4 3 5 4 6 18 7 19 8 26 9 20 10 22 11 21 12
REMARK SMILES IDX 23 13 24 14 25 15 5 16 6 17 7 19 8 20 9 21 16 22 17 23 10 24
REMARK SMILES IDX 14 25 12 26 11 27 15 28 13 29 29 30 30 31 31 32 32 33 33 34
REMARK SMILES IDX 34 35 95 36 35 37 94 38 36 39 37 40 38 41 88 42 39 43 93 44
REMARK SMILES IDX 87 45 89 46 40 47 92 48 86 49 85 50 41 52 73 53 53 54 72 55
REMARK SMILES IDX 54 56 57 57 71 58 90 59 55 60 56 61 70 63 91 64 58 65 42 66
REMARK SMILES IDX 43 67 51 68 44 69 45 70 49 71 52 72 46 73 47 74 50 75 48 76
REMARK SMILES IDX 74 77 75 78 83 79 76 80 77 81 81 82 84 83 78 84 79 85 82 86
REMARK SMILES IDX 80 87 59 88 60 89 68 90 61 91 62 92 66 93 69 94 63 95 64 96
REMARK SMILES IDX 67 97 65 98
REMARK H PARENT 5 18 89 51 57 62
REMARK Flexibility Score: inf
ROOT
ATOM      1  C   UNL A   1      31.669  31.790  26.848  1.00  0.00     0.274 C 
ENDROOT
BRANCH   1   2
ATOM      2  O   UNL A   1      32.744  30.838  26.746  1.00  0.00    -0.462 OA
BRANCH   2   3
ATOM      3  C   UNL A   1      32.569  29.598  26.236  1.00  0.00     0.308 C 
ATOM      4  O   UNL A   1      32.368  28.630  26.967  1.00  0.00    -0.252 OA
BRANCH   3   5
ATOM      5  C   UNL A   1      32.608  29.434  24.740  1.00  0.00     0.152 C 
BRANCH   5   6
ATOM      6  C   UNL A   1      31.819  28.288  24.075  1.00  0.00     0.123 C 
BRANCH   6   7
ATOM      7  C   UNL A   1      30.406  28.679  23.629  1.00  0.00    -0.018 A 
ATOM      8  C   UNL A   1      29.476  27.660  23.332  1.00  0.00     0.006 A 
ATOM      9  C   UNL A   1      29.970  30.002  23.486  1.00  0.00     0.091 A 
ATOM     10  C   UNL A   1      28.123  27.933  23.134  1.00  0.00     0.007 A 
ATOM     11  C   UNL A   1      28.615  30.280  23.238  1.00  0.00     0.269 A 
ATOM     12  C   UNL A   1      27.681  29.250  23.114  1.00  0.00     0.085 A 
BRANCH  11  13
ATOM     13  N   UNL A   1      28.180  31.676  23.130  1.00  0.00     0.062 N 
ATOM     14  O   UNL A   1      27.047  31.960  23.539  1.00  0.00    -0.258 OA
ATOM     15  O   UNL A   1      28.978  32.490  22.643  1.00  0.00    -0.258 OA
ENDBRANCH  11  13
ENDBRANCH   6   7
BRANCH   6  16
ATOM     16  N   UNL A   1      32.648  27.720  22.973  1.00  0.00    -0.348 N 
ATOM     17  C   UNL A   1      33.198  26.509  22.677  1.00  0.00     0.226 C 
ATOM     18  H   UNL A   1      32.848  28.392  22.282  1.00  0.00     0.164 HD
ATOM     19  O   UNL A   1      33.833  26.461  21.619  1.00  0.00    -0.274 OA
BRANCH  17  20
ATOM     20  C   UNL A   1      33.218  25.324  23.638  1.00  0.00     0.050 C 
ATOM     21  C   UNL A   1      31.816  24.734  23.901  1.00  0.00     0.020 C 
ATOM     22  C   UNL A   1      33.972  25.806  24.904  1.00  0.00     0.020 C 
ATOM     23  C   UNL A   1      34.078  24.126  23.118  1.00  0.00     0.020 C 
ATOM     24  C   UNL A   1      31.864  23.683  24.994  1.00  0.00    -0.010 C 
ATOM     25  C   UNL A   1      33.965  24.707  25.945  1.00  0.00    -0.010 C 
ATOM     26  C   UNL A   1      34.117  22.975  24.161  1.00  0.00    -0.010 C 
ATOM     27  C   UNL A   1      32.693  22.506  24.488  1.00  0.00     0.007 C 
ATOM     28  C   UNL A   1      32.498  24.378  26.196  1.00  0.00     0.007 C 
ATOM     29  C   UNL A   1      34.745  23.488  25.460  1.00  0.00     0.007 C 
ENDBRANCH  17  20
ENDBRANCH   6  16
ENDBRANCH   5   6
ENDBRANCH   3   5
ENDBRANCH   2   3
ENDBRANCH   1   2
BRANCH   1  30
ATOM     30  C   UNL A   1      32.187  33.233  26.874  1.00  0.00     0.275 C 
BRANCH  30  31
ATOM     31  O   UNL A   1      32.198  33.818  28.201  1.00  0.00    -0.458 OA
BRANCH  31  32
ATOM     32  C   UNL A   1      33.247  34.635  28.498  1.00  0.00     0.338 C 
ATOM     33  O   UNL A   1      33.263  35.852  28.385  1.00  0.00    -0.246 OA
BRANCH  32  34
ATOM     34  C   UNL A   1      34.379  33.853  29.068  1.00  0.00     0.060 A 
ATOM     35  C   UNL A   1      35.596  33.738  28.371  1.00  0.00     0.016 A 
ATOM     36  C   UNL A   1      34.236  33.180  30.276  1.00  0.00     0.016 A 
ATOM     37  C   UNL A   1      36.681  32.985  28.893  1.00  0.00     0.010 A 
ATOM     38  C   UNL A   1      35.311  32.429  30.783  1.00  0.00     0.010 A 
ATOM     39  C   UNL A   1      36.567  32.323  30.119  1.00  0.00    -0.014 A 
BRANCH  39  40
ATOM     40  C   UNL A   1      37.609  31.421  30.750  1.00  0.00     0.031 A 
ATOM     41  C   UNL A   1      38.251  31.918  32.016  1.00  0.00     0.074 A 
ATOM     42  C   UNL A   1      38.102  30.247  30.274  1.00  0.00     0.049 A 
ATOM     43  N   UNL A   1      39.272  31.424  32.668  1.00  0.00    -0.248 NA
ATOM     44  C   UNL A   1      37.624  33.083  32.663  1.00  0.00     0.031 C 
ATOM     45  C   UNL A   1      37.520  29.360  29.283  1.00  0.00     0.029 A 
ATOM     46  N   UNL A   1      39.331  29.644  30.510  1.00  0.00    -0.354 N 
ATOM     47  C   UNL A   1      39.325  32.139  33.848  1.00  0.00     0.074 A 
ATOM     48  C   UNL A   1      38.382  33.229  33.735  1.00  0.00     0.031 C 
ATOM     49  C   UNL A   1      38.463  28.543  28.779  1.00  0.00     0.029 A 
ATOM     50  C   UNL A   1      39.691  28.737  29.531  1.00  0.00     0.049 A 
ATOM     51  H   UNL A   1      39.889  29.843  31.297  1.00  0.00     0.167 HD
ATOM     52  C   UNL A   1      39.995  31.830  34.979  1.00  0.00     0.037 A 
ATOM     53  C   UNL A   1      40.853  28.095  29.279  1.00  0.00     0.037 A 
ATOM     54  C   UNL A   1      40.944  30.760  35.104  1.00  0.00     0.049 A 
ATOM     55  C   UNL A   1      41.838  27.992  30.407  1.00  0.00     0.074 A 
ATOM     56  C   UNL A   1      41.648  30.360  36.225  1.00  0.00     0.029 A 
ATOM     57  N   UNL A   1      41.349  29.940  34.062  1.00  0.00    -0.354 N 
ATOM     58  N   UNL A   1      41.793  28.569  31.578  1.00  0.00    -0.248 NA
ATOM     59  C   UNL A   1      42.936  27.024  30.254  1.00  0.00     0.031 C 
ATOM     60  C   UNL A   1      42.537  29.349  35.843  1.00  0.00     0.029 A 
ATOM     61  C   UNL A   1      42.344  29.078  34.499  1.00  0.00     0.049 A 
ATOM     62  H   UNL A   1      40.984  29.966  33.149  1.00  0.00     0.167 HD
ATOM     63  C   UNL A   1      42.761  27.941  32.346  1.00  0.00     0.074 A 
ATOM     64  C   UNL A   1      43.420  26.980  31.488  1.00  0.00     0.031 C 
ATOM     65  C   UNL A   1      43.015  28.113  33.665  1.00  0.00     0.037 A 
BRANCH  52  66
ATOM     66  C   UNL A   1      39.656  32.659  36.176  1.00  0.00     0.064 A 
ATOM     67  C   UNL A   1      38.550  32.341  36.983  1.00  0.00     0.173 A 
ATOM     68  C   UNL A   1      40.396  33.803  36.486  1.00  0.00     0.173 A 
ATOM     69  F   UNL A   1      37.795  31.266  36.704  1.00  0.00    -0.203 F 
ATOM     70  C   UNL A   1      38.168  33.172  38.028  1.00  0.00     0.198 A 
ATOM     71  C   UNL A   1      40.030  34.615  37.554  1.00  0.00     0.198 A 
ATOM     72  F   UNL A   1      41.455  34.148  35.738  1.00  0.00    -0.203 F 
ATOM     73  F   UNL A   1      37.062  32.896  38.734  1.00  0.00    -0.200 F 
ATOM     74  C   UNL A   1      38.910  34.308  38.315  1.00  0.00     0.200 A 
ATOM     75  F   UNL A   1      40.747  35.712  37.833  1.00  0.00    -0.200 F 
ATOM     76  F   UNL A   1      38.534  35.118  39.313  1.00  0.00    -0.200 F 
ENDBRANCH  52  66
BRANCH  53  77
ATOM     77  C   UNL A   1      41.098  27.354  28.008  1.00  0.00     0.064 A 
ATOM     78  C   UNL A   1      40.753  26.003  27.862  1.00  0.00     0.173 A 
ATOM     79  C   UNL A   1      41.797  27.958  26.949  1.00  0.00     0.173 A 
ATOM     80  F   UNL A   1      40.120  25.368  28.859  1.00  0.00    -0.203 F 
ATOM     81  C   UNL A   1      41.121  25.278  26.728  1.00  0.00     0.198 A 
ATOM     82  C   UNL A   1      42.152  27.236  25.807  1.00  0.00     0.198 A 
ATOM     83  F   UNL A   1      42.176  29.242  27.040  1.00  0.00    -0.203 F 
ATOM     84  F   UNL A   1      40.831  23.972  26.648  1.00  0.00    -0.200 F 
ATOM     85  C   UNL A   1      41.823  25.893  25.702  1.00  0.00     0.200 A 
ATOM     86  F   UNL A   1      42.841  27.830  24.822  1.00  0.00    -0.200 F 
ATOM     87  F   UNL A   1      42.199  25.187  24.626  1.00  0.00    -0.200 F 
ENDBRANCH  53  77
BRANCH  65  88
ATOM     88  C   UNL A   1      44.026  27.206  34.302  1.00  0.00     0.064 A 
ATOM     89  C   UNL A   1      43.683  25.937  34.787  1.00  0.00     0.173 A 
ATOM     90  C   UNL A   1      45.370  27.601  34.393  1.00  0.00     0.173 A 
ATOM     91  F   UNL A   1      42.408  25.519  34.743  1.00  0.00    -0.203 F 
ATOM     92  C   UNL A   1      44.642  25.106  35.359  1.00  0.00     0.198 A 
ATOM     93  C   UNL A   1      46.334  26.754  34.931  1.00  0.00     0.198 A 
ATOM     94  F   UNL A   1      45.753  28.808  33.948  1.00  0.00    -0.203 F 
ATOM     95  F   UNL A   1      44.280  23.918  35.863  1.00  0.00    -0.200 F 
ATOM     96  C   UNL A   1      45.968  25.510  35.420  1.00  0.00     0.200 A 
ATOM     97  F   UNL A   1      47.616  27.140  34.974  1.00  0.00    -0.200 F 
ATOM     98  F   UNL A   1      46.892  24.702  35.957  1.00  0.00    -0.200 F 
ENDBRANCH  65  88
ENDBRANCH  39  40
ENDBRANCH  32  34
ENDBRANCH  31  32
ENDBRANCH  30  31
ENDBRANCH   1  30
TORSDOF 16
ENDMDL
MODEL 3
REMARK VINA RESULT:     -13.2      0.995      7.066
REMARK SMILES O=C(C[C@H](NC(=O)[C@]12C[C@H]3C[C@H](C[C@H](C3)C1)C2)c1cccc([N+](=O)[O-])c1)OCCOC(=O)c1ccc(-c2c3nc(c(-c4c(F)c(F)c(F)c(F)c4F)c4ccc([nH]4)c(-c4c(F)c(F)c(F)c(F)c4F)c4nc(c(-c5c(F)c(F)c(F)c(F)c5F)c5ccc2[nH]5)C=C4)C=C3)cc1
REMARK SMILES IDX 28 1 27 2 2 3 1 4 3 5 4 6 18 7 19 8 26 9 20 10 22 11 21 12
REMARK SMILES IDX 23 13 24 14 25 15 5 16 6 17 7 19 8 20 9 21 16 22 17 23 10 24
REMARK SMILES IDX 14 25 12 26 11 27 15 28 13 29 29 30 30 31 31 32 32 33 33 34
REMARK SMILES IDX 34 35 95 36 35 37 94 38 36 39 37 40 38 41 88 42 39 43 93 44
REMARK SMILES IDX 87 45 89 46 40 47 92 48 86 49 85 50 41 52 73 53 53 54 72 55
REMARK SMILES IDX 54 56 57 57 71 58 90 59 55 60 56 61 70 63 91 64 58 65 42 66
REMARK SMILES IDX 43 67 51 68 44 69 45 70 49 71 52 72 46 73 47 74 50 75 48 76
REMARK SMILES IDX 74 77 75 78 83 79 76 80 77 81 81 82 84 83 78 84 79 85 82 86
REMARK SMILES IDX 80 87 59 88 60 89 68 90 61 91 62 92 66 93 69 94 63 95 64 96
REMARK SMILES IDX 67 97 65 98
REMARK H PARENT 5 18 89 51 57 62
REMARK Flexibility Score: inf
ROOT
ATOM      1  C   UNL A   1      32.008  30.601  26.872  1.00  0.00     0.274 C 
ENDROOT
BRANCH   1   2
ATOM      2  O   UNL A   1      31.979  30.261  25.474  1.00  0.00    -0.462 OA
BRANCH   2   3
ATOM      3  C   UNL A   1      32.873  29.415  24.914  1.00  0.00     0.308 C 
ATOM      4  O   UNL A   1      33.804  28.947  25.567  1.00  0.00    -0.252 OA
BRANCH   3   5
ATOM      5  C   UNL A   1      32.689  29.045  23.467  1.00  0.00     0.152 C 
BRANCH   5   6
ATOM      6  C   UNL A   1      31.650  27.973  23.078  1.00  0.00     0.123 C 
BRANCH   6   7
ATOM      7  C   UNL A   1      30.249  28.530  22.808  1.00  0.00    -0.018 A 
ATOM      8  C   UNL A   1      29.125  27.787  23.225  1.00  0.00     0.006 A 
ATOM      9  C   UNL A   1      30.004  29.747  22.158  1.00  0.00     0.091 A 
ATOM     10  C   UNL A   1      27.838  28.325  23.211  1.00  0.00     0.007 A 
ATOM     11  C   UNL A   1      28.701  30.269  22.099  1.00  0.00     0.269 A 
ATOM     12  C   UNL A   1      27.625  29.587  22.670  1.00  0.00     0.085 A 
BRANCH  11  13
ATOM     13  N   UNL A   1      28.479  31.563  21.444  1.00  0.00     0.062 N 
ATOM     14  O   UNL A   1      27.840  31.570  20.384  1.00  0.00    -0.258 OA
ATOM     15  O   UNL A   1      28.938  32.572  21.998  1.00  0.00    -0.258 OA
ENDBRANCH  11  13
ENDBRANCH   6   7
BRANCH   6  16
ATOM     16  N   UNL A   1      32.195  27.176  21.941  1.00  0.00    -0.348 N 
ATOM     17  C   UNL A   1      32.710  25.926  21.771  1.00  0.00     0.226 C 
ATOM     18  H   UNL A   1      32.178  27.683  21.097  1.00  0.00     0.164 HD
ATOM     19  O   UNL A   1      33.054  25.648  20.618  1.00  0.00    -0.274 OA
BRANCH  17  20
ATOM     20  C   UNL A   1      33.034  24.974  22.920  1.00  0.00     0.050 C 
ATOM     21  C   UNL A   1      34.026  25.571  23.941  1.00  0.00     0.020 C 
ATOM     22  C   UNL A   1      33.490  23.646  22.263  1.00  0.00     0.020 C 
ATOM     23  C   UNL A   1      31.775  24.571  23.755  1.00  0.00     0.020 C 
ATOM     24  C   UNL A   1      34.454  24.528  24.956  1.00  0.00    -0.010 C 
ATOM     25  C   UNL A   1      33.908  22.668  23.341  1.00  0.00    -0.010 C 
ATOM     26  C   UNL A   1      32.149  23.551  24.867  1.00  0.00    -0.010 C 
ATOM     27  C   UNL A   1      33.231  24.138  25.783  1.00  0.00     0.007 C 
ATOM     28  C   UNL A   1      35.005  23.365  24.136  1.00  0.00     0.007 C 
ATOM     29  C   UNL A   1      32.723  22.287  24.223  1.00  0.00     0.007 C 
ENDBRANCH  17  20
ENDBRANCH   6  16
ENDBRANCH   5   6
ENDBRANCH   3   5
ENDBRANCH   2   3
ENDBRANCH   1   2
BRANCH   1  30
ATOM     30  C   UNL A   1      31.715  32.089  27.101  1.00  0.00     0.275 C 
BRANCH  30  31
ATOM     31  O   UNL A   1      32.892  32.931  26.998  1.00  0.00    -0.458 OA
BRANCH  31  32
ATOM     32  C   UNL A   1      33.133  33.774  28.041  1.00  0.00     0.338 C 
ATOM     33  O   UNL A   1      32.396  34.673  28.421  1.00  0.00    -0.246 OA
BRANCH  32  34
ATOM     34  C   UNL A   1      34.400  33.408  28.732  1.00  0.00     0.060 A 
ATOM     35  C   UNL A   1      35.630  33.941  28.306  1.00  0.00     0.016 A 
ATOM     36  C   UNL A   1      34.395  32.495  29.781  1.00  0.00     0.016 A 
ATOM     37  C   UNL A   1      36.850  33.592  28.944  1.00  0.00     0.010 A 
ATOM     38  C   UNL A   1      35.608  32.148  30.403  1.00  0.00     0.010 A 
ATOM     39  C   UNL A   1      36.864  32.697  30.017  1.00  0.00    -0.014 A 
BRANCH  39  40
ATOM     40  C   UNL A   1      38.096  32.175  30.732  1.00  0.00     0.031 A 
ATOM     41  C   UNL A   1      38.667  30.879  30.226  1.00  0.00     0.074 A 
ATOM     42  C   UNL A   1      38.710  32.688  31.830  1.00  0.00     0.049 A 
ATOM     43  N   UNL A   1      39.611  30.138  30.748  1.00  0.00    -0.248 NA
ATOM     44  C   UNL A   1      38.154  30.387  28.936  1.00  0.00     0.031 C 
ATOM     45  C   UNL A   1      38.615  34.033  32.370  1.00  0.00     0.029 A 
ATOM     46  N   UNL A   1      39.487  32.050  32.788  1.00  0.00    -0.354 N 
ATOM     47  C   UNL A   1      39.881  29.175  29.796  1.00  0.00     0.074 A 
ATOM     48  C   UNL A   1      38.871  29.290  28.768  1.00  0.00     0.031 C 
ATOM     49  C   UNL A   1      39.015  34.046  33.655  1.00  0.00     0.029 A 
ATOM     50  C   UNL A   1      39.551  32.737  33.986  1.00  0.00     0.049 A 
ATOM     51  H   UNL A   1      39.946  31.193  32.628  1.00  0.00     0.167 HD
ATOM     52  C   UNL A   1      40.957  28.364  29.715  1.00  0.00     0.037 A 
ATOM     53  C   UNL A   1      40.021  32.387  35.203  1.00  0.00     0.037 A 
ATOM     54  C   UNL A   1      41.961  28.228  30.732  1.00  0.00     0.049 A 
ATOM     55  C   UNL A   1      40.991  31.242  35.260  1.00  0.00     0.074 A 
ATOM     56  C   UNL A   1      43.102  27.448  30.717  1.00  0.00     0.029 A 
ATOM     57  N   UNL A   1      41.927  28.865  31.963  1.00  0.00    -0.354 N 
ATOM     58  N   UNL A   1      41.342  30.427  34.300  1.00  0.00    -0.248 NA
ATOM     59  C   UNL A   1      41.757  31.071  36.505  1.00  0.00     0.031 C 
ATOM     60  C   UNL A   1      43.717  27.550  31.970  1.00  0.00     0.029 A 
ATOM     61  C   UNL A   1      42.992  28.442  32.744  1.00  0.00     0.049 A 
ATOM     62  H   UNL A   1      41.247  29.519  32.242  1.00  0.00     0.167 HD
ATOM     63  C   UNL A   1      42.453  29.746  34.770  1.00  0.00     0.074 A 
ATOM     64  C   UNL A   1      42.680  30.198  36.126  1.00  0.00     0.031 C 
ATOM     65  C   UNL A   1      43.241  28.876  34.095  1.00  0.00     0.037 A 
BRANCH  52  66
ATOM     66  C   UNL A   1      41.098  27.606  28.434  1.00  0.00     0.064 A 
ATOM     67  C   UNL A   1      41.806  28.150  27.349  1.00  0.00     0.173 A 
ATOM     68  C   UNL A   1      40.478  26.365  28.266  1.00  0.00     0.173 A 
ATOM     69  F   UNL A   1      42.394  29.353  27.458  1.00  0.00    -0.203 F 
ATOM     70  C   UNL A   1      41.844  27.498  26.123  1.00  0.00     0.198 A 
ATOM     71  C   UNL A   1      40.545  25.699  27.047  1.00  0.00     0.198 A 
ATOM     72  F   UNL A   1      39.784  25.813  29.273  1.00  0.00    -0.203 F 
ATOM     73  F   UNL A   1      42.455  28.073  25.078  1.00  0.00    -0.200 F 
ATOM     74  C   UNL A   1      41.215  26.272  25.973  1.00  0.00     0.200 A 
ATOM     75  F   UNL A   1      39.939  24.513  26.901  1.00  0.00    -0.200 F 
ATOM     76  F   UNL A   1      41.237  25.648  24.788  1.00  0.00    -0.200 F 
ENDBRANCH  52  66
BRANCH  53  77
ATOM     77  C   UNL A   1      39.754  33.196  36.427  1.00  0.00     0.064 A 
ATOM     78  C   UNL A   1      38.696  32.891  37.296  1.00  0.00     0.173 A 
ATOM     79  C   UNL A   1      40.484  34.368  36.687  1.00  0.00     0.173 A 
ATOM     80  F   UNL A   1      37.942  31.806  37.071  1.00  0.00    -0.203 F 
ATOM     81  C   UNL A   1      38.359  33.737  38.354  1.00  0.00     0.198 A 
ATOM     82  C   UNL A   1      40.156  35.207  37.755  1.00  0.00     0.198 A 
ATOM     83  F   UNL A   1      41.492  34.724  35.876  1.00  0.00    -0.203 F 
ATOM     84  F   UNL A   1      37.303  33.450  39.127  1.00  0.00    -0.200 F 
ATOM     85  C   UNL A   1      39.087  34.895  38.582  1.00  0.00     0.200 A 
ATOM     86  F   UNL A   1      40.853  36.332  37.965  1.00  0.00    -0.200 F 
ATOM     87  F   UNL A   1      38.744  35.721  39.581  1.00  0.00    -0.200 F 
ENDBRANCH  53  77
BRANCH  65  88
ATOM     88  C   UNL A   1      44.476  28.378  34.785  1.00  0.00     0.064 A 
ATOM     89  C   UNL A   1      45.689  29.078  34.735  1.00  0.00     0.173 A 
ATOM     90  C   UNL A   1      44.431  27.196  35.542  1.00  0.00     0.173 A 
ATOM     91  F   UNL A   1      45.791  30.201  34.008  1.00  0.00    -0.203 F 
ATOM     92  C   UNL A   1      46.817  28.602  35.397  1.00  0.00     0.198 A 
ATOM     93  C   UNL A   1      45.550  26.743  36.234  1.00  0.00     0.198 A 
ATOM     94  F   UNL A   1      43.297  26.484  35.621  1.00  0.00    -0.203 F 
ATOM     95  F   UNL A   1      47.979  29.261  35.291  1.00  0.00    -0.200 F 
ATOM     96  C   UNL A   1      46.744  27.443  36.156  1.00  0.00     0.200 A 
ATOM     97  F   UNL A   1      45.473  25.632  36.979  1.00  0.00    -0.200 F 
ATOM     98  F   UNL A   1      47.827  26.997  36.806  1.00  0.00    -0.200 F 
ENDBRANCH  65  88
ENDBRANCH  39  40
ENDBRANCH  32  34
ENDBRANCH  31  32
ENDBRANCH  30  31
ENDBRANCH   1  30
TORSDOF 16
ENDMDL
