MODEL 1
REMARK VINA RESULT:     -11.4      0.000      0.000
REMARK SMILES C[C@H](Nc1ccc(F)cc1Br)[C@@H](C)C(=O)OCCOC(=O)c1ccc(-c2c3nc(c(-c4c(F)c(F)c(F)c(F)c4F)c4ccc([nH]4)c(-c4c(F)c(F)c(F)c(F)c4F)c4nc(c(-c5c(F)c(F)c(F)c(F)c5F)c5ccc2[nH]5)C=C4)C=C3)cc1
REMARK SMILES IDX 17 1 16 2 14 3 15 4 12 5 13 6 2 7 1 8 3 9 4 11 5 12 10 13
REMARK SMILES IDX 6 14 9 15 11 16 7 17 8 18 18 19 19 20 20 21 21 22 22 23
REMARK SMILES IDX 23 24 84 25 24 26 83 27 25 28 26 29 27 30 77 31 28 32 82 33
REMARK SMILES IDX 76 34 78 35 29 36 81 37 75 38 74 39 30 41 62 42 42 43 61 44
REMARK SMILES IDX 43 45 46 46 60 47 79 48 44 49 45 50 59 52 80 53 47 54 31 55
REMARK SMILES IDX 32 56 40 57 33 58 34 59 38 60 41 61 35 62 36 63 39 64 37 65
REMARK SMILES IDX 63 66 64 67 72 68 65 69 66 70 70 71 73 72 67 73 68 74 71 75
REMARK SMILES IDX 69 76 48 77 49 78 57 79 50 80 51 81 55 82 58 83 52 84 53 85
REMARK SMILES IDX 56 86 54 87
REMARK H PARENT 3 10 78 40 46 51
REMARK Flexibility Score: inf
ROOT
ATOM      1  C   UNL A   1      31.449  29.021  24.974  1.00  0.00     0.274 C 
ENDROOT
BRANCH   1   2
ATOM      2  O   UNL A   1      32.487  28.063  25.277  1.00  0.00    -0.462 OA
BRANCH   2   3
ATOM      3  C   UNL A   1      32.076  26.955  25.942  1.00  0.00     0.310 C 
ATOM      4  O   UNL A   1      31.103  26.921  26.690  1.00  0.00    -0.252 OA
BRANCH   3   5
ATOM      5  C   UNL A   1      32.969  25.743  25.746  1.00  0.00     0.118 C 
ATOM      6  C   UNL A   1      33.828  26.076  24.520  1.00  0.00     0.022 C 
BRANCH   5   7
ATOM      7  C   UNL A   1      32.283  24.357  25.628  1.00  0.00     0.090 C 
ATOM      8  C   UNL A   1      32.197  23.563  26.933  1.00  0.00     0.031 C 
BRANCH   7   9
ATOM      9  N   UNL A   1      32.923  23.573  24.535  1.00  0.00    -0.381 N 
ATOM     10  H   UNL A   1      33.091  24.054  23.692  1.00  0.00     0.160 HD
BRANCH   9  11
ATOM     11  C   UNL A   1      33.309  22.236  24.573  1.00  0.00     0.049 A 
ATOM     12  C   UNL A   1      32.431  21.213  24.183  1.00  0.00     0.030 A 
ATOM     13  C   UNL A   1      34.604  21.838  24.978  1.00  0.00     0.044 A 
ATOM     14  C   UNL A   1      32.807  19.865  24.207  1.00  0.00     0.041 A 
ATOM     15  C   UNL A   1      34.988  20.491  25.006  1.00  0.00     0.057 A 
ATOM     16  Br  UNL A   1      35.926  23.109  25.480  1.00  0.00    -0.048 Br
ATOM     17  C   UNL A   1      34.081  19.518  24.622  1.00  0.00     0.124 A 
ATOM     18  F   UNL A   1      34.445  18.230  24.633  1.00  0.00    -0.207 F 
ENDBRANCH   9  11
ENDBRANCH   7   9
ENDBRANCH   5   7
ENDBRANCH   3   5
ENDBRANCH   2   3
ENDBRANCH   1   2
BRANCH   1  19
ATOM     19  C   UNL A   1      31.614  30.293  25.810  1.00  0.00     0.275 C 
BRANCH  19  20
ATOM     20  O   UNL A   1      32.983  30.431  26.232  1.00  0.00    -0.458 OA
BRANCH  20  21
ATOM     21  C   UNL A   1      33.254  31.449  27.080  1.00  0.00     0.338 C 
ATOM     22  O   UNL A   1      32.603  32.464  27.253  1.00  0.00    -0.246 OA
BRANCH  21  23
ATOM     23  C   UNL A   1      34.525  31.172  27.776  1.00  0.00     0.060 A 
ATOM     24  C   UNL A   1      35.466  32.183  27.985  1.00  0.00     0.016 A 
ATOM     25  C   UNL A   1      34.794  29.869  28.192  1.00  0.00     0.016 A 
ATOM     26  C   UNL A   1      36.675  31.900  28.616  1.00  0.00     0.010 A 
ATOM     27  C   UNL A   1      35.985  29.594  28.868  1.00  0.00     0.010 A 
ATOM     28  C   UNL A   1      36.931  30.609  29.089  1.00  0.00    -0.014 A 
BRANCH  28  29
ATOM     29  C   UNL A   1      38.164  30.309  29.858  1.00  0.00     0.031 A 
ATOM     30  C   UNL A   1      39.189  29.366  29.305  1.00  0.00     0.074 A 
ATOM     31  C   UNL A   1      38.325  30.845  31.083  1.00  0.00     0.049 A 
ATOM     32  N   UNL A   1      40.217  28.819  29.902  1.00  0.00    -0.248 NA
ATOM     33  C   UNL A   1      39.034  28.982  27.894  1.00  0.00     0.031 C 
ATOM     34  C   UNL A   1      37.414  31.802  31.712  1.00  0.00     0.029 A 
ATOM     35  N   UNL A   1      39.300  30.640  32.027  1.00  0.00    -0.354 N 
ATOM     36  C   UNL A   1      40.815  28.003  28.951  1.00  0.00     0.074 A 
ATOM     37  C   UNL A   1      40.032  28.123  27.738  1.00  0.00     0.031 C 
ATOM     38  C   UNL A   1      37.867  32.094  32.942  1.00  0.00     0.029 A 
ATOM     39  C   UNL A   1      39.059  31.296  33.209  1.00  0.00     0.049 A 
ATOM     40  H   UNL A   1      40.093  30.078  31.873  1.00  0.00     0.167 HD
ATOM     41  C   UNL A   1      41.915  27.225  29.086  1.00  0.00     0.037 A 
ATOM     42  C   UNL A   1      39.696  31.223  34.393  1.00  0.00     0.037 A 
ATOM     43  C   UNL A   1      42.699  27.131  30.291  1.00  0.00     0.049 A 
ATOM     44  C   UNL A   1      40.872  30.300  34.537  1.00  0.00     0.074 A 
ATOM     45  C   UNL A   1      43.855  26.404  30.515  1.00  0.00     0.029 A 
ATOM     46  N   UNL A   1      42.403  27.786  31.477  1.00  0.00    -0.354 N 
ATOM     47  N   UNL A   1      41.423  29.521  33.641  1.00  0.00    -0.248 NA
ATOM     48  C   UNL A   1      41.500  30.231  35.863  1.00  0.00     0.031 C 
ATOM     49  C   UNL A   1      44.236  26.587  31.849  1.00  0.00     0.029 A 
ATOM     50  C   UNL A   1      43.338  27.458  32.446  1.00  0.00     0.049 A 
ATOM     51  H   UNL A   1      41.641  28.395  31.612  1.00  0.00     0.167 HD
ATOM     52  C   UNL A   1      42.464  28.872  34.288  1.00  0.00     0.074 A 
ATOM     53  C   UNL A   1      42.480  29.365  35.651  1.00  0.00     0.031 C 
ATOM     54  C   UNL A   1      43.326  27.947  33.800  1.00  0.00     0.037 A 
BRANCH  41  55
ATOM     55  C   UNL A   1      42.323  26.390  27.912  1.00  0.00     0.064 A 
ATOM     56  C   UNL A   1      41.760  25.128  27.671  1.00  0.00     0.173 A 
ATOM     57  C   UNL A   1      43.257  26.880  26.986  1.00  0.00     0.173 A 
ATOM     58  F   UNL A   1      40.871  24.611  28.531  1.00  0.00    -0.203 F 
ATOM     59  C   UNL A   1      42.132  24.380  26.556  1.00  0.00     0.198 A 
ATOM     60  C   UNL A   1      43.610  26.139  25.862  1.00  0.00     0.198 A 
ATOM     61  F   UNL A   1      43.821  28.084  27.169  1.00  0.00    -0.203 F 
ATOM     62  F   UNL A   1      41.605  23.162  26.363  1.00  0.00    -0.200 F 
ATOM     63  C   UNL A   1      43.050  24.888  25.650  1.00  0.00     0.200 A 
ATOM     64  F   UNL A   1      44.490  26.636  24.982  1.00  0.00    -0.200 F 
ATOM     65  F   UNL A   1      43.400  24.170  24.574  1.00  0.00    -0.200 F 
ENDBRANCH  41  55
BRANCH  42  66
ATOM     66  C   UNL A   1      39.197  32.016  35.545  1.00  0.00     0.064 A 
ATOM     67  C   UNL A   1      38.330  31.450  36.488  1.00  0.00     0.173 A 
ATOM     68  C   UNL A   1      39.590  33.350  35.734  1.00  0.00     0.173 A 
ATOM     69  F   UNL A   1      37.906  30.186  36.333  1.00  0.00    -0.203 F 
ATOM     70  C   UNL A   1      37.874  32.187  37.577  1.00  0.00     0.198 A 
ATOM     71  C   UNL A   1      39.153  34.078  36.837  1.00  0.00     0.198 A 
ATOM     72  F   UNL A   1      40.416  33.937  34.855  1.00  0.00    -0.203 F 
ATOM     73  F   UNL A   1      37.021  31.632  38.450  1.00  0.00    -0.200 F 
ATOM     74  C   UNL A   1      38.291  33.499  37.756  1.00  0.00     0.200 A 
ATOM     75  F   UNL A   1      39.568  35.341  37.011  1.00  0.00    -0.200 F 
ATOM     76  F   UNL A   1      37.860  34.204  38.810  1.00  0.00    -0.200 F 
ENDBRANCH  42  66
BRANCH  54  77
ATOM     77  C   UNL A   1      44.356  27.412  34.748  1.00  0.00     0.064 A 
ATOM     78  C   UNL A   1      44.132  26.236  35.479  1.00  0.00     0.173 A 
ATOM     79  C   UNL A   1      45.587  28.064  34.907  1.00  0.00     0.173 A 
ATOM     80  F   UNL A   1      42.960  25.590  35.374  1.00  0.00    -0.203 F 
ATOM     81  C   UNL A   1      45.098  25.742  36.350  1.00  0.00     0.198 A 
ATOM     82  C   UNL A   1      46.561  27.554  35.761  1.00  0.00     0.198 A 
ATOM     83  F   UNL A   1      45.849  29.191  34.227  1.00  0.00    -0.203 F 
ATOM     84  F   UNL A   1      44.848  24.639  37.068  1.00  0.00    -0.200 F 
ATOM     85  C   UNL A   1      46.313  26.397  36.486  1.00  0.00     0.200 A 
ATOM     86  F   UNL A   1      47.737  28.183  35.887  1.00  0.00    -0.200 F 
ATOM     87  F   UNL A   1      47.243  25.918  37.322  1.00  0.00    -0.200 F 
ENDBRANCH  54  77
ENDBRANCH  28  29
ENDBRANCH  21  23
ENDBRANCH  20  21
ENDBRANCH  19  20
ENDBRANCH   1  19
TORSDOF 14
ENDMDL
MODEL 2
REMARK VINA RESULT:     -11.4      1.329      2.363
REMARK SMILES C[C@H](Nc1ccc(F)cc1Br)[C@@H](C)C(=O)OCCOC(=O)c1ccc(-c2c3nc(c(-c4c(F)c(F)c(F)c(F)c4F)c4ccc([nH]4)c(-c4c(F)c(F)c(F)c(F)c4F)c4nc(c(-c5c(F)c(F)c(F)c(F)c5F)c5ccc2[nH]5)C=C4)C=C3)cc1
REMARK SMILES IDX 17 1 16 2 14 3 15 4 12 5 13 6 2 7 1 8 3 9 4 11 5 12 10 13
REMARK SMILES IDX 6 14 9 15 11 16 7 17 8 18 18 19 19 20 20 21 21 22 22 23
REMARK SMILES IDX 23 24 84 25 24 26 83 27 25 28 26 29 27 30 77 31 28 32 82 33
REMARK SMILES IDX 76 34 78 35 29 36 81 37 75 38 74 39 30 41 62 42 42 43 61 44
REMARK SMILES IDX 43 45 46 46 60 47 79 48 44 49 45 50 59 52 80 53 47 54 31 55
REMARK SMILES IDX 32 56 40 57 33 58 34 59 38 60 41 61 35 62 36 63 39 64 37 65
REMARK SMILES IDX 63 66 64 67 72 68 65 69 66 70 70 71 73 72 67 73 68 74 71 75
REMARK SMILES IDX 69 76 48 77 49 78 57 79 50 80 51 81 55 82 58 83 52 84 53 85
REMARK SMILES IDX 56 86 54 87
REMARK H PARENT 3 10 78 40 46 51
REMARK Flexibility Score: inf
ROOT
ATOM      1  C   UNL A   1      31.412  29.405  24.589  1.00  0.00     0.274 C 
ENDROOT
BRANCH   1   2
ATOM      2  O   UNL A   1      31.903  28.117  24.155  1.00  0.00    -0.462 OA
BRANCH   2   3
ATOM      3  C   UNL A   1      32.838  28.155  23.173  1.00  0.00     0.310 C 
ATOM      4  O   UNL A   1      33.568  29.117  22.952  1.00  0.00    -0.252 OA
BRANCH   3   5
ATOM      5  C   UNL A   1      32.872  26.915  22.297  1.00  0.00     0.118 C 
ATOM      6  C   UNL A   1      31.399  26.568  22.042  1.00  0.00     0.022 C 
BRANCH   5   7
ATOM      7  C   UNL A   1      33.686  25.698  22.806  1.00  0.00     0.090 C 
ATOM      8  C   UNL A   1      33.144  24.332  22.380  1.00  0.00     0.031 C 
BRANCH   7   9
ATOM      9  N   UNL A   1      33.865  25.796  24.280  1.00  0.00    -0.381 N 
ATOM     10  H   UNL A   1      33.898  26.705  24.658  1.00  0.00     0.160 HD
BRANCH   9  11
ATOM     11  C   UNL A   1      33.992  24.745  25.185  1.00  0.00     0.049 A 
ATOM     12  C   UNL A   1      35.233  24.132  25.420  1.00  0.00     0.030 A 
ATOM     13  C   UNL A   1      32.894  24.257  25.930  1.00  0.00     0.044 A 
ATOM     14  C   UNL A   1      35.378  23.080  26.332  1.00  0.00     0.041 A 
ATOM     15  C   UNL A   1      33.031  23.204  26.845  1.00  0.00     0.057 A 
ATOM     16  Br  UNL A   1      31.161  25.021  25.769  1.00  0.00    -0.048 Br
ATOM     17  C   UNL A   1      34.275  22.625  27.033  1.00  0.00     0.124 A 
ATOM     18  F   UNL A   1      34.416  21.628  27.914  1.00  0.00    -0.207 F 
ENDBRANCH   9  11
ENDBRANCH   7   9
ENDBRANCH   5   7
ENDBRANCH   3   5
ENDBRANCH   2   3
ENDBRANCH   1   2
BRANCH   1  19
ATOM     19  C   UNL A   1      31.805  29.683  26.042  1.00  0.00     0.275 C 
BRANCH  19  20
ATOM     20  O   UNL A   1      33.134  30.231  26.095  1.00  0.00    -0.458 OA
BRANCH  20  21
ATOM     21  C   UNL A   1      33.345  31.219  26.995  1.00  0.00     0.338 C 
ATOM     22  O   UNL A   1      32.634  32.181  27.220  1.00  0.00    -0.246 OA
BRANCH  21  23
ATOM     23  C   UNL A   1      34.633  30.984  27.675  1.00  0.00     0.060 A 
ATOM     24  C   UNL A   1      35.516  32.037  27.927  1.00  0.00     0.016 A 
ATOM     25  C   UNL A   1      34.978  29.682  28.034  1.00  0.00     0.016 A 
ATOM     26  C   UNL A   1      36.743  31.796  28.543  1.00  0.00     0.010 A 
ATOM     27  C   UNL A   1      36.185  29.446  28.696  1.00  0.00     0.010 A 
ATOM     28  C   UNL A   1      37.073  30.502  28.959  1.00  0.00    -0.014 A 
BRANCH  28  29
ATOM     29  C   UNL A   1      38.324  30.240  29.712  1.00  0.00     0.031 A 
ATOM     30  C   UNL A   1      39.358  29.307  29.158  1.00  0.00     0.074 A 
ATOM     31  C   UNL A   1      38.495  30.800  30.925  1.00  0.00     0.049 A 
ATOM     32  N   UNL A   1      40.406  28.790  29.747  1.00  0.00    -0.248 NA
ATOM     33  C   UNL A   1      39.186  28.895  27.757  1.00  0.00     0.031 C 
ATOM     34  C   UNL A   1      37.577  31.751  31.552  1.00  0.00     0.029 A 
ATOM     35  N   UNL A   1      39.490  30.631  31.856  1.00  0.00    -0.354 N 
ATOM     36  C   UNL A   1      41.003  27.968  28.801  1.00  0.00     0.074 A 
ATOM     37  C   UNL A   1      40.198  28.052  27.600  1.00  0.00     0.031 C 
ATOM     38  C   UNL A   1      38.044  32.074  32.768  1.00  0.00     0.029 A 
ATOM     39  C   UNL A   1      39.255  31.304  33.030  1.00  0.00     0.049 A 
ATOM     40  H   UNL A   1      40.290  30.082  31.697  1.00  0.00     0.167 HD
ATOM     41  C   UNL A   1      42.121  27.214  28.931  1.00  0.00     0.037 A 
ATOM     42  C   UNL A   1      39.913  31.265  34.203  1.00  0.00     0.037 A 
ATOM     43  C   UNL A   1      42.926  27.157  30.124  1.00  0.00     0.049 A 
ATOM     44  C   UNL A   1      41.109  30.366  34.344  1.00  0.00     0.074 A 
ATOM     45  C   UNL A   1      44.100  26.456  30.341  1.00  0.00     0.029 A 
ATOM     46  N   UNL A   1      42.637  27.828  31.303  1.00  0.00    -0.354 N 
ATOM     47  N   UNL A   1      41.660  29.582  33.452  1.00  0.00    -0.248 NA
ATOM     48  C   UNL A   1      41.761  30.334  35.660  1.00  0.00     0.031 C 
ATOM     49  C   UNL A   1      44.499  26.671  31.665  1.00  0.00     0.029 A 
ATOM     50  C   UNL A   1      43.594  27.535  32.261  1.00  0.00     0.049 A 
ATOM     51  H   UNL A   1      41.866  28.425  31.440  1.00  0.00     0.167 HD
ATOM     52  C   UNL A   1      42.724  28.965  34.093  1.00  0.00     0.074 A 
ATOM     53  C   UNL A   1      42.754  29.482  35.447  1.00  0.00     0.031 C 
ATOM     54  C   UNL A   1      43.596  28.048  33.607  1.00  0.00     0.037 A 
BRANCH  41  55
ATOM     55  C   UNL A   1      42.525  26.366  27.765  1.00  0.00     0.064 A 
ATOM     56  C   UNL A   1      41.946  25.112  27.528  1.00  0.00     0.173 A 
ATOM     57  C   UNL A   1      43.473  26.837  26.843  1.00  0.00     0.173 A 
ATOM     58  F   UNL A   1      41.043  24.612  28.385  1.00  0.00    -0.203 F 
ATOM     59  C   UNL A   1      42.315  24.351  26.420  1.00  0.00     0.198 A 
ATOM     60  C   UNL A   1      43.823  26.084  25.726  1.00  0.00     0.198 A 
ATOM     61  F   UNL A   1      44.053  28.034  27.023  1.00  0.00    -0.203 F 
ATOM     62  F   UNL A   1      41.772  23.140  26.230  1.00  0.00    -0.200 F 
ATOM     63  C   UNL A   1      43.247  24.840  25.518  1.00  0.00     0.200 A 
ATOM     64  F   UNL A   1      44.717  26.563  24.850  1.00  0.00    -0.200 F 
ATOM     65  F   UNL A   1      43.595  24.110  24.449  1.00  0.00    -0.200 F 
ENDBRANCH  41  55
BRANCH  42  66
ATOM     66  C   UNL A   1      39.418  32.069  35.349  1.00  0.00     0.064 A 
ATOM     67  C   UNL A   1      39.772  33.416  35.490  1.00  0.00     0.173 A 
ATOM     68  C   UNL A   1      38.568  31.511  36.316  1.00  0.00     0.173 A 
ATOM     69  F   UNL A   1      40.604  33.985  34.604  1.00  0.00    -0.203 F 
ATOM     70  C   UNL A   1      39.296  34.176  36.555  1.00  0.00     0.198 A 
ATOM     71  C   UNL A   1      38.073  32.277  37.367  1.00  0.00     0.198 A 
ATOM     72  F   UNL A   1      38.204  30.222  36.226  1.00  0.00    -0.203 F 
ATOM     73  F   UNL A   1      39.674  35.455  36.685  1.00  0.00    -0.200 F 
ATOM     74  C   UNL A   1      38.440  33.608  37.489  1.00  0.00     0.200 A 
ATOM     75  F   UNL A   1      37.238  31.728  38.260  1.00  0.00    -0.200 F 
ATOM     76  F   UNL A   1      37.975  34.343  38.508  1.00  0.00    -0.200 F 
ENDBRANCH  42  66
BRANCH  54  77
ATOM     77  C   UNL A   1      44.652  27.549  34.546  1.00  0.00     0.064 A 
ATOM     78  C   UNL A   1      45.860  28.240  34.714  1.00  0.00     0.173 A 
ATOM     79  C   UNL A   1      44.444  26.388  35.304  1.00  0.00     0.173 A 
ATOM     80  F   UNL A   1      46.112  29.345  33.995  1.00  0.00    -0.203 F 
ATOM     81  C   UNL A   1      46.832  27.775  35.596  1.00  0.00     0.198 A 
ATOM     82  C   UNL A   1      45.408  25.938  36.202  1.00  0.00     0.198 A 
ATOM     83  F   UNL A   1      43.302  25.694  35.179  1.00  0.00    -0.203 F 
ATOM     84  F   UNL A   1      47.996  28.428  35.712  1.00  0.00    -0.200 F 
ATOM     85  C   UNL A   1      46.603  26.629  36.343  1.00  0.00     0.200 A 
ATOM     86  F   UNL A   1      45.182  24.836  36.928  1.00  0.00    -0.200 F 
ATOM     87  F   UNL A   1      47.537  26.184  37.193  1.00  0.00    -0.200 F 
ENDBRANCH  54  77
ENDBRANCH  28  29
ENDBRANCH  21  23
ENDBRANCH  20  21
ENDBRANCH  19  20
ENDBRANCH   1  19
TORSDOF 14
ENDMDL
MODEL 3
REMARK VINA RESULT:     -11.4      1.053      1.693
REMARK SMILES C[C@H](Nc1ccc(F)cc1Br)[C@@H](C)C(=O)OCCOC(=O)c1ccc(-c2c3nc(c(-c4c(F)c(F)c(F)c(F)c4F)c4ccc([nH]4)c(-c4c(F)c(F)c(F)c(F)c4F)c4nc(c(-c5c(F)c(F)c(F)c(F)c5F)c5ccc2[nH]5)C=C4)C=C3)cc1
REMARK SMILES IDX 17 1 16 2 14 3 15 4 12 5 13 6 2 7 1 8 3 9 4 11 5 12 10 13
REMARK SMILES IDX 6 14 9 15 11 16 7 17 8 18 18 19 19 20 20 21 21 22 22 23
REMARK SMILES IDX 23 24 84 25 24 26 83 27 25 28 26 29 27 30 77 31 28 32 82 33
REMARK SMILES IDX 76 34 78 35 29 36 81 37 75 38 74 39 30 41 62 42 42 43 61 44
REMARK SMILES IDX 43 45 46 46 60 47 79 48 44 49 45 50 59 52 80 53 47 54 31 55
REMARK SMILES IDX 32 56 40 57 33 58 34 59 38 60 41 61 35 62 36 63 39 64 37 65
REMARK SMILES IDX 63 66 64 67 72 68 65 69 66 70 70 71 73 72 67 73 68 74 71 75
REMARK SMILES IDX 69 76 48 77 49 78 57 79 50 80 51 81 55 82 58 83 52 84 53 85
REMARK SMILES IDX 56 86 54 87
REMARK H PARENT 3 10 78 40 46 51
REMARK Flexibility Score: inf
ROOT
ATOM      1  C   UNL A   1      31.958  28.383  25.617  1.00  0.00     0.274 C 
ENDROOT
BRANCH   1   2
ATOM      2  O   UNL A   1      31.176  27.499  26.451  1.00  0.00    -0.462 OA
BRANCH   2   3
ATOM      3  C   UNL A   1      31.229  26.187  26.114  1.00  0.00     0.310 C 
ATOM      4  O   UNL A   1      31.308  25.268  26.924  1.00  0.00    -0.252 OA
BRANCH   3   5
ATOM      5  C   UNL A   1      31.254  25.930  24.617  1.00  0.00     0.118 C 
ATOM      6  C   UNL A   1      29.780  25.823  24.207  1.00  0.00     0.022 C 
BRANCH   5   7
ATOM      7  C   UNL A   1      32.096  24.731  24.109  1.00  0.00     0.090 C 
ATOM      8  C   UNL A   1      31.319  23.428  23.917  1.00  0.00     0.031 C 
BRANCH   7   9
ATOM      9  N   UNL A   1      33.289  24.551  24.981  1.00  0.00    -0.381 N 
ATOM     10  H   UNL A   1      33.335  25.121  25.783  1.00  0.00     0.160 HD
BRANCH   9  11
ATOM     11  C   UNL A   1      34.348  23.667  24.789  1.00  0.00     0.049 A 
ATOM     12  C   UNL A   1      35.158  23.739  23.645  1.00  0.00     0.030 A 
ATOM     13  C   UNL A   1      34.679  22.673  25.738  1.00  0.00     0.044 A 
ATOM     14  C   UNL A   1      36.231  22.863  23.441  1.00  0.00     0.041 A 
ATOM     15  C   UNL A   1      35.750  21.791  25.541  1.00  0.00     0.057 A 
ATOM     16  Br  UNL A   1      33.713  22.486  27.365  1.00  0.00    -0.048 Br
ATOM     17  C   UNL A   1      36.513  21.896  24.390  1.00  0.00     0.124 A 
ATOM     18  F   UNL A   1      37.546  21.066  24.202  1.00  0.00    -0.207 F 
ENDBRANCH   9  11
ENDBRANCH   7   9
ENDBRANCH   5   7
ENDBRANCH   3   5
ENDBRANCH   2   3
ENDBRANCH   1   2
BRANCH   1  19
ATOM     19  C   UNL A   1      31.879  29.827  26.118  1.00  0.00     0.275 C 
BRANCH  19  20
ATOM     20  O   UNL A   1      33.193  30.415  26.134  1.00  0.00    -0.458 OA
BRANCH  20  21
ATOM     21  C   UNL A   1      33.409  31.387  27.049  1.00  0.00     0.338 C 
ATOM     22  O   UNL A   1      32.709  32.355  27.281  1.00  0.00    -0.246 OA
BRANCH  21  23
ATOM     23  C   UNL A   1      34.688  31.126  27.737  1.00  0.00     0.060 A 
ATOM     24  C   UNL A   1      35.607  32.154  27.960  1.00  0.00     0.016 A 
ATOM     25  C   UNL A   1      34.987  29.822  28.130  1.00  0.00     0.016 A 
ATOM     26  C   UNL A   1      36.825  31.887  28.584  1.00  0.00     0.010 A 
ATOM     27  C   UNL A   1      36.186  29.562  28.799  1.00  0.00     0.010 A 
ATOM     28  C   UNL A   1      37.110  30.594  29.035  1.00  0.00    -0.014 A 
BRANCH  28  29
ATOM     29  C   UNL A   1      38.351  30.309  29.795  1.00  0.00     0.031 A 
ATOM     30  C   UNL A   1      39.384  29.378  29.235  1.00  0.00     0.074 A 
ATOM     31  C   UNL A   1      38.514  30.847  31.019  1.00  0.00     0.049 A 
ATOM     32  N   UNL A   1      40.421  28.842  29.825  1.00  0.00    -0.248 NA
ATOM     33  C   UNL A   1      39.223  28.992  27.826  1.00  0.00     0.031 C 
ATOM     34  C   UNL A   1      37.597  31.794  31.654  1.00  0.00     0.029 A 
ATOM     35  N   UNL A   1      39.498  30.653  31.957  1.00  0.00    -0.354 N 
ATOM     36  C   UNL A   1      41.022  28.033  28.871  1.00  0.00     0.074 A 
ATOM     37  C   UNL A   1      40.230  28.143  27.663  1.00  0.00     0.031 C 
ATOM     38  C   UNL A   1      38.055  32.092  32.880  1.00  0.00     0.029 A 
ATOM     39  C   UNL A   1      39.257  31.307  33.140  1.00  0.00     0.049 A 
ATOM     40  H   UNL A   1      40.296  30.100  31.797  1.00  0.00     0.167 HD
ATOM     41  C   UNL A   1      42.132  27.268  28.999  1.00  0.00     0.037 A 
ATOM     42  C   UNL A   1      39.903  31.242  34.319  1.00  0.00     0.037 A 
ATOM     43  C   UNL A   1      42.925  27.183  30.198  1.00  0.00     0.049 A 
ATOM     44  C   UNL A   1      41.090  30.332  34.456  1.00  0.00     0.074 A 
ATOM     45  C   UNL A   1      44.092  26.470  30.415  1.00  0.00     0.029 A 
ATOM     46  N   UNL A   1      42.630  27.835  31.387  1.00  0.00    -0.354 N 
ATOM     47  N   UNL A   1      41.645  29.559  33.556  1.00  0.00    -0.248 NA
ATOM     48  C   UNL A   1      41.729  30.271  35.778  1.00  0.00     0.031 C 
ATOM     49  C   UNL A   1      44.479  26.658  31.746  1.00  0.00     0.029 A 
ATOM     50  C   UNL A   1      43.575  27.518  32.349  1.00  0.00     0.049 A 
ATOM     51  H   UNL A   1      41.862  28.436  31.526  1.00  0.00     0.167 HD
ATOM     52  C   UNL A   1      42.697  28.923  34.197  1.00  0.00     0.074 A 
ATOM     53  C   UNL A   1      42.717  29.416  35.559  1.00  0.00     0.031 C 
ATOM     54  C   UNL A   1      43.566  28.007  33.703  1.00  0.00     0.037 A 
BRANCH  41  55
ATOM     55  C   UNL A   1      42.542  26.437  27.822  1.00  0.00     0.064 A 
ATOM     56  C   UNL A   1      41.983  25.174  27.579  1.00  0.00     0.173 A 
ATOM     57  C   UNL A   1      43.474  26.932  26.897  1.00  0.00     0.173 A 
ATOM     58  F   UNL A   1      41.096  24.652  28.438  1.00  0.00    -0.203 F 
ATOM     59  C   UNL A   1      42.356  24.430  26.462  1.00  0.00     0.198 A 
ATOM     60  C   UNL A   1      43.828  26.196  25.770  1.00  0.00     0.198 A 
ATOM     61  F   UNL A   1      44.034  28.138  27.082  1.00  0.00    -0.203 F 
ATOM     62  F   UNL A   1      41.833  23.211  26.266  1.00  0.00    -0.200 F 
ATOM     63  C   UNL A   1      43.272  24.944  25.556  1.00  0.00     0.200 A 
ATOM     64  F   UNL A   1      44.706  26.698  24.891  1.00  0.00    -0.200 F 
ATOM     65  F   UNL A   1      43.624  24.229  24.478  1.00  0.00    -0.200 F 
ENDBRANCH  41  55
BRANCH  42  66
ATOM     66  C   UNL A   1      39.403  32.030  35.474  1.00  0.00     0.064 A 
ATOM     67  C   UNL A   1      38.503  31.472  36.391  1.00  0.00     0.173 A 
ATOM     68  C   UNL A   1      39.827  33.349  35.694  1.00  0.00     0.173 A 
ATOM     69  F   UNL A   1      38.048  30.223  36.207  1.00  0.00    -0.203 F 
ATOM     70  C   UNL A   1      38.044  32.204  37.484  1.00  0.00     0.198 A 
ATOM     71  C   UNL A   1      39.388  34.071  36.800  1.00  0.00     0.198 A 
ATOM     72  F   UNL A   1      40.686  33.928  34.841  1.00  0.00    -0.203 F 
ATOM     73  F   UNL A   1      37.160  31.658  38.330  1.00  0.00    -0.200 F 
ATOM     74  C   UNL A   1      38.494  33.500  37.692  1.00  0.00     0.200 A 
ATOM     75  F   UNL A   1      39.833  35.319  37.003  1.00  0.00    -0.200 F 
ATOM     76  F   UNL A   1      38.061  34.200  38.749  1.00  0.00    -0.200 F 
ENDBRANCH  42  66
BRANCH  54  77
ATOM     77  C   UNL A   1      44.609  27.485  34.644  1.00  0.00     0.064 A 
ATOM     78  C   UNL A   1      45.830  28.152  34.821  1.00  0.00     0.173 A 
ATOM     79  C   UNL A   1      44.376  26.323  35.394  1.00  0.00     0.173 A 
ATOM     80  F   UNL A   1      46.105  29.256  34.109  1.00  0.00    -0.203 F 
ATOM     81  C   UNL A   1      46.788  27.664  35.704  1.00  0.00     0.198 A 
ATOM     82  C   UNL A   1      45.328  25.851  36.294  1.00  0.00     0.198 A 
ATOM     83  F   UNL A   1      43.222  25.651  35.261  1.00  0.00    -0.203 F 
ATOM     84  F   UNL A   1      47.964  28.295  35.829  1.00  0.00    -0.200 F 
ATOM     85  C   UNL A   1      46.535  26.518  36.443  1.00  0.00     0.200 A 
ATOM     86  F   UNL A   1      45.079  24.748  37.013  1.00  0.00    -0.200 F 
ATOM     87  F   UNL A   1      47.458  26.052  37.295  1.00  0.00    -0.200 F 
ENDBRANCH  54  77
ENDBRANCH  28  29
ENDBRANCH  21  23
ENDBRANCH  20  21
ENDBRANCH  19  20
ENDBRANCH   1  19
TORSDOF 14
ENDMDL
