MODEL 1
REMARK VINA RESULT:     -12.2      0.000      0.000
REMARK SMILES Cc1nsc(N(C)C(=O)[C@@H](C)NC(N)=O)c1C(=O)OCCOC(=O)c1ccc(-c2c3nc(c(-c4c(F)c(F)c(F)c(F)c4F)c4ccc([nH]4)c(-c4c(F)c(F)c(F)c(F)c4F)c4nc(c(-c5c(F)c(F)c(F)c(F)c5F)c5ccc2[nH]5)C=C4)C=C3)cc1
REMARK SMILES IDX 20 1 19 2 17 3 18 4 16 5 1 6 2 7 3 8 4 9 5 10 6 11 7 12 8 13
REMARK SMILES IDX 9 14 10 15 11 16 12 17 13 18 14 20 15 21 21 24 22 25 23 26
REMARK SMILES IDX 24 27 25 28 26 29 87 30 27 31 86 32 28 33 29 34 30 35 80 36
REMARK SMILES IDX 31 37 85 38 79 39 81 40 32 41 84 42 78 43 77 44 33 46 65 47
REMARK SMILES IDX 45 48 64 49 46 50 49 51 63 52 82 53 47 54 48 55 62 57 83 58
REMARK SMILES IDX 50 59 34 60 35 61 43 62 36 63 37 64 41 65 44 66 38 67 39 68
REMARK SMILES IDX 42 69 40 70 66 71 67 72 75 73 68 74 69 75 73 76 76 77 70 78
REMARK SMILES IDX 71 79 74 80 72 81 51 82 52 83 60 84 53 85 54 86 58 87 61 88
REMARK SMILES IDX 55 89 56 90 59 91 57 92
REMARK H PARENT 12 19 14 22 14 23 81 45 49 56
REMARK Flexibility Score: inf
ROOT
ATOM      1  C   UNL A   1      37.097  22.125  25.112  1.00  0.00     0.275 C 
ENDROOT
BRANCH   1   2
ATOM      2  O   UNL A   1      36.214  21.025  25.365  1.00  0.00    -0.458 OA
BRANCH   2   3
ATOM      3  C   UNL A   1      34.973  21.305  25.868  1.00  0.00     0.343 C 
ATOM      4  O   UNL A   1      34.731  21.505  27.044  1.00  0.00    -0.246 OA
BRANCH   3   5
ATOM      5  C   UNL A   1      33.959  21.234  24.818  1.00  0.00     0.117 A 
ATOM      6  C   UNL A   1      33.997  18.603  24.672  1.00  0.00     0.069 C 
ATOM      7  C   UNL A   1      33.487  19.957  24.301  1.00  0.00     0.068 A 
ATOM      8  N   UNL A   1      32.495  20.009  23.419  1.00  0.00    -0.195 NA
ATOM      9  S   UNL A   1      32.142  21.573  23.113  1.00  0.00    -0.017 S 
ATOM     10  C   UNL A   1      33.318  22.294  24.160  1.00  0.00     0.133 A 
BRANCH  10  11
ATOM     11  N   UNL A   1      33.426  23.726  24.106  1.00  0.00    -0.303 N 
ATOM     12  C   UNL A   1      34.236  24.389  23.079  1.00  0.00     0.154 C 
BRANCH  11  13
ATOM     13  C   UNL A   1      32.907  24.474  25.178  1.00  0.00     0.249 C 
ATOM     14  O   UNL A   1      33.609  24.866  26.116  1.00  0.00    -0.272 OA
BRANCH  13  15
ATOM     15  C   UNL A   1      31.420  24.962  25.196  1.00  0.00     0.170 C 
ATOM     16  C   UNL A   1      30.992  25.841  24.024  1.00  0.00     0.041 C 
BRANCH  15  17
ATOM     17  N   UNL A   1      30.438  23.920  25.474  1.00  0.00    -0.327 N 
ATOM     18  C   UNL A   1      30.427  23.242  26.654  1.00  0.00     0.312 C 
ATOM     19  H   UNL A   1      29.765  23.700  24.789  1.00  0.00     0.166 HD
ATOM     20  N   UNL A   1      29.465  22.295  26.711  1.00  0.00    -0.352 N 
ATOM     21  O   UNL A   1      31.170  23.447  27.601  1.00  0.00    -0.249 OA
ATOM     22  H   UNL A   1      28.876  22.144  25.936  1.00  0.00     0.161 HD
ATOM     23  H   UNL A   1      29.353  21.755  27.526  1.00  0.00     0.161 HD
ENDBRANCH  15  17
ENDBRANCH  13  15
ENDBRANCH  11  13
ENDBRANCH  10  11
ENDBRANCH   3   5
ENDBRANCH   2   3
ENDBRANCH   1   2
BRANCH   1  24
ATOM     24  C   UNL A   1      38.429  21.826  25.787  1.00  0.00     0.275 C 
BRANCH  24  25
ATOM     25  O   UNL A   1      38.972  23.017  26.344  1.00  0.00    -0.458 OA
BRANCH  25  26
ATOM     26  C   UNL A   1      40.080  22.900  27.110  1.00  0.00     0.338 C 
ATOM     27  O   UNL A   1      40.468  21.924  27.731  1.00  0.00    -0.246 OA
BRANCH  26  28
ATOM     28  C   UNL A   1      40.645  24.249  27.263  1.00  0.00     0.060 A 
ATOM     29  C   UNL A   1      41.554  24.469  28.302  1.00  0.00     0.016 A 
ATOM     30  C   UNL A   1      40.076  25.308  26.539  1.00  0.00     0.016 A 
ATOM     31  C   UNL A   1      41.718  25.759  28.761  1.00  0.00     0.010 A 
ATOM     32  C   UNL A   1      40.206  26.583  27.015  1.00  0.00     0.010 A 
ATOM     33  C   UNL A   1      40.959  26.774  28.166  1.00  0.00    -0.014 A 
BRANCH  33  34
ATOM     34  C   UNL A   1      40.964  28.091  28.748  1.00  0.00     0.031 A 
ATOM     35  C   UNL A   1      42.106  28.929  28.322  1.00  0.00     0.074 A 
ATOM     36  C   UNL A   1      39.928  28.519  29.491  1.00  0.00     0.049 A 
ATOM     37  N   UNL A   1      43.076  29.360  29.054  1.00  0.00    -0.248 NA
ATOM     38  C   UNL A   1      42.281  29.189  26.885  1.00  0.00     0.031 C 
ATOM     39  C   UNL A   1      38.628  27.888  29.740  1.00  0.00     0.029 A 
ATOM     40  N   UNL A   1      39.821  29.700  30.147  1.00  0.00    -0.354 N 
ATOM     41  C   UNL A   1      43.907  30.091  28.209  1.00  0.00     0.074 A 
ATOM     42  C   UNL A   1      43.451  29.829  26.871  1.00  0.00     0.031 C 
ATOM     43  C   UNL A   1      37.795  28.787  30.316  1.00  0.00     0.029 A 
ATOM     44  C   UNL A   1      38.545  29.998  30.602  1.00  0.00     0.049 A 
ATOM     45  H   UNL A   1      40.589  30.301  30.289  1.00  0.00     0.167 HD
ATOM     46  C   UNL A   1      44.784  31.002  28.713  1.00  0.00     0.037 A 
ATOM     47  C   UNL A   1      38.165  31.202  31.095  1.00  0.00     0.037 A 
ATOM     48  C   UNL A   1      44.996  30.779  30.122  1.00  0.00     0.049 A 
ATOM     49  C   UNL A   1      39.412  31.896  31.539  1.00  0.00     0.074 A 
ATOM     50  C   UNL A   1      45.542  29.745  30.857  1.00  0.00     0.029 A 
ATOM     51  N   UNL A   1      44.253  31.516  31.013  1.00  0.00    -0.354 N 
ATOM     52  N   UNL A   1      40.145  31.467  32.535  1.00  0.00    -0.248 NA
ATOM     53  C   UNL A   1      40.110  32.720  30.560  1.00  0.00     0.031 C 
ATOM     54  C   UNL A   1      44.698  29.623  32.000  1.00  0.00     0.029 A 
ATOM     55  C   UNL A   1      43.743  30.639  31.938  1.00  0.00     0.049 A 
ATOM     56  H   UNL A   1      44.112  32.491  30.993  1.00  0.00     0.167 HD
ATOM     57  C   UNL A   1      41.458  31.614  32.103  1.00  0.00     0.074 A 
ATOM     58  C   UNL A   1      41.373  32.437  30.896  1.00  0.00     0.031 C 
ATOM     59  C   UNL A   1      42.459  30.814  32.576  1.00  0.00     0.037 A 
BRANCH  46  60
ATOM     60  C   UNL A   1      45.184  32.291  28.038  1.00  0.00     0.064 A 
ATOM     61  C   UNL A   1      44.184  33.244  27.753  1.00  0.00     0.173 A 
ATOM     62  C   UNL A   1      46.418  32.495  27.387  1.00  0.00     0.173 A 
ATOM     63  F   UNL A   1      42.974  33.161  28.328  1.00  0.00    -0.203 F 
ATOM     64  C   UNL A   1      44.370  34.249  26.802  1.00  0.00     0.198 A 
ATOM     65  C   UNL A   1      46.616  33.529  26.473  1.00  0.00     0.198 A 
ATOM     66  F   UNL A   1      47.448  31.653  27.522  1.00  0.00    -0.203 F 
ATOM     67  F   UNL A   1      43.345  35.044  26.467  1.00  0.00    -0.200 F 
ATOM     68  C   UNL A   1      45.581  34.380  26.150  1.00  0.00     0.200 A 
ATOM     69  F   UNL A   1      47.796  33.637  25.848  1.00  0.00    -0.200 F 
ATOM     70  F   UNL A   1      45.739  35.295  25.185  1.00  0.00    -0.200 F 
ENDBRANCH  46  60
BRANCH  47  71
ATOM     71  C   UNL A   1      36.894  31.913  30.812  1.00  0.00     0.064 A 
ATOM     72  C   UNL A   1      35.970  32.200  31.829  1.00  0.00     0.173 A 
ATOM     73  C   UNL A   1      36.680  32.558  29.576  1.00  0.00     0.173 A 
ATOM     74  F   UNL A   1      36.129  31.670  33.050  1.00  0.00    -0.203 F 
ATOM     75  C   UNL A   1      34.905  33.088  31.625  1.00  0.00     0.198 A 
ATOM     76  C   UNL A   1      35.618  33.439  29.372  1.00  0.00     0.198 A 
ATOM     77  F   UNL A   1      37.552  32.418  28.567  1.00  0.00    -0.203 F 
ATOM     78  F   UNL A   1      34.072  33.377  32.634  1.00  0.00    -0.200 F 
ATOM     79  C   UNL A   1      34.736  33.712  30.399  1.00  0.00     0.200 A 
ATOM     80  F   UNL A   1      35.492  34.066  28.194  1.00  0.00    -0.200 F 
ATOM     81  F   UNL A   1      33.753  34.605  30.222  1.00  0.00    -0.200 F 
ENDBRANCH  47  71
BRANCH  59  82
ATOM     82  C   UNL A   1      42.136  29.870  33.705  1.00  0.00     0.064 A 
ATOM     83  C   UNL A   1      41.691  28.549  33.516  1.00  0.00     0.173 A 
ATOM     84  C   UNL A   1      42.457  30.254  35.012  1.00  0.00     0.173 A 
ATOM     85  F   UNL A   1      41.475  28.066  32.288  1.00  0.00    -0.203 F 
ATOM     86  C   UNL A   1      41.530  27.673  34.588  1.00  0.00     0.198 A 
ATOM     87  C   UNL A   1      42.331  29.366  36.078  1.00  0.00     0.198 A 
ATOM     88  F   UNL A   1      42.955  31.478  35.248  1.00  0.00    -0.203 F 
ATOM     89  F   UNL A   1      41.101  26.420  34.376  1.00  0.00    -0.200 F 
ATOM     90  C   UNL A   1      41.857  28.081  35.869  1.00  0.00     0.200 A 
ATOM     91  F   UNL A   1      42.704  29.748  37.308  1.00  0.00    -0.200 F 
ATOM     92  F   UNL A   1      41.747  27.228  36.897  1.00  0.00    -0.200 F 
ENDBRANCH  59  82
ENDBRANCH  33  34
ENDBRANCH  26  28
ENDBRANCH  25  26
ENDBRANCH  24  25
ENDBRANCH   1  24
TORSDOF 15
ENDMDL
MODEL 2
REMARK VINA RESULT:     -12.1      0.611      1.270
REMARK SMILES Cc1nsc(N(C)C(=O)[C@@H](C)NC(N)=O)c1C(=O)OCCOC(=O)c1ccc(-c2c3nc(c(-c4c(F)c(F)c(F)c(F)c4F)c4ccc([nH]4)c(-c4c(F)c(F)c(F)c(F)c4F)c4nc(c(-c5c(F)c(F)c(F)c(F)c5F)c5ccc2[nH]5)C=C4)C=C3)cc1
REMARK SMILES IDX 20 1 19 2 17 3 18 4 16 5 1 6 2 7 3 8 4 9 5 10 6 11 7 12 8 13
REMARK SMILES IDX 9 14 10 15 11 16 12 17 13 18 14 20 15 21 21 24 22 25 23 26
REMARK SMILES IDX 24 27 25 28 26 29 87 30 27 31 86 32 28 33 29 34 30 35 80 36
REMARK SMILES IDX 31 37 85 38 79 39 81 40 32 41 84 42 78 43 77 44 33 46 65 47
REMARK SMILES IDX 45 48 64 49 46 50 49 51 63 52 82 53 47 54 48 55 62 57 83 58
REMARK SMILES IDX 50 59 34 60 35 61 43 62 36 63 37 64 41 65 44 66 38 67 39 68
REMARK SMILES IDX 42 69 40 70 66 71 67 72 75 73 68 74 69 75 73 76 76 77 70 78
REMARK SMILES IDX 71 79 74 80 72 81 51 82 52 83 60 84 53 85 54 86 58 87 61 88
REMARK SMILES IDX 55 89 56 90 59 91 57 92
REMARK H PARENT 12 19 14 22 14 23 81 45 49 56
REMARK Flexibility Score: inf
ROOT
ATOM      1  C   UNL A   1      37.159  21.981  24.929  1.00  0.00     0.275 C 
ENDROOT
BRANCH   1   2
ATOM      2  O   UNL A   1      36.196  20.955  25.199  1.00  0.00    -0.458 OA
BRANCH   2   3
ATOM      3  C   UNL A   1      34.976  21.336  25.686  1.00  0.00     0.343 C 
ATOM      4  O   UNL A   1      34.757  21.641  26.844  1.00  0.00    -0.246 OA
BRANCH   3   5
ATOM      5  C   UNL A   1      33.949  21.232  24.652  1.00  0.00     0.117 A 
ATOM      6  C   UNL A   1      33.891  18.597  24.684  1.00  0.00     0.069 C 
ATOM      7  C   UNL A   1      33.425  19.941  24.227  1.00  0.00     0.068 A 
ATOM      8  N   UNL A   1      32.426  19.969  23.352  1.00  0.00    -0.195 NA
ATOM      9  S   UNL A   1      32.125  21.521  22.945  1.00  0.00    -0.017 S 
ATOM     10  C   UNL A   1      33.338  22.267  23.929  1.00  0.00     0.133 A 
BRANCH  10  11
ATOM     11  N   UNL A   1      33.496  23.687  23.778  1.00  0.00    -0.303 N 
ATOM     12  C   UNL A   1      34.826  24.297  23.675  1.00  0.00     0.154 C 
BRANCH  11  13
ATOM     13  C   UNL A   1      32.363  24.505  23.938  1.00  0.00     0.249 C 
ATOM     14  O   UNL A   1      31.760  24.999  22.981  1.00  0.00    -0.272 OA
BRANCH  13  15
ATOM     15  C   UNL A   1      31.719  24.751  25.344  1.00  0.00     0.170 C 
ATOM     16  C   UNL A   1      31.471  26.209  25.719  1.00  0.00     0.041 C 
BRANCH  15  17
ATOM     17  N   UNL A   1      30.561  23.915  25.641  1.00  0.00    -0.327 N 
ATOM     18  C   UNL A   1      30.529  23.096  26.728  1.00  0.00     0.312 C 
ATOM     19  H   UNL A   1      29.783  23.943  25.040  1.00  0.00     0.166 HD
ATOM     20  N   UNL A   1      29.388  22.378  26.815  1.00  0.00    -0.352 N 
ATOM     21  O   UNL A   1      31.403  23.002  27.576  1.00  0.00    -0.249 OA
ATOM     22  H   UNL A   1      28.695  22.468  26.121  1.00  0.00     0.161 HD
ATOM     23  H   UNL A   1      29.248  21.765  27.573  1.00  0.00     0.161 HD
ENDBRANCH  15  17
ENDBRANCH  13  15
ENDBRANCH  11  13
ENDBRANCH  10  11
ENDBRANCH   3   5
ENDBRANCH   2   3
ENDBRANCH   1   2
BRANCH   1  24
ATOM     24  C   UNL A   1      38.407  21.685  25.748  1.00  0.00     0.275 C 
BRANCH  24  25
ATOM     25  O   UNL A   1      38.827  22.856  26.439  1.00  0.00    -0.458 OA
BRANCH  25  26
ATOM     26  C   UNL A   1      39.938  22.767  27.204  1.00  0.00     0.338 C 
ATOM     27  O   UNL A   1      40.329  21.813  27.859  1.00  0.00    -0.246 OA
BRANCH  26  28
ATOM     28  C   UNL A   1      40.504  24.120  27.306  1.00  0.00     0.060 A 
ATOM     29  C   UNL A   1      41.421  24.375  28.330  1.00  0.00     0.016 A 
ATOM     30  C   UNL A   1      39.930  25.153  26.550  1.00  0.00     0.016 A 
ATOM     31  C   UNL A   1      41.588  25.680  28.742  1.00  0.00     0.010 A 
ATOM     32  C   UNL A   1      40.063  26.443  26.981  1.00  0.00     0.010 A 
ATOM     33  C   UNL A   1      40.825  26.674  28.119  1.00  0.00    -0.014 A 
BRANCH  33  34
ATOM     34  C   UNL A   1      40.834  28.010  28.655  1.00  0.00     0.031 A 
ATOM     35  C   UNL A   1      41.934  28.855  28.139  1.00  0.00     0.074 A 
ATOM     36  C   UNL A   1      39.831  28.445  29.438  1.00  0.00     0.049 A 
ATOM     37  N   UNL A   1      42.933  29.329  28.803  1.00  0.00    -0.248 NA
ATOM     38  C   UNL A   1      42.027  29.068  26.686  1.00  0.00     0.031 C 
ATOM     39  C   UNL A   1      38.560  27.799  29.779  1.00  0.00     0.029 A 
ATOM     40  N   UNL A   1      39.736  29.646  30.059  1.00  0.00    -0.354 N 
ATOM     41  C   UNL A   1      43.702  30.045  27.889  1.00  0.00     0.074 A 
ATOM     42  C   UNL A   1      43.180  29.728  26.587  1.00  0.00     0.031 C 
ATOM     43  C   UNL A   1      37.741  28.702  30.369  1.00  0.00     0.029 A 
ATOM     44  C   UNL A   1      38.480  29.936  30.573  1.00  0.00     0.049 A 
ATOM     45  H   UNL A   1      40.498  30.266  30.138  1.00  0.00     0.167 HD
ATOM     46  C   UNL A   1      44.587  30.990  28.314  1.00  0.00     0.037 A 
ATOM     47  C   UNL A   1      38.103  31.150  31.045  1.00  0.00     0.037 A 
ATOM     48  C   UNL A   1      44.879  30.820  29.715  1.00  0.00     0.049 A 
ATOM     49  C   UNL A   1      39.357  31.881  31.396  1.00  0.00     0.074 A 
ATOM     50  C   UNL A   1      45.485  29.822  30.454  1.00  0.00     0.029 A 
ATOM     51  N   UNL A   1      44.169  31.573  30.620  1.00  0.00    -0.354 N 
ATOM     52  N   UNL A   1      40.152  31.501  32.364  1.00  0.00    -0.248 NA
ATOM     53  C   UNL A   1      39.985  32.683  30.353  1.00  0.00     0.031 C 
ATOM     54  C   UNL A   1      44.705  29.724  31.644  1.00  0.00     0.029 A 
ATOM     55  C   UNL A   1      43.728  30.719  31.601  1.00  0.00     0.049 A 
ATOM     56  H   UNL A   1      44.008  32.544  30.575  1.00  0.00     0.167 HD
ATOM     57  C   UNL A   1      41.436  31.657  31.857  1.00  0.00     0.074 A 
ATOM     58  C   UNL A   1      41.270  32.435  30.630  1.00  0.00     0.031 C 
ATOM     59  C   UNL A   1      42.477  30.892  32.302  1.00  0.00     0.037 A 
BRANCH  46  60
ATOM     60  C   UNL A   1      44.923  32.261  27.574  1.00  0.00     0.064 A 
ATOM     61  C   UNL A   1      46.136  32.326  26.858  1.00  0.00     0.173 A 
ATOM     62  C   UNL A   1      44.280  33.497  27.790  1.00  0.00     0.173 A 
ATOM     63  F   UNL A   1      46.828  31.211  26.578  1.00  0.00    -0.203 F 
ATOM     64  C   UNL A   1      46.715  33.544  26.493  1.00  0.00     0.198 A 
ATOM     65  C   UNL A   1      44.837  34.708  27.382  1.00  0.00     0.198 A 
ATOM     66  F   UNL A   1      43.146  33.604  28.490  1.00  0.00    -0.203 F 
ATOM     67  F   UNL A   1      47.933  33.559  25.936  1.00  0.00    -0.200 F 
ATOM     68  C   UNL A   1      46.073  34.734  26.770  1.00  0.00     0.200 A 
ATOM     69  F   UNL A   1      44.202  35.854  27.665  1.00  0.00    -0.200 F 
ATOM     70  F   UNL A   1      46.658  35.905  26.489  1.00  0.00    -0.200 F 
ENDBRANCH  46  60
BRANCH  47  71
ATOM     71  C   UNL A   1      36.804  31.826  30.807  1.00  0.00     0.064 A 
ATOM     72  C   UNL A   1      35.899  32.067  31.853  1.00  0.00     0.173 A 
ATOM     73  C   UNL A   1      36.539  32.486  29.589  1.00  0.00     0.173 A 
ATOM     74  F   UNL A   1      36.106  31.520  33.059  1.00  0.00    -0.203 F 
ATOM     75  C   UNL A   1      34.803  32.926  31.692  1.00  0.00     0.198 A 
ATOM     76  C   UNL A   1      35.446  33.338  29.429  1.00  0.00     0.198 A 
ATOM     77  F   UNL A   1      37.387  32.391  28.555  1.00  0.00    -0.203 F 
ATOM     78  F   UNL A   1      33.989  33.172  32.728  1.00  0.00    -0.200 F 
ATOM     79  C   UNL A   1      34.583  33.566  30.483  1.00  0.00     0.200 A 
ATOM     80  F   UNL A   1      35.270  33.981  28.266  1.00  0.00    -0.200 F 
ATOM     81  F   UNL A   1      33.569  34.431  30.347  1.00  0.00    -0.200 F 
ENDBRANCH  47  71
BRANCH  59  82
ATOM     82  C   UNL A   1      42.235  29.983  33.478  1.00  0.00     0.064 A 
ATOM     83  C   UNL A   1      41.854  28.634  33.356  1.00  0.00     0.173 A 
ATOM     84  C   UNL A   1      42.571  30.438  34.757  1.00  0.00     0.173 A 
ATOM     85  F   UNL A   1      41.630  28.089  32.157  1.00  0.00    -0.203 F 
ATOM     86  C   UNL A   1      41.768  27.798  34.469  1.00  0.00     0.198 A 
ATOM     87  C   UNL A   1      42.521  29.592  35.863  1.00  0.00     0.198 A 
ATOM     88  F   UNL A   1      43.011  31.695  34.927  1.00  0.00    -0.203 F 
ATOM     89  F   UNL A   1      41.399  26.516  34.321  1.00  0.00    -0.200 F 
ATOM     90  C   UNL A   1      42.109  28.277  35.721  1.00  0.00     0.200 A 
ATOM     91  F   UNL A   1      42.907  30.045  37.064  1.00  0.00    -0.200 F 
ATOM     92  F   UNL A   1      42.072  27.464  36.786  1.00  0.00    -0.200 F 
ENDBRANCH  59  82
ENDBRANCH  33  34
ENDBRANCH  26  28
ENDBRANCH  25  26
ENDBRANCH  24  25
ENDBRANCH   1  24
TORSDOF 15
ENDMDL
MODEL 3
REMARK VINA RESULT:     -11.8      1.302      2.647
REMARK SMILES Cc1nsc(N(C)C(=O)[C@@H](C)NC(N)=O)c1C(=O)OCCOC(=O)c1ccc(-c2c3nc(c(-c4c(F)c(F)c(F)c(F)c4F)c4ccc([nH]4)c(-c4c(F)c(F)c(F)c(F)c4F)c4nc(c(-c5c(F)c(F)c(F)c(F)c5F)c5ccc2[nH]5)C=C4)C=C3)cc1
REMARK SMILES IDX 20 1 19 2 17 3 18 4 16 5 1 6 2 7 3 8 4 9 5 10 6 11 7 12 8 13
REMARK SMILES IDX 9 14 10 15 11 16 12 17 13 18 14 20 15 21 21 24 22 25 23 26
REMARK SMILES IDX 24 27 25 28 26 29 87 30 27 31 86 32 28 33 29 34 30 35 80 36
REMARK SMILES IDX 31 37 85 38 79 39 81 40 32 41 84 42 78 43 77 44 33 46 65 47
REMARK SMILES IDX 45 48 64 49 46 50 49 51 63 52 82 53 47 54 48 55 62 57 83 58
REMARK SMILES IDX 50 59 34 60 35 61 43 62 36 63 37 64 41 65 44 66 38 67 39 68
REMARK SMILES IDX 42 69 40 70 66 71 67 72 75 73 68 74 69 75 73 76 76 77 70 78
REMARK SMILES IDX 71 79 74 80 72 81 51 82 52 83 60 84 53 85 54 86 58 87 61 88
REMARK SMILES IDX 55 89 56 90 59 91 57 92
REMARK H PARENT 12 19 14 22 14 23 81 45 49 56
REMARK Flexibility Score: inf
ROOT
ATOM      1  C   UNL A   1      36.687  22.041  25.781  1.00  0.00     0.275 C 
ENDROOT
BRANCH   1   2
ATOM      2  O   UNL A   1      36.148  21.605  24.528  1.00  0.00    -0.458 OA
BRANCH   2   3
ATOM      3  C   UNL A   1      35.314  22.458  23.858  1.00  0.00     0.343 C 
ATOM      4  O   UNL A   1      35.653  23.174  22.933  1.00  0.00    -0.246 OA
BRANCH   3   5
ATOM      5  C   UNL A   1      33.986  22.468  24.466  1.00  0.00     0.117 A 
ATOM      6  C   UNL A   1      34.426  24.644  25.887  1.00  0.00     0.069 C 
ATOM      7  C   UNL A   1      33.576  23.524  25.382  1.00  0.00     0.068 A 
ATOM      8  N   UNL A   1      32.315  23.488  25.797  1.00  0.00    -0.195 NA
ATOM      9  S   UNL A   1      31.594  22.159  25.180  1.00  0.00    -0.017 S 
ATOM     10  C   UNL A   1      32.951  21.535  24.304  1.00  0.00     0.133 A 
BRANCH  10  11
ATOM     11  N   UNL A   1      32.770  20.255  23.677  1.00  0.00    -0.303 N 
ATOM     12  C   UNL A   1      32.094  20.133  22.381  1.00  0.00     0.154 C 
BRANCH  11  13
ATOM     13  C   UNL A   1      33.067  19.099  24.421  1.00  0.00     0.249 C 
ATOM     14  O   UNL A   1      33.406  19.142  25.608  1.00  0.00    -0.272 OA
BRANCH  13  15
ATOM     15  C   UNL A   1      32.876  17.666  23.822  1.00  0.00     0.170 C 
ATOM     16  C   UNL A   1      34.110  17.040  23.179  1.00  0.00     0.041 C 
BRANCH  15  17
ATOM     17  N   UNL A   1      32.190  16.723  24.699  1.00  0.00    -0.327 N 
ATOM     18  C   UNL A   1      32.841  15.672  25.270  1.00  0.00     0.312 C 
ATOM     19  H   UNL A   1      31.231  16.849  24.884  1.00  0.00     0.166 HD
ATOM     20  N   UNL A   1      32.031  14.895  26.022  1.00  0.00    -0.352 N 
ATOM     21  O   UNL A   1      34.033  15.429  25.164  1.00  0.00    -0.249 OA
ATOM     22  H   UNL A   1      31.072  15.107  26.094  1.00  0.00     0.161 HD
ATOM     23  H   UNL A   1      32.399  14.115  26.498  1.00  0.00     0.161 HD
ENDBRANCH  15  17
ENDBRANCH  13  15
ENDBRANCH  11  13
ENDBRANCH  10  11
ENDBRANCH   3   5
ENDBRANCH   2   3
ENDBRANCH   1   2
BRANCH   1  24
ATOM     24  C   UNL A   1      38.204  22.084  25.654  1.00  0.00     0.275 C 
BRANCH  24  25
ATOM     25  O   UNL A   1      38.735  23.107  26.488  1.00  0.00    -0.458 OA
BRANCH  25  26
ATOM     26  C   UNL A   1      39.965  22.910  27.013  1.00  0.00     0.338 C 
ATOM     27  O   UNL A   1      40.449  21.871  27.434  1.00  0.00    -0.246 OA
BRANCH  26  28
ATOM     28  C   UNL A   1      40.570  24.236  27.210  1.00  0.00     0.060 A 
ATOM     29  C   UNL A   1      41.415  24.418  28.308  1.00  0.00     0.016 A 
ATOM     30  C   UNL A   1      40.091  25.318  26.455  1.00  0.00     0.016 A 
ATOM     31  C   UNL A   1      41.597  25.700  28.783  1.00  0.00     0.010 A 
ATOM     32  C   UNL A   1      40.237  26.585  26.945  1.00  0.00     0.010 A 
ATOM     33  C   UNL A   1      40.919  26.745  28.145  1.00  0.00    -0.014 A 
BRANCH  33  34
ATOM     34  C   UNL A   1      40.935  28.059  28.732  1.00  0.00     0.031 A 
ATOM     35  C   UNL A   1      42.080  28.892  28.305  1.00  0.00     0.074 A 
ATOM     36  C   UNL A   1      39.904  28.491  29.481  1.00  0.00     0.049 A 
ATOM     37  N   UNL A   1      43.056  29.313  29.035  1.00  0.00    -0.248 NA
ATOM     38  C   UNL A   1      42.251  29.157  26.868  1.00  0.00     0.031 C 
ATOM     39  C   UNL A   1      38.602  27.867  29.733  1.00  0.00     0.029 A 
ATOM     40  N   UNL A   1      39.809  29.670  30.143  1.00  0.00    -0.354 N 
ATOM     41  C   UNL A   1      43.888  30.042  28.189  1.00  0.00     0.074 A 
ATOM     42  C   UNL A   1      43.425  29.789  26.852  1.00  0.00     0.031 C 
ATOM     43  C   UNL A   1      37.777  28.770  30.317  1.00  0.00     0.029 A 
ATOM     44  C   UNL A   1      38.536  29.974  30.605  1.00  0.00     0.049 A 
ATOM     45  H   UNL A   1      40.580  30.265  30.284  1.00  0.00     0.167 HD
ATOM     46  C   UNL A   1      44.774  30.945  28.694  1.00  0.00     0.037 A 
ATOM     47  C   UNL A   1      38.166  31.179  31.104  1.00  0.00     0.037 A 
ATOM     48  C   UNL A   1      44.990  30.715  30.100  1.00  0.00     0.049 A 
ATOM     49  C   UNL A   1      39.419  31.862  31.546  1.00  0.00     0.074 A 
ATOM     50  C   UNL A   1      45.533  29.674  30.828  1.00  0.00     0.029 A 
ATOM     51  N   UNL A   1      44.255  31.453  30.998  1.00  0.00    -0.354 N 
ATOM     52  N   UNL A   1      40.154  31.425  32.537  1.00  0.00    -0.248 NA
ATOM     53  C   UNL A   1      40.119  32.686  30.567  1.00  0.00     0.031 C 
ATOM     54  C   UNL A   1      44.692  29.553  31.974  1.00  0.00     0.029 A 
ATOM     55  C   UNL A   1      43.744  30.575  31.921  1.00  0.00     0.049 A 
ATOM     56  H   UNL A   1      44.121  32.428  30.982  1.00  0.00     0.167 HD
ATOM     57  C   UNL A   1      41.466  31.565  32.100  1.00  0.00     0.074 A 
ATOM     58  C   UNL A   1      41.382  32.393  30.897  1.00  0.00     0.031 C 
ATOM     59  C   UNL A   1      42.464  30.756  32.566  1.00  0.00     0.037 A 
BRANCH  46  60
ATOM     60  C   UNL A   1      45.179  32.234  28.022  1.00  0.00     0.064 A 
ATOM     61  C   UNL A   1      44.181  33.186  27.726  1.00  0.00     0.173 A 
ATOM     62  C   UNL A   1      46.420  32.440  27.385  1.00  0.00     0.173 A 
ATOM     63  F   UNL A   1      42.965  33.102  28.288  1.00  0.00    -0.203 F 
ATOM     64  C   UNL A   1      44.376  34.191  26.776  1.00  0.00     0.198 A 
ATOM     65  C   UNL A   1      46.627  33.473  26.473  1.00  0.00     0.198 A 
ATOM     66  F   UNL A   1      47.450  31.599  27.531  1.00  0.00    -0.203 F 
ATOM     67  F   UNL A   1      43.355  34.984  26.430  1.00  0.00    -0.200 F 
ATOM     68  C   UNL A   1      45.594  34.324  26.138  1.00  0.00     0.200 A 
ATOM     69  F   UNL A   1      47.814  33.583  25.860  1.00  0.00    -0.200 F 
ATOM     70  F   UNL A   1      45.762  35.238  25.175  1.00  0.00    -0.200 F 
ENDBRANCH  46  60
BRANCH  47  71
ATOM     71  C   UNL A   1      36.898  31.899  30.829  1.00  0.00     0.064 A 
ATOM     72  C   UNL A   1      35.948  32.125  31.838  1.00  0.00     0.173 A 
ATOM     73  C   UNL A   1      36.712  32.612  29.626  1.00  0.00     0.173 A 
ATOM     74  F   UNL A   1      36.080  31.528  33.031  1.00  0.00    -0.203 F 
ATOM     75  C   UNL A   1      34.884  33.019  31.657  1.00  0.00     0.198 A 
ATOM     76  C   UNL A   1      35.650  33.498  29.446  1.00  0.00     0.198 A 
ATOM     77  F   UNL A   1      37.609  32.532  28.633  1.00  0.00    -0.203 F 
ATOM     78  F   UNL A   1      34.025  33.248  32.660  1.00  0.00    -0.200 F 
ATOM     79  C   UNL A   1      34.742  33.710  30.464  1.00  0.00     0.200 A 
ATOM     80  F   UNL A   1      35.550  34.189  28.301  1.00  0.00    -0.200 F 
ATOM     81  F   UNL A   1      33.758  34.608  30.312  1.00  0.00    -0.200 F 
ENDBRANCH  47  71
BRANCH  59  82
ATOM     82  C   UNL A   1      42.140  29.809  33.692  1.00  0.00     0.064 A 
ATOM     83  C   UNL A   1      41.674  28.496  33.499  1.00  0.00     0.173 A 
ATOM     84  C   UNL A   1      42.479  30.180  34.997  1.00  0.00     0.173 A 
ATOM     85  F   UNL A   1      41.438  28.024  32.270  1.00  0.00    -0.203 F 
ATOM     86  C   UNL A   1      41.512  27.615  34.567  1.00  0.00     0.198 A 
ATOM     87  C   UNL A   1      42.352  29.287  36.060  1.00  0.00     0.198 A 
ATOM     88  F   UNL A   1      42.996  31.395  35.236  1.00  0.00    -0.203 F 
ATOM     89  F   UNL A   1      41.062  26.369  34.351  1.00  0.00    -0.200 F 
ATOM     90  C   UNL A   1      41.858  28.011  35.847  1.00  0.00     0.200 A 
ATOM     91  F   UNL A   1      42.742  29.656  37.288  1.00  0.00    -0.200 F 
ATOM     92  F   UNL A   1      41.746  27.152  36.870  1.00  0.00    -0.200 F 
ENDBRANCH  59  82
ENDBRANCH  33  34
ENDBRANCH  26  28
ENDBRANCH  25  26
ENDBRANCH  24  25
ENDBRANCH   1  24
TORSDOF 15
ENDMDL
