MODEL 1
REMARK VINA RESULT:     -12.3      0.000      0.000
REMARK SMILES O=C(Cc1ccccc1-c1ccn(C(F)F)c(=O)c1)OCCOC(=O)c1ccc(-c2c3nc(c(-c4c(F)c(F)c(F)c(F)c4F)c4ccc([nH]4)c(-c4c(F)c(F)c(F)c(F)c4F)c4nc(c(-c5c(F)c(F)c(F)c(F)c5F)c5ccc2[nH]5)C=C4)C=C3)cc1
REMARK SMILES IDX 21 1 20 2 2 3 1 4 3 5 4 6 5 7 9 8 6 9 8 10 7 11 10 12 11 13
REMARK SMILES IDX 19 14 12 15 17 16 13 17 18 18 14 19 15 20 16 21 22 22 23 23
REMARK SMILES IDX 24 24 25 25 26 26 27 27 88 28 28 29 87 30 29 31 30 32 31 33
REMARK SMILES IDX 81 34 32 35 86 36 80 37 82 38 33 39 85 40 79 41 78 42 34 44
REMARK SMILES IDX 66 45 46 46 65 47 47 48 50 49 64 50 83 51 48 52 49 53 63 55
REMARK SMILES IDX 84 56 51 57 35 58 36 59 44 60 37 61 38 62 42 63 45 64 39 65
REMARK SMILES IDX 40 66 43 67 41 68 67 69 68 70 76 71 69 72 70 73 74 74 77 75
REMARK SMILES IDX 71 76 72 77 75 78 73 79 52 80 53 81 61 82 54 83 55 84 59 85
REMARK SMILES IDX 62 86 56 87 57 88 60 89 58 90
REMARK H PARENT 82 43 50 54
REMARK Flexibility Score: inf
ROOT
ATOM      1  C   UNL A   1      31.405  30.401  25.590  1.00  0.00     0.274 C 
ENDROOT
BRANCH   1   2
ATOM      2  O   UNL A   1      32.472  29.433  25.660  1.00  0.00    -0.462 OA
BRANCH   2   3
ATOM      3  C   UNL A   1      32.371  28.183  26.167  1.00  0.00     0.310 C 
ATOM      4  O   UNL A   1      33.354  27.659  26.691  1.00  0.00    -0.252 OA
BRANCH   3   5
ATOM      5  C   UNL A   1      31.073  27.424  26.055  1.00  0.00     0.158 C 
BRANCH   5   6
ATOM      6  C   UNL A   1      30.995  26.178  25.194  1.00  0.00    -0.029 A 
ATOM      7  C   UNL A   1      31.531  25.000  25.755  1.00  0.00     0.005 A 
ATOM      8  C   UNL A   1      30.341  26.095  23.946  1.00  0.00    -0.014 A 
ATOM      9  C   UNL A   1      31.460  23.782  25.084  1.00  0.00     0.000 A 
ATOM     10  C   UNL A   1      30.284  24.864  23.275  1.00  0.00     0.009 A 
ATOM     11  C   UNL A   1      30.841  23.715  23.841  1.00  0.00     0.001 A 
BRANCH   8  12
ATOM     12  C   UNL A   1      29.710  27.268  23.314  1.00  0.00    -0.011 A 
ATOM     13  C   UNL A   1      30.478  28.289  22.629  1.00  0.00     0.027 A 
ATOM     14  C   UNL A   1      28.392  27.450  23.501  1.00  0.00     0.080 A 
ATOM     15  C   UNL A   1      29.935  29.491  22.399  1.00  0.00     0.095 A 
ATOM     16  C   UNL A   1      27.747  28.740  23.126  1.00  0.00     0.255 A 
ATOM     17  N   UNL A   1      28.611  29.741  22.710  1.00  0.00    -0.258 N 
ATOM     18  O   UNL A   1      26.530  28.842  23.249  1.00  0.00    -0.269 OA
BRANCH  17  19
ATOM     19  C   UNL A   1      28.069  31.065  22.555  1.00  0.00     0.451 C 
ATOM     20  F   UNL A   1      27.709  31.579  23.756  1.00  0.00    -0.185 F 
ATOM     21  F   UNL A   1      28.953  31.918  21.984  1.00  0.00    -0.185 F 
ENDBRANCH  17  19
ENDBRANCH   8  12
ENDBRANCH   5   6
ENDBRANCH   3   5
ENDBRANCH   2   3
ENDBRANCH   1   2
BRANCH   1  22
ATOM     22  C   UNL A   1      31.689  31.562  26.541  1.00  0.00     0.275 C 
BRANCH  22  23
ATOM     23  O   UNL A   1      32.955  31.336  27.180  1.00  0.00    -0.458 OA
BRANCH  23  24
ATOM     24  C   UNL A   1      33.624  32.446  27.587  1.00  0.00     0.338 C 
ATOM     25  O   UNL A   1      33.211  33.586  27.626  1.00  0.00    -0.246 OA
BRANCH  24  26
ATOM     26  C   UNL A   1      34.898  31.991  28.183  1.00  0.00     0.060 A 
ATOM     27  C   UNL A   1      34.993  30.671  28.645  1.00  0.00     0.016 A 
ATOM     28  C   UNL A   1      36.005  32.842  28.229  1.00  0.00     0.016 A 
ATOM     29  C   UNL A   1      36.198  30.202  29.172  1.00  0.00     0.010 A 
ATOM     30  C   UNL A   1      37.202  32.380  28.767  1.00  0.00     0.010 A 
ATOM     31  C   UNL A   1      37.294  31.070  29.265  1.00  0.00    -0.014 A 
BRANCH  31  32
ATOM     32  C   UNL A   1      38.481  30.721  30.074  1.00  0.00     0.031 A 
ATOM     33  C   UNL A   1      39.430  29.704  29.511  1.00  0.00     0.074 A 
ATOM     34  C   UNL A   1      38.647  31.204  31.316  1.00  0.00     0.049 A 
ATOM     35  N   UNL A   1      40.416  29.073  30.091  1.00  0.00    -0.248 NA
ATOM     36  C   UNL A   1      39.212  29.328  28.105  1.00  0.00     0.031 C 
ATOM     37  C   UNL A   1      37.799  32.205  31.955  1.00  0.00     0.029 A 
ATOM     38  N   UNL A   1      39.573  30.876  32.274  1.00  0.00    -0.354 N 
ATOM     39  C   UNL A   1      40.924  28.215  29.127  1.00  0.00     0.074 A 
ATOM     40  C   UNL A   1      40.127  28.389  27.932  1.00  0.00     0.031 C 
ATOM     41  C   UNL A   1      38.220  32.384  33.220  1.00  0.00     0.029 A 
ATOM     42  C   UNL A   1      39.344  31.485  33.483  1.00  0.00     0.049 A 
ATOM     43  H   UNL A   1      40.328  30.265  32.111  1.00  0.00     0.167 HD
ATOM     44  C   UNL A   1      41.962  27.353  29.231  1.00  0.00     0.037 A 
ATOM     45  C   UNL A   1      39.951  31.302  34.671  1.00  0.00     0.037 A 
ATOM     46  C   UNL A   1      42.740  27.175  30.425  1.00  0.00     0.049 A 
ATOM     47  C   UNL A   1      41.079  30.308  34.780  1.00  0.00     0.074 A 
ATOM     48  C   UNL A   1      43.829  26.347  30.632  1.00  0.00     0.029 A 
ATOM     49  N   UNL A   1      42.499  27.834  31.622  1.00  0.00    -0.354 N 
ATOM     50  N   UNL A   1      41.581  29.522  33.858  1.00  0.00    -0.248 NA
ATOM     51  C   UNL A   1      41.724  30.176  36.095  1.00  0.00     0.031 C 
ATOM     52  C   UNL A   1      44.220  26.474  31.969  1.00  0.00     0.029 A 
ATOM     53  C   UNL A   1      43.405  27.415  32.580  1.00  0.00     0.049 A 
ATOM     54  H   UNL A   1      41.790  28.501  31.767  1.00  0.00     0.167 HD
ATOM     55  C   UNL A   1      42.614  28.824  34.469  1.00  0.00     0.074 A 
ATOM     56  C   UNL A   1      42.670  29.279  35.843  1.00  0.00     0.031 C 
ATOM     57  C   UNL A   1      43.447  27.893  33.939  1.00  0.00     0.037 A 
BRANCH  44  58
ATOM     58  C   UNL A   1      42.271  26.515  28.027  1.00  0.00     0.064 A 
ATOM     59  C   UNL A   1      43.219  26.918  27.074  1.00  0.00     0.173 A 
ATOM     60  C   UNL A   1      41.591  25.309  27.811  1.00  0.00     0.173 A 
ATOM     61  F   UNL A   1      43.880  28.076  27.226  1.00  0.00    -0.203 F 
ATOM     62  C   UNL A   1      43.448  26.160  25.929  1.00  0.00     0.198 A 
ATOM     63  C   UNL A   1      41.841  24.540  26.679  1.00  0.00     0.198 A 
ATOM     64  F   UNL A   1      40.671  24.883  28.690  1.00  0.00    -0.203 F 
ATOM     65  F   UNL A   1      44.311  26.594  25.001  1.00  0.00    -0.200 F 
ATOM     66  C   UNL A   1      42.761  24.971  25.734  1.00  0.00     0.200 A 
ATOM     67  F   UNL A   1      41.180  23.389  26.492  1.00  0.00    -0.200 F 
ATOM     68  F   UNL A   1      42.974  24.247  24.626  1.00  0.00    -0.200 F 
ENDBRANCH  44  58
BRANCH  45  69
ATOM     69  C   UNL A   1      39.491  32.069  35.857  1.00  0.00     0.064 A 
ATOM     70  C   UNL A   1      40.069  33.302  36.184  1.00  0.00     0.173 A 
ATOM     71  C   UNL A   1      38.457  31.593  36.675  1.00  0.00     0.173 A 
ATOM     72  F   UNL A   1      41.079  33.785  35.446  1.00  0.00    -0.203 F 
ATOM     73  C   UNL A   1      39.635  34.029  37.292  1.00  0.00     0.198 A 
ATOM     74  C   UNL A   1      38.008  32.330  37.768  1.00  0.00     0.198 A 
ATOM     75  F   UNL A   1      37.872  30.417  36.403  1.00  0.00    -0.203 F 
ATOM     76  F   UNL A   1      40.225  35.190  37.602  1.00  0.00    -0.200 F 
ATOM     77  C   UNL A   1      38.599  33.545  38.079  1.00  0.00     0.200 A 
ATOM     78  F   UNL A   1      37.001  31.865  38.521  1.00  0.00    -0.200 F 
ATOM     79  F   UNL A   1      38.176  34.248  39.138  1.00  0.00    -0.200 F 
ENDBRANCH  45  69
BRANCH  57  80
ATOM     80  C   UNL A   1      44.518  27.333  34.828  1.00  0.00     0.064 A 
ATOM     81  C   UNL A   1      44.317  26.165  35.574  1.00  0.00     0.173 A 
ATOM     82  C   UNL A   1      45.787  27.930  34.864  1.00  0.00     0.173 A 
ATOM     83  F   UNL A   1      43.116  25.566  35.581  1.00  0.00    -0.203 F 
ATOM     84  C   UNL A   1      45.348  25.617  36.334  1.00  0.00     0.198 A 
ATOM     85  C   UNL A   1      46.822  27.367  35.605  1.00  0.00     0.198 A 
ATOM     86  F   UNL A   1      46.029  29.045  34.159  1.00  0.00    -0.203 F 
ATOM     87  F   UNL A   1      45.128  24.513  37.061  1.00  0.00    -0.200 F 
ATOM     88  C   UNL A   1      46.600  26.213  36.342  1.00  0.00     0.200 A 
ATOM     89  F   UNL A   1      48.035  27.936  35.600  1.00  0.00    -0.200 F 
ATOM     90  F   UNL A   1      47.596  25.674  37.059  1.00  0.00    -0.200 F 
ENDBRANCH  57  80
ENDBRANCH  31  32
ENDBRANCH  24  26
ENDBRANCH  23  24
ENDBRANCH  22  23
ENDBRANCH   1  22
TORSDOF 14
ENDMDL
MODEL 2
REMARK VINA RESULT:     -12.2      3.061      4.021
REMARK SMILES O=C(Cc1ccccc1-c1ccn(C(F)F)c(=O)c1)OCCOC(=O)c1ccc(-c2c3nc(c(-c4c(F)c(F)c(F)c(F)c4F)c4ccc([nH]4)c(-c4c(F)c(F)c(F)c(F)c4F)c4nc(c(-c5c(F)c(F)c(F)c(F)c5F)c5ccc2[nH]5)C=C4)C=C3)cc1
REMARK SMILES IDX 21 1 20 2 2 3 1 4 3 5 4 6 5 7 9 8 6 9 8 10 7 11 10 12 11 13
REMARK SMILES IDX 19 14 12 15 17 16 13 17 18 18 14 19 15 20 16 21 22 22 23 23
REMARK SMILES IDX 24 24 25 25 26 26 27 27 88 28 28 29 87 30 29 31 30 32 31 33
REMARK SMILES IDX 81 34 32 35 86 36 80 37 82 38 33 39 85 40 79 41 78 42 34 44
REMARK SMILES IDX 66 45 46 46 65 47 47 48 50 49 64 50 83 51 48 52 49 53 63 55
REMARK SMILES IDX 84 56 51 57 35 58 36 59 44 60 37 61 38 62 42 63 45 64 39 65
REMARK SMILES IDX 40 66 43 67 41 68 67 69 68 70 76 71 69 72 70 73 74 74 77 75
REMARK SMILES IDX 71 76 72 77 75 78 73 79 52 80 53 81 61 82 54 83 55 84 59 85
REMARK SMILES IDX 62 86 56 87 57 88 60 89 58 90
REMARK H PARENT 82 43 50 54
REMARK Flexibility Score: inf
ROOT
ATOM      1  C   UNL A   1      31.474  31.098  26.528  1.00  0.00     0.274 C 
ENDROOT
BRANCH   1   2
ATOM      2  O   UNL A   1      32.558  30.343  27.107  1.00  0.00    -0.462 OA
BRANCH   2   3
ATOM      3  C   UNL A   1      32.641  28.993  27.156  1.00  0.00     0.310 C 
ATOM      4  O   UNL A   1      31.811  28.358  27.807  1.00  0.00    -0.252 OA
BRANCH   3   5
ATOM      5  C   UNL A   1      33.765  28.278  26.451  1.00  0.00     0.158 C 
BRANCH   5   6
ATOM      6  C   UNL A   1      33.638  27.932  24.980  1.00  0.00    -0.029 A 
ATOM      7  C   UNL A   1      33.561  29.022  24.089  1.00  0.00     0.005 A 
ATOM      8  C   UNL A   1      33.701  26.626  24.447  1.00  0.00    -0.014 A 
ATOM      9  C   UNL A   1      33.505  28.828  22.711  1.00  0.00     0.000 A 
ATOM     10  C   UNL A   1      33.635  26.442  23.057  1.00  0.00     0.009 A 
ATOM     11  C   UNL A   1      33.537  27.537  22.196  1.00  0.00     0.001 A 
BRANCH   8  12
ATOM     12  C   UNL A   1      33.833  25.436  25.306  1.00  0.00    -0.011 A 
ATOM     13  C   UNL A   1      35.030  24.616  25.320  1.00  0.00     0.027 A 
ATOM     14  C   UNL A   1      32.752  25.034  25.996  1.00  0.00     0.080 A 
ATOM     15  C   UNL A   1      34.981  23.373  25.812  1.00  0.00     0.095 A 
ATOM     16  C   UNL A   1      32.734  23.701  26.662  1.00  0.00     0.255 A 
ATOM     17  N   UNL A   1      33.830  22.891  26.409  1.00  0.00    -0.258 N 
ATOM     18  O   UNL A   1      31.756  23.400  27.339  1.00  0.00    -0.269 OA
BRANCH  17  19
ATOM     19  C   UNL A   1      33.758  21.520  26.840  1.00  0.00     0.451 C 
ATOM     20  F   UNL A   1      34.433  20.714  25.984  1.00  0.00    -0.185 F 
ATOM     21  F   UNL A   1      34.279  21.343  28.077  1.00  0.00    -0.185 F 
ENDBRANCH  17  19
ENDBRANCH   8  12
ENDBRANCH   5   6
ENDBRANCH   3   5
ENDBRANCH   2   3
ENDBRANCH   1   2
BRANCH   1  22
ATOM     22  C   UNL A   1      31.658  32.586  26.823  1.00  0.00     0.275 C 
BRANCH  22  23
ATOM     23  O   UNL A   1      32.992  32.799  27.311  1.00  0.00    -0.458 OA
BRANCH  23  24
ATOM     24  C   UNL A   1      33.158  33.849  28.155  1.00  0.00     0.338 C 
ATOM     25  O   UNL A   1      32.394  34.772  28.347  1.00  0.00    -0.246 OA
BRANCH  24  26
ATOM     26  C   UNL A   1      34.357  33.566  28.972  1.00  0.00     0.060 A 
ATOM     27  C   UNL A   1      35.536  34.277  28.707  1.00  0.00     0.016 A 
ATOM     28  C   UNL A   1      34.299  32.654  30.028  1.00  0.00     0.016 A 
ATOM     29  C   UNL A   1      36.671  34.061  29.492  1.00  0.00     0.010 A 
ATOM     30  C   UNL A   1      35.433  32.428  30.801  1.00  0.00     0.010 A 
ATOM     31  C   UNL A   1      36.629  33.109  30.519  1.00  0.00    -0.014 A 
BRANCH  31  32
ATOM     32  C   UNL A   1      37.865  32.633  31.176  1.00  0.00     0.031 A 
ATOM     33  C   UNL A   1      38.604  31.501  30.525  1.00  0.00     0.074 A 
ATOM     34  C   UNL A   1      38.250  33.111  32.370  1.00  0.00     0.049 A 
ATOM     35  N   UNL A   1      39.579  30.766  30.989  1.00  0.00    -0.248 NA
ATOM     36  C   UNL A   1      38.158  31.134  29.171  1.00  0.00     0.031 C 
ATOM     37  C   UNL A   1      37.617  34.216  33.084  1.00  0.00     0.029 A 
ATOM     38  N   UNL A   1      39.251  32.689  33.209  1.00  0.00    -0.354 N 
ATOM     39  C   UNL A   1      39.850  29.839  29.994  1.00  0.00     0.074 A 
ATOM     40  C   UNL A   1      38.926  30.090  28.909  1.00  0.00     0.031 C 
ATOM     41  C   UNL A   1      38.221  34.362  34.277  1.00  0.00     0.029 A 
ATOM     42  C   UNL A   1      39.258  33.339  34.418  1.00  0.00     0.049 A 
ATOM     43  H   UNL A   1      39.901  31.990  32.966  1.00  0.00     0.167 HD
ATOM     44  C   UNL A   1      40.785  28.861  29.987  1.00  0.00     0.037 A 
ATOM     45  C   UNL A   1      39.993  33.101  35.521  1.00  0.00     0.037 A 
ATOM     46  C   UNL A   1      41.690  28.609  31.074  1.00  0.00     0.049 A 
ATOM     47  C   UNL A   1      41.002  31.982  35.512  1.00  0.00     0.074 A 
ATOM     48  C   UNL A   1      42.692  27.660  31.162  1.00  0.00     0.029 A 
ATOM     49  N   UNL A   1      41.689  29.309  32.272  1.00  0.00    -0.354 N 
ATOM     50  N   UNL A   1      41.281  31.127  34.556  1.00  0.00    -0.248 NA
ATOM     51  C   UNL A   1      41.797  31.792  36.734  1.00  0.00     0.031 C 
ATOM     52  C   UNL A   1      43.270  27.759  32.432  1.00  0.00     0.029 A 
ATOM     53  C   UNL A   1      42.660  28.799  33.116  1.00  0.00     0.049 A 
ATOM     54  H   UNL A   1      41.088  30.058  32.488  1.00  0.00     0.167 HD
ATOM     55  C   UNL A   1      42.298  30.320  35.048  1.00  0.00     0.074 A 
ATOM     56  C   UNL A   1      42.589  30.786  36.388  1.00  0.00     0.031 C 
ATOM     57  C   UNL A   1      42.938  29.289  34.442  1.00  0.00     0.037 A 
BRANCH  44  58
ATOM     58  C   UNL A   1      40.831  27.975  28.780  1.00  0.00     0.064 A 
ATOM     59  C   UNL A   1      41.639  28.279  27.673  1.00  0.00     0.173 A 
ATOM     60  C   UNL A   1      40.036  26.821  28.717  1.00  0.00     0.173 A 
ATOM     61  F   UNL A   1      42.401  29.384  27.677  1.00  0.00    -0.203 F 
ATOM     62  C   UNL A   1      41.621  27.480  26.533  1.00  0.00     0.198 A 
ATOM     63  C   UNL A   1      40.041  26.010  27.587  1.00  0.00     0.198 A 
ATOM     64  F   UNL A   1      39.242  26.490  29.747  1.00  0.00    -0.203 F 
ATOM     65  F   UNL A   1      42.352  27.823  25.465  1.00  0.00    -0.200 F 
ATOM     66  C   UNL A   1      40.824  26.346  26.492  1.00  0.00     0.200 A 
ATOM     67  F   UNL A   1      39.274  24.911  27.549  1.00  0.00    -0.200 F 
ATOM     68  F   UNL A   1      40.800  25.582  25.391  1.00  0.00    -0.200 F 
ENDBRANCH  44  58
BRANCH  45  69
ATOM     69  C   UNL A   1      39.788  33.936  36.733  1.00  0.00     0.064 A 
ATOM     70  C   UNL A   1      38.925  33.521  37.755  1.00  0.00     0.173 A 
ATOM     71  C   UNL A   1      40.459  35.156  36.897  1.00  0.00     0.173 A 
ATOM     72  F   UNL A   1      38.242  32.374  37.629  1.00  0.00    -0.203 F 
ATOM     73  C   UNL A   1      38.735  34.299  38.896  1.00  0.00     0.198 A 
ATOM     74  C   UNL A   1      40.286  35.922  38.048  1.00  0.00     0.198 A 
ATOM     75  F   UNL A   1      41.295  35.597  35.946  1.00  0.00    -0.203 F 
ATOM     76  F   UNL A   1      37.882  33.894  39.846  1.00  0.00    -0.200 F 
ATOM     77  C   UNL A   1      39.422  35.495  39.045  1.00  0.00     0.200 A 
ATOM     78  F   UNL A   1      40.959  37.072  38.193  1.00  0.00    -0.200 F 
ATOM     79  F   UNL A   1      39.247  36.238  40.146  1.00  0.00    -0.200 F 
ENDBRANCH  45  69
BRANCH  57  80
ATOM     80  C   UNL A   1      44.046  28.618  35.199  1.00  0.00     0.064 A 
ATOM     81  C   UNL A   1      43.800  27.539  36.058  1.00  0.00     0.173 A 
ATOM     82  C   UNL A   1      45.378  29.010  34.995  1.00  0.00     0.173 A 
ATOM     83  F   UNL A   1      42.542  27.137  36.295  1.00  0.00    -0.203 F 
ATOM     84  C   UNL A   1      44.849  26.879  36.694  1.00  0.00     0.198 A 
ATOM     85  C   UNL A   1      46.425  28.333  35.612  1.00  0.00     0.198 A 
ATOM     86  F   UNL A   1      45.662  30.032  34.175  1.00  0.00    -0.203 F 
ATOM     87  F   UNL A   1      44.592  25.865  37.532  1.00  0.00    -0.200 F 
ATOM     88  C   UNL A   1      46.160  27.270  36.464  1.00  0.00     0.200 A 
ATOM     89  F   UNL A   1      47.691  28.703  35.378  1.00  0.00    -0.200 F 
ATOM     90  F   UNL A   1      47.169  26.623  37.062  1.00  0.00    -0.200 F 
ENDBRANCH  57  80
ENDBRANCH  31  32
ENDBRANCH  24  26
ENDBRANCH  23  24
ENDBRANCH  22  23
ENDBRANCH   1  22
TORSDOF 14
ENDMDL
MODEL 3
REMARK VINA RESULT:     -12.2      1.518      2.573
REMARK SMILES O=C(Cc1ccccc1-c1ccn(C(F)F)c(=O)c1)OCCOC(=O)c1ccc(-c2c3nc(c(-c4c(F)c(F)c(F)c(F)c4F)c4ccc([nH]4)c(-c4c(F)c(F)c(F)c(F)c4F)c4nc(c(-c5c(F)c(F)c(F)c(F)c5F)c5ccc2[nH]5)C=C4)C=C3)cc1
REMARK SMILES IDX 21 1 20 2 2 3 1 4 3 5 4 6 5 7 9 8 6 9 8 10 7 11 10 12 11 13
REMARK SMILES IDX 19 14 12 15 17 16 13 17 18 18 14 19 15 20 16 21 22 22 23 23
REMARK SMILES IDX 24 24 25 25 26 26 27 27 88 28 28 29 87 30 29 31 30 32 31 33
REMARK SMILES IDX 81 34 32 35 86 36 80 37 82 38 33 39 85 40 79 41 78 42 34 44
REMARK SMILES IDX 66 45 46 46 65 47 47 48 50 49 64 50 83 51 48 52 49 53 63 55
REMARK SMILES IDX 84 56 51 57 35 58 36 59 44 60 37 61 38 62 42 63 45 64 39 65
REMARK SMILES IDX 40 66 43 67 41 68 67 69 68 70 76 71 69 72 70 73 74 74 77 75
REMARK SMILES IDX 71 76 72 77 75 78 73 79 52 80 53 81 61 82 54 83 55 84 59 85
REMARK SMILES IDX 62 86 56 87 57 88 60 89 58 90
REMARK H PARENT 82 43 50 54
REMARK Flexibility Score: inf
ROOT
ATOM      1  C   UNL A   1      31.311  31.543  26.471  1.00  0.00     0.274 C 
ENDROOT
BRANCH   1   2
ATOM      2  O   UNL A   1      32.465  30.735  26.163  1.00  0.00    -0.462 OA
BRANCH   2   3
ATOM      3  C   UNL A   1      32.448  29.558  25.496  1.00  0.00     0.310 C 
ATOM      4  O   UNL A   1      33.260  29.362  24.591  1.00  0.00    -0.252 OA
BRANCH   3   5
ATOM      5  C   UNL A   1      31.418  28.511  25.834  1.00  0.00     0.158 C 
BRANCH   5   6
ATOM      6  C   UNL A   1      31.471  27.151  25.166  1.00  0.00    -0.029 A 
ATOM      7  C   UNL A   1      32.199  26.152  25.847  1.00  0.00     0.005 A 
ATOM      8  C   UNL A   1      30.769  26.795  23.995  1.00  0.00    -0.014 A 
ATOM      9  C   UNL A   1      32.266  24.849  25.363  1.00  0.00     0.000 A 
ATOM     10  C   UNL A   1      30.851  25.480  23.511  1.00  0.00     0.009 A 
ATOM     11  C   UNL A   1      31.596  24.514  24.191  1.00  0.00     0.001 A 
BRANCH   8  12
ATOM     12  C   UNL A   1      29.944  27.765  23.252  1.00  0.00    -0.011 A 
ATOM     13  C   UNL A   1      30.522  28.783  22.397  1.00  0.00     0.027 A 
ATOM     14  C   UNL A   1      28.621  27.777  23.488  1.00  0.00     0.080 A 
ATOM     15  C   UNL A   1      29.795  29.850  22.043  1.00  0.00     0.095 A 
ATOM     16  C   UNL A   1      27.774  28.895  22.985  1.00  0.00     0.255 A 
ATOM     17  N   UNL A   1      28.460  29.944  22.393  1.00  0.00    -0.258 N 
ATOM     18  O   UNL A   1      26.562  28.834  23.162  1.00  0.00    -0.269 OA
BRANCH  17  19
ATOM     19  C   UNL A   1      27.718  31.141  22.097  1.00  0.00     0.451 C 
ATOM     20  F   UNL A   1      27.432  31.820  23.235  1.00  0.00    -0.185 F 
ATOM     21  F   UNL A   1      28.396  31.975  21.273  1.00  0.00    -0.185 F 
ENDBRANCH  17  19
ENDBRANCH   8  12
ENDBRANCH   5   6
ENDBRANCH   3   5
ENDBRANCH   2   3
ENDBRANCH   1   2
BRANCH   1  22
ATOM     22  C   UNL A   1      31.744  32.975  26.784  1.00  0.00     0.275 C 
BRANCH  22  23
ATOM     23  O   UNL A   1      32.944  32.932  27.571  1.00  0.00    -0.458 OA
BRANCH  23  24
ATOM     24  C   UNL A   1      33.210  34.037  28.314  1.00  0.00     0.338 C 
ATOM     25  O   UNL A   1      32.517  35.025  28.446  1.00  0.00    -0.246 OA
BRANCH  24  26
ATOM     26  C   UNL A   1      34.414  33.741  29.119  1.00  0.00     0.060 A 
ATOM     27  C   UNL A   1      35.642  34.286  28.720  1.00  0.00     0.016 A 
ATOM     28  C   UNL A   1      34.318  32.985  30.290  1.00  0.00     0.016 A 
ATOM     29  C   UNL A   1      36.787  34.060  29.487  1.00  0.00     0.010 A 
ATOM     30  C   UNL A   1      35.461  32.747  31.047  1.00  0.00     0.010 A 
ATOM     31  C   UNL A   1      36.702  33.259  30.634  1.00  0.00    -0.014 A 
BRANCH  31  32
ATOM     32  C   UNL A   1      37.916  32.749  31.305  1.00  0.00     0.031 A 
ATOM     33  C   UNL A   1      38.621  31.584  30.673  1.00  0.00     0.074 A 
ATOM     34  C   UNL A   1      38.310  33.227  32.496  1.00  0.00     0.049 A 
ATOM     35  N   UNL A   1      39.566  30.821  31.152  1.00  0.00    -0.248 NA
ATOM     36  C   UNL A   1      38.171  31.217  29.320  1.00  0.00     0.031 C 
ATOM     37  C   UNL A   1      37.710  34.361  33.193  1.00  0.00     0.029 A 
ATOM     38  N   UNL A   1      39.290  32.780  33.347  1.00  0.00    -0.354 N 
ATOM     39  C   UNL A   1      39.811  29.874  30.169  1.00  0.00     0.074 A 
ATOM     40  C   UNL A   1      38.905  30.144  29.075  1.00  0.00     0.031 C 
ATOM     41  C   UNL A   1      38.311  34.500  34.388  1.00  0.00     0.029 A 
ATOM     42  C   UNL A   1      39.310  33.443  34.548  1.00  0.00     0.049 A 
ATOM     43  H   UNL A   1      39.917  32.056  33.117  1.00  0.00     0.167 HD
ATOM     44  C   UNL A   1      40.713  28.864  30.181  1.00  0.00     0.037 A 
ATOM     45  C   UNL A   1      40.030  33.194  35.660  1.00  0.00     0.037 A 
ATOM     46  C   UNL A   1      41.600  28.593  31.277  1.00  0.00     0.049 A 
ATOM     47  C   UNL A   1      40.999  32.040  35.671  1.00  0.00     0.074 A 
ATOM     48  C   UNL A   1      42.568  27.611  31.383  1.00  0.00     0.029 A 
ATOM     49  N   UNL A   1      41.616  29.307  32.467  1.00  0.00    -0.354 N 
ATOM     50  N   UNL A   1      41.255  31.165  34.727  1.00  0.00    -0.248 NA
ATOM     51  C   UNL A   1      41.779  31.838  36.901  1.00  0.00     0.031 C 
ATOM     52  C   UNL A   1      43.141  27.705  32.656  1.00  0.00     0.029 A 
ATOM     53  C   UNL A   1      42.562  28.774  33.323  1.00  0.00     0.049 A 
ATOM     54  H   UNL A   1      41.040  30.079  32.670  1.00  0.00     0.167 HD
ATOM     55  C   UNL A   1      42.240  30.329  35.235  1.00  0.00     0.074 A 
ATOM     56  C   UNL A   1      42.538  30.800  36.572  1.00  0.00     0.031 C 
ATOM     57  C   UNL A   1      42.849  29.270  34.646  1.00  0.00     0.037 A 
BRANCH  44  58
ATOM     58  C   UNL A   1      40.736  27.963  28.984  1.00  0.00     0.064 A 
ATOM     59  C   UNL A   1      41.574  28.216  27.888  1.00  0.00     0.173 A 
ATOM     60  C   UNL A   1      39.889  26.846  28.921  1.00  0.00     0.173 A 
ATOM     61  F   UNL A   1      42.386  29.285  27.891  1.00  0.00    -0.203 F 
ATOM     62  C   UNL A   1      41.536  27.406  26.756  1.00  0.00     0.198 A 
ATOM     63  C   UNL A   1      39.874  26.022  27.801  1.00  0.00     0.198 A 
ATOM     64  F   UNL A   1      39.065  26.564  29.942  1.00  0.00    -0.203 F 
ATOM     65  F   UNL A   1      42.299  27.703  25.696  1.00  0.00    -0.200 F 
ATOM     66  C   UNL A   1      40.689  26.309  26.715  1.00  0.00     0.200 A 
ATOM     67  F   UNL A   1      39.058  24.960  27.762  1.00  0.00    -0.200 F 
ATOM     68  F   UNL A   1      40.647  25.535  25.622  1.00  0.00    -0.200 F 
ENDBRANCH  44  58
BRANCH  45  69
ATOM     69  C   UNL A   1      39.845  34.049  36.860  1.00  0.00     0.064 A 
ATOM     70  C   UNL A   1      38.968  33.672  37.885  1.00  0.00     0.173 A 
ATOM     71  C   UNL A   1      40.550  35.252  37.011  1.00  0.00     0.173 A 
ATOM     72  F   UNL A   1      38.253  32.543  37.772  1.00  0.00    -0.203 F 
ATOM     73  C   UNL A   1      38.798  34.469  39.016  1.00  0.00     0.198 A 
ATOM     74  C   UNL A   1      40.397  36.036  38.152  1.00  0.00     0.198 A 
ATOM     75  F   UNL A   1      41.401  35.657  36.058  1.00  0.00    -0.203 F 
ATOM     76  F   UNL A   1      37.930  34.101  39.968  1.00  0.00    -0.200 F 
ATOM     77  C   UNL A   1      39.518  35.647  39.152  1.00  0.00     0.200 A 
ATOM     78  F   UNL A   1      41.101  37.169  38.285  1.00  0.00    -0.200 F 
ATOM     79  F   UNL A   1      39.361  36.409  40.242  1.00  0.00    -0.200 F 
ENDBRANCH  45  69
BRANCH  57  80
ATOM     80  C   UNL A   1      43.927  28.569  35.419  1.00  0.00     0.064 A 
ATOM     81  C   UNL A   1      45.273  28.941  35.305  1.00  0.00     0.173 A 
ATOM     82  C   UNL A   1      43.593  27.571  36.347  1.00  0.00     0.173 A 
ATOM     83  F   UNL A   1      45.641  29.882  34.422  1.00  0.00    -0.203 F 
ATOM     84  C   UNL A   1      46.251  28.331  36.087  1.00  0.00     0.198 A 
ATOM     85  C   UNL A   1      44.569  26.981  37.144  1.00  0.00     0.198 A 
ATOM     86  F   UNL A   1      42.317  27.188  36.497  1.00  0.00    -0.203 F 
ATOM     87  F   UNL A   1      47.536  28.683  35.945  1.00  0.00    -0.200 F 
ATOM     88  C   UNL A   1      45.897  27.359  37.012  1.00  0.00     0.200 A 
ATOM     89  F   UNL A   1      44.225  26.052  38.046  1.00  0.00    -0.200 F 
ATOM     90  F   UNL A   1      46.837  26.786  37.776  1.00  0.00    -0.200 F 
ENDBRANCH  57  80
ENDBRANCH  31  32
ENDBRANCH  24  26
ENDBRANCH  23  24
ENDBRANCH  22  23
ENDBRANCH   1  22
TORSDOF 14
ENDMDL
