MODEL 1
REMARK VINA RESULT:     -12.3      0.000      0.000
REMARK SMILES [NH3+][C@H]1C=C[C@H](C(=O)N2CCCc3c(C(=O)OCCOC(=O)c4ccc(-c5c6nc(c(-c7c(F)c(F)c(F)c(F)c7F)c7ccc([nH]7)c(-c7c(F)c(F)c(F)c(F)c7F)c7nc(c(-c8c(F)c(F)c(F)c(F)c8F)c8ccc5[nH]8)C=C7)C=C6)cc4)cccc32)C1
REMARK SMILES IDX 17 1 16 2 14 3 15 4 13 5 8 6 9 7 88 8 10 9 12 10 87 11 11 12
REMARK SMILES IDX 86 13 85 14 6 15 7 16 5 17 2 18 3 19 89 20 4 21 1 22 18 26
REMARK SMILES IDX 19 27 20 28 21 29 22 30 23 31 84 32 24 33 83 34 25 35 26 36
REMARK SMILES IDX 27 37 77 38 28 39 82 40 76 41 78 42 29 43 81 44 75 45 74 46
REMARK SMILES IDX 30 48 62 49 42 50 61 51 43 52 46 53 60 54 79 55 44 56 45 57
REMARK SMILES IDX 59 59 80 60 47 61 31 62 32 63 40 64 33 65 34 66 38 67 41 68
REMARK SMILES IDX 35 69 36 70 39 71 37 72 63 73 64 74 72 75 65 76 66 77 70 78
REMARK SMILES IDX 73 79 67 80 68 81 71 82 69 83 48 84 49 85 57 86 50 87 51 88
REMARK SMILES IDX 55 89 58 90 52 91 53 92 56 93 54 94
REMARK H PARENT 1 23 1 24 1 25 78 47 46 58
REMARK Flexibility Score: inf
ROOT
ATOM      1  C   UNL A   1      31.122  29.700  24.420  1.00  0.00     0.275 C 
ENDROOT
BRANCH   1   2
ATOM      2  O   UNL A   1      31.290  28.451  23.721  1.00  0.00    -0.458 OA
BRANCH   2   3
ATOM      3  C   UNL A   1      32.458  28.265  23.059  1.00  0.00     0.338 C 
ATOM      4  O   UNL A   1      33.269  29.124  22.763  1.00  0.00    -0.246 OA
BRANCH   3   5
ATOM      5  C   UNL A   1      32.718  26.813  22.861  1.00  0.00     0.065 A 
ATOM      6  N   UNL A   1      33.690  23.651  24.594  1.00  0.00    -0.312 N 
ATOM      7  C   UNL A   1      33.639  24.145  25.964  1.00  0.00     0.126 C 
ATOM      8  C   UNL A   1      33.411  24.589  23.547  1.00  0.00     0.048 A 
ATOM      9  C   UNL A   1      34.349  25.475  26.085  1.00  0.00     0.027 C 
ATOM     10  C   UNL A   1      33.280  25.967  23.842  1.00  0.00    -0.010 A 
ATOM     11  C   UNL A   1      33.127  24.126  22.251  1.00  0.00     0.027 A 
ATOM     12  C   UNL A   1      33.665  26.505  25.199  1.00  0.00     0.040 C 
ATOM     13  C   UNL A   1      32.559  24.961  21.300  1.00  0.00     0.003 A 
ATOM     14  C   UNL A   1      32.299  26.281  21.630  1.00  0.00     0.016 A 
BRANCH   6  15
ATOM     15  C   UNL A   1      33.972  22.316  24.319  1.00  0.00     0.234 C 
ATOM     16  O   UNL A   1      33.129  21.424  24.470  1.00  0.00    -0.274 OA
BRANCH  15  17
ATOM     17  C   UNL A   1      35.442  21.913  24.069  1.00  0.00     0.108 C 
ATOM     18  C   UNL A   1      36.997  22.796  25.736  1.00  0.00     0.205 C 
ATOM     19  C   UNL A   1      37.262  23.369  24.385  1.00  0.00     0.033 C 
ATOM     20  C   UNL A   1      36.141  21.569  25.399  1.00  0.00     0.087 C 
ATOM     21  C   UNL A   1      36.396  22.903  23.474  1.00  0.00    -0.012 C 
BRANCH  18  22
ATOM     22  N   UNL A   1      38.219  22.454  26.436  1.00  0.00    -0.352 N 
ATOM     23  H   UNL A   1      39.003  22.950  26.012  1.00  0.00     0.345 HD
ATOM     24  H   UNL A   1      38.377  21.449  26.371  1.00  0.00     0.345 HD
ATOM     25  H   UNL A   1      38.137  22.723  27.417  1.00  0.00     0.345 HD
ENDBRANCH  18  22
ENDBRANCH  15  17
ENDBRANCH   6  15
ENDBRANCH   3   5
ENDBRANCH   2   3
ENDBRANCH   1   2
BRANCH   1  26
ATOM     26  C   UNL A   1      31.689  29.586  25.833  1.00  0.00     0.275 C 
BRANCH  26  27
ATOM     27  O   UNL A   1      32.977  30.226  25.869  1.00  0.00    -0.458 OA
BRANCH  27  28
ATOM     28  C   UNL A   1      33.153  31.149  26.839  1.00  0.00     0.338 C 
ATOM     29  O   UNL A   1      32.366  31.998  27.224  1.00  0.00    -0.246 OA
BRANCH  28  30
ATOM     30  C   UNL A   1      34.467  30.933  27.459  1.00  0.00     0.060 A 
ATOM     31  C   UNL A   1      34.844  29.630  27.761  1.00  0.00     0.016 A 
ATOM     32  C   UNL A   1      35.272  32.000  27.847  1.00  0.00     0.016 A 
ATOM     33  C   UNL A   1      35.971  29.382  28.536  1.00  0.00     0.010 A 
ATOM     34  C   UNL A   1      36.473  31.741  28.521  1.00  0.00     0.010 A 
ATOM     35  C   UNL A   1      36.826  30.431  28.902  1.00  0.00    -0.014 A 
BRANCH  35  36
ATOM     36  C   UNL A   1      38.072  30.157  29.678  1.00  0.00     0.031 A 
ATOM     37  C   UNL A   1      39.159  29.291  29.098  1.00  0.00     0.074 A 
ATOM     38  C   UNL A   1      38.242  30.688  30.908  1.00  0.00     0.049 A 
ATOM     39  N   UNL A   1      40.213  28.775  29.684  1.00  0.00    -0.248 NA
ATOM     40  C   UNL A   1      39.042  28.944  27.673  1.00  0.00     0.031 C 
ATOM     41  C   UNL A   1      37.301  31.582  31.584  1.00  0.00     0.029 A 
ATOM     42  N   UNL A   1      39.271  30.556  31.810  1.00  0.00    -0.354 N 
ATOM     43  C   UNL A   1      40.843  27.996  28.720  1.00  0.00     0.074 A 
ATOM     44  C   UNL A   1      40.056  28.106  27.510  1.00  0.00     0.031 C 
ATOM     45  C   UNL A   1      37.814  31.955  32.765  1.00  0.00     0.029 A 
ATOM     46  C   UNL A   1      39.066  31.243  32.984  1.00  0.00     0.049 A 
ATOM     47  H   UNL A   1      40.077  30.019  31.634  1.00  0.00     0.167 HD
ATOM     48  C   UNL A   1      41.970  27.254  28.839  1.00  0.00     0.037 A 
ATOM     49  C   UNL A   1      39.771  31.260  34.131  1.00  0.00     0.037 A 
ATOM     50  C   UNL A   1      42.785  27.196  30.027  1.00  0.00     0.049 A 
ATOM     51  C   UNL A   1      40.995  30.398  34.250  1.00  0.00     0.074 A 
ATOM     52  C   UNL A   1      43.962  26.496  30.234  1.00  0.00     0.029 A 
ATOM     53  N   UNL A   1      42.516  27.879  31.204  1.00  0.00    -0.354 N 
ATOM     54  N   UNL A   1      41.550  29.621  33.354  1.00  0.00    -0.248 NA
ATOM     55  C   UNL A   1      41.678  30.397  35.552  1.00  0.00     0.031 C 
ATOM     56  C   UNL A   1      44.381  26.720  31.550  1.00  0.00     0.029 A 
ATOM     57  C   UNL A   1      43.493  27.600  32.148  1.00  0.00     0.049 A 
ATOM     58  H   UNL A   1      41.745  28.474  31.349  1.00  0.00     0.167 HD
ATOM     59  C   UNL A   1      42.647  29.044  33.976  1.00  0.00     0.074 A 
ATOM     60  C   UNL A   1      42.697  29.582  35.320  1.00  0.00     0.031 C 
ATOM     61  C   UNL A   1      43.529  28.142  33.481  1.00  0.00     0.037 A 
BRANCH  48  62
ATOM     62  C   UNL A   1      42.379  26.405  27.669  1.00  0.00     0.064 A 
ATOM     63  C   UNL A   1      43.375  26.806  26.767  1.00  0.00     0.173 A 
ATOM     64  C   UNL A   1      41.796  25.141  27.481  1.00  0.00     0.173 A 
ATOM     65  F   UNL A   1      43.957  28.008  26.894  1.00  0.00    -0.203 F 
ATOM     66  C   UNL A   1      43.756  25.983  25.709  1.00  0.00     0.198 A 
ATOM     67  C   UNL A   1      42.201  24.309  26.440  1.00  0.00     0.198 A 
ATOM     68  F   UNL A   1      40.846  24.704  28.321  1.00  0.00    -0.203 F 
ATOM     69  F   UNL A   1      44.682  26.404  24.835  1.00  0.00    -0.200 F 
ATOM     70  C   UNL A   1      43.175  24.733  25.551  1.00  0.00     0.200 A 
ATOM     71  F   UNL A   1      41.648  23.097  26.300  1.00  0.00    -0.200 F 
ATOM     72  F   UNL A   1      43.553  23.939  24.540  1.00  0.00    -0.200 F 
ENDBRANCH  48  62
BRANCH  49  73
ATOM     73  C   UNL A   1      39.300  32.081  35.279  1.00  0.00     0.064 A 
ATOM     74  C   UNL A   1      39.642  33.435  35.388  1.00  0.00     0.173 A 
ATOM     75  C   UNL A   1      38.496  31.529  36.290  1.00  0.00     0.173 A 
ATOM     76  F   UNL A   1      40.433  34.002  34.464  1.00  0.00    -0.203 F 
ATOM     77  C   UNL A   1      39.203  34.204  36.465  1.00  0.00     0.198 A 
ATOM     78  C   UNL A   1      38.030  32.306  37.346  1.00  0.00     0.198 A 
ATOM     79  F   UNL A   1      38.144  30.236  36.237  1.00  0.00    -0.203 F 
ATOM     80  F   UNL A   1      39.581  35.485  36.567  1.00  0.00    -0.200 F 
ATOM     81  C   UNL A   1      38.391  33.642  37.437  1.00  0.00     0.200 A 
ATOM     82  F   UNL A   1      37.231  31.763  38.275  1.00  0.00    -0.200 F 
ATOM     83  F   UNL A   1      37.960  34.385  38.465  1.00  0.00    -0.200 F 
ENDBRANCH  49  73
BRANCH  61  84
ATOM     84  C   UNL A   1      44.637  27.703  34.391  1.00  0.00     0.064 A 
ATOM     85  C   UNL A   1      45.847  28.408  34.468  1.00  0.00     0.173 A 
ATOM     86  C   UNL A   1      44.480  26.575  35.211  1.00  0.00     0.173 A 
ATOM     87  F   UNL A   1      46.054  29.482  33.690  1.00  0.00    -0.203 F 
ATOM     88  C   UNL A   1      46.870  27.984  35.312  1.00  0.00     0.198 A 
ATOM     89  C   UNL A   1      45.494  26.171  36.075  1.00  0.00     0.198 A 
ATOM     90  F   UNL A   1      43.340  25.868  35.177  1.00  0.00    -0.203 F 
ATOM     91  F   UNL A   1      48.037  28.642  35.332  1.00  0.00    -0.200 F 
ATOM     92  C   UNL A   1      46.690  26.869  36.119  1.00  0.00     0.200 A 
ATOM     93  F   UNL A   1      45.314  25.099  36.861  1.00  0.00    -0.200 F 
ATOM     94  F   UNL A   1      47.675  26.464  36.932  1.00  0.00    -0.200 F 
ENDBRANCH  61  84
ENDBRANCH  35  36
ENDBRANCH  28  30
ENDBRANCH  27  28
ENDBRANCH  26  27
ENDBRANCH   1  26
TORSDOF 14
ENDMDL
MODEL 2
REMARK VINA RESULT:     -12.3      0.091      1.130
REMARK SMILES [NH3+][C@H]1C=C[C@H](C(=O)N2CCCc3c(C(=O)OCCOC(=O)c4ccc(-c5c6nc(c(-c7c(F)c(F)c(F)c(F)c7F)c7ccc([nH]7)c(-c7c(F)c(F)c(F)c(F)c7F)c7nc(c(-c8c(F)c(F)c(F)c(F)c8F)c8ccc5[nH]8)C=C7)C=C6)cc4)cccc32)C1
REMARK SMILES IDX 17 1 16 2 14 3 15 4 13 5 8 6 9 7 88 8 10 9 12 10 87 11 11 12
REMARK SMILES IDX 86 13 85 14 6 15 7 16 5 17 2 18 3 19 89 20 4 21 1 22 18 26
REMARK SMILES IDX 19 27 20 28 21 29 22 30 23 31 84 32 24 33 83 34 25 35 26 36
REMARK SMILES IDX 27 37 77 38 28 39 82 40 76 41 78 42 29 43 81 44 75 45 74 46
REMARK SMILES IDX 30 48 62 49 42 50 61 51 43 52 46 53 60 54 79 55 44 56 45 57
REMARK SMILES IDX 59 59 80 60 47 61 31 62 32 63 40 64 33 65 34 66 38 67 41 68
REMARK SMILES IDX 35 69 36 70 39 71 37 72 63 73 64 74 72 75 65 76 66 77 70 78
REMARK SMILES IDX 73 79 67 80 68 81 71 82 69 83 48 84 49 85 57 86 50 87 51 88
REMARK SMILES IDX 55 89 58 90 52 91 53 92 56 93 54 94
REMARK H PARENT 1 23 1 24 1 25 78 47 46 58
REMARK Flexibility Score: inf
ROOT
ATOM      1  C   UNL A   1      31.169  29.662  24.421  1.00  0.00     0.275 C 
ENDROOT
BRANCH   1   2
ATOM      2  O   UNL A   1      31.323  28.423  23.700  1.00  0.00    -0.458 OA
BRANCH   2   3
ATOM      3  C   UNL A   1      32.480  28.246  23.016  1.00  0.00     0.338 C 
ATOM      4  O   UNL A   1      33.276  29.111  22.702  1.00  0.00    -0.246 OA
BRANCH   3   5
ATOM      5  C   UNL A   1      32.750  26.796  22.818  1.00  0.00     0.065 A 
ATOM      6  N   UNL A   1      33.741  23.640  24.552  1.00  0.00    -0.312 N 
ATOM      7  C   UNL A   1      33.684  24.133  25.922  1.00  0.00     0.126 C 
ATOM      8  C   UNL A   1      33.457  24.577  23.505  1.00  0.00     0.048 A 
ATOM      9  C   UNL A   1      34.385  25.468  26.045  1.00  0.00     0.027 C 
ATOM     10  C   UNL A   1      33.316  25.953  23.799  1.00  0.00    -0.010 A 
ATOM     11  C   UNL A   1      33.178  24.112  22.208  1.00  0.00     0.027 A 
ATOM     12  C   UNL A   1      33.695  26.493  25.158  1.00  0.00     0.040 C 
ATOM     13  C   UNL A   1      32.606  24.943  21.256  1.00  0.00     0.003 A 
ATOM     14  C   UNL A   1      32.337  26.262  21.586  1.00  0.00     0.016 A 
BRANCH   6  15
ATOM     15  C   UNL A   1      34.031  22.307  24.277  1.00  0.00     0.234 C 
ATOM     16  O   UNL A   1      33.191  21.411  24.414  1.00  0.00    -0.274 OA
BRANCH  15  17
ATOM     17  C   UNL A   1      35.506  21.911  24.045  1.00  0.00     0.108 C 
ATOM     18  C   UNL A   1      37.032  22.782  25.745  1.00  0.00     0.205 C 
ATOM     19  C   UNL A   1      37.317  23.369  24.404  1.00  0.00     0.033 C 
ATOM     20  C   UNL A   1      36.186  21.556  25.382  1.00  0.00     0.087 C 
ATOM     21  C   UNL A   1      36.466  22.910  23.475  1.00  0.00    -0.012 C 
BRANCH  18  22
ATOM     22  N   UNL A   1      38.245  22.437  26.461  1.00  0.00    -0.352 N 
ATOM     23  H   UNL A   1      38.733  21.694  25.961  1.00  0.00     0.345 HD
ATOM     24  H   UNL A   1      38.005  22.114  27.398  1.00  0.00     0.345 HD
ATOM     25  H   UNL A   1      38.847  23.257  26.526  1.00  0.00     0.345 HD
ENDBRANCH  18  22
ENDBRANCH  15  17
ENDBRANCH   6  15
ENDBRANCH   3   5
ENDBRANCH   2   3
ENDBRANCH   1   2
BRANCH   1  26
ATOM     26  C   UNL A   1      31.725  29.513  25.835  1.00  0.00     0.275 C 
BRANCH  26  27
ATOM     27  O   UNL A   1      33.038  30.099  25.881  1.00  0.00    -0.458 OA
BRANCH  27  28
ATOM     28  C   UNL A   1      33.227  31.053  26.819  1.00  0.00     0.338 C 
ATOM     29  O   UNL A   1      32.453  31.926  27.173  1.00  0.00    -0.246 OA
BRANCH  28  30
ATOM     30  C   UNL A   1      34.538  30.840  27.445  1.00  0.00     0.060 A 
ATOM     31  C   UNL A   1      34.887  29.545  27.813  1.00  0.00     0.016 A 
ATOM     32  C   UNL A   1      35.369  31.906  27.776  1.00  0.00     0.016 A 
ATOM     33  C   UNL A   1      36.011  29.312  28.598  1.00  0.00     0.010 A 
ATOM     34  C   UNL A   1      36.566  31.655  28.459  1.00  0.00     0.010 A 
ATOM     35  C   UNL A   1      36.891  30.359  28.906  1.00  0.00    -0.014 A 
BRANCH  35  36
ATOM     36  C   UNL A   1      38.133  30.096  29.693  1.00  0.00     0.031 A 
ATOM     37  C   UNL A   1      39.226  29.228  29.128  1.00  0.00     0.074 A 
ATOM     38  C   UNL A   1      38.294  30.641  30.919  1.00  0.00     0.049 A 
ATOM     39  N   UNL A   1      40.278  28.721  29.725  1.00  0.00    -0.248 NA
ATOM     40  C   UNL A   1      39.118  28.866  27.706  1.00  0.00     0.031 C 
ATOM     41  C   UNL A   1      37.346  31.539  31.580  1.00  0.00     0.029 A 
ATOM     42  N   UNL A   1      39.318  30.521  31.828  1.00  0.00    -0.354 N 
ATOM     43  C   UNL A   1      40.916  27.934  28.774  1.00  0.00     0.074 A 
ATOM     44  C   UNL A   1      40.136  28.029  27.558  1.00  0.00     0.031 C 
ATOM     45  C   UNL A   1      37.851  31.926  32.760  1.00  0.00     0.029 A 
ATOM     46  C   UNL A   1      39.104  31.220  32.993  1.00  0.00     0.049 A 
ATOM     47  H   UNL A   1      40.127  29.986  31.662  1.00  0.00     0.167 HD
ATOM     48  C   UNL A   1      42.045  27.197  28.907  1.00  0.00     0.037 A 
ATOM     49  C   UNL A   1      39.802  31.251  34.144  1.00  0.00     0.037 A 
ATOM     50  C   UNL A   1      42.853  27.154  30.101  1.00  0.00     0.049 A 
ATOM     51  C   UNL A   1      41.029  30.395  34.280  1.00  0.00     0.074 A 
ATOM     52  C   UNL A   1      44.031  26.460  30.322  1.00  0.00     0.029 A 
ATOM     53  N   UNL A   1      42.575  27.849  31.269  1.00  0.00    -0.354 N 
ATOM     54  N   UNL A   1      41.590  29.609  33.395  1.00  0.00    -0.248 NA
ATOM     55  C   UNL A   1      41.703  30.409  35.585  1.00  0.00     0.031 C 
ATOM     56  C   UNL A   1      44.441  26.699  31.637  1.00  0.00     0.029 A 
ATOM     57  C   UNL A   1      43.547  27.582  32.221  1.00  0.00     0.049 A 
ATOM     58  H   UNL A   1      41.801  28.443  31.403  1.00  0.00     0.167 HD
ATOM     59  C   UNL A   1      42.686  29.042  34.029  1.00  0.00     0.074 A 
ATOM     60  C   UNL A   1      42.726  29.595  35.367  1.00  0.00     0.031 C 
ATOM     61  C   UNL A   1      43.574  28.139  33.549  1.00  0.00     0.037 A 
BRANCH  48  62
ATOM     62  C   UNL A   1      42.463  26.338  27.748  1.00  0.00     0.064 A 
ATOM     63  C   UNL A   1      41.890  25.081  27.505  1.00  0.00     0.173 A 
ATOM     64  C   UNL A   1      43.421  26.809  26.834  1.00  0.00     0.173 A 
ATOM     65  F   UNL A   1      40.979  24.579  28.352  1.00  0.00    -0.203 F 
ATOM     66  C   UNL A   1      42.275  24.320  26.402  1.00  0.00     0.198 A 
ATOM     67  C   UNL A   1      43.781  26.058  25.718  1.00  0.00     0.198 A 
ATOM     68  F   UNL A   1      43.993  28.008  27.015  1.00  0.00    -0.203 F 
ATOM     69  F   UNL A   1      41.743  23.105  26.211  1.00  0.00    -0.200 F 
ATOM     70  C   UNL A   1      43.213  24.812  25.507  1.00  0.00     0.200 A 
ATOM     71  F   UNL A   1      44.676  26.543  24.847  1.00  0.00    -0.200 F 
ATOM     72  F   UNL A   1      43.573  24.083  24.441  1.00  0.00    -0.200 F 
ENDBRANCH  48  62
BRANCH  49  73
ATOM     73  C   UNL A   1      39.322  32.082  35.281  1.00  0.00     0.064 A 
ATOM     74  C   UNL A   1      39.694  33.428  35.400  1.00  0.00     0.173 A 
ATOM     75  C   UNL A   1      38.478  31.550  36.269  1.00  0.00     0.173 A 
ATOM     76  F   UNL A   1      40.523  33.976  34.499  1.00  0.00    -0.203 F 
ATOM     77  C   UNL A   1      39.247  34.206  36.467  1.00  0.00     0.198 A 
ATOM     78  C   UNL A   1      38.005  32.338  37.314  1.00  0.00     0.198 A 
ATOM     79  F   UNL A   1      38.096  30.266  36.205  1.00  0.00    -0.203 F 
ATOM     80  F   UNL A   1      39.654  35.478  36.581  1.00  0.00    -0.200 F 
ATOM     81  C   UNL A   1      38.396  33.664  37.417  1.00  0.00     0.200 A 
ATOM     82  F   UNL A   1      37.168  31.814  38.221  1.00  0.00    -0.200 F 
ATOM     83  F   UNL A   1      37.957  34.417  38.434  1.00  0.00    -0.200 F 
ENDBRANCH  49  73
BRANCH  61  84
ATOM     84  C   UNL A   1      44.678  27.712  34.470  1.00  0.00     0.064 A 
ATOM     85  C   UNL A   1      45.885  28.422  34.546  1.00  0.00     0.173 A 
ATOM     86  C   UNL A   1      44.519  26.592  35.300  1.00  0.00     0.173 A 
ATOM     87  F   UNL A   1      46.093  29.488  33.758  1.00  0.00    -0.203 F 
ATOM     88  C   UNL A   1      46.904  28.009  35.400  1.00  0.00     0.198 A 
ATOM     89  C   UNL A   1      45.529  26.200  36.174  1.00  0.00     0.198 A 
ATOM     90  F   UNL A   1      43.381  25.882  35.267  1.00  0.00    -0.203 F 
ATOM     91  F   UNL A   1      48.069  28.672  35.420  1.00  0.00    -0.200 F 
ATOM     92  C   UNL A   1      46.723  26.903  36.218  1.00  0.00     0.200 A 
ATOM     93  F   UNL A   1      45.348  25.137  36.971  1.00  0.00    -0.200 F 
ATOM     94  F   UNL A   1      47.704  26.510  37.042  1.00  0.00    -0.200 F 
ENDBRANCH  61  84
ENDBRANCH  35  36
ENDBRANCH  28  30
ENDBRANCH  27  28
ENDBRANCH  26  27
ENDBRANCH   1  26
TORSDOF 14
ENDMDL
MODEL 3
REMARK VINA RESULT:     -12.2      0.670      1.980
REMARK SMILES [NH3+][C@H]1C=C[C@H](C(=O)N2CCCc3c(C(=O)OCCOC(=O)c4ccc(-c5c6nc(c(-c7c(F)c(F)c(F)c(F)c7F)c7ccc([nH]7)c(-c7c(F)c(F)c(F)c(F)c7F)c7nc(c(-c8c(F)c(F)c(F)c(F)c8F)c8ccc5[nH]8)C=C7)C=C6)cc4)cccc32)C1
REMARK SMILES IDX 17 1 16 2 14 3 15 4 13 5 8 6 9 7 88 8 10 9 12 10 87 11 11 12
REMARK SMILES IDX 86 13 85 14 6 15 7 16 5 17 2 18 3 19 89 20 4 21 1 22 18 26
REMARK SMILES IDX 19 27 20 28 21 29 22 30 23 31 84 32 24 33 83 34 25 35 26 36
REMARK SMILES IDX 27 37 77 38 28 39 82 40 76 41 78 42 29 43 81 44 75 45 74 46
REMARK SMILES IDX 30 48 62 49 42 50 61 51 43 52 46 53 60 54 79 55 44 56 45 57
REMARK SMILES IDX 59 59 80 60 47 61 31 62 32 63 40 64 33 65 34 66 38 67 41 68
REMARK SMILES IDX 35 69 36 70 39 71 37 72 63 73 64 74 72 75 65 76 66 77 70 78
REMARK SMILES IDX 73 79 67 80 68 81 71 82 69 83 48 84 49 85 57 86 50 87 51 88
REMARK SMILES IDX 55 89 58 90 52 91 53 92 56 93 54 94
REMARK H PARENT 1 23 1 24 1 25 78 47 46 58
REMARK Flexibility Score: inf
ROOT
ATOM      1  C   UNL A   1      31.112  29.950  24.662  1.00  0.00     0.275 C 
ENDROOT
BRANCH   1   2
ATOM      2  O   UNL A   1      30.811  28.555  24.459  1.00  0.00    -0.458 OA
BRANCH   2   3
ATOM      3  C   UNL A   1      31.578  27.881  23.568  1.00  0.00     0.338 C 
ATOM      4  O   UNL A   1      31.741  28.159  22.394  1.00  0.00    -0.246 OA
BRANCH   3   5
ATOM      5  C   UNL A   1      32.350  26.809  24.254  1.00  0.00     0.065 A 
ATOM      6  N   UNL A   1      32.927  23.123  24.404  1.00  0.00    -0.312 N 
ATOM      7  C   UNL A   1      32.147  22.745  23.232  1.00  0.00     0.126 C 
ATOM      8  C   UNL A   1      32.950  24.511  24.759  1.00  0.00     0.048 A 
ATOM      9  C   UNL A   1      30.799  23.431  23.238  1.00  0.00     0.027 C 
ATOM     10  C   UNL A   1      32.097  25.428  24.101  1.00  0.00    -0.010 A 
ATOM     11  C   UNL A   1      33.919  24.986  25.659  1.00  0.00     0.027 A 
ATOM     12  C   UNL A   1      30.990  24.939  23.198  1.00  0.00     0.040 C 
ATOM     13  C   UNL A   1      34.171  26.344  25.790  1.00  0.00     0.003 A 
ATOM     14  C   UNL A   1      33.429  27.243  25.041  1.00  0.00     0.016 A 
BRANCH   6  15
ATOM     15  C   UNL A   1      33.642  22.174  25.130  1.00  0.00     0.234 C 
ATOM     16  O   UNL A   1      33.315  21.841  26.275  1.00  0.00    -0.274 OA
BRANCH  15  17
ATOM     17  C   UNL A   1      35.017  21.720  24.590  1.00  0.00     0.108 C 
ATOM     18  C   UNL A   1      36.910  22.724  25.767  1.00  0.00     0.205 C 
ATOM     19  C   UNL A   1      36.858  23.164  24.343  1.00  0.00     0.033 C 
ATOM     20  C   UNL A   1      36.002  21.487  25.751  1.00  0.00     0.087 C 
ATOM     21  C   UNL A   1      35.807  22.632  23.702  1.00  0.00    -0.012 C 
BRANCH  18  22
ATOM     22  N   UNL A   1      38.260  22.424  26.199  1.00  0.00    -0.352 N 
ATOM     23  H   UNL A   1      38.925  22.886  25.578  1.00  0.00     0.345 HD
ATOM     24  H   UNL A   1      38.411  21.416  26.169  1.00  0.00     0.345 HD
ATOM     25  H   UNL A   1      38.396  22.760  27.153  1.00  0.00     0.345 HD
ENDBRANCH  18  22
ENDBRANCH  15  17
ENDBRANCH   6  15
ENDBRANCH   3   5
ENDBRANCH   2   3
ENDBRANCH   1   2
BRANCH   1  26
ATOM     26  C   UNL A   1      31.480  30.195  26.123  1.00  0.00     0.275 C 
BRANCH  26  27
ATOM     27  O   UNL A   1      32.886  30.492  26.203  1.00  0.00    -0.458 OA
BRANCH  27  28
ATOM     28  C   UNL A   1      33.227  31.529  27.000  1.00  0.00     0.338 C 
ATOM     29  O   UNL A   1      32.577  32.528  27.257  1.00  0.00    -0.246 OA
BRANCH  28  30
ATOM     30  C   UNL A   1      34.531  31.240  27.611  1.00  0.00     0.060 A 
ATOM     31  C   UNL A   1      34.813  29.925  27.964  1.00  0.00     0.016 A 
ATOM     32  C   UNL A   1      35.420  32.258  27.942  1.00  0.00     0.016 A 
ATOM     33  C   UNL A   1      35.931  29.626  28.735  1.00  0.00     0.010 A 
ATOM     34  C   UNL A   1      36.610  31.937  28.611  1.00  0.00     0.010 A 
ATOM     35  C   UNL A   1      36.869  30.621  29.043  1.00  0.00    -0.014 A 
BRANCH  35  36
ATOM     36  C   UNL A   1      38.102  30.286  29.815  1.00  0.00     0.031 A 
ATOM     37  C   UNL A   1      39.156  29.389  29.219  1.00  0.00     0.074 A 
ATOM     38  C   UNL A   1      38.292  30.788  31.054  1.00  0.00     0.049 A 
ATOM     39  N   UNL A   1      40.189  28.823  29.796  1.00  0.00    -0.248 NA
ATOM     40  C   UNL A   1      39.027  29.072  27.788  1.00  0.00     0.031 C 
ATOM     41  C   UNL A   1      37.386  31.706  31.746  1.00  0.00     0.029 A 
ATOM     42  N   UNL A   1      39.315  30.601  31.953  1.00  0.00    -0.354 N 
ATOM     43  C   UNL A   1      40.790  28.037  28.819  1.00  0.00     0.074 A 
ATOM     44  C   UNL A   1      40.008  28.198  27.611  1.00  0.00     0.031 C 
ATOM     45  C   UNL A   1      37.912  32.038  32.933  1.00  0.00     0.029 A 
ATOM     46  C   UNL A   1      39.136  31.275  33.139  1.00  0.00     0.049 A 
ATOM     47  H   UNL A   1      40.100  30.037  31.768  1.00  0.00     0.167 HD
ATOM     48  C   UNL A   1      41.888  27.250  28.925  1.00  0.00     0.037 A 
ATOM     49  C   UNL A   1      39.840  31.245  34.286  1.00  0.00     0.037 A 
ATOM     50  C   UNL A   1      42.698  27.141  30.112  1.00  0.00     0.049 A 
ATOM     51  C   UNL A   1      41.030  30.335  34.390  1.00  0.00     0.074 A 
ATOM     52  C   UNL A   1      43.848  26.393  30.306  1.00  0.00     0.029 A 
ATOM     53  N   UNL A   1      42.455  27.813  31.301  1.00  0.00    -0.354 N 
ATOM     54  N   UNL A   1      41.555  29.552  33.481  1.00  0.00    -0.248 NA
ATOM     55  C   UNL A   1      41.712  30.285  35.692  1.00  0.00     0.031 C 
ATOM     56  C   UNL A   1      44.274  26.577  31.625  1.00  0.00     0.029 A 
ATOM     57  C   UNL A   1      43.421  27.480  32.239  1.00  0.00     0.049 A 
ATOM     58  H   UNL A   1      41.707  28.434  31.456  1.00  0.00     0.167 HD
ATOM     59  C   UNL A   1      42.629  28.923  34.092  1.00  0.00     0.074 A 
ATOM     60  C   UNL A   1      42.699  29.436  35.445  1.00  0.00     0.031 C 
ATOM     61  C   UNL A   1      43.476  27.997  33.582  1.00  0.00     0.037 A 
BRANCH  48  62
ATOM     62  C   UNL A   1      42.264  26.407  27.740  1.00  0.00     0.064 A 
ATOM     63  C   UNL A   1      43.252  26.802  26.826  1.00  0.00     0.173 A 
ATOM     64  C   UNL A   1      41.658  25.154  27.549  1.00  0.00     0.173 A 
ATOM     65  F   UNL A   1      43.854  27.993  26.955  1.00  0.00    -0.203 F 
ATOM     66  C   UNL A   1      43.603  25.983  25.754  1.00  0.00     0.198 A 
ATOM     67  C   UNL A   1      42.033  24.326  26.494  1.00  0.00     0.198 A 
ATOM     68  F   UNL A   1      40.715  24.724  28.400  1.00  0.00    -0.203 F 
ATOM     69  F   UNL A   1      44.521  26.399  24.870  1.00  0.00    -0.200 F 
ATOM     70  C   UNL A   1      43.000  24.744  25.593  1.00  0.00     0.200 A 
ATOM     71  F   UNL A   1      41.460  23.124  26.351  1.00  0.00    -0.200 F 
ATOM     72  F   UNL A   1      43.349  23.955  24.568  1.00  0.00    -0.200 F 
ENDBRANCH  48  62
BRANCH  49  73
ATOM     73  C   UNL A   1      39.400  32.063  35.449  1.00  0.00     0.064 A 
ATOM     74  C   UNL A   1      38.546  31.531  36.424  1.00  0.00     0.173 A 
ATOM     75  C   UNL A   1      39.827  33.391  35.610  1.00  0.00     0.173 A 
ATOM     76  F   UNL A   1      38.086  30.277  36.300  1.00  0.00    -0.203 F 
ATOM     77  C   UNL A   1      38.131  32.297  37.512  1.00  0.00     0.198 A 
ATOM     78  C   UNL A   1      39.439  34.144  36.716  1.00  0.00     0.198 A 
ATOM     79  F   UNL A   1      40.641  33.950  34.703  1.00  0.00    -0.203 F 
ATOM     80  F   UNL A   1      37.279  31.779  38.406  1.00  0.00    -0.200 F 
ATOM     81  C   UNL A   1      38.585  33.599  37.662  1.00  0.00     0.200 A 
ATOM     82  F   UNL A   1      39.894  35.395  36.865  1.00  0.00    -0.200 F 
ATOM     83  F   UNL A   1      38.195  34.329  38.714  1.00  0.00    -0.200 F 
ENDBRANCH  49  73
BRANCH  61  84
ATOM     84  C   UNL A   1      44.566  27.500  34.484  1.00  0.00     0.064 A 
ATOM     85  C   UNL A   1      44.403  26.347  35.266  1.00  0.00     0.173 A 
ATOM     86  C   UNL A   1      45.796  28.173  34.551  1.00  0.00     0.173 A 
ATOM     87  F   UNL A   1      43.239  25.680  35.251  1.00  0.00    -0.203 F 
ATOM     88  C   UNL A   1      45.421  25.903  36.105  1.00  0.00     0.198 A 
ATOM     89  C   UNL A   1      46.822  27.708  35.369  1.00  0.00     0.198 A 
ATOM     90  F   UNL A   1      46.003  29.278  33.820  1.00  0.00    -0.203 F 
ATOM     91  F   UNL A   1      45.226  24.829  36.882  1.00  0.00    -0.200 F 
ATOM     92  C   UNL A   1      46.632  26.579  36.151  1.00  0.00     0.200 A 
ATOM     93  F   UNL A   1      47.994  28.358  35.405  1.00  0.00    -0.200 F 
ATOM     94  F   UNL A   1      47.612  26.148  36.957  1.00  0.00    -0.200 F 
ENDBRANCH  61  84
ENDBRANCH  35  36
ENDBRANCH  28  30
ENDBRANCH  27  28
ENDBRANCH  26  27
ENDBRANCH   1  26
TORSDOF 14
ENDMDL
