MODEL 1
REMARK VINA RESULT:     -10.5      0.000      0.000
REMARK SMILES CCOc1cc(NC(=O)c2c(C(=O)OCCOC(=O)c3ccc(-c4c5nc(c(-c6c(F)c(F)c(F)c(F)c6F)c6ccc([nH]6)c(-c6c(F)c(F)c(F)c(F)c6F)c6nc(c(-c7c(F)c(F)c(F)c(F)c7F)c7ccc4[nH]7)C=C6)C=C5)cc3)cnn2C)ccc1OC(F)F
REMARK SMILES IDX 15 1 14 2 12 3 13 4 11 5 10 6 85 7 83 8 84 9 86 10 8 11 7 12
REMARK SMILES IDX 9 14 6 15 4 16 5 17 89 18 88 19 87 20 3 21 2 22 1 23 90 24
REMARK SMILES IDX 91 25 92 26 93 27 16 28 17 29 18 30 19 31 20 32 21 33 82 34
REMARK SMILES IDX 22 35 81 36 23 37 24 38 25 39 75 40 26 41 80 42 74 43 76 44
REMARK SMILES IDX 27 45 79 46 73 47 72 48 28 50 60 51 40 52 59 53 41 54 44 55
REMARK SMILES IDX 58 56 77 57 42 58 43 59 57 61 78 62 45 63 29 64 30 65 38 66
REMARK SMILES IDX 31 67 32 68 36 69 39 70 33 71 34 72 37 73 35 74 61 75 62 76
REMARK SMILES IDX 70 77 63 78 64 79 68 80 71 81 65 82 66 83 69 84 67 85 46 86
REMARK SMILES IDX 47 87 55 88 48 89 49 90 53 91 56 92 50 93 51 94 54 95 52 96
REMARK H PARENT 7 13 76 49 44 60
REMARK Flexibility Score: inf
ROOT
ATOM      1  C   UNL A   1      33.749  34.369  28.536  1.00  0.00     0.275 C 
ENDROOT
BRANCH   1   2
ATOM      2  O   UNL A   1      33.086  34.551  29.802  1.00  0.00    -0.458 OA
BRANCH   2   3
ATOM      3  C   UNL A   1      33.257  35.765  30.401  1.00  0.00     0.342 C 
ATOM      4  O   UNL A   1      32.916  36.829  29.905  1.00  0.00    -0.246 OA
BRANCH   3   5
ATOM      5  C   UNL A   1      33.809  35.694  31.746  1.00  0.00     0.111 A 
ATOM      6  C   UNL A   1      34.333  34.612  32.448  1.00  0.00     0.140 A 
ATOM      7  N   UNL A   1      34.788  35.139  33.635  1.00  0.00    -0.262 N 
ATOM      8  C   UNL A   1      33.953  36.787  32.629  1.00  0.00     0.151 A 
ATOM      9  N   UNL A   1      34.477  36.439  33.802  1.00  0.00    -0.180 NA
ATOM     10  C   UNL A   1      35.618  34.516  34.640  1.00  0.00     0.174 C 
BRANCH   6  11
ATOM     11  C   UNL A   1      34.584  33.287  31.960  1.00  0.00     0.274 C 
ATOM     12  N   UNL A   1      35.707  32.963  31.242  1.00  0.00    -0.321 N 
ATOM     13  H   UNL A   1      35.622  32.085  30.806  1.00  0.00     0.170 HD
ATOM     14  O   UNL A   1      33.753  32.389  32.107  1.00  0.00    -0.267 OA
BRANCH  12  15
ATOM     15  C   UNL A   1      36.948  33.565  30.971  1.00  0.00     0.045 A 
ATOM     16  C   UNL A   1      39.144  34.498  31.486  1.00  0.00     0.163 A 
ATOM     17  C   UNL A   1      37.921  33.927  31.906  1.00  0.00     0.076 A 
ATOM     18  C   UNL A   1      39.434  34.627  30.122  1.00  0.00     0.168 A 
ATOM     19  C   UNL A   1      38.458  34.261  29.195  1.00  0.00     0.053 A 
ATOM     20  C   UNL A   1      37.227  33.756  29.613  1.00  0.00     0.030 A 
BRANCH  16  21
ATOM     21  O   UNL A   1      40.103  34.816  32.410  1.00  0.00    -0.490 OA
BRANCH  21  22
ATOM     22  C   UNL A   1      39.874  34.237  33.701  1.00  0.00     0.226 C 
ATOM     23  C   UNL A   1      39.882  35.351  34.737  1.00  0.00     0.049 C 
ENDBRANCH  21  22
ENDBRANCH  16  21
BRANCH  18  24
ATOM     24  O   UNL A   1      40.608  35.000  29.534  1.00  0.00    -0.431 OA
BRANCH  24  25
ATOM     25  C   UNL A   1      41.828  34.433  29.985  1.00  0.00     0.542 C 
ATOM     26  F   UNL A   1      42.492  33.853  28.960  1.00  0.00    -0.167 F 
ATOM     27  F   UNL A   1      42.606  35.373  30.565  1.00  0.00    -0.167 F 
ENDBRANCH  24  25
ENDBRANCH  18  24
ENDBRANCH  12  15
ENDBRANCH   6  11
ENDBRANCH   3   5
ENDBRANCH   2   3
ENDBRANCH   1   2
BRANCH   1  28
ATOM     28  C   UNL A   1      33.641  32.925  28.035  1.00  0.00     0.275 C 
BRANCH  28  29
ATOM     29  O   UNL A   1      34.704  32.102  28.551  1.00  0.00    -0.458 OA
BRANCH  29  30
ATOM     30  C   UNL A   1      34.696  30.822  28.113  1.00  0.00     0.338 C 
ATOM     31  O   UNL A   1      33.812  30.255  27.493  1.00  0.00    -0.246 OA
BRANCH  30  32
ATOM     32  C   UNL A   1      36.014  30.214  28.340  1.00  0.00     0.060 A 
ATOM     33  C   UNL A   1      36.265  29.700  29.612  1.00  0.00     0.016 A 
ATOM     34  C   UNL A   1      37.023  30.241  27.378  1.00  0.00     0.016 A 
ATOM     35  C   UNL A   1      37.523  29.211  29.940  1.00  0.00     0.010 A 
ATOM     36  C   UNL A   1      38.292  29.744  27.706  1.00  0.00     0.010 A 
ATOM     37  C   UNL A   1      38.554  29.239  28.994  1.00  0.00    -0.014 A 
BRANCH  37  38
ATOM     38  C   UNL A   1      39.916  28.807  29.398  1.00  0.00     0.031 A 
ATOM     39  C   UNL A   1      40.690  29.621  30.397  1.00  0.00     0.074 A 
ATOM     40  C   UNL A   1      40.431  27.658  28.923  1.00  0.00     0.049 A 
ATOM     41  N   UNL A   1      41.917  29.460  30.825  1.00  0.00    -0.248 NA
ATOM     42  C   UNL A   1      39.990  30.769  30.992  1.00  0.00     0.031 C 
ATOM     43  C   UNL A   1      39.752  26.745  28.004  1.00  0.00     0.029 A 
ATOM     44  N   UNL A   1      41.642  27.055  29.158  1.00  0.00    -0.354 N 
ATOM     45  C   UNL A   1      42.148  30.506  31.710  1.00  0.00     0.074 A 
ATOM     46  C   UNL A   1      40.937  31.298  31.755  1.00  0.00     0.031 C 
ATOM     47  C   UNL A   1      40.547  25.689  27.768  1.00  0.00     0.029 A 
ATOM     48  C   UNL A   1      41.814  25.879  28.471  1.00  0.00     0.049 A 
ATOM     49  H   UNL A   1      42.323  27.430  29.762  1.00  0.00     0.167 HD
ATOM     50  C   UNL A   1      43.271  30.777  32.418  1.00  0.00     0.037 A 
ATOM     51  C   UNL A   1      42.882  25.062  28.392  1.00  0.00     0.037 A 
ATOM     52  C   UNL A   1      44.457  29.961  32.405  1.00  0.00     0.049 A 
ATOM     53  C   UNL A   1      44.132  25.416  29.151  1.00  0.00     0.074 A 
ATOM     54  C   UNL A   1      45.637  30.142  33.104  1.00  0.00     0.029 A 
ATOM     55  N   UNL A   1      44.609  28.801  31.658  1.00  0.00    -0.354 N 
ATOM     56  N   UNL A   1      44.354  26.421  29.962  1.00  0.00    -0.248 NA
ATOM     57  C   UNL A   1      45.289  24.527  28.971  1.00  0.00     0.031 C 
ATOM     58  C   UNL A   1      46.519  29.116  32.749  1.00  0.00     0.029 A 
ATOM     59  C   UNL A   1      45.872  28.269  31.864  1.00  0.00     0.049 A 
ATOM     60  H   UNL A   1      43.922  28.415  31.069  1.00  0.00     0.167 HD
ATOM     61  C   UNL A   1      45.660  26.274  30.407  1.00  0.00     0.074 A 
ATOM     62  C   UNL A   1      46.179  25.073  29.787  1.00  0.00     0.031 C 
ATOM     63  C   UNL A   1      46.368  27.066  31.249  1.00  0.00     0.037 A 
BRANCH  50  64
ATOM     64  C   UNL A   1      43.288  32.031  33.241  1.00  0.00     0.064 A 
ATOM     65  C   UNL A   1      42.770  32.075  34.543  1.00  0.00     0.173 A 
ATOM     66  C   UNL A   1      43.875  33.199  32.728  1.00  0.00     0.173 A 
ATOM     67  F   UNL A   1      42.187  30.990  35.074  1.00  0.00    -0.203 F 
ATOM     68  C   UNL A   1      42.820  33.248  35.293  1.00  0.00     0.198 A 
ATOM     69  C   UNL A   1      43.947  34.360  33.490  1.00  0.00     0.198 A 
ATOM     70  F   UNL A   1      44.391  33.207  31.489  1.00  0.00    -0.203 F 
ATOM     71  F   UNL A   1      42.284  33.279  36.522  1.00  0.00    -0.200 F 
ATOM     72  C   UNL A   1      43.415  34.386  34.769  1.00  0.00     0.200 A 
ATOM     73  F   UNL A   1      44.535  35.455  32.986  1.00  0.00    -0.200 F 
ATOM     74  F   UNL A   1      43.471  35.510  35.497  1.00  0.00    -0.200 F 
ENDBRANCH  50  64
BRANCH  51  75
ATOM     75  C   UNL A   1      42.830  23.845  27.541  1.00  0.00     0.064 A 
ATOM     76  C   UNL A   1      42.412  22.614  28.065  1.00  0.00     0.173 A 
ATOM     77  C   UNL A   1      43.215  23.883  26.193  1.00  0.00     0.173 A 
ATOM     78  F   UNL A   1      42.061  22.520  29.355  1.00  0.00    -0.203 F 
ATOM     79  C   UNL A   1      42.397  21.465  27.276  1.00  0.00     0.198 A 
ATOM     80  C   UNL A   1      43.172  22.740  25.398  1.00  0.00     0.198 A 
ATOM     81  F   UNL A   1      43.631  25.035  25.645  1.00  0.00    -0.203 F 
ATOM     82  F   UNL A   1      42.040  20.291  27.815  1.00  0.00    -0.200 F 
ATOM     83  C   UNL A   1      42.770  21.530  25.942  1.00  0.00     0.200 A 
ATOM     84  F   UNL A   1      43.524  22.811  24.107  1.00  0.00    -0.200 F 
ATOM     85  F   UNL A   1      42.754  20.426  25.184  1.00  0.00    -0.200 F 
ENDBRANCH  51  75
BRANCH  63  86
ATOM     86  C   UNL A   1      47.767  26.636  31.580  1.00  0.00     0.064 A 
ATOM     87  C   UNL A   1      48.033  25.741  32.626  1.00  0.00     0.173 A 
ATOM     88  C   UNL A   1      48.850  27.100  30.819  1.00  0.00     0.173 A 
ATOM     89  F   UNL A   1      47.033  25.281  33.393  1.00  0.00    -0.203 F 
ATOM     90  C   UNL A   1      49.338  25.344  32.912  1.00  0.00     0.198 A 
ATOM     91  C   UNL A   1      50.149  26.680  31.091  1.00  0.00     0.198 A 
ATOM     92  F   UNL A   1      48.647  27.953  29.803  1.00  0.00    -0.203 F 
ATOM     93  F   UNL A   1      49.575  24.524  33.946  1.00  0.00    -0.200 F 
ATOM     94  C   UNL A   1      50.393  25.809  32.141  1.00  0.00     0.200 A 
ATOM     95  F   UNL A   1      51.166  27.121  30.337  1.00  0.00    -0.200 F 
ATOM     96  F   UNL A   1      51.646  25.422  32.415  1.00  0.00    -0.200 F 
ENDBRANCH  63  86
ENDBRANCH  37  38
ENDBRANCH  30  32
ENDBRANCH  29  30
ENDBRANCH  28  29
ENDBRANCH   1  28
TORSDOF 17
ENDMDL
MODEL 2
REMARK VINA RESULT:     -10.2      4.547      7.751
REMARK SMILES CCOc1cc(NC(=O)c2c(C(=O)OCCOC(=O)c3ccc(-c4c5nc(c(-c6c(F)c(F)c(F)c(F)c6F)c6ccc([nH]6)c(-c6c(F)c(F)c(F)c(F)c6F)c6nc(c(-c7c(F)c(F)c(F)c(F)c7F)c7ccc4[nH]7)C=C6)C=C5)cc3)cnn2C)ccc1OC(F)F
REMARK SMILES IDX 15 1 14 2 12 3 13 4 11 5 10 6 85 7 83 8 84 9 86 10 8 11 7 12
REMARK SMILES IDX 9 14 6 15 4 16 5 17 89 18 88 19 87 20 3 21 2 22 1 23 90 24
REMARK SMILES IDX 91 25 92 26 93 27 16 28 17 29 18 30 19 31 20 32 21 33 82 34
REMARK SMILES IDX 22 35 81 36 23 37 24 38 25 39 75 40 26 41 80 42 74 43 76 44
REMARK SMILES IDX 27 45 79 46 73 47 72 48 28 50 60 51 40 52 59 53 41 54 44 55
REMARK SMILES IDX 58 56 77 57 42 58 43 59 57 61 78 62 45 63 29 64 30 65 38 66
REMARK SMILES IDX 31 67 32 68 36 69 39 70 33 71 34 72 37 73 35 74 61 75 62 76
REMARK SMILES IDX 70 77 63 78 64 79 68 80 71 81 65 82 66 83 69 84 67 85 46 86
REMARK SMILES IDX 47 87 55 88 48 89 49 90 53 91 56 92 50 93 51 94 54 95 52 96
REMARK H PARENT 7 13 76 49 44 60
REMARK Flexibility Score: inf
ROOT
ATOM      1  C   UNL A   1      31.792  30.753  26.657  1.00  0.00     0.275 C 
ENDROOT
BRANCH   1   2
ATOM      2  O   UNL A   1      32.721  30.478  25.590  1.00  0.00    -0.458 OA
BRANCH   2   3
ATOM      3  C   UNL A   1      33.002  29.163  25.361  1.00  0.00     0.342 C 
ATOM      4  O   UNL A   1      34.034  28.611  25.711  1.00  0.00    -0.246 OA
BRANCH   3   5
ATOM      5  C   UNL A   1      31.918  28.424  24.731  1.00  0.00     0.111 A 
ATOM      6  C   UNL A   1      31.176  27.342  25.195  1.00  0.00     0.140 A 
ATOM      7  N   UNL A   1      30.229  27.111  24.224  1.00  0.00    -0.262 N 
ATOM      8  C   UNL A   1      31.366  28.708  23.462  1.00  0.00     0.151 A 
ATOM      9  N   UNL A   1      30.392  27.867  23.121  1.00  0.00    -0.180 NA
ATOM     10  C   UNL A   1      29.064  26.258  24.284  1.00  0.00     0.174 C 
BRANCH   6  11
ATOM     11  C   UNL A   1      31.208  26.751  26.502  1.00  0.00     0.274 C 
ATOM     12  N   UNL A   1      31.569  25.446  26.717  1.00  0.00    -0.321 N 
ATOM     13  H   UNL A   1      31.332  25.144  27.623  1.00  0.00     0.170 HD
ATOM     14  O   UNL A   1      30.836  27.384  27.493  1.00  0.00    -0.267 OA
BRANCH  12  15
ATOM     15  C   UNL A   1      32.190  24.429  25.972  1.00  0.00     0.045 A 
ATOM     16  C   UNL A   1      34.034  23.267  24.871  1.00  0.00     0.163 A 
ATOM     17  C   UNL A   1      33.534  24.373  25.597  1.00  0.00     0.076 A 
ATOM     18  C   UNL A   1      33.208  22.170  24.597  1.00  0.00     0.168 A 
ATOM     19  C   UNL A   1      31.868  22.232  24.978  1.00  0.00     0.053 A 
ATOM     20  C   UNL A   1      31.362  23.351  25.638  1.00  0.00     0.030 A 
BRANCH  16  21
ATOM     21  O   UNL A   1      35.360  23.209  24.540  1.00  0.00    -0.490 OA
BRANCH  21  22
ATOM     22  C   UNL A   1      36.194  22.689  25.584  1.00  0.00     0.226 C 
ATOM     23  C   UNL A   1      37.251  23.730  25.920  1.00  0.00     0.049 C 
ENDBRANCH  21  22
ENDBRANCH  16  21
BRANCH  18  24
ATOM     24  O   UNL A   1      33.549  20.963  24.058  1.00  0.00    -0.431 OA
BRANCH  24  25
ATOM     25  C   UNL A   1      33.693  19.834  24.906  1.00  0.00     0.542 C 
ATOM     26  F   UNL A   1      34.675  19.021  24.455  1.00  0.00    -0.167 F 
ATOM     27  F   UNL A   1      33.960  20.219  26.174  1.00  0.00    -0.167 F 
ENDBRANCH  24  25
ENDBRANCH  18  24
ENDBRANCH  12  15
ENDBRANCH   6  11
ENDBRANCH   3   5
ENDBRANCH   2   3
ENDBRANCH   1   2
BRANCH   1  28
ATOM     28  C   UNL A   1      31.598  32.257  26.876  1.00  0.00     0.275 C 
BRANCH  28  29
ATOM     29  O   UNL A   1      32.832  32.981  26.710  1.00  0.00    -0.458 OA
BRANCH  29  30
ATOM     30  C   UNL A   1      33.268  33.623  27.818  1.00  0.00     0.338 C 
ATOM     31  O   UNL A   1      32.693  34.497  28.445  1.00  0.00    -0.246 OA
BRANCH  30  32
ATOM     32  C   UNL A   1      34.507  32.996  28.298  1.00  0.00     0.060 A 
ATOM     33  C   UNL A   1      34.430  31.660  28.694  1.00  0.00     0.016 A 
ATOM     34  C   UNL A   1      35.690  33.716  28.467  1.00  0.00     0.016 A 
ATOM     35  C   UNL A   1      35.529  31.030  29.265  1.00  0.00     0.010 A 
ATOM     36  C   UNL A   1      36.800  33.079  29.039  1.00  0.00     0.010 A 
ATOM     37  C   UNL A   1      36.722  31.736  29.454  1.00  0.00    -0.014 A 
BRANCH  37  38
ATOM     38  C   UNL A   1      37.848  31.073  30.159  1.00  0.00     0.031 A 
ATOM     39  C   UNL A   1      38.086  31.357  31.616  1.00  0.00     0.074 A 
ATOM     40  C   UNL A   1      38.613  30.171  29.516  1.00  0.00     0.049 A 
ATOM     41  N   UNL A   1      39.054  30.942  32.395  1.00  0.00    -0.248 NA
ATOM     42  C   UNL A   1      37.105  32.222  32.285  1.00  0.00     0.031 C 
ATOM     43  C   UNL A   1      38.440  29.758  28.124  1.00  0.00     0.029 A 
ATOM     44  N   UNL A   1      39.684  29.431  29.953  1.00  0.00    -0.354 N 
ATOM     45  C   UNL A   1      38.819  31.526  33.633  1.00  0.00     0.074 A 
ATOM     46  C   UNL A   1      37.621  32.327  33.502  1.00  0.00     0.031 C 
ATOM     47  C   UNL A   1      39.358  28.824  27.827  1.00  0.00     0.029 A 
ATOM     48  C   UNL A   1      40.222  28.618  28.986  1.00  0.00     0.049 A 
ATOM     49  H   UNL A   1      40.033  29.479  30.872  1.00  0.00     0.167 HD
ATOM     50  C   UNL A   1      39.541  31.402  34.773  1.00  0.00     0.037 A 
ATOM     51  C   UNL A   1      41.305  27.819  29.023  1.00  0.00     0.037 A 
ATOM     52  C   UNL A   1      40.706  30.569  34.910  1.00  0.00     0.049 A 
ATOM     53  C   UNL A   1      42.117  27.741  30.287  1.00  0.00     0.074 A 
ATOM     54  C   UNL A   1      41.493  30.362  36.030  1.00  0.00     0.029 A 
ATOM     55  N   UNL A   1      41.248  29.795  33.893  1.00  0.00    -0.354 N 
ATOM     56  N   UNL A   1      41.905  28.318  31.445  1.00  0.00    -0.248 NA
ATOM     57  C   UNL A   1      43.328  26.909  30.246  1.00  0.00     0.031 C 
ATOM     58  C   UNL A   1      42.535  29.497  35.680  1.00  0.00     0.029 A 
ATOM     59  C   UNL A   1      42.371  29.127  34.355  1.00  0.00     0.049 A 
ATOM     60  H   UNL A   1      40.888  29.731  32.979  1.00  0.00     0.167 HD
ATOM     61  C   UNL A   1      42.938  27.903  32.274  1.00  0.00     0.074 A 
ATOM     62  C   UNL A   1      43.770  27.012  31.492  1.00  0.00     0.031 C 
ATOM     63  C   UNL A   1      43.179  28.234  33.567  1.00  0.00     0.037 A 
BRANCH  50  64
ATOM     64  C   UNL A   1      39.115  32.219  35.957  1.00  0.00     0.064 A 
ATOM     65  C   UNL A   1      38.260  31.709  36.944  1.00  0.00     0.173 A 
ATOM     66  C   UNL A   1      39.610  33.522  36.126  1.00  0.00     0.173 A 
ATOM     67  F   UNL A   1      37.750  30.475  36.823  1.00  0.00    -0.203 F 
ATOM     68  C   UNL A   1      37.900  32.482  38.046  1.00  0.00     0.198 A 
ATOM     69  C   UNL A   1      39.270  34.280  37.241  1.00  0.00     0.198 A 
ATOM     70  F   UNL A   1      40.437  34.054  35.212  1.00  0.00    -0.203 F 
ATOM     71  F   UNL A   1      37.050  31.989  38.959  1.00  0.00    -0.200 F 
ATOM     72  C   UNL A   1      38.410  33.762  38.197  1.00  0.00     0.200 A 
ATOM     73  F   UNL A   1      39.775  35.513  37.392  1.00  0.00    -0.200 F 
ATOM     74  F   UNL A   1      38.070  34.500  39.264  1.00  0.00    -0.200 F 
ENDBRANCH  50  64
BRANCH  51  75
ATOM     75  C   UNL A   1      41.707  27.051  27.815  1.00  0.00     0.064 A 
ATOM     76  C   UNL A   1      41.193  25.770  27.569  1.00  0.00     0.173 A 
ATOM     77  C   UNL A   1      42.628  27.572  26.894  1.00  0.00     0.173 A 
ATOM     78  F   UNL A   1      40.332  25.216  28.435  1.00  0.00    -0.203 F 
ATOM     79  C   UNL A   1      41.596  25.035  26.456  1.00  0.00     0.198 A 
ATOM     80  C   UNL A   1      43.007  26.848  25.766  1.00  0.00     0.198 A 
ATOM     81  F   UNL A   1      43.156  28.790  27.088  1.00  0.00    -0.203 F 
ATOM     82  F   UNL A   1      41.126  23.794  26.270  1.00  0.00    -0.200 F 
ATOM     83  C   UNL A   1      42.497  25.578  25.552  1.00  0.00     0.200 A 
ATOM     84  F   UNL A   1      43.871  27.381  24.891  1.00  0.00    -0.200 F 
ATOM     85  F   UNL A   1      42.884  24.871  24.481  1.00  0.00    -0.200 F 
ENDBRANCH  51  75
BRANCH  63  86
ATOM     86  C   UNL A   1      44.368  27.599  34.226  1.00  0.00     0.064 A 
ATOM     87  C   UNL A   1      44.281  26.347  34.851  1.00  0.00     0.173 A 
ATOM     88  C   UNL A   1      45.617  28.238  34.203  1.00  0.00     0.173 A 
ATOM     89  F   UNL A   1      43.105  25.704  34.913  1.00  0.00    -0.203 F 
ATOM     90  C   UNL A   1      45.397  25.767  35.449  1.00  0.00     0.198 A 
ATOM     91  C   UNL A   1      46.736  27.643  34.778  1.00  0.00     0.198 A 
ATOM     92  F   UNL A   1      45.754  29.434  33.612  1.00  0.00    -0.203 F 
ATOM     93  F   UNL A   1      45.281  24.590  36.081  1.00  0.00    -0.200 F 
ATOM     94  C   UNL A   1      46.625  26.412  35.406  1.00  0.00     0.200 A 
ATOM     95  F   UNL A   1      47.924  28.262  34.725  1.00  0.00    -0.200 F 
ATOM     96  F   UNL A   1      47.698  25.851  35.978  1.00  0.00    -0.200 F 
ENDBRANCH  63  86
ENDBRANCH  37  38
ENDBRANCH  30  32
ENDBRANCH  29  30
ENDBRANCH  28  29
ENDBRANCH   1  28
TORSDOF 17
ENDMDL
MODEL 3
REMARK VINA RESULT:     -10.2      4.465      7.870
REMARK SMILES CCOc1cc(NC(=O)c2c(C(=O)OCCOC(=O)c3ccc(-c4c5nc(c(-c6c(F)c(F)c(F)c(F)c6F)c6ccc([nH]6)c(-c6c(F)c(F)c(F)c(F)c6F)c6nc(c(-c7c(F)c(F)c(F)c(F)c7F)c7ccc4[nH]7)C=C6)C=C5)cc3)cnn2C)ccc1OC(F)F
REMARK SMILES IDX 15 1 14 2 12 3 13 4 11 5 10 6 85 7 83 8 84 9 86 10 8 11 7 12
REMARK SMILES IDX 9 14 6 15 4 16 5 17 89 18 88 19 87 20 3 21 2 22 1 23 90 24
REMARK SMILES IDX 91 25 92 26 93 27 16 28 17 29 18 30 19 31 20 32 21 33 82 34
REMARK SMILES IDX 22 35 81 36 23 37 24 38 25 39 75 40 26 41 80 42 74 43 76 44
REMARK SMILES IDX 27 45 79 46 73 47 72 48 28 50 60 51 40 52 59 53 41 54 44 55
REMARK SMILES IDX 58 56 77 57 42 58 43 59 57 61 78 62 45 63 29 64 30 65 38 66
REMARK SMILES IDX 31 67 32 68 36 69 39 70 33 71 34 72 37 73 35 74 61 75 62 76
REMARK SMILES IDX 70 77 63 78 64 79 68 80 71 81 65 82 66 83 69 84 67 85 46 86
REMARK SMILES IDX 47 87 55 88 48 89 49 90 53 91 56 92 50 93 51 94 54 95 52 96
REMARK H PARENT 7 13 76 49 44 60
REMARK Flexibility Score: inf
ROOT
ATOM      1  C   UNL A   1      31.397  29.429  25.199  1.00  0.00     0.275 C 
ENDROOT
BRANCH   1   2
ATOM      2  O   UNL A   1      31.570  28.069  25.644  1.00  0.00    -0.458 OA
BRANCH   2   3
ATOM      3  C   UNL A   1      32.778  27.496  25.372  1.00  0.00     0.342 C 
ATOM      4  O   UNL A   1      33.619  27.235  26.218  1.00  0.00    -0.246 OA
BRANCH   3   5
ATOM      5  C   UNL A   1      32.963  27.129  23.975  1.00  0.00     0.111 A 
ATOM      6  C   UNL A   1      32.430  26.072  23.244  1.00  0.00     0.140 A 
ATOM      7  N   UNL A   1      32.871  26.267  21.955  1.00  0.00    -0.262 N 
ATOM      8  C   UNL A   1      33.742  27.845  23.040  1.00  0.00     0.151 A 
ATOM      9  N   UNL A   1      33.748  27.282  21.833  1.00  0.00    -0.180 NA
ATOM     10  C   UNL A   1      32.444  25.603  20.745  1.00  0.00     0.174 C 
BRANCH   6  11
ATOM     11  C   UNL A   1      31.435  25.128  23.663  1.00  0.00     0.274 C 
ATOM     12  N   UNL A   1      31.743  23.848  24.047  1.00  0.00    -0.321 N 
ATOM     13  H   UNL A   1      30.943  23.276  24.093  1.00  0.00     0.170 HD
ATOM     14  O   UNL A   1      30.236  25.411  23.625  1.00  0.00    -0.267 OA
BRANCH  12  15
ATOM     15  C   UNL A   1      32.910  23.144  24.391  1.00  0.00     0.045 A 
ATOM     16  C   UNL A   1      35.042  22.757  25.517  1.00  0.00     0.163 A 
ATOM     17  C   UNL A   1      33.934  23.588  25.231  1.00  0.00     0.076 A 
ATOM     18  C   UNL A   1      35.083  21.444  25.033  1.00  0.00     0.168 A 
ATOM     19  C   UNL A   1      34.056  21.007  24.197  1.00  0.00     0.053 A 
ATOM     20  C   UNL A   1      32.996  21.850  23.865  1.00  0.00     0.030 A 
BRANCH  16  21
ATOM     21  O   UNL A   1      36.020  23.191  26.368  1.00  0.00    -0.490 OA
BRANCH  21  22
ATOM     22  C   UNL A   1      36.947  24.104  25.765  1.00  0.00     0.226 C 
ATOM     23  C   UNL A   1      38.279  23.989  26.491  1.00  0.00     0.049 C 
ENDBRANCH  21  22
ENDBRANCH  16  21
BRANCH  18  24
ATOM     24  O   UNL A   1      35.977  20.456  25.331  1.00  0.00    -0.431 OA
BRANCH  24  25
ATOM     25  C   UNL A   1      37.341  20.614  24.973  1.00  0.00     0.542 C 
ATOM     26  F   UNL A   1      37.925  19.411  24.773  1.00  0.00    -0.167 F 
ATOM     27  F   UNL A   1      37.458  21.373  23.861  1.00  0.00    -0.167 F 
ENDBRANCH  24  25
ENDBRANCH  18  24
ENDBRANCH  12  15
ENDBRANCH   6  11
ENDBRANCH   3   5
ENDBRANCH   2   3
ENDBRANCH   1   2
BRANCH   1  28
ATOM     28  C   UNL A   1      31.765  30.440  26.288  1.00  0.00     0.275 C 
BRANCH  28  29
ATOM     29  O   UNL A   1      33.169  30.760  26.264  1.00  0.00    -0.458 OA
BRANCH  29  30
ATOM     30  C   UNL A   1      33.566  31.650  27.203  1.00  0.00     0.338 C 
ATOM     31  O   UNL A   1      32.923  32.576  27.668  1.00  0.00    -0.246 OA
BRANCH  30  32
ATOM     32  C   UNL A   1      34.872  31.250  27.743  1.00  0.00     0.060 A 
ATOM     33  C   UNL A   1      35.029  29.909  28.096  1.00  0.00     0.016 A 
ATOM     34  C   UNL A   1      35.885  32.172  28.007  1.00  0.00     0.016 A 
ATOM     35  C   UNL A   1      36.193  29.475  28.718  1.00  0.00     0.010 A 
ATOM     36  C   UNL A   1      37.062  31.735  28.630  1.00  0.00     0.010 A 
ATOM     37  C   UNL A   1      37.217  30.386  29.002  1.00  0.00    -0.014 A 
BRANCH  37  38
ATOM     38  C   UNL A   1      38.407  29.920  29.759  1.00  0.00     0.031 A 
ATOM     39  C   UNL A   1      38.632  30.403  31.164  1.00  0.00     0.074 A 
ATOM     40  C   UNL A   1      39.245  29.018  29.215  1.00  0.00     0.049 A 
ATOM     41  N   UNL A   1      39.642  30.177  31.967  1.00  0.00    -0.248 NA
ATOM     42  C   UNL A   1      37.582  31.254  31.743  1.00  0.00     0.031 C 
ATOM     43  C   UNL A   1      39.096  28.420  27.889  1.00  0.00     0.029 A 
ATOM     44  N   UNL A   1      40.384  28.437  29.717  1.00  0.00    -0.354 N 
ATOM     45  C   UNL A   1      39.367  30.887  33.129  1.00  0.00     0.074 A 
ATOM     46  C   UNL A   1      38.099  31.555  32.927  1.00  0.00     0.031 C 
ATOM     47  C   UNL A   1      40.093  27.544  27.689  1.00  0.00     0.029 A 
ATOM     48  C   UNL A   1      40.984  27.562  28.846  1.00  0.00     0.049 A 
ATOM     49  H   UNL A   1      40.737  28.631  30.615  1.00  0.00     0.167 HD
ATOM     50  C   UNL A   1      40.109  30.972  34.259  1.00  0.00     0.037 A 
ATOM     51  C   UNL A   1      42.137  26.875  28.957  1.00  0.00     0.037 A 
ATOM     52  C   UNL A   1      41.348  30.271  34.473  1.00  0.00     0.049 A 
ATOM     53  C   UNL A   1      42.965  27.028  30.204  1.00  0.00     0.074 A 
ATOM     54  C   UNL A   1      42.161  30.277  35.592  1.00  0.00     0.029 A 
ATOM     55  N   UNL A   1      41.948  29.429  33.547  1.00  0.00    -0.354 N 
ATOM     56  N   UNL A   1      42.713  27.723  31.287  1.00  0.00    -0.248 NA
ATOM     57  C   UNL A   1      44.247  26.310  30.240  1.00  0.00     0.031 C 
ATOM     58  C   UNL A   1      43.275  29.472  35.329  1.00  0.00     0.029 A 
ATOM     59  C   UNL A   1      43.133  28.927  34.064  1.00  0.00     0.049 A 
ATOM     60  H   UNL A   1      41.586  29.219  32.656  1.00  0.00     0.167 HD
ATOM     61  C   UNL A   1      43.788  27.510  32.137  1.00  0.00     0.074 A 
ATOM     62  C   UNL A   1      44.690  26.606  31.453  1.00  0.00     0.031 C 
ATOM     63  C   UNL A   1      44.011  28.020  33.374  1.00  0.00     0.037 A 
BRANCH  50  64
ATOM     64  C   UNL A   1      39.622  31.888  35.343  1.00  0.00     0.064 A 
ATOM     65  C   UNL A   1      40.040  33.223  35.433  1.00  0.00     0.173 A 
ATOM     66  C   UNL A   1      38.685  31.429  36.282  1.00  0.00     0.173 A 
ATOM     67  F   UNL A   1      40.943  33.707  34.568  1.00  0.00    -0.203 F 
ATOM     68  C   UNL A   1      39.554  34.058  36.436  1.00  0.00     0.198 A 
ATOM     69  C   UNL A   1      38.181  32.274  37.266  1.00  0.00     0.198 A 
ATOM     70  F   UNL A   1      38.249  30.160  36.236  1.00  0.00    -0.203 F 
ATOM     71  F   UNL A   1      39.996  35.321  36.527  1.00  0.00    -0.200 F 
ATOM     72  C   UNL A   1      38.620  33.586  37.346  1.00  0.00     0.200 A 
ATOM     73  F   UNL A   1      37.269  31.817  38.136  1.00  0.00    -0.200 F 
ATOM     74  F   UNL A   1      38.146  34.394  38.304  1.00  0.00    -0.200 F 
ENDBRANCH  50  64
BRANCH  51  75
ATOM     75  C   UNL A   1      42.595  26.001  27.845  1.00  0.00     0.064 A 
ATOM     76  C   UNL A   1      43.491  26.475  26.877  1.00  0.00     0.173 A 
ATOM     77  C   UNL A   1      42.131  24.684  27.715  1.00  0.00     0.173 A 
ATOM     78  F   UNL A   1      43.940  27.737  26.940  1.00  0.00    -0.203 F 
ATOM     79  C   UNL A   1      43.894  25.668  25.814  1.00  0.00     0.198 A 
ATOM     80  C   UNL A   1      42.557  23.869  26.669  1.00  0.00     0.198 A 
ATOM     81  F   UNL A   1      41.266  24.185  28.611  1.00  0.00    -0.203 F 
ATOM     82  F   UNL A   1      44.713  26.162  24.875  1.00  0.00    -0.200 F 
ATOM     83  C   UNL A   1      43.432  24.364  25.715  1.00  0.00     0.200 A 
ATOM     84  F   UNL A   1      42.116  22.607  26.584  1.00  0.00    -0.200 F 
ATOM     85  F   UNL A   1      43.821  23.589  24.694  1.00  0.00    -0.200 F 
ENDBRANCH  51  75
BRANCH  63  86
ATOM     86  C   UNL A   1      45.260  27.581  34.081  1.00  0.00     0.064 A 
ATOM     87  C   UNL A   1      46.457  28.304  33.975  1.00  0.00     0.173 A 
ATOM     88  C   UNL A   1      45.248  26.444  34.902  1.00  0.00     0.173 A 
ATOM     89  F   UNL A   1      46.524  29.389  33.189  1.00  0.00    -0.203 F 
ATOM     90  C   UNL A   1      47.605  27.888  34.647  1.00  0.00     0.198 A 
ATOM     91  C   UNL A   1      46.389  26.048  35.594  1.00  0.00     0.198 A 
ATOM     92  F   UNL A   1      44.126  25.722  35.042  1.00  0.00    -0.203 F 
ATOM     93  F   UNL A   1      48.751  28.567  34.494  1.00  0.00    -0.200 F 
ATOM     94  C   UNL A   1      47.568  26.765  35.460  1.00  0.00     0.200 A 
ATOM     95  F   UNL A   1      46.348  24.969  36.388  1.00  0.00    -0.200 F 
ATOM     96  F   UNL A   1      48.671  26.370  36.109  1.00  0.00    -0.200 F 
ENDBRANCH  63  86
ENDBRANCH  37  38
ENDBRANCH  30  32
ENDBRANCH  29  30
ENDBRANCH  28  29
ENDBRANCH   1  28
TORSDOF 17
ENDMDL
