MODEL 1
REMARK VINA RESULT:     -12.8      0.000      0.000
REMARK SMILES O=C(C[NH+]1CCN(c2ncc(C(F)(F)F)cc2Cl)CC1)OCCOC(=O)c1ccc(-c2c3nc(c(-c4c(F)c(F)c(F)c(F)c4F)c4ccc([nH]4)c(-c4c(F)c(F)c(F)c(F)c4F)c4nc(c(-c5c(F)c(F)c(F)c(F)c5F)c5ccc2[nH]5)C=C4)C=C3)cc1
REMARK SMILES IDX 22 1 21 2 2 3 1 4 3 5 4 6 5 7 20 8 6 10 19 11 7 12 8 13 9 14
REMARK SMILES IDX 17 15 10 16 16 17 18 18 11 19 12 20 13 21 14 22 15 23 23 24
REMARK SMILES IDX 24 25 25 26 26 27 27 28 28 29 89 30 29 31 88 32 30 33 31 34
REMARK SMILES IDX 32 35 82 36 33 37 87 38 81 39 83 40 34 41 86 42 80 43 79 44
REMARK SMILES IDX 35 46 67 47 47 48 66 49 48 50 51 51 65 52 84 53 49 54 50 55
REMARK SMILES IDX 64 57 85 58 52 59 36 60 37 61 45 62 38 63 39 64 43 65 46 66
REMARK SMILES IDX 40 67 41 68 44 69 42 70 68 71 69 72 77 73 70 74 71 75 75 76
REMARK SMILES IDX 78 77 72 78 73 79 76 80 74 81 53 82 54 83 62 84 55 85 56 86
REMARK SMILES IDX 60 87 63 88 57 89 58 90 61 91 59 92
REMARK H PARENT 4 9 83 45 51 56
REMARK Flexibility Score: inf
ROOT
ATOM      1  C   UNL A   1      31.426  29.217  25.533  1.00  0.00     0.274 C 
ENDROOT
BRANCH   1   2
ATOM      2  O   UNL A   1      31.704  27.848  25.198  1.00  0.00    -0.458 OA
BRANCH   2   3
ATOM      3  C   UNL A   1      31.523  26.920  26.181  1.00  0.00     0.361 C 
ATOM      4  O   UNL A   1      31.026  27.227  27.260  1.00  0.00    -0.245 OA
BRANCH   3   5
ATOM      5  C   UNL A   1      32.209  25.577  25.923  1.00  0.00     0.386 C 
BRANCH   5   6
ATOM      6  N   UNL A   1      31.261  24.480  25.631  1.00  0.00    -0.323 N 
ATOM      7  C   UNL A   1      31.519  23.829  24.320  1.00  0.00     0.284 C 
ATOM      8  C   UNL A   1      31.352  23.424  26.677  1.00  0.00     0.284 C 
ATOM      9  H   UNL A   1      30.336  24.908  25.613  1.00  0.00     0.348 HD
ATOM     10  C   UNL A   1      32.847  23.034  24.212  1.00  0.00     0.179 C 
ATOM     11  C   UNL A   1      32.648  22.572  26.653  1.00  0.00     0.179 C 
ATOM     12  N   UNL A   1      32.905  22.076  25.306  1.00  0.00    -0.344 N 
BRANCH  12  13
ATOM     13  C   UNL A   1      33.203  20.772  24.999  1.00  0.00     0.147 A 
ATOM     14  N   UNL A   1      32.154  19.908  24.999  1.00  0.00    -0.237 NA
ATOM     15  C   UNL A   1      34.511  20.301  24.806  1.00  0.00     0.084 A 
ATOM     16  C   UNL A   1      32.393  18.588  24.805  1.00  0.00     0.126 A 
ATOM     17  C   UNL A   1      34.731  18.934  24.626  1.00  0.00     0.039 A 
ATOM     18  Cl  UNL A   1      35.913  21.307  24.914  1.00  0.00    -0.080 Cl
ATOM     19  C   UNL A   1      33.655  18.048  24.632  1.00  0.00     0.075 A 
BRANCH  19  20
ATOM     20  C   UNL A   1      33.827  16.570  24.484  1.00  0.00     0.417 C 
ATOM     21  F   UNL A   1      32.708  15.880  24.836  1.00  0.00    -0.166 F 
ATOM     22  F   UNL A   1      34.108  16.204  23.205  1.00  0.00    -0.166 F 
ATOM     23  F   UNL A   1      34.833  16.065  25.250  1.00  0.00    -0.166 F 
ENDBRANCH  19  20
ENDBRANCH  12  13
ENDBRANCH   5   6
ENDBRANCH   3   5
ENDBRANCH   2   3
ENDBRANCH   1   2
BRANCH   1  24
ATOM     24  C   UNL A   1      32.689  30.021  25.859  1.00  0.00     0.275 C 
BRANCH  24  25
ATOM     25  O   UNL A   1      32.755  30.358  27.255  1.00  0.00    -0.458 OA
BRANCH  25  26
ATOM     26  C   UNL A   1      33.489  31.468  27.525  1.00  0.00     0.338 C 
ATOM     27  O   UNL A   1      33.068  32.610  27.623  1.00  0.00    -0.246 OA
BRANCH  26  28
ATOM     28  C   UNL A   1      34.883  31.099  27.864  1.00  0.00     0.060 A 
ATOM     29  C   UNL A   1      35.156  29.739  28.062  1.00  0.00     0.016 A 
ATOM     30  C   UNL A   1      35.907  32.041  28.001  1.00  0.00     0.016 A 
ATOM     31  C   UNL A   1      36.424  29.328  28.474  1.00  0.00     0.010 A 
ATOM     32  C   UNL A   1      37.183  31.627  28.408  1.00  0.00     0.010 A 
ATOM     33  C   UNL A   1      37.432  30.275  28.700  1.00  0.00    -0.014 A 
BRANCH  33  34
ATOM     34  C   UNL A   1      38.652  29.855  29.442  1.00  0.00     0.031 A 
ATOM     35  C   UNL A   1      38.865  30.388  30.835  1.00  0.00     0.074 A 
ATOM     36  C   UNL A   1      39.518  28.959  28.936  1.00  0.00     0.049 A 
ATOM     37  N   UNL A   1      39.772  30.064  31.722  1.00  0.00    -0.248 NA
ATOM     38  C   UNL A   1      37.927  31.426  31.289  1.00  0.00     0.031 C 
ATOM     39  C   UNL A   1      39.437  28.354  27.609  1.00  0.00     0.029 A 
ATOM     40  N   UNL A   1      40.638  28.392  29.498  1.00  0.00    -0.354 N 
ATOM     41  C   UNL A   1      39.503  30.845  32.839  1.00  0.00     0.074 A 
ATOM     42  C   UNL A   1      38.387  31.700  32.500  1.00  0.00     0.031 C 
ATOM     43  C   UNL A   1      40.460  27.491  27.461  1.00  0.00     0.029 A 
ATOM     44  C   UNL A   1      41.268  27.485  28.682  1.00  0.00     0.049 A 
ATOM     45  H   UNL A   1      40.958  28.616  30.401  1.00  0.00     0.167 HD
ATOM     46  C   UNL A   1      40.111  30.839  34.049  1.00  0.00     0.037 A 
ATOM     47  C   UNL A   1      42.361  26.728  28.901  1.00  0.00     0.037 A 
ATOM     48  C   UNL A   1      41.222  29.998  34.401  1.00  0.00     0.049 A 
ATOM     49  C   UNL A   1      43.051  26.774  30.243  1.00  0.00     0.074 A 
ATOM     50  C   UNL A   1      41.884  29.905  35.614  1.00  0.00     0.029 A 
ATOM     51  N   UNL A   1      41.844  29.111  33.537  1.00  0.00    -0.354 N 
ATOM     52  N   UNL A   1      42.737  27.455  31.318  1.00  0.00    -0.248 NA
ATOM     53  C   UNL A   1      44.241  25.923  30.404  1.00  0.00     0.031 C 
ATOM     54  C   UNL A   1      42.936  28.994  35.469  1.00  0.00     0.029 A 
ATOM     55  C   UNL A   1      42.897  28.483  34.182  1.00  0.00     0.049 A 
ATOM     56  H   UNL A   1      41.576  28.951  32.603  1.00  0.00     0.167 HD
ATOM     57  C   UNL A   1      43.656  27.079  32.292  1.00  0.00     0.074 A 
ATOM     58  C   UNL A   1      44.539  26.109  31.682  1.00  0.00     0.031 C 
ATOM     59  C   UNL A   1      43.754  27.496  33.578  1.00  0.00     0.037 A 
BRANCH  46  60
ATOM     60  C   UNL A   1      39.583  31.787  35.084  1.00  0.00     0.064 A 
ATOM     61  C   UNL A   1      39.986  33.130  35.122  1.00  0.00     0.173 A 
ATOM     62  C   UNL A   1      38.650  31.352  36.037  1.00  0.00     0.173 A 
ATOM     63  F   UNL A   1      40.889  33.589  34.242  1.00  0.00    -0.203 F 
ATOM     64  C   UNL A   1      39.498  33.996  36.095  1.00  0.00     0.198 A 
ATOM     65  C   UNL A   1      38.143  32.229  36.992  1.00  0.00     0.198 A 
ATOM     66  F   UNL A   1      38.230  30.079  36.040  1.00  0.00    -0.203 F 
ATOM     67  F   UNL A   1      39.936  35.262  36.146  1.00  0.00    -0.200 F 
ATOM     68  C   UNL A   1      38.573  33.547  37.026  1.00  0.00     0.200 A 
ATOM     69  F   UNL A   1      37.241  31.796  37.884  1.00  0.00    -0.200 F 
ATOM     70  F   UNL A   1      38.102  34.382  37.962  1.00  0.00    -0.200 F 
ENDBRANCH  46  60
BRANCH  47  71
ATOM     71  C   UNL A   1      42.868  25.820  27.839  1.00  0.00     0.064 A 
ATOM     72  C   UNL A   1      43.800  26.268  26.891  1.00  0.00     0.173 A 
ATOM     73  C   UNL A   1      42.389  24.509  27.715  1.00  0.00     0.173 A 
ATOM     74  F   UNL A   1      44.265  27.525  26.952  1.00  0.00    -0.203 F 
ATOM     75  C   UNL A   1      44.213  25.447  25.844  1.00  0.00     0.198 A 
ATOM     76  C   UNL A   1      42.822  23.680  26.682  1.00  0.00     0.198 A 
ATOM     77  F   UNL A   1      41.494  24.035  28.593  1.00  0.00    -0.203 F 
ATOM     78  F   UNL A   1      45.058  25.920  24.918  1.00  0.00    -0.200 F 
ATOM     79  C   UNL A   1      43.726  24.153  25.741  1.00  0.00     0.200 A 
ATOM     80  F   UNL A   1      42.353  22.429  26.589  1.00  0.00    -0.200 F 
ATOM     81  F   UNL A   1      44.114  23.367  24.728  1.00  0.00    -0.200 F 
ENDBRANCH  47  71
BRANCH  59  82
ATOM     82  C   UNL A   1      44.810  26.865  34.440  1.00  0.00     0.064 A 
ATOM     83  C   UNL A   1      46.089  27.425  34.581  1.00  0.00     0.173 A 
ATOM     84  C   UNL A   1      44.522  25.701  35.172  1.00  0.00     0.173 A 
ATOM     85  F   UNL A   1      46.419  28.531  33.897  1.00  0.00    -0.203 F 
ATOM     86  C   UNL A   1      47.047  26.828  35.397  1.00  0.00     0.198 A 
ATOM     87  C   UNL A   1      45.472  25.125  36.011  1.00  0.00     0.198 A 
ATOM     88  F   UNL A   1      43.311  25.128  35.082  1.00  0.00    -0.203 F 
ATOM     89  F   UNL A   1      48.277  27.354  35.478  1.00  0.00    -0.200 F 
ATOM     90  C   UNL A   1      46.736  25.683  36.116  1.00  0.00     0.200 A 
ATOM     91  F   UNL A   1      45.165  24.027  36.715  1.00  0.00    -0.200 F 
ATOM     92  F   UNL A   1      47.657  25.114  36.906  1.00  0.00    -0.200 F 
ENDBRANCH  59  82
ENDBRANCH  33  34
ENDBRANCH  26  28
ENDBRANCH  25  26
ENDBRANCH  24  25
ENDBRANCH   1  24
TORSDOF 14
ENDMDL
MODEL 2
REMARK VINA RESULT:     -12.8      5.512     10.447
REMARK SMILES O=C(C[NH+]1CCN(c2ncc(C(F)(F)F)cc2Cl)CC1)OCCOC(=O)c1ccc(-c2c3nc(c(-c4c(F)c(F)c(F)c(F)c4F)c4ccc([nH]4)c(-c4c(F)c(F)c(F)c(F)c4F)c4nc(c(-c5c(F)c(F)c(F)c(F)c5F)c5ccc2[nH]5)C=C4)C=C3)cc1
REMARK SMILES IDX 22 1 21 2 2 3 1 4 3 5 4 6 5 7 20 8 6 10 19 11 7 12 8 13 9 14
REMARK SMILES IDX 17 15 10 16 16 17 18 18 11 19 12 20 13 21 14 22 15 23 23 24
REMARK SMILES IDX 24 25 25 26 26 27 27 28 28 29 89 30 29 31 88 32 30 33 31 34
REMARK SMILES IDX 32 35 82 36 33 37 87 38 81 39 83 40 34 41 86 42 80 43 79 44
REMARK SMILES IDX 35 46 67 47 47 48 66 49 48 50 51 51 65 52 84 53 49 54 50 55
REMARK SMILES IDX 64 57 85 58 52 59 36 60 37 61 45 62 38 63 39 64 43 65 46 66
REMARK SMILES IDX 40 67 41 68 44 69 42 70 68 71 69 72 77 73 70 74 71 75 75 76
REMARK SMILES IDX 78 77 72 78 73 79 76 80 74 81 53 82 54 83 62 84 55 85 56 86
REMARK SMILES IDX 60 87 63 88 57 89 58 90 61 91 59 92
REMARK H PARENT 4 9 83 45 51 56
REMARK Flexibility Score: inf
ROOT
ATOM      1  C   UNL A   1      35.668  22.011  25.445  1.00  0.00     0.274 C 
ENDROOT
BRANCH   1   2
ATOM      2  O   UNL A   1      34.772  22.072  24.325  1.00  0.00    -0.458 OA
BRANCH   2   3
ATOM      3  C   UNL A   1      34.854  23.172  23.523  1.00  0.00     0.361 C 
ATOM      4  O   UNL A   1      35.796  23.326  22.752  1.00  0.00    -0.245 OA
BRANCH   3   5
ATOM      5  C   UNL A   1      33.844  24.274  23.848  1.00  0.00     0.386 C 
BRANCH   5   6
ATOM      6  N   UNL A   1      32.959  24.613  22.714  1.00  0.00    -0.323 N 
ATOM      7  C   UNL A   1      31.533  24.740  23.113  1.00  0.00     0.284 C 
ATOM      8  C   UNL A   1      33.368  25.911  22.107  1.00  0.00     0.284 C 
ATOM      9  H   UNL A   1      33.051  23.846  22.049  1.00  0.00     0.348 HD
ATOM     10  C   UNL A   1      31.198  25.934  24.045  1.00  0.00     0.179 C 
ATOM     11  C   UNL A   1      33.074  27.169  22.966  1.00  0.00     0.179 C 
ATOM     12  N   UNL A   1      31.692  27.158  23.429  1.00  0.00    -0.344 N 
BRANCH  12  13
ATOM     13  C   UNL A   1      30.827  28.218  23.331  1.00  0.00     0.147 A 
ATOM     14  N   UNL A   1      30.058  28.256  22.210  1.00  0.00    -0.237 NA
ATOM     15  C   UNL A   1      30.794  29.278  24.250  1.00  0.00     0.084 A 
ATOM     16  C   UNL A   1      29.258  29.329  22.002  1.00  0.00     0.126 A 
ATOM     17  C   UNL A   1      29.973  30.380  24.002  1.00  0.00     0.039 A 
ATOM     18  Cl  UNL A   1      31.826  29.374  25.634  1.00  0.00    -0.080 Cl
ATOM     19  C   UNL A   1      29.189  30.420  22.850  1.00  0.00     0.075 A 
BRANCH  19  20
ATOM     20  C   UNL A   1      28.320  31.586  22.506  1.00  0.00     0.417 C 
ATOM     21  F   UNL A   1      27.366  31.819  23.449  1.00  0.00    -0.166 F 
ATOM     22  F   UNL A   1      29.023  32.744  22.390  1.00  0.00    -0.166 F 
ATOM     23  F   UNL A   1      27.651  31.432  21.330  1.00  0.00    -0.166 F 
ENDBRANCH  19  20
ENDBRANCH  12  13
ENDBRANCH   5   6
ENDBRANCH   3   5
ENDBRANCH   2   3
ENDBRANCH   1   2
BRANCH   1  24
ATOM     24  C   UNL A   1      36.847  21.059  25.216  1.00  0.00     0.275 C 
BRANCH  24  25
ATOM     25  O   UNL A   1      38.079  21.777  25.033  1.00  0.00    -0.458 OA
BRANCH  25  26
ATOM     26  C   UNL A   1      39.051  21.449  25.922  1.00  0.00     0.338 C 
ATOM     27  O   UNL A   1      39.610  20.368  26.020  1.00  0.00    -0.246 OA
BRANCH  26  28
ATOM     28  C   UNL A   1      39.489  22.646  26.678  1.00  0.00     0.060 A 
ATOM     29  C   UNL A   1      38.822  23.849  26.416  1.00  0.00     0.016 A 
ATOM     30  C   UNL A   1      40.529  22.616  27.613  1.00  0.00     0.016 A 
ATOM     31  C   UNL A   1      39.242  25.034  27.020  1.00  0.00     0.010 A 
ATOM     32  C   UNL A   1      40.946  23.805  28.227  1.00  0.00     0.010 A 
ATOM     33  C   UNL A   1      40.340  25.029  27.892  1.00  0.00    -0.014 A 
BRANCH  33  34
ATOM     34  C   UNL A   1      40.965  26.328  28.260  1.00  0.00     0.031 A 
ATOM     35  C   UNL A   1      42.381  26.594  27.822  1.00  0.00     0.074 A 
ATOM     36  C   UNL A   1      40.277  27.292  28.899  1.00  0.00     0.049 A 
ATOM     37  N   UNL A   1      43.087  27.695  27.905  1.00  0.00    -0.248 NA
ATOM     38  C   UNL A   1      43.099  25.468  27.206  1.00  0.00     0.031 C 
ATOM     39  C   UNL A   1      38.901  27.179  29.375  1.00  0.00     0.029 A 
ATOM     40  N   UNL A   1      40.651  28.570  29.242  1.00  0.00    -0.354 N 
ATOM     41  C   UNL A   1      44.320  27.395  27.339  1.00  0.00     0.074 A 
ATOM     42  C   UNL A   1      44.289  25.997  26.970  1.00  0.00     0.031 C 
ATOM     43  C   UNL A   1      38.541  28.346  29.943  1.00  0.00     0.029 A 
ATOM     44  C   UNL A   1      39.661  29.285  29.871  1.00  0.00     0.049 A 
ATOM     45  H   UNL A   1      41.544  28.937  29.055  1.00  0.00     0.167 HD
ATOM     46  C   UNL A   1      45.378  28.211  27.121  1.00  0.00     0.037 A 
ATOM     47  C   UNL A   1      39.657  30.555  30.322  1.00  0.00     0.037 A 
ATOM     48  C   UNL A   1      45.425  29.602  27.483  1.00  0.00     0.049 A 
ATOM     49  C   UNL A   1      40.867  31.432  30.111  1.00  0.00     0.074 A 
ATOM     50  C   UNL A   1      46.447  30.514  27.276  1.00  0.00     0.029 A 
ATOM     51  N   UNL A   1      44.411  30.280  28.139  1.00  0.00    -0.354 N 
ATOM     52  N   UNL A   1      41.996  31.163  29.501  1.00  0.00    -0.248 NA
ATOM     53  C   UNL A   1      40.789  32.805  30.637  1.00  0.00     0.031 C 
ATOM     54  C   UNL A   1      46.068  31.733  27.848  1.00  0.00     0.029 A 
ATOM     55  C   UNL A   1      44.791  31.593  28.366  1.00  0.00     0.049 A 
ATOM     56  H   UNL A   1      43.549  29.887  28.405  1.00  0.00     0.167 HD
ATOM     57  C   UNL A   1      42.736  32.339  29.526  1.00  0.00     0.074 A 
ATOM     58  C   UNL A   1      41.930  33.326  30.210  1.00  0.00     0.031 C 
ATOM     59  C   UNL A   1      43.972  32.580  29.021  1.00  0.00     0.037 A 
BRANCH  46  60
ATOM     60  C   UNL A   1      46.582  27.609  26.461  1.00  0.00     0.064 A 
ATOM     61  C   UNL A   1      47.599  26.997  27.209  1.00  0.00     0.173 A 
ATOM     62  C   UNL A   1      46.712  27.629  25.065  1.00  0.00     0.173 A 
ATOM     63  F   UNL A   1      47.528  26.968  28.549  1.00  0.00    -0.203 F 
ATOM     64  C   UNL A   1      48.717  26.452  26.584  1.00  0.00     0.198 A 
ATOM     65  C   UNL A   1      47.819  27.058  24.442  1.00  0.00     0.198 A 
ATOM     66  F   UNL A   1      45.766  28.199  24.305  1.00  0.00    -0.203 F 
ATOM     67  F   UNL A   1      49.701  25.919  27.321  1.00  0.00    -0.200 F 
ATOM     68  C   UNL A   1      48.824  26.479  25.202  1.00  0.00     0.200 A 
ATOM     69  F   UNL A   1      47.916  27.075  23.105  1.00  0.00    -0.200 F 
ATOM     70  F   UNL A   1      49.900  25.953  24.601  1.00  0.00    -0.200 F 
ENDBRANCH  46  60
BRANCH  47  71
ATOM     71  C   UNL A   1      38.452  31.106  30.995  1.00  0.00     0.064 A 
ATOM     72  C   UNL A   1      38.347  31.114  32.394  1.00  0.00     0.173 A 
ATOM     73  C   UNL A   1      37.361  31.581  30.255  1.00  0.00     0.173 A 
ATOM     74  F   UNL A   1      39.354  30.641  33.144  1.00  0.00    -0.203 F 
ATOM     75  C   UNL A   1      37.184  31.551  33.025  1.00  0.00     0.198 A 
ATOM     76  C   UNL A   1      36.208  32.042  30.889  1.00  0.00     0.198 A 
ATOM     77  F   UNL A   1      37.411  31.591  28.915  1.00  0.00    -0.203 F 
ATOM     78  F   UNL A   1      37.087  31.491  34.361  1.00  0.00    -0.200 F 
ATOM     79  C   UNL A   1      36.117  32.017  32.273  1.00  0.00     0.200 A 
ATOM     80  F   UNL A   1      35.181  32.496  30.158  1.00  0.00    -0.200 F 
ATOM     81  F   UNL A   1      34.995  32.426  32.879  1.00  0.00    -0.200 F 
ENDBRANCH  47  71
BRANCH  59  82
ATOM     82  C   UNL A   1      44.510  33.978  29.127  1.00  0.00     0.064 A 
ATOM     83  C   UNL A   1      44.232  34.958  28.162  1.00  0.00     0.173 A 
ATOM     84  C   UNL A   1      45.284  34.355  30.237  1.00  0.00     0.173 A 
ATOM     85  F   UNL A   1      43.506  34.648  27.077  1.00  0.00    -0.203 F 
ATOM     86  C   UNL A   1      44.731  36.252  28.289  1.00  0.00     0.198 A 
ATOM     87  C   UNL A   1      45.755  35.658  30.376  1.00  0.00     0.198 A 
ATOM     88  F   UNL A   1      45.573  33.461  31.195  1.00  0.00    -0.203 F 
ATOM     89  F   UNL A   1      44.493  37.157  27.330  1.00  0.00    -0.200 F 
ATOM     90  C   UNL A   1      45.487  36.602  29.398  1.00  0.00     0.200 A 
ATOM     91  F   UNL A   1      46.473  35.998  31.456  1.00  0.00    -0.200 F 
ATOM     92  F   UNL A   1      45.961  37.850  29.522  1.00  0.00    -0.200 F 
ENDBRANCH  59  82
ENDBRANCH  33  34
ENDBRANCH  26  28
ENDBRANCH  25  26
ENDBRANCH  24  25
ENDBRANCH   1  24
TORSDOF 14
ENDMDL
MODEL 3
REMARK VINA RESULT:     -12.7      0.417      1.755
REMARK SMILES O=C(C[NH+]1CCN(c2ncc(C(F)(F)F)cc2Cl)CC1)OCCOC(=O)c1ccc(-c2c3nc(c(-c4c(F)c(F)c(F)c(F)c4F)c4ccc([nH]4)c(-c4c(F)c(F)c(F)c(F)c4F)c4nc(c(-c5c(F)c(F)c(F)c(F)c5F)c5ccc2[nH]5)C=C4)C=C3)cc1
REMARK SMILES IDX 22 1 21 2 2 3 1 4 3 5 4 6 5 7 20 8 6 10 19 11 7 12 8 13 9 14
REMARK SMILES IDX 17 15 10 16 16 17 18 18 11 19 12 20 13 21 14 22 15 23 23 24
REMARK SMILES IDX 24 25 25 26 26 27 27 28 28 29 89 30 29 31 88 32 30 33 31 34
REMARK SMILES IDX 32 35 82 36 33 37 87 38 81 39 83 40 34 41 86 42 80 43 79 44
REMARK SMILES IDX 35 46 67 47 47 48 66 49 48 50 51 51 65 52 84 53 49 54 50 55
REMARK SMILES IDX 64 57 85 58 52 59 36 60 37 61 45 62 38 63 39 64 43 65 46 66
REMARK SMILES IDX 40 67 41 68 44 69 42 70 68 71 69 72 77 73 70 74 71 75 75 76
REMARK SMILES IDX 78 77 72 78 73 79 76 80 74 81 53 82 54 83 62 84 55 85 56 86
REMARK SMILES IDX 60 87 63 88 57 89 58 90 61 91 59 92
REMARK H PARENT 4 9 83 45 51 56
REMARK Flexibility Score: inf
ROOT
ATOM      1  C   UNL A   1      31.500  29.160  25.594  1.00  0.00     0.274 C 
ENDROOT
BRANCH   1   2
ATOM      2  O   UNL A   1      31.897  27.810  25.307  1.00  0.00    -0.458 OA
BRANCH   2   3
ATOM      3  C   UNL A   1      31.475  26.842  26.170  1.00  0.00     0.361 C 
ATOM      4  O   UNL A   1      31.217  27.105  27.341  1.00  0.00    -0.245 OA
BRANCH   3   5
ATOM      5  C   UNL A   1      31.600  25.414  25.637  1.00  0.00     0.386 C 
BRANCH   5   6
ATOM      6  N   UNL A   1      32.602  24.603  26.359  1.00  0.00    -0.323 N 
ATOM      7  C   UNL A   1      32.059  23.303  26.832  1.00  0.00     0.284 C 
ATOM      8  C   UNL A   1      33.763  24.304  25.475  1.00  0.00     0.284 C 
ATOM      9  H   UNL A   1      32.882  25.159  27.166  1.00  0.00     0.348 HD
ATOM     10  C   UNL A   1      31.681  22.286  25.723  1.00  0.00     0.179 C 
ATOM     11  C   UNL A   1      33.485  23.294  24.330  1.00  0.00     0.179 C 
ATOM     12  N   UNL A   1      32.833  22.099  24.853  1.00  0.00    -0.344 N 
BRANCH  12  13
ATOM     13  C   UNL A   1      33.225  20.814  24.577  1.00  0.00     0.147 A 
ATOM     14  N   UNL A   1      32.255  19.985  24.107  1.00  0.00    -0.237 NA
ATOM     15  C   UNL A   1      34.507  20.316  24.861  1.00  0.00     0.084 A 
ATOM     16  C   UNL A   1      32.549  18.677  23.913  1.00  0.00     0.126 A 
ATOM     17  C   UNL A   1      34.778  18.960  24.669  1.00  0.00     0.039 A 
ATOM     18  Cl  UNL A   1      35.762  21.266  25.578  1.00  0.00    -0.080 Cl
ATOM     19  C   UNL A   1      33.780  18.111  24.191  1.00  0.00     0.075 A 
BRANCH  19  20
ATOM     20  C   UNL A   1      33.994  16.644  24.001  1.00  0.00     0.417 C 
ATOM     21  F   UNL A   1      34.301  16.327  22.713  1.00  0.00    -0.166 F 
ATOM     22  F   UNL A   1      35.015  16.163  24.759  1.00  0.00    -0.166 F 
ATOM     23  F   UNL A   1      32.903  15.894  24.318  1.00  0.00    -0.166 F 
ENDBRANCH  19  20
ENDBRANCH  12  13
ENDBRANCH   5   6
ENDBRANCH   3   5
ENDBRANCH   2   3
ENDBRANCH   1   2
BRANCH   1  24
ATOM     24  C   UNL A   1      32.690  30.093  25.841  1.00  0.00     0.275 C 
BRANCH  24  25
ATOM     25  O   UNL A   1      32.892  30.332  27.244  1.00  0.00    -0.458 OA
BRANCH  25  26
ATOM     26  C   UNL A   1      33.623  31.443  27.519  1.00  0.00     0.338 C 
ATOM     27  O   UNL A   1      33.199  32.584  27.615  1.00  0.00    -0.246 OA
BRANCH  26  28
ATOM     28  C   UNL A   1      35.015  31.076  27.868  1.00  0.00     0.060 A 
ATOM     29  C   UNL A   1      35.285  29.719  28.084  1.00  0.00     0.016 A 
ATOM     30  C   UNL A   1      36.040  32.019  27.995  1.00  0.00     0.016 A 
ATOM     31  C   UNL A   1      36.551  29.311  28.505  1.00  0.00     0.010 A 
ATOM     32  C   UNL A   1      37.315  31.608  28.411  1.00  0.00     0.010 A 
ATOM     33  C   UNL A   1      37.561  30.259  28.722  1.00  0.00    -0.014 A 
BRANCH  33  34
ATOM     34  C   UNL A   1      38.777  29.847  29.473  1.00  0.00     0.031 A 
ATOM     35  C   UNL A   1      38.970  30.371  30.872  1.00  0.00     0.074 A 
ATOM     36  C   UNL A   1      39.659  28.965  28.969  1.00  0.00     0.049 A 
ATOM     37  N   UNL A   1      39.872  30.050  31.766  1.00  0.00    -0.248 NA
ATOM     38  C   UNL A   1      38.015  31.395  31.325  1.00  0.00     0.031 C 
ATOM     39  C   UNL A   1      39.597  28.370  27.636  1.00  0.00     0.029 A 
ATOM     40  N   UNL A   1      40.779  28.406  29.537  1.00  0.00    -0.354 N 
ATOM     41  C   UNL A   1      39.583  30.820  32.886  1.00  0.00     0.074 A 
ATOM     42  C   UNL A   1      38.460  31.664  32.542  1.00  0.00     0.031 C 
ATOM     43  C   UNL A   1      40.632  27.520  27.492  1.00  0.00     0.029 A 
ATOM     44  C   UNL A   1      41.427  27.513  28.720  1.00  0.00     0.049 A 
ATOM     45  H   UNL A   1      41.087  28.627  30.446  1.00  0.00     0.167 HD
ATOM     46  C   UNL A   1      40.178  30.811  34.102  1.00  0.00     0.037 A 
ATOM     47  C   UNL A   1      42.527  26.766  28.945  1.00  0.00     0.037 A 
ATOM     48  C   UNL A   1      41.295  29.979  34.459  1.00  0.00     0.049 A 
ATOM     49  C   UNL A   1      43.203  26.810  30.294  1.00  0.00     0.074 A 
ATOM     50  C   UNL A   1      41.946  29.884  35.677  1.00  0.00     0.029 A 
ATOM     51  N   UNL A   1      41.935  29.106  33.594  1.00  0.00    -0.354 N 
ATOM     52  N   UNL A   1      42.870  27.478  31.372  1.00  0.00    -0.248 NA
ATOM     53  C   UNL A   1      44.401  25.971  30.461  1.00  0.00     0.031 C 
ATOM     54  C   UNL A   1      43.010  28.987  35.536  1.00  0.00     0.029 A 
ATOM     55  C   UNL A   1      42.989  28.485  34.245  1.00  0.00     0.049 A 
ATOM     56  H   UNL A   1      41.680  28.951  32.656  1.00  0.00     0.167 HD
ATOM     57  C   UNL A   1      43.784  27.105  32.351  1.00  0.00     0.074 A 
ATOM     58  C   UNL A   1      44.683  26.149  31.743  1.00  0.00     0.031 C 
ATOM     59  C   UNL A   1      43.864  27.513  33.642  1.00  0.00     0.037 A 
BRANCH  46  60
ATOM     60  C   UNL A   1      39.629  31.744  35.139  1.00  0.00     0.064 A 
ATOM     61  C   UNL A   1      38.669  31.321  36.071  1.00  0.00     0.173 A 
ATOM     62  C   UNL A   1      40.079  33.070  35.213  1.00  0.00     0.173 A 
ATOM     63  F   UNL A   1      38.194  30.067  36.029  1.00  0.00    -0.203 F 
ATOM     64  C   UNL A   1      38.158  32.201  37.020  1.00  0.00     0.198 A 
ATOM     65  C   UNL A   1      39.586  33.939  36.182  1.00  0.00     0.198 A 
ATOM     66  F   UNL A   1      40.998  33.522  34.347  1.00  0.00    -0.203 F 
ATOM     67  F   UNL A   1      37.203  31.791  37.867  1.00  0.00    -0.200 F 
ATOM     68  C   UNL A   1      38.620  33.507  37.079  1.00  0.00     0.200 A 
ATOM     69  F   UNL A   1      40.042  35.198  36.245  1.00  0.00    -0.200 F 
ATOM     70  F   UNL A   1      38.129  34.353  37.995  1.00  0.00    -0.200 F 
ENDBRANCH  46  60
BRANCH  47  71
ATOM     71  C   UNL A   1      43.054  25.873  27.881  1.00  0.00     0.064 A 
ATOM     72  C   UNL A   1      43.998  26.336  26.952  1.00  0.00     0.173 A 
ATOM     73  C   UNL A   1      42.586  24.560  27.736  1.00  0.00     0.173 A 
ATOM     74  F   UNL A   1      44.453  27.596  27.032  1.00  0.00    -0.203 F 
ATOM     75  C   UNL A   1      44.430  25.529  25.902  1.00  0.00     0.198 A 
ATOM     76  C   UNL A   1      43.039  23.745  26.701  1.00  0.00     0.198 A 
ATOM     77  F   UNL A   1      41.681  24.071  28.597  1.00  0.00    -0.203 F 
ATOM     78  F   UNL A   1      45.287  26.017  24.994  1.00  0.00    -0.200 F 
ATOM     79  C   UNL A   1      43.953  24.233  25.779  1.00  0.00     0.200 A 
ATOM     80  F   UNL A   1      42.579  22.492  26.588  1.00  0.00    -0.200 F 
ATOM     81  F   UNL A   1      44.361  23.460  24.764  1.00  0.00    -0.200 F 
ENDBRANCH  47  71
BRANCH  59  82
ATOM     82  C   UNL A   1      44.918  26.886  34.510  1.00  0.00     0.064 A 
ATOM     83  C   UNL A   1      44.680  25.710  35.237  1.00  0.00     0.173 A 
ATOM     84  C   UNL A   1      46.202  27.451  34.581  1.00  0.00     0.173 A 
ATOM     85  F   UNL A   1      43.468  25.135  35.212  1.00  0.00    -0.203 F 
ATOM     86  C   UNL A   1      45.678  25.140  36.024  1.00  0.00     0.198 A 
ATOM     87  C   UNL A   1      47.205  26.861  35.344  1.00  0.00     0.198 A 
ATOM     88  F   UNL A   1      46.487  28.571  33.898  1.00  0.00    -0.203 F 
ATOM     89  F   UNL A   1      45.413  24.044  36.748  1.00  0.00    -0.200 F 
ATOM     90  C   UNL A   1      46.941  25.712  36.072  1.00  0.00     0.200 A 
ATOM     91  F   UNL A   1      48.429  27.407  35.377  1.00  0.00    -0.200 F 
ATOM     92  F   UNL A   1      47.901  25.158  36.825  1.00  0.00    -0.200 F 
ENDBRANCH  59  82
ENDBRANCH  33  34
ENDBRANCH  26  28
ENDBRANCH  25  26
ENDBRANCH  24  25
ENDBRANCH   1  24
TORSDOF 14
ENDMDL
