MODEL 1
REMARK VINA RESULT:     -14.7      0.000      0.000
REMARK SMILES Cc1ccccc1-c1c(Cl)ccc2c1C=C(C(=O)OCCOC(=O)c1ccc(-c3c4nc(c(-c5c(F)c(F)c(F)c(F)c5F)c5ccc([nH]5)c(-c5c(F)c(F)c(F)c(F)c5F)c5nc(c(-c6c(F)c(F)c(F)c(F)c6F)c6ccc3[nH]6)C=C5)C=C4)cc1)[C@@H](C(F)(F)F)O2
REMARK SMILES IDX 21 1 20 2 19 3 17 4 18 5 16 6 8 7 9 8 14 9 10 10 11 11 13 12
REMARK SMILES IDX 15 13 12 14 93 15 88 16 7 17 1 18 2 19 3 20 4 21 6 22 5 23
REMARK SMILES IDX 89 24 90 25 91 26 92 27 22 28 23 29 24 30 25 31 26 32 87 33
REMARK SMILES IDX 27 34 86 35 28 36 29 37 30 38 80 39 31 40 85 41 79 42 81 43
REMARK SMILES IDX 32 44 84 45 78 46 77 47 33 49 65 50 45 51 64 52 46 53 49 54
REMARK SMILES IDX 63 55 82 56 47 57 48 58 62 60 83 61 50 62 34 63 35 64 43 65
REMARK SMILES IDX 36 66 37 67 41 68 44 69 38 70 39 71 42 72 40 73 66 74 67 75
REMARK SMILES IDX 75 76 68 77 69 78 73 79 76 80 70 81 71 82 74 83 72 84 51 85
REMARK SMILES IDX 52 86 60 87 53 88 54 89 58 90 61 91 55 92 56 93 59 94 57 95
REMARK H PARENT 81 48 49 59
REMARK Flexibility Score: inf
ROOT
ATOM      1  C   UNL A   1      34.239  30.883  27.475  1.00  0.00     0.275 C 
ENDROOT
BRANCH   1   2
ATOM      2  C   UNL A   1      33.109  29.894  27.132  1.00  0.00     0.275 C 
BRANCH   2   3
ATOM      3  O   UNL A   1      33.424  28.485  27.269  1.00  0.00    -0.459 OA
BRANCH   3   4
ATOM      4  C   UNL A   1      32.352  27.707  26.937  1.00  0.00     0.338 C 
ATOM      5  O   UNL A   1      31.433  27.491  27.722  1.00  0.00    -0.246 OA
BRANCH   4   6
ATOM      6  C   UNL A   1      32.261  27.332  25.501  1.00  0.00     0.087 C 
ATOM      7  C   UNL A   1      33.001  23.913  24.319  1.00  0.00     0.012 A 
ATOM      8  C   UNL A   1      32.150  22.882  23.827  1.00  0.00     0.049 A 
ATOM      9  C   UNL A   1      32.452  25.233  24.349  1.00  0.00     0.027 A 
ATOM     10  Cl  UNL A   1      32.581  21.197  23.903  1.00  0.00    -0.084 Cl
ATOM     11  C   UNL A   1      30.885  23.155  23.289  1.00  0.00     0.025 A 
ATOM     12  C   UNL A   1      31.162  25.479  23.826  1.00  0.00     0.128 A 
ATOM     13  C   UNL A   1      33.066  26.321  25.131  1.00  0.00     0.028 C 
ATOM     14  C   UNL A   1      30.406  24.457  23.260  1.00  0.00     0.049 A 
ATOM     15  O   UNL A   1      30.505  26.684  23.928  1.00  0.00    -0.475 OA
ATOM     16  C   UNL A   1      31.239  27.790  24.512  1.00  0.00     0.316 C 
BRANCH   7  17
ATOM     17  C   UNL A   1      34.421  23.594  24.690  1.00  0.00    -0.013 A 
ATOM     18  C   UNL A   1      34.064  23.065  27.205  1.00  0.00     0.045 C 
ATOM     19  C   UNL A   1      34.899  23.202  25.964  1.00  0.00    -0.043 A 
ATOM     20  C   UNL A   1      36.276  22.954  26.160  1.00  0.00     0.004 A 
ATOM     21  C   UNL A   1      37.185  23.029  25.112  1.00  0.00     0.000 A 
ATOM     22  C   UNL A   1      35.384  23.675  23.652  1.00  0.00     0.009 A 
ATOM     23  C   UNL A   1      36.735  23.378  23.851  1.00  0.00     0.001 A 
ENDBRANCH   7  17
BRANCH  16  24
ATOM     24  C   UNL A   1      31.915  28.602  23.386  1.00  0.00     0.430 C 
ATOM     25  F   UNL A   1      31.034  29.420  22.763  1.00  0.00    -0.167 F 
ATOM     26  F   UNL A   1      32.904  29.386  23.879  1.00  0.00    -0.167 F 
ATOM     27  F   UNL A   1      32.469  27.817  22.431  1.00  0.00    -0.167 F 
ENDBRANCH  16  24
ENDBRANCH   4   6
ENDBRANCH   3   4
ENDBRANCH   2   3
ENDBRANCH   1   2
BRANCH   1  28
ATOM     28  O   UNL A   1      35.575  30.349  27.629  1.00  0.00    -0.458 OA
BRANCH  28  29
ATOM     29  C   UNL A   1      36.286  30.360  28.783  1.00  0.00     0.338 C 
ATOM     30  O   UNL A   1      35.864  30.859  29.819  1.00  0.00    -0.246 OA
BRANCH  29  31
ATOM     31  C   UNL A   1      37.570  29.652  28.750  1.00  0.00     0.060 A 
ATOM     32  C   UNL A   1      37.814  28.674  29.719  1.00  0.00     0.016 A 
ATOM     33  C   UNL A   1      38.430  29.842  27.674  1.00  0.00     0.016 A 
ATOM     34  C   UNL A   1      38.855  27.780  29.543  1.00  0.00     0.010 A 
ATOM     35  C   UNL A   1      39.395  28.896  27.435  1.00  0.00     0.010 A 
ATOM     36  C   UNL A   1      39.619  27.889  28.382  1.00  0.00    -0.014 A 
BRANCH  36  37
ATOM     37  C   UNL A   1      40.910  27.234  28.263  1.00  0.00     0.031 A 
ATOM     38  C   UNL A   1      40.980  25.808  27.937  1.00  0.00     0.074 A 
ATOM     39  C   UNL A   1      41.927  28.070  28.558  1.00  0.00     0.049 A 
ATOM     40  N   UNL A   1      41.497  24.898  28.687  1.00  0.00    -0.248 NA
ATOM     41  C   UNL A   1      40.363  25.283  26.718  1.00  0.00     0.031 C 
ATOM     42  C   UNL A   1      43.362  27.891  28.558  1.00  0.00     0.029 A 
ATOM     43  N   UNL A   1      41.739  29.333  29.151  1.00  0.00    -0.354 N 
ATOM     44  C   UNL A   1      41.604  23.773  27.889  1.00  0.00     0.074 A 
ATOM     45  C   UNL A   1      40.730  23.997  26.762  1.00  0.00     0.031 C 
ATOM     46  C   UNL A   1      43.889  28.804  29.404  1.00  0.00     0.029 A 
ATOM     47  C   UNL A   1      42.784  29.516  30.046  1.00  0.00     0.049 A 
ATOM     48  H   UNL A   1      41.008  29.965  28.966  1.00  0.00     0.167 HD
ATOM     49  C   UNL A   1      42.673  22.933  28.002  1.00  0.00     0.037 A 
ATOM     50  C   UNL A   1      42.492  29.539  31.378  1.00  0.00     0.037 A 
ATOM     51  C   UNL A   1      43.681  23.585  28.821  1.00  0.00     0.049 A 
ATOM     52  C   UNL A   1      43.150  28.371  32.054  1.00  0.00     0.074 A 
ATOM     53  C   UNL A   1      44.668  24.472  28.418  1.00  0.00     0.029 A 
ATOM     54  N   UNL A   1      43.502  23.767  30.185  1.00  0.00    -0.354 N 
ATOM     55  N   UNL A   1      43.200  27.166  31.554  1.00  0.00    -0.248 NA
ATOM     56  C   UNL A   1      43.875  28.518  33.307  1.00  0.00     0.031 C 
ATOM     57  C   UNL A   1      45.064  25.223  29.540  1.00  0.00     0.029 A 
ATOM     58  C   UNL A   1      44.324  24.790  30.626  1.00  0.00     0.049 A 
ATOM     59  H   UNL A   1      42.887  23.249  30.752  1.00  0.00     0.167 HD
ATOM     60  C   UNL A   1      44.032  26.410  32.344  1.00  0.00     0.074 A 
ATOM     61  C   UNL A   1      44.407  27.294  33.435  1.00  0.00     0.031 C 
ATOM     62  C   UNL A   1      44.424  25.141  32.026  1.00  0.00     0.037 A 
BRANCH  49  63
ATOM     63  C   UNL A   1      42.985  21.865  26.981  1.00  0.00     0.064 A 
ATOM     64  C   UNL A   1      42.361  20.600  27.021  1.00  0.00     0.173 A 
ATOM     65  C   UNL A   1      43.928  22.040  25.950  1.00  0.00     0.173 A 
ATOM     66  F   UNL A   1      41.376  20.329  27.884  1.00  0.00    -0.203 F 
ATOM     67  C   UNL A   1      42.740  19.553  26.180  1.00  0.00     0.198 A 
ATOM     68  C   UNL A   1      44.318  20.984  25.116  1.00  0.00     0.198 A 
ATOM     69  F   UNL A   1      44.506  23.234  25.745  1.00  0.00    -0.203 F 
ATOM     70  F   UNL A   1      42.145  18.357  26.300  1.00  0.00    -0.200 F 
ATOM     71  C   UNL A   1      43.738  19.735  25.245  1.00  0.00     0.200 A 
ATOM     72  F   UNL A   1      45.278  21.175  24.199  1.00  0.00    -0.200 F 
ATOM     73  F   UNL A   1      44.132  18.716  24.471  1.00  0.00    -0.200 F 
ENDBRANCH  49  63
BRANCH  50  74
ATOM     74  C   UNL A   1      41.158  30.105  31.778  1.00  0.00     0.064 A 
ATOM     75  C   UNL A   1      40.786  31.401  31.346  1.00  0.00     0.173 A 
ATOM     76  C   UNL A   1      40.168  29.371  32.445  1.00  0.00     0.173 A 
ATOM     77  F   UNL A   1      41.684  32.188  30.728  1.00  0.00    -0.203 F 
ATOM     78  C   UNL A   1      39.487  31.892  31.487  1.00  0.00     0.198 A 
ATOM     79  C   UNL A   1      38.870  29.877  32.612  1.00  0.00     0.198 A 
ATOM     80  F   UNL A   1      40.427  28.140  32.907  1.00  0.00    -0.203 F 
ATOM     81  F   UNL A   1      39.164  33.087  30.971  1.00  0.00    -0.200 F 
ATOM     82  C   UNL A   1      38.527  31.126  32.120  1.00  0.00     0.200 A 
ATOM     83  F   UNL A   1      37.933  29.126  33.207  1.00  0.00    -0.200 F 
ATOM     84  F   UNL A   1      37.270  31.576  32.237  1.00  0.00    -0.200 F 
ENDBRANCH  50  74
BRANCH  62  85
ATOM     85  C   UNL A   1      45.143  24.179  32.938  1.00  0.00     0.064 A 
ATOM     86  C   UNL A   1      46.442  24.394  33.419  1.00  0.00     0.173 A 
ATOM     87  C   UNL A   1      44.475  23.047  33.474  1.00  0.00     0.173 A 
ATOM     88  F   UNL A   1      47.126  25.502  33.110  1.00  0.00    -0.203 F 
ATOM     89  C   UNL A   1      47.064  23.494  34.284  1.00  0.00     0.198 A 
ATOM     90  C   UNL A   1      45.070  22.196  34.399  1.00  0.00     0.198 A 
ATOM     91  F   UNL A   1      43.214  22.737  33.138  1.00  0.00    -0.203 F 
ATOM     92  F   UNL A   1      48.335  23.706  34.652  1.00  0.00    -0.200 F 
ATOM     93  C   UNL A   1      46.376  22.404  34.783  1.00  0.00     0.200 A 
ATOM     94  F   UNL A   1      44.364  21.184  34.921  1.00  0.00    -0.200 F 
ATOM     95  F   UNL A   1      46.964  21.568  35.647  1.00  0.00    -0.200 F 
ENDBRANCH  62  85
ENDBRANCH  36  37
ENDBRANCH  29  31
ENDBRANCH  28  29
ENDBRANCH   1  28
TORSDOF 13
ENDMDL
MODEL 2
REMARK VINA RESULT:     -14.6      0.878      1.614
REMARK SMILES Cc1ccccc1-c1c(Cl)ccc2c1C=C(C(=O)OCCOC(=O)c1ccc(-c3c4nc(c(-c5c(F)c(F)c(F)c(F)c5F)c5ccc([nH]5)c(-c5c(F)c(F)c(F)c(F)c5F)c5nc(c(-c6c(F)c(F)c(F)c(F)c6F)c6ccc3[nH]6)C=C5)C=C4)cc1)[C@@H](C(F)(F)F)O2
REMARK SMILES IDX 21 1 20 2 19 3 17 4 18 5 16 6 8 7 9 8 14 9 10 10 11 11 13 12
REMARK SMILES IDX 15 13 12 14 93 15 88 16 7 17 1 18 2 19 3 20 4 21 6 22 5 23
REMARK SMILES IDX 89 24 90 25 91 26 92 27 22 28 23 29 24 30 25 31 26 32 87 33
REMARK SMILES IDX 27 34 86 35 28 36 29 37 30 38 80 39 31 40 85 41 79 42 81 43
REMARK SMILES IDX 32 44 84 45 78 46 77 47 33 49 65 50 45 51 64 52 46 53 49 54
REMARK SMILES IDX 63 55 82 56 47 57 48 58 62 60 83 61 50 62 34 63 35 64 43 65
REMARK SMILES IDX 36 66 37 67 41 68 44 69 38 70 39 71 42 72 40 73 66 74 67 75
REMARK SMILES IDX 75 76 68 77 69 78 73 79 76 80 70 81 71 82 74 83 72 84 51 85
REMARK SMILES IDX 52 86 60 87 53 88 54 89 58 90 61 91 55 92 56 93 59 94 57 95
REMARK H PARENT 81 48 49 59
REMARK Flexibility Score: inf
ROOT
ATOM      1  C   UNL A   1      34.356  31.398  27.606  1.00  0.00     0.275 C 
ENDROOT
BRANCH   1   2
ATOM      2  C   UNL A   1      33.169  30.480  27.257  1.00  0.00     0.275 C 
BRANCH   2   3
ATOM      3  O   UNL A   1      33.217  29.832  25.961  1.00  0.00    -0.459 OA
BRANCH   3   4
ATOM      4  C   UNL A   1      33.590  28.523  26.080  1.00  0.00     0.338 C 
ATOM      5  O   UNL A   1      34.492  28.166  26.833  1.00  0.00    -0.246 OA
BRANCH   4   6
ATOM      6  C   UNL A   1      32.690  27.545  25.416  1.00  0.00     0.087 C 
ATOM      7  C   UNL A   1      33.246  23.902  25.642  1.00  0.00     0.012 A 
ATOM      8  C   UNL A   1      32.538  22.883  26.341  1.00  0.00     0.049 A 
ATOM      9  C   UNL A   1      32.564  25.147  25.467  1.00  0.00     0.027 A 
ATOM     10  Cl  UNL A   1      33.282  21.381  26.813  1.00  0.00    -0.084 Cl
ATOM     11  C   UNL A   1      31.203  23.042  26.737  1.00  0.00     0.025 A 
ATOM     12  C   UNL A   1      31.227  25.293  25.900  1.00  0.00     0.128 A 
ATOM     13  C   UNL A   1      33.271  26.380  25.080  1.00  0.00     0.028 C 
ATOM     14  C   UNL A   1      30.539  24.235  26.488  1.00  0.00     0.049 A 
ATOM     15  O   UNL A   1      30.539  26.484  25.891  1.00  0.00    -0.475 OA
ATOM     16  C   UNL A   1      31.202  27.626  25.294  1.00  0.00     0.316 C 
BRANCH   7  17
ATOM     17  C   UNL A   1      34.598  23.604  25.059  1.00  0.00    -0.013 A 
ATOM     18  C   UNL A   1      33.869  23.056  22.629  1.00  0.00     0.045 C 
ATOM     19  C   UNL A   1      34.885  23.243  23.720  1.00  0.00    -0.043 A 
ATOM     20  C   UNL A   1      36.215  22.973  23.328  1.00  0.00     0.004 A 
ATOM     21  C   UNL A   1      37.276  23.108  24.213  1.00  0.00     0.000 A 
ATOM     22  C   UNL A   1      35.707  23.713  25.935  1.00  0.00     0.009 A 
ATOM     23  C   UNL A   1      37.023  23.491  25.518  1.00  0.00     0.001 A 
ENDBRANCH   7  17
BRANCH  16  24
ATOM     24  C   UNL A   1      30.795  27.732  23.808  1.00  0.00     0.430 C 
ATOM     25  F   UNL A   1      29.673  28.472  23.650  1.00  0.00    -0.167 F 
ATOM     26  F   UNL A   1      31.770  28.328  23.079  1.00  0.00    -0.167 F 
ATOM     27  F   UNL A   1      30.556  26.525  23.242  1.00  0.00    -0.167 F 
ENDBRANCH  16  24
ENDBRANCH   4   6
ENDBRANCH   3   4
ENDBRANCH   2   3
ENDBRANCH   1   2
BRANCH   1  28
ATOM     28  O   UNL A   1      35.653  30.780  27.785  1.00  0.00    -0.458 OA
BRANCH  28  29
ATOM     29  C   UNL A   1      36.242  30.549  28.984  1.00  0.00     0.338 C 
ATOM     30  O   UNL A   1      35.720  30.852  30.050  1.00  0.00    -0.246 OA
BRANCH  29  31
ATOM     31  C   UNL A   1      37.516  29.824  28.940  1.00  0.00     0.060 A 
ATOM     32  C   UNL A   1      37.719  28.784  29.853  1.00  0.00     0.016 A 
ATOM     33  C   UNL A   1      38.409  30.066  27.902  1.00  0.00     0.016 A 
ATOM     34  C   UNL A   1      38.751  27.886  29.649  1.00  0.00     0.010 A 
ATOM     35  C   UNL A   1      39.366  29.122  27.630  1.00  0.00     0.010 A 
ATOM     36  C   UNL A   1      39.549  28.054  28.518  1.00  0.00    -0.014 A 
BRANCH  36  37
ATOM     37  C   UNL A   1      40.834  27.388  28.393  1.00  0.00     0.031 A 
ATOM     38  C   UNL A   1      40.889  25.962  28.065  1.00  0.00     0.074 A 
ATOM     39  C   UNL A   1      41.859  28.214  28.684  1.00  0.00     0.049 A 
ATOM     40  N   UNL A   1      41.401  25.046  28.812  1.00  0.00    -0.248 NA
ATOM     41  C   UNL A   1      40.262  25.444  26.849  1.00  0.00     0.031 C 
ATOM     42  C   UNL A   1      43.293  28.022  28.678  1.00  0.00     0.029 A 
ATOM     43  N   UNL A   1      41.685  29.478  29.279  1.00  0.00    -0.354 N 
ATOM     44  C   UNL A   1      41.494  23.921  28.012  1.00  0.00     0.074 A 
ATOM     45  C   UNL A   1      40.617  24.155  26.889  1.00  0.00     0.031 C 
ATOM     46  C   UNL A   1      43.832  28.928  29.522  1.00  0.00     0.029 A 
ATOM     47  C   UNL A   1      42.736  29.650  30.170  1.00  0.00     0.049 A 
ATOM     48  H   UNL A   1      40.960  30.117  29.098  1.00  0.00     0.167 HD
ATOM     49  C   UNL A   1      42.555  23.071  28.120  1.00  0.00     0.037 A 
ATOM     50  C   UNL A   1      42.451  29.675  31.503  1.00  0.00     0.037 A 
ATOM     51  C   UNL A   1      43.573  23.713  28.935  1.00  0.00     0.049 A 
ATOM     52  C   UNL A   1      43.100  28.500  32.175  1.00  0.00     0.074 A 
ATOM     53  C   UNL A   1      44.566  24.591  28.528  1.00  0.00     0.029 A 
ATOM     54  N   UNL A   1      43.402  23.895  30.300  1.00  0.00    -0.354 N 
ATOM     55  N   UNL A   1      43.137  27.295  31.673  1.00  0.00    -0.248 NA
ATOM     56  C   UNL A   1      43.833  28.639  33.426  1.00  0.00     0.031 C 
ATOM     57  C   UNL A   1      44.974  25.337  29.650  1.00  0.00     0.029 A 
ATOM     58  C   UNL A   1      44.234  24.910  30.739  1.00  0.00     0.049 A 
ATOM     59  H   UNL A   1      42.784  23.382  30.869  1.00  0.00     0.167 HD
ATOM     60  C   UNL A   1      43.965  26.530  32.459  1.00  0.00     0.074 A 
ATOM     61  C   UNL A   1      44.354  27.409  33.550  1.00  0.00     0.031 C 
ATOM     62  C   UNL A   1      44.344  25.258  32.138  1.00  0.00     0.037 A 
BRANCH  49  63
ATOM     63  C   UNL A   1      42.853  22.001  27.096  1.00  0.00     0.064 A 
ATOM     64  C   UNL A   1      42.233  20.735  27.150  1.00  0.00     0.173 A 
ATOM     65  C   UNL A   1      43.778  22.175  26.049  1.00  0.00     0.173 A 
ATOM     66  F   UNL A   1      41.262  20.464  28.030  1.00  0.00    -0.203 F 
ATOM     67  C   UNL A   1      42.600  19.686  26.305  1.00  0.00     0.198 A 
ATOM     68  C   UNL A   1      44.157  21.118  25.212  1.00  0.00     0.198 A 
ATOM     69  F   UNL A   1      44.350  23.370  25.832  1.00  0.00    -0.203 F 
ATOM     70  F   UNL A   1      42.010  18.490  26.438  1.00  0.00    -0.200 F 
ATOM     71  C   UNL A   1      43.582  19.869  25.353  1.00  0.00     0.200 A 
ATOM     72  F   UNL A   1      45.101  21.310  24.278  1.00  0.00    -0.200 F 
ATOM     73  F   UNL A   1      43.965  18.848  24.575  1.00  0.00    -0.200 F 
ENDBRANCH  49  63
BRANCH  50  74
ATOM     74  C   UNL A   1      41.123  30.252  31.910  1.00  0.00     0.064 A 
ATOM     75  C   UNL A   1      40.795  31.582  31.548  1.00  0.00     0.173 A 
ATOM     76  C   UNL A   1      40.101  29.508  32.511  1.00  0.00     0.173 A 
ATOM     77  F   UNL A   1      41.726  32.379  30.996  1.00  0.00    -0.203 F 
ATOM     78  C   UNL A   1      39.507  32.099  31.692  1.00  0.00     0.198 A 
ATOM     79  C   UNL A   1      38.813  30.039  32.683  1.00  0.00     0.198 A 
ATOM     80  F   UNL A   1      40.316  28.245  32.904  1.00  0.00    -0.203 F 
ATOM     81  F   UNL A   1      39.227  33.331  31.243  1.00  0.00    -0.200 F 
ATOM     82  C   UNL A   1      38.514  31.324  32.259  1.00  0.00     0.200 A 
ATOM     83  F   UNL A   1      37.843  29.280  33.213  1.00  0.00    -0.200 F 
ATOM     84  F   UNL A   1      37.267  31.801  32.378  1.00  0.00    -0.200 F 
ENDBRANCH  50  74
BRANCH  62  85
ATOM     85  C   UNL A   1      45.058  24.288  33.046  1.00  0.00     0.064 A 
ATOM     86  C   UNL A   1      44.484  23.095  33.507  1.00  0.00     0.173 A 
ATOM     87  C   UNL A   1      46.425  24.474  33.378  1.00  0.00     0.173 A 
ATOM     88  F   UNL A   1      43.250  22.726  33.140  1.00  0.00    -0.203 F 
ATOM     89  C   UNL A   1      45.186  22.209  34.322  1.00  0.00     0.198 A 
ATOM     90  C   UNL A   1      47.145  23.547  34.124  1.00  0.00     0.198 A 
ATOM     91  F   UNL A   1      47.119  25.547  32.973  1.00  0.00    -0.203 F 
ATOM     92  F   UNL A   1      44.565  21.121  34.800  1.00  0.00    -0.200 F 
ATOM     93  C   UNL A   1      46.518  22.427  34.621  1.00  0.00     0.200 A 
ATOM     94  F   UNL A   1      48.452  23.745  34.346  1.00  0.00    -0.200 F 
ATOM     95  F   UNL A   1      47.198  21.550  35.369  1.00  0.00    -0.200 F 
ENDBRANCH  62  85
ENDBRANCH  36  37
ENDBRANCH  29  31
ENDBRANCH  28  29
ENDBRANCH   1  28
TORSDOF 13
ENDMDL
MODEL 3
REMARK VINA RESULT:     -14.5      3.950     10.089
REMARK SMILES Cc1ccccc1-c1c(Cl)ccc2c1C=C(C(=O)OCCOC(=O)c1ccc(-c3c4nc(c(-c5c(F)c(F)c(F)c(F)c5F)c5ccc([nH]5)c(-c5c(F)c(F)c(F)c(F)c5F)c5nc(c(-c6c(F)c(F)c(F)c(F)c6F)c6ccc3[nH]6)C=C5)C=C4)cc1)[C@@H](C(F)(F)F)O2
REMARK SMILES IDX 21 1 20 2 19 3 17 4 18 5 16 6 8 7 9 8 14 9 10 10 11 11 13 12
REMARK SMILES IDX 15 13 12 14 93 15 88 16 7 17 1 18 2 19 3 20 4 21 6 22 5 23
REMARK SMILES IDX 89 24 90 25 91 26 92 27 22 28 23 29 24 30 25 31 26 32 87 33
REMARK SMILES IDX 27 34 86 35 28 36 29 37 30 38 80 39 31 40 85 41 79 42 81 43
REMARK SMILES IDX 32 44 84 45 78 46 77 47 33 49 65 50 45 51 64 52 46 53 49 54
REMARK SMILES IDX 63 55 82 56 47 57 48 58 62 60 83 61 50 62 34 63 35 64 43 65
REMARK SMILES IDX 36 66 37 67 41 68 44 69 38 70 39 71 42 72 40 73 66 74 67 75
REMARK SMILES IDX 75 76 68 77 69 78 73 79 76 80 70 81 71 82 74 83 72 84 51 85
REMARK SMILES IDX 52 86 60 87 53 88 54 89 58 90 61 91 55 92 56 93 59 94 57 95
REMARK H PARENT 81 48 49 59
REMARK Flexibility Score: inf
ROOT
ATOM      1  C   UNL A   1      38.961  22.373  26.174  1.00  0.00     0.275 C 
ENDROOT
BRANCH   1   2
ATOM      2  C   UNL A   1      37.762  22.331  25.207  1.00  0.00     0.275 C 
BRANCH   2   3
ATOM      3  O   UNL A   1      37.115  23.598  24.928  1.00  0.00    -0.459 OA
BRANCH   3   4
ATOM      4  C   UNL A   1      36.089  23.441  24.040  1.00  0.00     0.338 C 
ATOM      5  O   UNL A   1      36.283  23.311  22.835  1.00  0.00    -0.246 OA
BRANCH   4   6
ATOM      6  C   UNL A   1      34.753  23.212  24.650  1.00  0.00     0.087 C 
ATOM      7  C   UNL A   1      32.123  25.803  24.640  1.00  0.00     0.012 A 
ATOM      8  C   UNL A   1      30.900  25.900  23.916  1.00  0.00     0.049 A 
ATOM      9  C   UNL A   1      32.734  24.510  24.689  1.00  0.00     0.027 A 
ATOM     10  Cl  UNL A   1      30.126  27.425  23.589  1.00  0.00    -0.084 Cl
ATOM     11  C   UNL A   1      30.262  24.775  23.379  1.00  0.00     0.025 A 
ATOM     12  C   UNL A   1      32.084  23.394  24.115  1.00  0.00     0.128 A 
ATOM     13  C   UNL A   1      34.137  24.321  25.094  1.00  0.00     0.028 C 
ATOM     14  C   UNL A   1      30.838  23.519  23.506  1.00  0.00     0.049 A 
ATOM     15  O   UNL A   1      32.650  22.146  24.002  1.00  0.00    -0.475 OA
ATOM     16  C   UNL A   1      33.950  21.951  24.614  1.00  0.00     0.316 C 
BRANCH   7  17
ATOM     17  C   UNL A   1      32.655  27.003  25.371  1.00  0.00    -0.013 A 
ATOM     18  C   UNL A   1      34.032  28.061  23.443  1.00  0.00     0.045 C 
ATOM     19  C   UNL A   1      33.490  28.018  24.843  1.00  0.00    -0.043 A 
ATOM     20  C   UNL A   1      33.925  29.078  25.669  1.00  0.00     0.004 A 
ATOM     21  C   UNL A   1      33.508  29.191  26.988  1.00  0.00     0.000 A 
ATOM     22  C   UNL A   1      32.266  27.146  26.727  1.00  0.00     0.009 A 
ATOM     23  C   UNL A   1      32.665  28.229  27.516  1.00  0.00     0.001 A 
ENDBRANCH   7  17
BRANCH  16  24
ATOM     24  C   UNL A   1      33.762  21.400  26.044  1.00  0.00     0.430 C 
ATOM     25  F   UNL A   1      33.525  20.067  26.037  1.00  0.00    -0.167 F 
ATOM     26  F   UNL A   1      34.873  21.603  26.793  1.00  0.00    -0.167 F 
ATOM     27  F   UNL A   1      32.729  21.982  26.700  1.00  0.00    -0.167 F 
ENDBRANCH  16  24
ENDBRANCH   4   6
ENDBRANCH   3   4
ENDBRANCH   2   3
ENDBRANCH   1   2
BRANCH   1  28
ATOM     28  O   UNL A   1      39.153  23.578  26.953  1.00  0.00    -0.458 OA
BRANCH  28  29
ATOM     29  C   UNL A   1      40.201  24.426  26.824  1.00  0.00     0.338 C 
ATOM     30  O   UNL A   1      41.139  24.213  26.065  1.00  0.00    -0.246 OA
BRANCH  29  31
ATOM     31  C   UNL A   1      40.110  25.677  27.584  1.00  0.00     0.060 A 
ATOM     32  C   UNL A   1      40.338  26.881  26.911  1.00  0.00     0.016 A 
ATOM     33  C   UNL A   1      39.638  25.651  28.892  1.00  0.00     0.016 A 
ATOM     34  C   UNL A   1      39.962  28.076  27.498  1.00  0.00     0.010 A 
ATOM     35  C   UNL A   1      39.163  26.817  29.438  1.00  0.00     0.010 A 
ATOM     36  C   UNL A   1      39.351  28.023  28.752  1.00  0.00    -0.014 A 
BRANCH  36  37
ATOM     37  C   UNL A   1      39.228  29.208  29.582  1.00  0.00     0.031 A 
ATOM     38  C   UNL A   1      38.175  30.188  29.307  1.00  0.00     0.074 A 
ATOM     39  C   UNL A   1      40.209  29.279  30.506  1.00  0.00     0.049 A 
ATOM     40  N   UNL A   1      38.370  31.421  28.991  1.00  0.00    -0.248 NA
ATOM     41  C   UNL A   1      36.766  29.794  29.290  1.00  0.00     0.031 C 
ATOM     42  C   UNL A   1      40.490  30.236  31.552  1.00  0.00     0.029 A 
ATOM     43  N   UNL A   1      41.343  28.445  30.491  1.00  0.00    -0.354 N 
ATOM     44  C   UNL A   1      37.135  32.034  29.100  1.00  0.00     0.074 A 
ATOM     45  C   UNL A   1      36.159  30.970  29.099  1.00  0.00     0.031 C 
ATOM     46  C   UNL A   1      41.809  30.162  31.833  1.00  0.00     0.029 A 
ATOM     47  C   UNL A   1      42.420  29.225  30.890  1.00  0.00     0.049 A 
ATOM     48  H   UNL A   1      41.368  27.493  30.245  1.00  0.00     0.167 HD
ATOM     49  C   UNL A   1      37.026  33.309  29.571  1.00  0.00     0.037 A 
ATOM     50  C   UNL A   1      43.386  29.507  29.970  1.00  0.00     0.037 A 
ATOM     51  C   UNL A   1      38.303  33.695  30.147  1.00  0.00     0.049 A 
ATOM     52  C   UNL A   1      43.412  30.985  29.710  1.00  0.00     0.074 A 
ATOM     53  C   UNL A   1      38.765  33.466  31.434  1.00  0.00     0.029 A 
ATOM     54  N   UNL A   1      39.415  33.936  29.352  1.00  0.00    -0.354 N 
ATOM     55  N   UNL A   1      42.346  31.729  29.590  1.00  0.00    -0.248 NA
ATOM     56  C   UNL A   1      44.660  31.733  29.661  1.00  0.00     0.031 C 
ATOM     57  C   UNL A   1      40.170  33.532  31.412  1.00  0.00     0.029 A 
ATOM     58  C   UNL A   1      40.563  33.807  30.114  1.00  0.00     0.049 A 
ATOM     59  H   UNL A   1      39.391  34.163  28.395  1.00  0.00     0.167 HD
ATOM     60  C   UNL A   1      42.745  33.044  29.550  1.00  0.00     0.074 A 
ATOM     61  C   UNL A   1      44.197  32.989  29.574  1.00  0.00     0.031 C 
ATOM     62  C   UNL A   1      41.875  34.096  29.575  1.00  0.00     0.037 A 
BRANCH  49  63
ATOM     63  C   UNL A   1      35.705  33.920  29.977  1.00  0.00     0.064 A 
ATOM     64  C   UNL A   1      34.871  34.565  29.039  1.00  0.00     0.173 A 
ATOM     65  C   UNL A   1      35.232  33.919  31.303  1.00  0.00     0.173 A 
ATOM     66  F   UNL A   1      35.146  34.556  27.730  1.00  0.00    -0.203 F 
ATOM     67  C   UNL A   1      33.721  35.261  29.416  1.00  0.00     0.198 A 
ATOM     68  C   UNL A   1      34.087  34.631  31.683  1.00  0.00     0.198 A 
ATOM     69  F   UNL A   1      35.885  33.245  32.263  1.00  0.00    -0.203 F 
ATOM     70  F   UNL A   1      32.996  35.897  28.485  1.00  0.00    -0.200 F 
ATOM     71  C   UNL A   1      33.343  35.318  30.741  1.00  0.00     0.200 A 
ATOM     72  F   UNL A   1      33.718  34.667  32.972  1.00  0.00    -0.200 F 
ATOM     73  F   UNL A   1      32.266  36.025  31.106  1.00  0.00    -0.200 F 
ENDBRANCH  49  63
BRANCH  50  74
ATOM     74  C   UNL A   1      43.663  28.461  28.925  1.00  0.00     0.064 A 
ATOM     75  C   UNL A   1      43.994  27.143  29.322  1.00  0.00     0.173 A 
ATOM     76  C   UNL A   1      43.474  28.662  27.552  1.00  0.00     0.173 A 
ATOM     77  F   UNL A   1      44.227  26.867  30.617  1.00  0.00    -0.203 F 
ATOM     78  C   UNL A   1      44.040  26.080  28.419  1.00  0.00     0.198 A 
ATOM     79  C   UNL A   1      43.550  27.597  26.641  1.00  0.00     0.198 A 
ATOM     80  F   UNL A   1      43.174  29.877  27.074  1.00  0.00    -0.203 F 
ATOM     81  F   UNL A   1      44.262  24.834  28.863  1.00  0.00    -0.200 F 
ATOM     82  C   UNL A   1      43.815  26.308  27.075  1.00  0.00     0.200 A 
ATOM     83  F   UNL A   1      43.310  27.815  25.339  1.00  0.00    -0.200 F 
ATOM     84  F   UNL A   1      43.830  25.291  26.203  1.00  0.00    -0.200 F 
ENDBRANCH  50  74
BRANCH  62  85
ATOM     85  C   UNL A   1      42.218  35.540  29.311  1.00  0.00     0.064 A 
ATOM     86  C   UNL A   1      43.039  36.305  30.152  1.00  0.00     0.173 A 
ATOM     87  C   UNL A   1      41.829  36.171  28.101  1.00  0.00     0.173 A 
ATOM     88  F   UNL A   1      43.597  35.780  31.249  1.00  0.00    -0.203 F 
ATOM     89  C   UNL A   1      43.358  37.630  29.859  1.00  0.00     0.198 A 
ATOM     90  C   UNL A   1      42.217  37.467  27.776  1.00  0.00     0.198 A 
ATOM     91  F   UNL A   1      41.078  35.549  27.181  1.00  0.00    -0.203 F 
ATOM     92  F   UNL A   1      44.081  38.342  30.735  1.00  0.00    -0.200 F 
ATOM     93  C   UNL A   1      42.959  38.207  28.669  1.00  0.00     0.200 A 
ATOM     94  F   UNL A   1      41.876  37.984  26.587  1.00  0.00    -0.200 F 
ATOM     95  F   UNL A   1      43.305  39.466  28.374  1.00  0.00    -0.200 F 
ENDBRANCH  62  85
ENDBRANCH  36  37
ENDBRANCH  29  31
ENDBRANCH  28  29
ENDBRANCH   1  28
TORSDOF 13
ENDMDL
