MODEL 1
REMARK VINA RESULT:     -12.9      0.000      0.000
REMARK SMILES [NH3+][C@@]1(C(=O)OCCOC(=O)c2ccc(-c3c4nc(c(-c5c(F)c(F)c(F)c(F)c5F)c5ccc([nH]5)c(-c5c(F)c(F)c(F)c(F)c5F)c5nc(c(-c6c(F)c(F)c(F)c(F)c6F)c6ccc3[nH]6)C=C5)C=C4)cc2)CC[N@H+](Cc2ccc(OCC(=O)N3CCCCC3)cc2)C1
REMARK SMILES IDX 5 1 3 2 4 3 2 4 74 5 94 6 75 7 76 8 1 10 77 14 78 15 79 16
REMARK SMILES IDX 93 17 80 18 92 19 81 20 82 21 83 22 84 23 85 24 86 25 87 26
REMARK SMILES IDX 91 27 88 28 90 29 89 30 6 31 7 32 8 33 9 34 10 35 11 36
REMARK SMILES IDX 12 37 73 38 13 39 72 40 14 41 15 42 16 43 66 44 17 45 71 46
REMARK SMILES IDX 65 47 67 48 18 49 70 50 64 51 63 52 19 54 51 55 31 56 50 57
REMARK SMILES IDX 32 58 35 59 49 60 68 61 33 62 34 63 48 65 69 66 36 67 20 68
REMARK SMILES IDX 21 69 29 70 22 71 23 72 27 73 30 74 24 75 25 76 28 77 26 78
REMARK SMILES IDX 52 79 53 80 61 81 54 82 55 83 59 84 62 85 56 86 57 87 60 88
REMARK SMILES IDX 58 89 37 90 38 91 46 92 39 93 40 94 44 95 47 96 41 97 42 98
REMARK SMILES IDX 45 99 43 100
REMARK H PARENT 76 9 1 11 1 12 1 13 67 53 35 64
REMARK Flexibility Score: inf
ROOT
ATOM      1  O   UNL A   1      31.084  29.907  25.001  1.00  0.00    -0.457 OA
ENDROOT
BRANCH   1   2
ATOM      2  C   UNL A   1      30.272  29.998  23.926  1.00  0.00     0.374 C 
ATOM      3  O   UNL A   1      29.252  30.678  23.888  1.00  0.00    -0.244 OA
BRANCH   2   4
ATOM      4  C   UNL A   1      30.847  29.173  22.743  1.00  0.00     0.246 C 
ATOM      5  C   UNL A   1      29.903  28.012  22.441  1.00  0.00     0.148 C 
ATOM      6  C   UNL A   1      32.168  28.441  23.105  1.00  0.00     0.344 C 
ATOM      7  C   UNL A   1      30.336  26.957  23.455  1.00  0.00     0.270 C 
ATOM      8  N   UNL A   1      31.785  27.087  23.521  1.00  0.00    -0.325 N 
ATOM      9  H   UNL A   1      32.172  26.435  22.839  1.00  0.00     0.348 HD
BRANCH   4  10
ATOM     10  N   UNL A   1      30.987  30.077  21.570  1.00  0.00    -0.338 N 
ATOM     11  H   UNL A   1      31.732  29.734  20.964  1.00  0.00     0.345 HD
ATOM     12  H   UNL A   1      31.215  31.018  21.891  1.00  0.00     0.345 HD
ATOM     13  H   UNL A   1      30.110  30.098  21.051  1.00  0.00     0.345 HD
ENDBRANCH   4  10
BRANCH   8  14
ATOM     14  C   UNL A   1      32.482  26.507  24.675  1.00  0.00     0.299 C 
BRANCH  14  15
ATOM     15  C   UNL A   1      33.516  25.414  24.438  1.00  0.00     0.006 A 
ATOM     16  C   UNL A   1      34.409  25.046  25.451  1.00  0.00     0.013 A 
ATOM     17  C   UNL A   1      33.641  24.749  23.207  1.00  0.00     0.013 A 
ATOM     18  C   UNL A   1      35.274  23.953  25.285  1.00  0.00     0.047 A 
ATOM     19  C   UNL A   1      34.474  23.623  23.055  1.00  0.00     0.047 A 
ATOM     20  C   UNL A   1      35.225  23.165  24.130  1.00  0.00     0.120 A 
BRANCH  20  21
ATOM     21  O   UNL A   1      35.834  21.944  24.251  1.00  0.00    -0.484 OA
BRANCH  21  22
ATOM     22  C   UNL A   1      35.433  21.026  25.252  1.00  0.00     0.329 C 
BRANCH  22  23
ATOM     23  C   UNL A   1      34.054  20.304  25.282  1.00  0.00     0.260 C 
ATOM     24  O   UNL A   1      33.083  20.911  25.752  1.00  0.00    -0.271 OA
ATOM     25  N   UNL A   1      33.899  19.040  24.712  1.00  0.00    -0.340 N 
ATOM     26  C   UNL A   1      32.545  18.581  24.389  1.00  0.00     0.119 C 
ATOM     27  C   UNL A   1      34.964  18.126  24.298  1.00  0.00     0.119 C 
ATOM     28  C   UNL A   1      32.250  17.218  24.999  1.00  0.00     0.022 C 
ATOM     29  C   UNL A   1      34.704  16.686  24.773  1.00  0.00     0.022 C 
ATOM     30  C   UNL A   1      33.278  16.190  24.539  1.00  0.00     0.004 C 
ENDBRANCH  22  23
ENDBRANCH  21  22
ENDBRANCH  20  21
ENDBRANCH  14  15
ENDBRANCH   8  14
ENDBRANCH   2   4
ENDBRANCH   1   2
BRANCH   1  31
ATOM     31  C   UNL A   1      31.274  31.056  25.822  1.00  0.00     0.274 C 
BRANCH  31  32
ATOM     32  C   UNL A   1      31.994  30.585  27.096  1.00  0.00     0.275 C 
BRANCH  32  33
ATOM     33  O   UNL A   1      33.407  30.727  26.940  1.00  0.00    -0.458 OA
BRANCH  33  34
ATOM     34  C   UNL A   1      33.901  31.813  27.565  1.00  0.00     0.338 C 
ATOM     35  O   UNL A   1      33.316  32.813  27.936  1.00  0.00    -0.246 OA
BRANCH  34  36
ATOM     36  C   UNL A   1      35.243  31.443  28.004  1.00  0.00     0.060 A 
ATOM     37  C   UNL A   1      35.497  30.080  28.164  1.00  0.00     0.016 A 
ATOM     38  C   UNL A   1      36.222  32.406  28.243  1.00  0.00     0.016 A 
ATOM     39  C   UNL A   1      36.700  29.669  28.694  1.00  0.00     0.010 A 
ATOM     40  C   UNL A   1      37.447  31.991  28.743  1.00  0.00     0.010 A 
ATOM     41  C   UNL A   1      37.657  30.629  29.027  1.00  0.00    -0.014 A 
BRANCH  41  42
ATOM     42  C   UNL A   1      38.795  30.234  29.866  1.00  0.00     0.031 A 
ATOM     43  C   UNL A   1      39.792  29.281  29.282  1.00  0.00     0.074 A 
ATOM     44  C   UNL A   1      38.936  30.747  31.096  1.00  0.00     0.049 A 
ATOM     45  N   UNL A   1      40.752  28.623  29.870  1.00  0.00    -0.248 NA
ATOM     46  C   UNL A   1      39.672  29.016  27.837  1.00  0.00     0.031 C 
ATOM     47  C   UNL A   1      38.059  31.750  31.699  1.00  0.00     0.029 A 
ATOM     48  N   UNL A   1      39.868  30.483  32.061  1.00  0.00    -0.354 N 
ATOM     49  C   UNL A   1      41.307  27.821  28.883  1.00  0.00     0.074 A 
ATOM     50  C   UNL A   1      40.580  28.069  27.660  1.00  0.00     0.031 C 
ATOM     51  C   UNL A   1      38.488  32.009  32.943  1.00  0.00     0.029 A 
ATOM     52  C   UNL A   1      39.621  31.137  33.239  1.00  0.00     0.049 A 
ATOM     53  H   UNL A   1      40.636  29.884  31.923  1.00  0.00     0.167 HD
ATOM     54  C   UNL A   1      42.333  26.948  29.007  1.00  0.00     0.037 A 
ATOM     55  C   UNL A   1      40.215  30.994  34.436  1.00  0.00     0.037 A 
ATOM     56  C   UNL A   1      43.065  26.771  30.231  1.00  0.00     0.049 A 
ATOM     57  C   UNL A   1      41.338  30.003  34.559  1.00  0.00     0.074 A 
ATOM     58  C   UNL A   1      44.142  25.945  30.483  1.00  0.00     0.029 A 
ATOM     59  N   UNL A   1      42.791  27.453  31.411  1.00  0.00    -0.354 N 
ATOM     60  N   UNL A   1      41.842  29.208  33.644  1.00  0.00    -0.248 NA
ATOM     61  C   UNL A   1      41.970  29.878  35.878  1.00  0.00     0.031 C 
ATOM     62  C   UNL A   1      44.493  26.093  31.829  1.00  0.00     0.029 A 
ATOM     63  C   UNL A   1      43.667  27.051  32.403  1.00  0.00     0.049 A 
ATOM     64  H   UNL A   1      42.078  28.123  31.525  1.00  0.00     0.167 HD
ATOM     65  C   UNL A   1      42.860  28.501  34.266  1.00  0.00     0.074 A 
ATOM     66  C   UNL A   1      42.907  28.968  35.639  1.00  0.00     0.031 C 
ATOM     67  C   UNL A   1      43.683  27.552  33.755  1.00  0.00     0.037 A 
BRANCH  54  68
ATOM     68  C   UNL A   1      42.668  26.097  27.820  1.00  0.00     0.064 A 
ATOM     69  C   UNL A   1      42.011  24.887  27.553  1.00  0.00     0.173 A 
ATOM     70  C   UNL A   1      43.683  26.499  26.937  1.00  0.00     0.173 A 
ATOM     71  F   UNL A   1      41.052  24.442  28.379  1.00  0.00    -0.203 F 
ATOM     72  C   UNL A   1      42.379  24.097  26.465  1.00  0.00     0.198 A 
ATOM     73  C   UNL A   1      44.026  25.723  25.833  1.00  0.00     0.198 A 
ATOM     74  F   UNL A   1      44.347  27.646  27.147  1.00  0.00    -0.203 F 
ATOM     75  F   UNL A   1      41.780  22.915  26.265  1.00  0.00    -0.200 F 
ATOM     76  C   UNL A   1      43.381  24.518  25.604  1.00  0.00     0.200 A 
ATOM     77  F   UNL A   1      44.990  26.137  24.999  1.00  0.00    -0.200 F 
ATOM     78  F   UNL A   1      43.733  23.757  24.559  1.00  0.00    -0.200 F 
ENDBRANCH  54  68
BRANCH  55  79
ATOM     79  C   UNL A   1      39.717  31.778  35.592  1.00  0.00     0.064 A 
ATOM     80  C   UNL A   1      40.225  33.051  35.878  1.00  0.00     0.173 A 
ATOM     81  C   UNL A   1      38.679  31.290  36.402  1.00  0.00     0.173 A 
ATOM     82  F   UNL A   1      41.228  33.553  35.143  1.00  0.00    -0.203 F 
ATOM     83  C   UNL A   1      39.714  33.807  36.932  1.00  0.00     0.198 A 
ATOM     84  C   UNL A   1      38.150  32.058  37.437  1.00  0.00     0.198 A 
ATOM     85  F   UNL A   1      38.154  30.079  36.166  1.00  0.00    -0.203 F 
ATOM     86  F   UNL A   1      40.233  35.013  37.201  1.00  0.00    -0.200 F 
ATOM     87  C   UNL A   1      38.670  33.315  37.703  1.00  0.00     0.200 A 
ATOM     88  F   UNL A   1      37.132  31.585  38.167  1.00  0.00    -0.200 F 
ATOM     89  F   UNL A   1      38.169  34.050  38.704  1.00  0.00    -0.200 F 
ENDBRANCH  55  79
BRANCH  67  90
ATOM     90  C   UNL A   1      44.723  26.986  34.671  1.00  0.00     0.064 A 
ATOM     91  C   UNL A   1      44.488  25.820  35.412  1.00  0.00     0.173 A 
ATOM     92  C   UNL A   1      45.993  27.574  34.742  1.00  0.00     0.173 A 
ATOM     93  F   UNL A   1      43.283  25.233  35.384  1.00  0.00    -0.203 F 
ATOM     94  C   UNL A   1      45.491  25.268  36.203  1.00  0.00     0.198 A 
ATOM     95  C   UNL A   1      47.002  27.005  35.512  1.00  0.00     0.198 A 
ATOM     96  F   UNL A   1      46.264  28.686  34.041  1.00  0.00    -0.203 F 
ATOM     97  F   UNL A   1      45.241  24.169  36.928  1.00  0.00    -0.200 F 
ATOM     98  C   UNL A   1      46.749  25.854  36.243  1.00  0.00     0.200 A 
ATOM     99  F   UNL A   1      48.220  27.562  35.537  1.00  0.00    -0.200 F 
ATOM    100  F   UNL A   1      47.718  25.309  36.991  1.00  0.00    -0.200 F 
ENDBRANCH  67  90
ENDBRANCH  41  42
ENDBRANCH  34  36
ENDBRANCH  33  34
ENDBRANCH  32  33
ENDBRANCH  31  32
ENDBRANCH   1  31
TORSDOF 17
ENDMDL
MODEL 2
REMARK VINA RESULT:     -12.9      0.626      2.062
REMARK SMILES [NH3+][C@@]1(C(=O)OCCOC(=O)c2ccc(-c3c4nc(c(-c5c(F)c(F)c(F)c(F)c5F)c5ccc([nH]5)c(-c5c(F)c(F)c(F)c(F)c5F)c5nc(c(-c6c(F)c(F)c(F)c(F)c6F)c6ccc3[nH]6)C=C5)C=C4)cc2)CC[N@H+](Cc2ccc(OCC(=O)N3CCCCC3)cc2)C1
REMARK SMILES IDX 5 1 3 2 4 3 2 4 74 5 94 6 75 7 76 8 1 10 77 14 78 15 79 16
REMARK SMILES IDX 93 17 80 18 92 19 81 20 82 21 83 22 84 23 85 24 86 25 87 26
REMARK SMILES IDX 91 27 88 28 90 29 89 30 6 31 7 32 8 33 9 34 10 35 11 36
REMARK SMILES IDX 12 37 73 38 13 39 72 40 14 41 15 42 16 43 66 44 17 45 71 46
REMARK SMILES IDX 65 47 67 48 18 49 70 50 64 51 63 52 19 54 51 55 31 56 50 57
REMARK SMILES IDX 32 58 35 59 49 60 68 61 33 62 34 63 48 65 69 66 36 67 20 68
REMARK SMILES IDX 21 69 29 70 22 71 23 72 27 73 30 74 24 75 25 76 28 77 26 78
REMARK SMILES IDX 52 79 53 80 61 81 54 82 55 83 59 84 62 85 56 86 57 87 60 88
REMARK SMILES IDX 58 89 37 90 38 91 46 92 39 93 40 94 44 95 47 96 41 97 42 98
REMARK SMILES IDX 45 99 43 100
REMARK H PARENT 76 9 1 11 1 12 1 13 67 53 35 64
REMARK Flexibility Score: inf
ROOT
ATOM      1  O   UNL A   1      31.753  29.795  24.744  1.00  0.00    -0.457 OA
ENDROOT
BRANCH   1   2
ATOM      2  C   UNL A   1      30.701  29.840  23.898  1.00  0.00     0.374 C 
ATOM      3  O   UNL A   1      29.637  30.396  24.150  1.00  0.00    -0.244 OA
BRANCH   2   4
ATOM      4  C   UNL A   1      31.057  29.146  22.555  1.00  0.00     0.246 C 
ATOM      5  C   UNL A   1      30.343  27.799  22.487  1.00  0.00     0.148 C 
ATOM      6  C   UNL A   1      32.552  28.734  22.469  1.00  0.00     0.344 C 
ATOM      7  C   UNL A   1      31.280  26.884  23.269  1.00  0.00     0.270 C 
ATOM      8  N   UNL A   1      32.617  27.336  22.908  1.00  0.00    -0.325 N 
ATOM      9  H   UNL A   1      32.913  26.776  22.108  1.00  0.00     0.348 HD
BRANCH   4  10
ATOM     10  N   UNL A   1      30.636  30.040  21.444  1.00  0.00    -0.338 N 
ATOM     11  H   UNL A   1      31.187  30.898  21.471  1.00  0.00     0.345 HD
ATOM     12  H   UNL A   1      29.647  30.267  21.547  1.00  0.00     0.345 HD
ATOM     13  H   UNL A   1      30.787  29.568  20.553  1.00  0.00     0.345 HD
ENDBRANCH   4  10
BRANCH   8  14
ATOM     14  C   UNL A   1      33.739  26.944  23.770  1.00  0.00     0.299 C 
BRANCH  14  15
ATOM     15  C   UNL A   1      33.798  25.516  24.298  1.00  0.00     0.006 A 
ATOM     16  C   UNL A   1      33.816  24.431  23.415  1.00  0.00     0.013 A 
ATOM     17  C   UNL A   1      33.811  25.220  25.671  1.00  0.00     0.013 A 
ATOM     18  C   UNL A   1      34.003  23.122  23.889  1.00  0.00     0.047 A 
ATOM     19  C   UNL A   1      34.045  23.915  26.145  1.00  0.00     0.047 A 
ATOM     20  C   UNL A   1      34.236  22.873  25.246  1.00  0.00     0.120 A 
BRANCH  20  21
ATOM     21  O   UNL A   1      34.764  21.638  25.512  1.00  0.00    -0.484 OA
BRANCH  21  22
ATOM     22  C   UNL A   1      34.453  20.523  24.697  1.00  0.00     0.329 C 
BRANCH  22  23
ATOM     23  C   UNL A   1      33.357  19.467  25.029  1.00  0.00     0.260 C 
ATOM     24  O   UNL A   1      32.269  19.867  25.463  1.00  0.00    -0.271 OA
ATOM     25  N   UNL A   1      33.566  18.114  24.761  1.00  0.00    -0.340 N 
ATOM     26  C   UNL A   1      32.400  17.228  24.692  1.00  0.00     0.119 C 
ATOM     27  C   UNL A   1      34.838  17.469  24.435  1.00  0.00     0.119 C 
ATOM     28  C   UNL A   1      32.553  16.021  25.605  1.00  0.00     0.022 C 
ATOM     29  C   UNL A   1      35.042  16.167  25.229  1.00  0.00     0.022 C 
ATOM     30  C   UNL A   1      33.823  15.247  25.264  1.00  0.00     0.004 C 
ENDBRANCH  22  23
ENDBRANCH  21  22
ENDBRANCH  20  21
ENDBRANCH  14  15
ENDBRANCH   8  14
ENDBRANCH   2   4
ENDBRANCH   1   2
BRANCH   1  31
ATOM     31  C   UNL A   1      31.508  29.759  26.148  1.00  0.00     0.274 C 
BRANCH  31  32
ATOM     32  C   UNL A   1      31.900  31.136  26.708  1.00  0.00     0.275 C 
BRANCH  32  33
ATOM     33  O   UNL A   1      33.048  31.014  27.549  1.00  0.00    -0.458 OA
BRANCH  33  34
ATOM     34  C   UNL A   1      33.780  32.144  27.612  1.00  0.00     0.338 C 
ATOM     35  O   UNL A   1      33.404  33.300  27.574  1.00  0.00    -0.246 OA
BRANCH  34  36
ATOM     36  C   UNL A   1      35.109  31.732  28.052  1.00  0.00     0.060 A 
ATOM     37  C   UNL A   1      35.289  30.374  28.320  1.00  0.00     0.016 A 
ATOM     38  C   UNL A   1      36.147  32.652  28.188  1.00  0.00     0.016 A 
ATOM     39  C   UNL A   1      36.481  29.938  28.857  1.00  0.00     0.010 A 
ATOM     40  C   UNL A   1      37.359  32.209  28.695  1.00  0.00     0.010 A 
ATOM     41  C   UNL A   1      37.498  30.865  29.088  1.00  0.00    -0.014 A 
BRANCH  41  42
ATOM     42  C   UNL A   1      38.634  30.474  29.932  1.00  0.00     0.031 A 
ATOM     43  C   UNL A   1      39.638  29.526  29.353  1.00  0.00     0.074 A 
ATOM     44  C   UNL A   1      38.766  30.986  31.164  1.00  0.00     0.049 A 
ATOM     45  N   UNL A   1      40.599  28.872  29.945  1.00  0.00    -0.248 NA
ATOM     46  C   UNL A   1      39.528  29.262  27.907  1.00  0.00     0.031 C 
ATOM     47  C   UNL A   1      37.881  31.985  31.762  1.00  0.00     0.029 A 
ATOM     48  N   UNL A   1      39.694  30.725  32.133  1.00  0.00    -0.354 N 
ATOM     49  C   UNL A   1      41.163  28.073  28.960  1.00  0.00     0.074 A 
ATOM     50  C   UNL A   1      40.440  28.320  27.734  1.00  0.00     0.031 C 
ATOM     51  C   UNL A   1      38.303  32.244  33.009  1.00  0.00     0.029 A 
ATOM     52  C   UNL A   1      39.438  31.377  33.311  1.00  0.00     0.049 A 
ATOM     53  H   UNL A   1      40.466  30.130  31.999  1.00  0.00     0.167 HD
ATOM     54  C   UNL A   1      42.192  27.206  29.089  1.00  0.00     0.037 A 
ATOM     55  C   UNL A   1      40.027  31.236  34.511  1.00  0.00     0.037 A 
ATOM     56  C   UNL A   1      42.918  27.030  30.317  1.00  0.00     0.049 A 
ATOM     57  C   UNL A   1      41.153  30.250  34.639  1.00  0.00     0.074 A 
ATOM     58  C   UNL A   1      43.998  26.209  30.574  1.00  0.00     0.029 A 
ATOM     59  N   UNL A   1      42.634  27.710  31.496  1.00  0.00    -0.354 N 
ATOM     60  N   UNL A   1      41.665  29.458  33.726  1.00  0.00    -0.248 NA
ATOM     61  C   UNL A   1      41.779  30.126  35.961  1.00  0.00     0.031 C 
ATOM     62  C   UNL A   1      44.341  26.357  31.922  1.00  0.00     0.029 A 
ATOM     63  C   UNL A   1      43.507  27.310  32.492  1.00  0.00     0.049 A 
ATOM     64  H   UNL A   1      41.918  28.376  31.607  1.00  0.00     0.167 HD
ATOM     65  C   UNL A   1      42.683  28.754  34.352  1.00  0.00     0.074 A 
ATOM     66  C   UNL A   1      42.721  29.221  35.726  1.00  0.00     0.031 C 
ATOM     67  C   UNL A   1      43.513  27.810  33.844  1.00  0.00     0.037 A 
BRANCH  54  68
ATOM     68  C   UNL A   1      42.537  26.357  27.903  1.00  0.00     0.064 A 
ATOM     69  C   UNL A   1      43.519  26.727  26.973  1.00  0.00     0.173 A 
ATOM     70  C   UNL A   1      41.855  25.148  27.689  1.00  0.00     0.173 A 
ATOM     71  F   UNL A   1      44.182  27.884  27.116  1.00  0.00    -0.203 F 
ATOM     72  C   UNL A   1      43.783  25.936  25.856  1.00  0.00     0.198 A 
ATOM     73  C   UNL A   1      42.143  24.344  26.589  1.00  0.00     0.198 A 
ATOM     74  F   UNL A   1      40.902  24.747  28.544  1.00  0.00    -0.203 F 
ATOM     75  F   UNL A   1      44.682  26.340  24.948  1.00  0.00    -0.200 F 
ATOM     76  C   UNL A   1      43.100  24.744  25.669  1.00  0.00     0.200 A 
ATOM     77  F   UNL A   1      41.486  23.189  26.414  1.00  0.00    -0.200 F 
ATOM     78  F   UNL A   1      43.355  23.984  24.594  1.00  0.00    -0.200 F 
ENDBRANCH  54  68
BRANCH  55  79
ATOM     79  C   UNL A   1      39.519  32.016  35.665  1.00  0.00     0.064 A 
ATOM     80  C   UNL A   1      38.552  31.488  36.528  1.00  0.00     0.173 A 
ATOM     81  C   UNL A   1      40.035  33.289  35.961  1.00  0.00     0.173 A 
ATOM     82  F   UNL A   1      38.017  30.283  36.279  1.00  0.00    -0.203 F 
ATOM     83  C   UNL A   1      38.119  32.202  37.644  1.00  0.00     0.198 A 
ATOM     84  C   UNL A   1      39.622  33.989  37.091  1.00  0.00     0.198 A 
ATOM     85  F   UNL A   1      40.967  33.837  35.168  1.00  0.00    -0.203 F 
ATOM     86  F   UNL A   1      37.174  31.685  38.443  1.00  0.00    -0.200 F 
ATOM     87  C   UNL A   1      38.662  33.447  37.931  1.00  0.00     0.200 A 
ATOM     88  F   UNL A   1      40.162  35.182  37.372  1.00  0.00    -0.200 F 
ATOM     89  F   UNL A   1      38.257  34.124  39.013  1.00  0.00    -0.200 F 
ENDBRANCH  55  79
BRANCH  67  90
ATOM     90  C   UNL A   1      44.551  27.248  34.766  1.00  0.00     0.064 A 
ATOM     91  C   UNL A   1      45.775  27.896  34.972  1.00  0.00     0.173 A 
ATOM     92  C   UNL A   1      44.277  26.092  35.511  1.00  0.00     0.173 A 
ATOM     93  F   UNL A   1      46.083  28.997  34.271  1.00  0.00    -0.203 F 
ATOM     94  C   UNL A   1      46.698  27.398  35.887  1.00  0.00     0.198 A 
ATOM     95  C   UNL A   1      45.189  25.612  36.444  1.00  0.00     0.198 A 
ATOM     96  F   UNL A   1      43.113  25.445  35.353  1.00  0.00    -0.203 F 
ATOM     97  F   UNL A   1      47.877  28.014  36.050  1.00  0.00    -0.200 F 
ATOM     98  C   UNL A   1      46.400  26.264  36.629  1.00  0.00     0.200 A 
ATOM     99  F   UNL A   1      44.894  24.527  37.172  1.00  0.00    -0.200 F 
ATOM    100  F   UNL A   1      47.282  25.797  37.523  1.00  0.00    -0.200 F 
ENDBRANCH  67  90
ENDBRANCH  41  42
ENDBRANCH  34  36
ENDBRANCH  33  34
ENDBRANCH  32  33
ENDBRANCH  31  32
ENDBRANCH   1  31
TORSDOF 17
ENDMDL
MODEL 3
REMARK VINA RESULT:     -12.6      1.439      2.347
REMARK SMILES [NH3+][C@@]1(C(=O)OCCOC(=O)c2ccc(-c3c4nc(c(-c5c(F)c(F)c(F)c(F)c5F)c5ccc([nH]5)c(-c5c(F)c(F)c(F)c(F)c5F)c5nc(c(-c6c(F)c(F)c(F)c(F)c6F)c6ccc3[nH]6)C=C5)C=C4)cc2)CC[N@H+](Cc2ccc(OCC(=O)N3CCCCC3)cc2)C1
REMARK SMILES IDX 5 1 3 2 4 3 2 4 74 5 94 6 75 7 76 8 1 10 77 14 78 15 79 16
REMARK SMILES IDX 93 17 80 18 92 19 81 20 82 21 83 22 84 23 85 24 86 25 87 26
REMARK SMILES IDX 91 27 88 28 90 29 89 30 6 31 7 32 8 33 9 34 10 35 11 36
REMARK SMILES IDX 12 37 73 38 13 39 72 40 14 41 15 42 16 43 66 44 17 45 71 46
REMARK SMILES IDX 65 47 67 48 18 49 70 50 64 51 63 52 19 54 51 55 31 56 50 57
REMARK SMILES IDX 32 58 35 59 49 60 68 61 33 62 34 63 48 65 69 66 36 67 20 68
REMARK SMILES IDX 21 69 29 70 22 71 23 72 27 73 30 74 24 75 25 76 28 77 26 78
REMARK SMILES IDX 52 79 53 80 61 81 54 82 55 83 59 84 62 85 56 86 57 87 60 88
REMARK SMILES IDX 58 89 37 90 38 91 46 92 39 93 40 94 44 95 47 96 41 97 42 98
REMARK SMILES IDX 45 99 43 100
REMARK H PARENT 76 9 1 11 1 12 1 13 67 53 35 64
REMARK Flexibility Score: inf
ROOT
ATOM      1  O   UNL A   1      31.159  29.540  24.872  1.00  0.00    -0.457 OA
ENDROOT
BRANCH   1   2
ATOM      2  C   UNL A   1      31.919  29.151  23.826  1.00  0.00     0.374 C 
ATOM      3  O   UNL A   1      33.142  29.058  23.859  1.00  0.00    -0.244 OA
BRANCH   2   4
ATOM      4  C   UNL A   1      31.022  28.786  22.612  1.00  0.00     0.246 C 
ATOM      5  C   UNL A   1      29.621  28.445  23.113  1.00  0.00     0.148 C 
ATOM      6  C   UNL A   1      31.456  27.467  21.917  1.00  0.00     0.344 C 
ATOM      7  C   UNL A   1      29.758  26.981  23.518  1.00  0.00     0.270 C 
ATOM      8  N   UNL A   1      30.636  26.404  22.508  1.00  0.00    -0.325 N 
ATOM      9  H   UNL A   1      30.036  26.032  21.772  1.00  0.00     0.348 HD
BRANCH   4  10
ATOM     10  N   UNL A   1      30.998  29.950  21.686  1.00  0.00    -0.338 N 
ATOM     11  H   UNL A   1      31.624  29.771  20.900  1.00  0.00     0.345 HD
ATOM     12  H   UNL A   1      31.306  30.786  22.183  1.00  0.00     0.345 HD
ATOM     13  H   UNL A   1      30.049  30.089  21.340  1.00  0.00     0.345 HD
ENDBRANCH   4  10
BRANCH   8  14
ATOM     14  C   UNL A   1      31.292  25.125  22.808  1.00  0.00     0.299 C 
BRANCH  14  15
ATOM     15  C   UNL A   1      31.372  24.661  24.257  1.00  0.00     0.006 A 
ATOM     16  C   UNL A   1      30.745  23.476  24.659  1.00  0.00     0.013 A 
ATOM     17  C   UNL A   1      32.044  25.394  25.248  1.00  0.00     0.013 A 
ATOM     18  C   UNL A   1      30.924  22.974  25.959  1.00  0.00     0.047 A 
ATOM     19  C   UNL A   1      32.263  24.870  26.537  1.00  0.00     0.047 A 
ATOM     20  C   UNL A   1      31.780  23.609  26.865  1.00  0.00     0.120 A 
BRANCH  20  21
ATOM     21  O   UNL A   1      32.149  22.835  27.933  1.00  0.00    -0.484 OA
BRANCH  21  22
ATOM     22  C   UNL A   1      33.374  22.124  27.928  1.00  0.00     0.329 C 
BRANCH  22  23
ATOM     23  C   UNL A   1      34.046  21.537  26.651  1.00  0.00     0.260 C 
ATOM     24  O   UNL A   1      33.709  20.406  26.277  1.00  0.00    -0.271 OA
ATOM     25  N   UNL A   1      34.937  22.303  25.898  1.00  0.00    -0.340 N 
ATOM     26  C   UNL A   1      35.217  21.892  24.519  1.00  0.00     0.119 C 
ATOM     27  C   UNL A   1      35.573  23.558  26.298  1.00  0.00     0.119 C 
ATOM     28  C   UNL A   1      36.711  21.757  24.263  1.00  0.00     0.022 C 
ATOM     29  C   UNL A   1      37.077  23.568  25.977  1.00  0.00     0.022 C 
ATOM     30  C   UNL A   1      37.430  23.064  24.579  1.00  0.00     0.004 C 
ENDBRANCH  22  23
ENDBRANCH  21  22
ENDBRANCH  20  21
ENDBRANCH  14  15
ENDBRANCH   8  14
ENDBRANCH   2   4
ENDBRANCH   1   2
BRANCH   1  31
ATOM     31  C   UNL A   1      31.727  29.534  26.180  1.00  0.00     0.274 C 
BRANCH  31  32
ATOM     32  C   UNL A   1      32.047  30.994  26.537  1.00  0.00     0.275 C 
BRANCH  32  33
ATOM     33  O   UNL A   1      32.944  31.040  27.649  1.00  0.00    -0.458 OA
BRANCH  33  34
ATOM     34  C   UNL A   1      33.678  32.170  27.689  1.00  0.00     0.338 C 
ATOM     35  O   UNL A   1      33.302  33.326  27.662  1.00  0.00    -0.246 OA
BRANCH  34  36
ATOM     36  C   UNL A   1      35.020  31.756  28.088  1.00  0.00     0.060 A 
ATOM     37  C   UNL A   1      35.210  30.396  28.337  1.00  0.00     0.016 A 
ATOM     38  C   UNL A   1      36.059  32.678  28.206  1.00  0.00     0.016 A 
ATOM     39  C   UNL A   1      36.417  29.958  28.836  1.00  0.00     0.010 A 
ATOM     40  C   UNL A   1      37.286  32.232  28.675  1.00  0.00     0.010 A 
ATOM     41  C   UNL A   1      37.438  30.884  29.049  1.00  0.00    -0.014 A 
BRANCH  41  42
ATOM     42  C   UNL A   1      38.598  30.487  29.858  1.00  0.00     0.031 A 
ATOM     43  C   UNL A   1      39.572  29.524  29.253  1.00  0.00     0.074 A 
ATOM     44  C   UNL A   1      38.776  31.007  31.080  1.00  0.00     0.049 A 
ATOM     45  N   UNL A   1      40.544  28.864  29.817  1.00  0.00    -0.248 NA
ATOM     46  C   UNL A   1      39.409  29.251  27.813  1.00  0.00     0.031 C 
ATOM     47  C   UNL A   1      37.923  32.020  31.701  1.00  0.00     0.029 A 
ATOM     48  N   UNL A   1      39.734  30.743  32.020  1.00  0.00    -0.354 N 
ATOM     49  C   UNL A   1      41.066  28.052  28.820  1.00  0.00     0.074 A 
ATOM     50  C   UNL A   1      40.306  28.297  27.617  1.00  0.00     0.031 C 
ATOM     51  C   UNL A   1      38.389  32.284  32.931  1.00  0.00     0.029 A 
ATOM     52  C   UNL A   1      39.524  31.406  33.201  1.00  0.00     0.049 A 
ATOM     53  H   UNL A   1      40.494  30.139  31.864  1.00  0.00     0.167 HD
ATOM     54  C   UNL A   1      42.089  27.174  28.921  1.00  0.00     0.037 A 
ATOM     55  C   UNL A   1      40.152  31.268  34.381  1.00  0.00     0.037 A 
ATOM     56  C   UNL A   1      42.855  27.000  30.125  1.00  0.00     0.049 A 
ATOM     57  C   UNL A   1      41.271  30.270  34.479  1.00  0.00     0.074 A 
ATOM     58  C   UNL A   1      43.934  26.168  30.352  1.00  0.00     0.029 A 
ATOM     59  N   UNL A   1      42.618  27.691  31.308  1.00  0.00    -0.354 N 
ATOM     60  N   UNL A   1      41.744  29.466  33.555  1.00  0.00    -0.248 NA
ATOM     61  C   UNL A   1      41.939  30.149  35.780  1.00  0.00     0.031 C 
ATOM     62  C   UNL A   1      44.323  26.323  31.687  1.00  0.00     0.029 A 
ATOM     63  C   UNL A   1      43.520  27.289  32.277  1.00  0.00     0.049 A 
ATOM     64  H   UNL A   1      41.914  28.366  31.437  1.00  0.00     0.167 HD
ATOM     65  C   UNL A   1      42.774  28.756  34.152  1.00  0.00     0.074 A 
ATOM     66  C   UNL A   1      42.863  29.232  35.521  1.00  0.00     0.031 C 
ATOM     67  C   UNL A   1      43.577  27.799  33.624  1.00  0.00     0.037 A 
BRANCH  54  68
ATOM     68  C   UNL A   1      42.385  26.312  27.731  1.00  0.00     0.064 A 
ATOM     69  C   UNL A   1      41.688  25.124  27.470  1.00  0.00     0.173 A 
ATOM     70  C   UNL A   1      43.404  26.683  26.838  1.00  0.00     0.173 A 
ATOM     71  F   UNL A   1      40.723  24.710  28.306  1.00  0.00    -0.203 F 
ATOM     72  C   UNL A   1      42.019  24.323  26.379  1.00  0.00     0.198 A 
ATOM     73  C   UNL A   1      43.711  25.897  25.731  1.00  0.00     0.198 A 
ATOM     74  F   UNL A   1      44.106  27.808  27.042  1.00  0.00    -0.203 F 
ATOM     75  F   UNL A   1      41.381  23.161  26.184  1.00  0.00    -0.200 F 
ATOM     76  C   UNL A   1      43.026  24.713  25.508  1.00  0.00     0.200 A 
ATOM     77  F   UNL A   1      44.679  26.280  24.887  1.00  0.00    -0.200 F 
ATOM     78  F   UNL A   1      43.343  23.941  24.459  1.00  0.00    -0.200 F 
ENDBRANCH  54  68
BRANCH  55  79
ATOM     79  C   UNL A   1      39.691  32.062  35.546  1.00  0.00     0.064 A 
ATOM     80  C   UNL A   1      40.182  33.351  35.784  1.00  0.00     0.173 A 
ATOM     81  C   UNL A   1      38.705  31.566  36.414  1.00  0.00     0.173 A 
ATOM     82  F   UNL A   1      41.136  33.862  34.992  1.00  0.00    -0.203 F 
ATOM     83  C   UNL A   1      39.704  34.116  36.847  1.00  0.00     0.198 A 
ATOM     84  C   UNL A   1      38.209  32.342  37.459  1.00  0.00     0.198 A 
ATOM     85  F   UNL A   1      38.198  30.339  36.225  1.00  0.00    -0.203 F 
ATOM     86  F   UNL A   1      40.207  35.339  37.069  1.00  0.00    -0.200 F 
ATOM     87  C   UNL A   1      38.711  33.615  37.677  1.00  0.00     0.200 A 
ATOM     88  F   UNL A   1      37.238  31.860  38.245  1.00  0.00    -0.200 F 
ATOM     89  F   UNL A   1      38.241  34.358  38.687  1.00  0.00    -0.200 F 
ENDBRANCH  55  79
BRANCH  67  90
ATOM     90  C   UNL A   1      44.639  27.232  34.515  1.00  0.00     0.064 A 
ATOM     91  C   UNL A   1      45.889  27.850  34.648  1.00  0.00     0.173 A 
ATOM     92  C   UNL A   1      44.367  26.105  35.304  1.00  0.00     0.173 A 
ATOM     93  F   UNL A   1      46.195  28.923  33.904  1.00  0.00    -0.203 F 
ATOM     94  C   UNL A   1      46.837  27.351  35.536  1.00  0.00     0.198 A 
ATOM     95  C   UNL A   1      45.306  25.624  36.209  1.00  0.00     0.198 A 
ATOM     96  F   UNL A   1      43.179  25.488  35.215  1.00  0.00    -0.203 F 
ATOM     97  F   UNL A   1      48.039  27.937  35.629  1.00  0.00    -0.200 F 
ATOM     98  C   UNL A   1      46.541  26.246  36.322  1.00  0.00     0.200 A 
ATOM     99  F   UNL A   1      45.014  24.568  36.979  1.00  0.00    -0.200 F 
ATOM    100  F   UNL A   1      47.449  25.778  37.189  1.00  0.00    -0.200 F 
ENDBRANCH  67  90
ENDBRANCH  41  42
ENDBRANCH  34  36
ENDBRANCH  33  34
ENDBRANCH  32  33
ENDBRANCH  31  32
ENDBRANCH   1  31
TORSDOF 17
ENDMDL
