MODEL 1
REMARK VINA RESULT:     -13.6      0.000      0.000
REMARK SMILES COc1ccc(CCC(=O)Nc2ccc(N3CCCC3)cc2C(=O)OCCOC(=O)c2ccc(-c3c4nc(c(-c5c(F)c(F)c(F)c(F)c5F)c5ccc([nH]5)c(-c5c(F)c(F)c(F)c(F)c5F)c5nc(c(-c6c(F)c(F)c(F)c(F)c6F)c6ccc3[nH]6)C=C5)C=C4)cc2)cc1
REMARK SMILES IDX 25 1 23 2 24 3 22 4 12 5 13 6 14 7 21 8 15 9 11 10 9 11
REMARK SMILES IDX 10 12 8 14 7 15 6 16 3 17 4 18 95 19 5 20 94 21 2 22 1 23
REMARK SMILES IDX 16 24 17 25 20 26 18 27 19 28 26 29 27 30 28 31 29 32 30 33
REMARK SMILES IDX 31 34 32 35 93 36 33 37 92 38 34 39 35 40 36 41 86 42 37 43
REMARK SMILES IDX 91 44 85 45 87 46 38 47 90 48 84 49 83 50 39 52 71 53 51 54
REMARK SMILES IDX 70 55 52 56 55 57 69 58 88 59 53 60 54 61 68 63 89 64 56 65
REMARK SMILES IDX 40 66 41 67 49 68 42 69 43 70 47 71 50 72 44 73 45 74 48 75
REMARK SMILES IDX 46 76 72 77 73 78 81 79 74 80 75 81 79 82 82 83 76 84 77 85
REMARK SMILES IDX 80 86 78 87 57 88 58 89 66 90 59 91 60 92 64 93 67 94 61 95
REMARK SMILES IDX 62 96 65 97 63 98
REMARK H PARENT 11 13 87 51 55 62
REMARK Flexibility Score: inf
ROOT
ATOM      1  O   UNL A   1      33.208  28.117  26.244  1.00  0.00    -0.458 OA
ENDROOT
BRANCH   1   2
ATOM      2  C   UNL A   1      33.516  26.866  25.438  1.00  0.00     0.340 C 
ATOM      3  O   UNL A   1      33.926  27.471  24.414  1.00  0.00    -0.246 OA
BRANCH   2   4
ATOM      4  C   UNL A   1      33.249  24.787  25.914  1.00  0.00     0.085 A 
ATOM      5  C   UNL A   1      32.197  23.977  26.655  1.00  0.00     0.055 A 
ATOM      6  C   UNL A   1      32.555  22.832  27.453  1.00  0.00     0.029 A 
ATOM      7  C   UNL A   1      33.779  22.172  27.349  1.00  0.00     0.028 A 
ATOM      8  C   UNL A   1      34.191  23.616  25.551  1.00  0.00     0.043 A 
ATOM      9  C   UNL A   1      34.598  22.503  26.309  1.00  0.00     0.038 A 
BRANCH   5  10
ATOM     10  N   UNL A   1      30.748  24.103  26.701  1.00  0.00    -0.325 N 
ATOM     11  C   UNL A   1      29.809  25.056  26.394  1.00  0.00     0.224 C 
ATOM     12  O   UNL A   1      28.688  24.910  26.900  1.00  0.00    -0.275 OA
ATOM     13  H   UNL A   1      30.327  23.283  27.046  1.00  0.00     0.169 HD
BRANCH  11  14
ATOM     14  C   UNL A   1      30.027  26.194  25.404  1.00  0.00     0.105 C 
BRANCH  14  15
ATOM     15  C   UNL A   1      29.479  26.071  23.996  1.00  0.00     0.045 C 
BRANCH  15  16
ATOM     16  C   UNL A   1      29.224  27.423  23.461  1.00  0.00    -0.047 A 
ATOM     17  C   UNL A   1      28.776  30.683  21.940  1.00  0.00     0.118 A 
ATOM     18  C   UNL A   1      30.359  29.858  21.820  1.00  0.00     0.046 A 
ATOM     19  C   UNL A   1      27.399  29.924  22.818  1.00  0.00     0.046 A 
ATOM     20  C   UNL A   1      30.624  28.250  22.620  1.00  0.00     0.007 A 
ATOM     21  C   UNL A   1      27.597  28.230  23.546  1.00  0.00     0.007 A 
BRANCH  17  22
ATOM     22  O   UNL A   1      28.774  31.871  21.269  1.00  0.00    -0.497 OA
ATOM     23  C   UNL A   1      27.850  32.081  20.222  1.00  0.00     0.278 C 
ENDBRANCH  17  22
ENDBRANCH  15  16
ENDBRANCH  14  15
ENDBRANCH  11  14
ENDBRANCH   5  10
BRANCH   9  24
ATOM     24  N   UNL A   1      35.791  21.849  26.043  1.00  0.00    -0.372 N 
ATOM     25  C   UNL A   1      36.948  22.625  25.569  1.00  0.00     0.116 C 
ATOM     26  C   UNL A   1      35.777  20.534  25.395  1.00  0.00     0.116 C 
ATOM     27  C   UNL A   1      37.476  21.857  24.363  1.00  0.00     0.023 C 
ATOM     28  C   UNL A   1      37.161  20.423  24.739  1.00  0.00     0.023 C 
ENDBRANCH   9  24
ENDBRANCH   2   4
ENDBRANCH   1   2
BRANCH   1  29
ATOM     29  C   UNL A   1      32.360  29.091  25.557  1.00  0.00     0.275 C 
BRANCH  29  30
ATOM     30  C   UNL A   1      32.088  30.396  26.313  1.00  0.00     0.275 C 
BRANCH  30  31
ATOM     31  O   UNL A   1      32.854  30.482  27.529  1.00  0.00    -0.458 OA
BRANCH  31  32
ATOM     32  C   UNL A   1      33.616  31.595  27.646  1.00  0.00     0.338 C 
ATOM     33  O   UNL A   1      33.219  32.751  27.673  1.00  0.00    -0.246 OA
BRANCH  32  34
ATOM     34  C   UNL A   1      35.053  31.269  27.825  1.00  0.00     0.060 A 
ATOM     35  C   UNL A   1      35.454  29.972  28.105  1.00  0.00     0.016 A 
ATOM     36  C   UNL A   1      35.966  32.305  28.007  1.00  0.00     0.016 A 
ATOM     37  C   UNL A   1      36.599  29.766  28.864  1.00  0.00     0.010 A 
ATOM     38  C   UNL A   1      37.238  32.033  28.530  1.00  0.00     0.010 A 
ATOM     39  C   UNL A   1      37.549  30.767  29.056  1.00  0.00    -0.014 A 
BRANCH  39  40
ATOM     40  C   UNL A   1      38.828  30.514  29.799  1.00  0.00     0.031 A 
ATOM     41  C   UNL A   1      39.879  29.614  29.190  1.00  0.00     0.074 A 
ATOM     42  C   UNL A   1      39.068  31.042  31.022  1.00  0.00     0.049 A 
ATOM     43  N   UNL A   1      40.791  28.883  29.780  1.00  0.00    -0.248 NA
ATOM     44  C   UNL A   1      39.880  29.491  27.722  1.00  0.00     0.031 C 
ATOM     45  C   UNL A   1      38.242  32.027  31.726  1.00  0.00     0.029 A 
ATOM     46  N   UNL A   1      40.086  30.794  31.919  1.00  0.00    -0.354 N 
ATOM     47  C   UNL A   1      41.386  28.129  28.774  1.00  0.00     0.074 A 
ATOM     48  C   UNL A   1      40.751  28.509  27.530  1.00  0.00     0.031 C 
ATOM     49  C   UNL A   1      38.801  32.339  32.899  1.00  0.00     0.029 A 
ATOM     50  C   UNL A   1      39.897  31.420  33.131  1.00  0.00     0.049 A 
ATOM     51  H   UNL A   1      40.865  30.229  31.714  1.00  0.00     0.167 HD
ATOM     52  C   UNL A   1      42.353  27.186  28.899  1.00  0.00     0.037 A 
ATOM     53  C   UNL A   1      40.430  31.198  34.346  1.00  0.00     0.037 A 
ATOM     54  C   UNL A   1      43.009  26.885  30.147  1.00  0.00     0.049 A 
ATOM     55  C   UNL A   1      41.421  30.085  34.491  1.00  0.00     0.074 A 
ATOM     56  C   UNL A   1      44.008  25.962  30.402  1.00  0.00     0.029 A 
ATOM     57  N   UNL A   1      42.736  27.518  31.351  1.00  0.00    -0.354 N 
ATOM     58  N   UNL A   1      41.901  29.283  33.574  1.00  0.00    -0.248 NA
ATOM     59  C   UNL A   1      41.924  29.830  35.845  1.00  0.00     0.031 C 
ATOM     60  C   UNL A   1      44.292  25.994  31.771  1.00  0.00     0.029 A 
ATOM     61  C   UNL A   1      43.527  26.989  32.358  1.00  0.00     0.049 A 
ATOM     62  H   UNL A   1      42.076  28.239  31.473  1.00  0.00     0.167 HD
ATOM     63  C   UNL A   1      42.781  28.440  34.232  1.00  0.00     0.074 A 
ATOM     64  C   UNL A   1      42.785  28.848  35.624  1.00  0.00     0.031 C 
ATOM     65  C   UNL A   1      43.518  27.418  33.734  1.00  0.00     0.037 A 
BRANCH  52  66
ATOM     66  C   UNL A   1      42.711  26.366  27.686  1.00  0.00     0.064 A 
ATOM     67  C   UNL A   1      43.753  26.715  26.814  1.00  0.00     0.173 A 
ATOM     68  C   UNL A   1      42.004  25.183  27.410  1.00  0.00     0.173 A 
ATOM     69  F   UNL A   1      44.459  27.837  27.021  1.00  0.00    -0.203 F 
ATOM     70  C   UNL A   1      44.049  25.933  25.697  1.00  0.00     0.198 A 
ATOM     71  C   UNL A   1      42.327  24.383  26.314  1.00  0.00     0.198 A 
ATOM     72  F   UNL A   1      41.001  24.790  28.210  1.00  0.00    -0.203 F 
ATOM     73  F   UNL A   1      45.011  26.320  24.848  1.00  0.00    -0.200 F 
ATOM     74  C   UNL A   1      43.341  24.766  25.453  1.00  0.00     0.200 A 
ATOM     75  F   UNL A   1      41.654  23.246  26.095  1.00  0.00    -0.200 F 
ATOM     76  F   UNL A   1      43.634  24.012  24.383  1.00  0.00    -0.200 F 
ENDBRANCH  52  66
BRANCH  53  77
ATOM     77  C   UNL A   1      39.953  31.972  35.527  1.00  0.00     0.064 A 
ATOM     78  C   UNL A   1      38.854  31.531  36.273  1.00  0.00     0.173 A 
ATOM     79  C   UNL A   1      40.591  33.152  35.948  1.00  0.00     0.173 A 
ATOM     80  F   UNL A   1      38.197  30.422  35.903  1.00  0.00    -0.203 F 
ATOM     81  C   UNL A   1      38.403  32.244  37.383  1.00  0.00     0.198 A 
ATOM     82  C   UNL A   1      40.169  33.838  37.084  1.00  0.00     0.198 A 
ATOM     83  F   UNL A   1      41.654  33.621  35.277  1.00  0.00    -0.203 F 
ATOM     84  F   UNL A   1      37.319  31.823  38.049  1.00  0.00    -0.200 F 
ATOM     85  C   UNL A   1      39.067  33.390  37.795  1.00  0.00     0.200 A 
ATOM     86  F   UNL A   1      40.834  34.928  37.494  1.00  0.00    -0.200 F 
ATOM     87  F   UNL A   1      38.643  34.063  38.873  1.00  0.00    -0.200 F 
ENDBRANCH  53  77
BRANCH  65  88
ATOM     88  C   UNL A   1      44.433  26.715  34.693  1.00  0.00     0.064 A 
ATOM     89  C   UNL A   1      44.053  25.536  35.349  1.00  0.00     0.173 A 
ATOM     90  C   UNL A   1      45.713  27.229  34.947  1.00  0.00     0.173 A 
ATOM     91  F   UNL A   1      42.830  25.019  35.158  1.00  0.00    -0.203 F 
ATOM     92  C   UNL A   1      44.912  24.913  36.250  1.00  0.00     0.198 A 
ATOM     93  C   UNL A   1      46.584  26.581  35.816  1.00  0.00     0.198 A 
ATOM     94  F   UNL A   1      46.123  28.355  34.343  1.00  0.00    -0.203 F 
ATOM     95  F   UNL A   1      44.504  23.825  36.918  1.00  0.00    -0.200 F 
ATOM     96  C   UNL A   1      46.179  25.431  36.475  1.00  0.00     0.200 A 
ATOM     97  F   UNL A   1      47.814  27.073  36.018  1.00  0.00    -0.200 F 
ATOM     98  F   UNL A   1      47.007  24.826  37.338  1.00  0.00    -0.200 F 
ENDBRANCH  65  88
ENDBRANCH  39  40
ENDBRANCH  32  34
ENDBRANCH  31  32
ENDBRANCH  30  31
ENDBRANCH  29  30
ENDBRANCH   1  29
TORSDOF 17
ENDMDL
MODEL 2
REMARK VINA RESULT:     -13.5      4.559     10.302
REMARK SMILES COc1ccc(CCC(=O)Nc2ccc(N3CCCC3)cc2C(=O)OCCOC(=O)c2ccc(-c3c4nc(c(-c5c(F)c(F)c(F)c(F)c5F)c5ccc([nH]5)c(-c5c(F)c(F)c(F)c(F)c5F)c5nc(c(-c6c(F)c(F)c(F)c(F)c6F)c6ccc3[nH]6)C=C5)C=C4)cc2)cc1
REMARK SMILES IDX 25 1 23 2 24 3 22 4 12 5 13 6 14 7 21 8 15 9 11 10 9 11
REMARK SMILES IDX 10 12 8 14 7 15 6 16 3 17 4 18 95 19 5 20 94 21 2 22 1 23
REMARK SMILES IDX 16 24 17 25 20 26 18 27 19 28 26 29 27 30 28 31 29 32 30 33
REMARK SMILES IDX 31 34 32 35 93 36 33 37 92 38 34 39 35 40 36 41 86 42 37 43
REMARK SMILES IDX 91 44 85 45 87 46 38 47 90 48 84 49 83 50 39 52 71 53 51 54
REMARK SMILES IDX 70 55 52 56 55 57 69 58 88 59 53 60 54 61 68 63 89 64 56 65
REMARK SMILES IDX 40 66 41 67 49 68 42 69 43 70 47 71 50 72 44 73 45 74 48 75
REMARK SMILES IDX 46 76 72 77 73 78 81 79 74 80 75 81 79 82 82 83 76 84 77 85
REMARK SMILES IDX 80 86 78 87 57 88 58 89 66 90 59 91 60 92 64 93 67 94 61 95
REMARK SMILES IDX 62 96 65 97 63 98
REMARK H PARENT 11 13 87 51 55 62
REMARK Flexibility Score: inf
ROOT
ATOM      1  O   UNL A   1      35.789  23.015  26.321  1.00  0.00    -0.458 OA
ENDROOT
BRANCH   1   2
ATOM      2  C   UNL A   1      34.428  23.689  26.357  1.00  0.00     0.340 C 
ATOM      3  O   UNL A   1      33.879  22.830  27.095  1.00  0.00    -0.246 OA
BRANCH   2   4
ATOM      4  C   UNL A   1      33.717  25.472  25.389  1.00  0.00     0.085 A 
ATOM      5  C   UNL A   1      33.595  25.941  23.948  1.00  0.00     0.055 A 
ATOM      6  C   UNL A   1      33.798  27.321  23.587  1.00  0.00     0.029 A 
ATOM      7  C   UNL A   1      33.776  28.369  24.506  1.00  0.00     0.028 A 
ATOM      8  C   UNL A   1      33.146  26.739  26.065  1.00  0.00     0.043 A 
ATOM      9  C   UNL A   1      33.348  28.100  25.773  1.00  0.00     0.038 A 
BRANCH   5  10
ATOM     10  N   UNL A   1      33.238  25.222  22.734  1.00  0.00    -0.325 N 
ATOM     11  C   UNL A   1      33.304  23.932  22.270  1.00  0.00     0.224 C 
ATOM     12  O   UNL A   1      33.216  23.780  21.044  1.00  0.00    -0.275 OA
ATOM     13  H   UNL A   1      32.844  25.824  22.063  1.00  0.00     0.169 HD
BRANCH  11  14
ATOM     14  C   UNL A   1      33.368  22.697  23.162  1.00  0.00     0.105 C 
BRANCH  14  15
ATOM     15  C   UNL A   1      32.089  21.958  23.501  1.00  0.00     0.045 C 
BRANCH  15  16
ATOM     16  C   UNL A   1      32.398  20.527  23.689  1.00  0.00    -0.047 A 
ATOM     17  C   UNL A   1      33.027  17.028  24.399  1.00  0.00     0.118 A 
ATOM     18  C   UNL A   1      32.981  18.210  25.740  1.00  0.00     0.046 A 
ATOM     19  C   UNL A   1      32.779  17.550  22.693  1.00  0.00     0.046 A 
ATOM     20  C   UNL A   1      32.722  19.976  25.404  1.00  0.00     0.007 A 
ATOM     21  C   UNL A   1      32.394  19.326  22.324  1.00  0.00     0.007 A 
BRANCH  17  22
ATOM     22  O   UNL A   1      33.224  15.756  24.853  1.00  0.00    -0.497 OA
ATOM     23  C   UNL A   1      32.184  15.089  25.535  1.00  0.00     0.278 C 
ENDBRANCH  17  22
ENDBRANCH  15  16
ENDBRANCH  14  15
ENDBRANCH  11  14
ENDBRANCH   5  10
BRANCH   9  24
ATOM     24  N   UNL A   1      33.187  29.077  26.744  1.00  0.00    -0.372 N 
ATOM     25  C   UNL A   1      31.906  29.795  26.838  1.00  0.00     0.116 C 
ATOM     26  C   UNL A   1      34.291  29.989  27.055  1.00  0.00     0.116 C 
ATOM     27  C   UNL A   1      32.281  31.270  26.913  1.00  0.00     0.023 C 
ATOM     28  C   UNL A   1      33.601  31.223  27.655  1.00  0.00     0.023 C 
ENDBRANCH   9  24
ENDBRANCH   2   4
ENDBRANCH   1   2
BRANCH   1  29
ATOM     29  C   UNL A   1      35.757  21.595  25.971  1.00  0.00     0.275 C 
BRANCH  29  30
ATOM     30  C   UNL A   1      36.843  21.117  25.003  1.00  0.00     0.275 C 
BRANCH  30  31
ATOM     31  O   UNL A   1      37.972  22.011  24.978  1.00  0.00    -0.458 OA
BRANCH  31  32
ATOM     32  C   UNL A   1      38.996  21.661  25.792  1.00  0.00     0.338 C 
ATOM     33  O   UNL A   1      39.596  20.596  25.792  1.00  0.00    -0.246 OA
BRANCH  32  34
ATOM     34  C   UNL A   1      39.400  22.774  26.687  1.00  0.00     0.060 A 
ATOM     35  C   UNL A   1      39.003  24.075  26.422  1.00  0.00     0.016 A 
ATOM     36  C   UNL A   1      40.415  22.562  27.617  1.00  0.00     0.016 A 
ATOM     37  C   UNL A   1      39.824  25.126  26.808  1.00  0.00     0.010 A 
ATOM     38  C   UNL A   1      41.059  23.655  28.212  1.00  0.00     0.010 A 
ATOM     39  C   UNL A   1      40.839  24.965  27.749  1.00  0.00    -0.014 A 
BRANCH  39  40
ATOM     40  C   UNL A   1      41.663  26.122  28.232  1.00  0.00     0.031 A 
ATOM     41  C   UNL A   1      41.018  27.195  29.080  1.00  0.00     0.074 A 
ATOM     42  C   UNL A   1      42.969  26.260  27.909  1.00  0.00     0.049 A 
ATOM     43  N   UNL A   1      41.341  28.457  29.211  1.00  0.00    -0.248 NA
ATOM     44  C   UNL A   1      39.828  26.805  29.856  1.00  0.00     0.031 C 
ATOM     45  C   UNL A   1      43.805  25.280  27.209  1.00  0.00     0.029 A 
ATOM     46  N   UNL A   1      43.833  27.317  28.109  1.00  0.00    -0.354 N 
ATOM     47  C   UNL A   1      40.333  29.032  29.978  1.00  0.00     0.074 A 
ATOM     48  C   UNL A   1      39.400  27.976  30.308  1.00  0.00     0.031 C 
ATOM     49  C   UNL A   1      45.052  25.745  27.087  1.00  0.00     0.029 A 
ATOM     50  C   UNL A   1      45.053  27.135  27.496  1.00  0.00     0.049 A 
ATOM     51  H   UNL A   1      43.602  28.116  28.634  1.00  0.00     0.167 HD
ATOM     52  C   UNL A   1      40.199  30.331  30.341  1.00  0.00     0.037 A 
ATOM     53  C   UNL A   1      46.022  28.005  27.157  1.00  0.00     0.037 A 
ATOM     54  C   UNL A   1      41.186  31.341  30.051  1.00  0.00     0.049 A 
ATOM     55  C   UNL A   1      45.814  29.454  27.471  1.00  0.00     0.074 A 
ATOM     56  C   UNL A   1      41.173  32.687  30.371  1.00  0.00     0.029 A 
ATOM     57  N   UNL A   1      42.379  31.104  29.380  1.00  0.00    -0.354 N 
ATOM     58  N   UNL A   1      44.811  30.030  28.084  1.00  0.00    -0.248 NA
ATOM     59  C   UNL A   1      46.861  30.377  27.020  1.00  0.00     0.031 C 
ATOM     60  C   UNL A   1      42.325  33.274  29.839  1.00  0.00     0.029 A 
ATOM     61  C   UNL A   1      43.096  32.282  29.254  1.00  0.00     0.049 A 
ATOM     62  H   UNL A   1      42.672  30.227  29.044  1.00  0.00     0.167 HD
ATOM     63  C   UNL A   1      45.113  31.381  28.116  1.00  0.00     0.074 A 
ATOM     64  C   UNL A   1      46.407  31.533  27.480  1.00  0.00     0.031 C 
ATOM     65  C   UNL A   1      44.386  32.406  28.623  1.00  0.00     0.037 A 
BRANCH  52  66
ATOM     66  C   UNL A   1      38.921  30.754  31.020  1.00  0.00     0.064 A 
ATOM     67  C   UNL A   1      37.779  31.149  30.309  1.00  0.00     0.173 A 
ATOM     68  C   UNL A   1      38.837  30.735  32.423  1.00  0.00     0.173 A 
ATOM     69  F   UNL A   1      37.800  31.195  28.969  1.00  0.00    -0.203 F 
ATOM     70  C   UNL A   1      36.617  31.541  30.975  1.00  0.00     0.198 A 
ATOM     71  C   UNL A   1      37.663  31.090  33.085  1.00  0.00     0.198 A 
ATOM     72  F   UNL A   1      39.893  30.359  33.160  1.00  0.00    -0.203 F 
ATOM     73  F   UNL A   1      35.559  31.970  30.273  1.00  0.00    -0.200 F 
ATOM     74  C   UNL A   1      36.558  31.504  32.360  1.00  0.00     0.200 A 
ATOM     75  F   UNL A   1      37.604  31.034  34.422  1.00  0.00    -0.200 F 
ATOM     76  F   UNL A   1      35.437  31.874  32.996  1.00  0.00    -0.200 F 
ENDBRANCH  52  66
BRANCH  53  77
ATOM     77  C   UNL A   1      47.212  27.539  26.389  1.00  0.00     0.064 A 
ATOM     78  C   UNL A   1      47.201  27.533  24.989  1.00  0.00     0.173 A 
ATOM     79  C   UNL A   1      48.387  27.110  27.030  1.00  0.00     0.173 A 
ATOM     80  F   UNL A   1      46.098  27.914  24.328  1.00  0.00    -0.203 F 
ATOM     81  C   UNL A   1      48.310  27.106  24.261  1.00  0.00     0.198 A 
ATOM     82  C   UNL A   1      49.511  26.727  26.302  1.00  0.00     0.198 A 
ATOM     83  F   UNL A   1      48.460  27.100  28.370  1.00  0.00    -0.203 F 
ATOM     84  F   UNL A   1      48.253  27.065  22.924  1.00  0.00    -0.200 F 
ATOM     85  C   UNL A   1      49.468  26.714  24.917  1.00  0.00     0.200 A 
ATOM     86  F   UNL A   1      50.637  26.379  26.942  1.00  0.00    -0.200 F 
ATOM     87  F   UNL A   1      50.540  26.321  24.215  1.00  0.00    -0.200 F 
ENDBRANCH  53  77
BRANCH  65  88
ATOM     88  C   UNL A   1      45.008  33.770  28.560  1.00  0.00     0.064 A 
ATOM     89  C   UNL A   1      44.735  34.661  27.513  1.00  0.00     0.173 A 
ATOM     90  C   UNL A   1      45.881  34.192  29.574  1.00  0.00     0.173 A 
ATOM     91  F   UNL A   1      43.926  34.295  26.507  1.00  0.00    -0.203 F 
ATOM     92  C   UNL A   1      45.340  35.913  27.466  1.00  0.00     0.198 A 
ATOM     93  C   UNL A   1      46.450  35.459  29.546  1.00  0.00     0.198 A 
ATOM     94  F   UNL A   1      46.172  33.375  30.599  1.00  0.00    -0.203 F 
ATOM     95  F   UNL A   1      45.119  36.723  26.421  1.00  0.00    -0.200 F 
ATOM     96  C   UNL A   1      46.189  36.314  28.487  1.00  0.00     0.200 A 
ATOM     97  F   UNL A   1      47.256  35.851  30.542  1.00  0.00    -0.200 F 
ATOM     98  F   UNL A   1      46.766  37.524  28.444  1.00  0.00    -0.200 F 
ENDBRANCH  65  88
ENDBRANCH  39  40
ENDBRANCH  32  34
ENDBRANCH  31  32
ENDBRANCH  30  31
ENDBRANCH  29  30
ENDBRANCH   1  29
TORSDOF 17
ENDMDL
MODEL 3
REMARK VINA RESULT:     -13.3      4.552     10.274
REMARK SMILES COc1ccc(CCC(=O)Nc2ccc(N3CCCC3)cc2C(=O)OCCOC(=O)c2ccc(-c3c4nc(c(-c5c(F)c(F)c(F)c(F)c5F)c5ccc([nH]5)c(-c5c(F)c(F)c(F)c(F)c5F)c5nc(c(-c6c(F)c(F)c(F)c(F)c6F)c6ccc3[nH]6)C=C5)C=C4)cc2)cc1
REMARK SMILES IDX 25 1 23 2 24 3 22 4 12 5 13 6 14 7 21 8 15 9 11 10 9 11
REMARK SMILES IDX 10 12 8 14 7 15 6 16 3 17 4 18 95 19 5 20 94 21 2 22 1 23
REMARK SMILES IDX 16 24 17 25 20 26 18 27 19 28 26 29 27 30 28 31 29 32 30 33
REMARK SMILES IDX 31 34 32 35 93 36 33 37 92 38 34 39 35 40 36 41 86 42 37 43
REMARK SMILES IDX 91 44 85 45 87 46 38 47 90 48 84 49 83 50 39 52 71 53 51 54
REMARK SMILES IDX 70 55 52 56 55 57 69 58 88 59 53 60 54 61 68 63 89 64 56 65
REMARK SMILES IDX 40 66 41 67 49 68 42 69 43 70 47 71 50 72 44 73 45 74 48 75
REMARK SMILES IDX 46 76 72 77 73 78 81 79 74 80 75 81 79 82 82 83 76 84 77 85
REMARK SMILES IDX 80 86 78 87 57 88 58 89 66 90 59 91 60 92 64 93 67 94 61 95
REMARK SMILES IDX 62 96 65 97 63 98
REMARK H PARENT 11 13 87 51 55 62
REMARK Flexibility Score: inf
ROOT
ATOM      1  O   UNL A   1      35.750  23.222  26.220  1.00  0.00    -0.458 OA
ENDROOT
BRANCH   1   2
ATOM      2  C   UNL A   1      34.366  23.847  26.184  1.00  0.00     0.340 C 
ATOM      3  O   UNL A   1      33.802  22.948  26.861  1.00  0.00    -0.246 OA
BRANCH   2   4
ATOM      4  C   UNL A   1      33.655  25.632  25.220  1.00  0.00     0.085 A 
ATOM      5  C   UNL A   1      33.587  26.129  23.785  1.00  0.00     0.055 A 
ATOM      6  C   UNL A   1      33.772  27.521  23.462  1.00  0.00     0.029 A 
ATOM      7  C   UNL A   1      33.681  28.548  24.400  1.00  0.00     0.028 A 
ATOM      8  C   UNL A   1      33.021  26.870  25.895  1.00  0.00     0.043 A 
ATOM      9  C   UNL A   1      33.201  28.242  25.640  1.00  0.00     0.038 A 
BRANCH   5  10
ATOM     10  N   UNL A   1      33.306  25.427  22.542  1.00  0.00    -0.325 N 
ATOM     11  C   UNL A   1      33.341  24.134  22.083  1.00  0.00     0.224 C 
ATOM     12  O   UNL A   1      33.359  23.984  20.854  1.00  0.00    -0.275 OA
ATOM     13  H   UNL A   1      33.010  26.049  21.838  1.00  0.00     0.169 HD
BRANCH  11  14
ATOM     14  C   UNL A   1      33.251  22.901  22.975  1.00  0.00     0.105 C 
BRANCH  14  15
ATOM     15  C   UNL A   1      31.933  22.161  23.090  1.00  0.00     0.045 C 
BRANCH  15  16
ATOM     16  C   UNL A   1      32.194  20.785  23.554  1.00  0.00    -0.047 A 
ATOM     17  C   UNL A   1      32.978  17.363  24.458  1.00  0.00     0.118 A 
ATOM     18  C   UNL A   1      32.746  17.795  22.738  1.00  0.00     0.046 A 
ATOM     19  C   UNL A   1      32.816  18.601  25.755  1.00  0.00     0.046 A 
ATOM     20  C   UNL A   1      32.299  19.490  22.265  1.00  0.00     0.007 A 
ATOM     21  C   UNL A   1      32.476  20.367  25.301  1.00  0.00     0.007 A 
BRANCH  17  22
ATOM     22  O   UNL A   1      33.316  16.049  24.608  1.00  0.00    -0.497 OA
ATOM     23  C   UNL A   1      34.561  15.709  25.178  1.00  0.00     0.278 C 
ENDBRANCH  17  22
ENDBRANCH  15  16
ENDBRANCH  14  15
ENDBRANCH  11  14
ENDBRANCH   5  10
BRANCH   9  24
ATOM     24  N   UNL A   1      32.971  29.193  26.622  1.00  0.00    -0.372 N 
ATOM     25  C   UNL A   1      31.712  29.954  26.607  1.00  0.00     0.116 C 
ATOM     26  C   UNL A   1      34.066  30.055  27.079  1.00  0.00     0.116 C 
ATOM     27  C   UNL A   1      32.125  31.412  26.771  1.00  0.00     0.023 C 
ATOM     28  C   UNL A   1      33.357  31.293  27.646  1.00  0.00     0.023 C 
ENDBRANCH   9  24
ENDBRANCH   2   4
ENDBRANCH   1   2
BRANCH   1  29
ATOM     29  C   UNL A   1      35.767  21.769  26.047  1.00  0.00     0.275 C 
BRANCH  29  30
ATOM     30  C   UNL A   1      36.750  21.229  25.003  1.00  0.00     0.275 C 
BRANCH  30  31
ATOM     31  O   UNL A   1      37.946  22.029  24.926  1.00  0.00    -0.458 OA
BRANCH  31  32
ATOM     32  C   UNL A   1      38.939  21.652  25.765  1.00  0.00     0.338 C 
ATOM     33  O   UNL A   1      39.514  20.573  25.777  1.00  0.00    -0.246 OA
BRANCH  32  34
ATOM     34  C   UNL A   1      39.346  22.754  26.674  1.00  0.00     0.060 A 
ATOM     35  C   UNL A   1      38.935  24.055  26.436  1.00  0.00     0.016 A 
ATOM     36  C   UNL A   1      40.375  22.534  27.587  1.00  0.00     0.016 A 
ATOM     37  C   UNL A   1      39.752  25.106  26.829  1.00  0.00     0.010 A 
ATOM     38  C   UNL A   1      41.018  23.623  28.191  1.00  0.00     0.010 A 
ATOM     39  C   UNL A   1      40.781  24.938  27.754  1.00  0.00    -0.014 A 
BRANCH  39  40
ATOM     40  C   UNL A   1      41.602  26.093  28.246  1.00  0.00     0.031 A 
ATOM     41  C   UNL A   1      40.953  27.163  29.095  1.00  0.00     0.074 A 
ATOM     42  C   UNL A   1      42.910  26.234  27.930  1.00  0.00     0.049 A 
ATOM     43  N   UNL A   1      41.274  28.424  29.233  1.00  0.00    -0.248 NA
ATOM     44  C   UNL A   1      39.759  26.768  29.864  1.00  0.00     0.031 C 
ATOM     45  C   UNL A   1      43.750  25.258  27.230  1.00  0.00     0.029 A 
ATOM     46  N   UNL A   1      43.773  27.290  28.139  1.00  0.00    -0.354 N 
ATOM     47  C   UNL A   1      40.262  28.995  29.998  1.00  0.00     0.074 A 
ATOM     48  C   UNL A   1      39.328  27.938  30.318  1.00  0.00     0.031 C 
ATOM     49  C   UNL A   1      44.997  25.724  27.116  1.00  0.00     0.029 A 
ATOM     50  C   UNL A   1      44.995  27.112  27.531  1.00  0.00     0.049 A 
ATOM     51  H   UNL A   1      43.538  28.087  28.666  1.00  0.00     0.167 HD
ATOM     52  C   UNL A   1      40.125  30.293  30.365  1.00  0.00     0.037 A 
ATOM     53  C   UNL A   1      45.965  27.984  27.200  1.00  0.00     0.037 A 
ATOM     54  C   UNL A   1      41.113  31.304  30.084  1.00  0.00     0.049 A 
ATOM     55  C   UNL A   1      45.755  29.431  27.519  1.00  0.00     0.074 A 
ATOM     56  C   UNL A   1      41.098  32.649  30.410  1.00  0.00     0.029 A 
ATOM     57  N   UNL A   1      42.310  31.071  29.419  1.00  0.00    -0.354 N 
ATOM     58  N   UNL A   1      44.749  30.004  28.130  1.00  0.00    -0.248 NA
ATOM     59  C   UNL A   1      46.803  30.357  27.077  1.00  0.00     0.031 C 
ATOM     60  C   UNL A   1      42.252  33.239  29.887  1.00  0.00     0.029 A 
ATOM     61  C   UNL A   1      43.026  32.250  29.301  1.00  0.00     0.049 A 
ATOM     62  H   UNL A   1      42.605  30.195  29.080  1.00  0.00     0.167 HD
ATOM     63  C   UNL A   1      45.050  31.355  28.169  1.00  0.00     0.074 A 
ATOM     64  C   UNL A   1      46.347  31.511  27.540  1.00  0.00     0.031 C 
ATOM     65  C   UNL A   1      44.319  32.378  28.677  1.00  0.00     0.037 A 
BRANCH  52  66
ATOM     66  C   UNL A   1      38.844  30.712  31.040  1.00  0.00     0.064 A 
ATOM     67  C   UNL A   1      38.699  30.755  32.434  1.00  0.00     0.173 A 
ATOM     68  C   UNL A   1      37.743  31.109  30.262  1.00  0.00     0.173 A 
ATOM     69  F   UNL A   1      39.712  30.381  33.230  1.00  0.00    -0.203 F 
ATOM     70  C   UNL A   1      37.494  31.142  33.021  1.00  0.00     0.198 A 
ATOM     71  C   UNL A   1      36.552  31.532  30.851  1.00  0.00     0.198 A 
ATOM     72  F   UNL A   1      37.820  31.099  28.922  1.00  0.00    -0.203 F 
ATOM     73  F   UNL A   1      37.363  31.117  34.354  1.00  0.00    -0.200 F 
ATOM     74  C   UNL A   1      36.426  31.537  32.230  1.00  0.00     0.200 A 
ATOM     75  F   UNL A   1      35.530  31.932  30.083  1.00  0.00    -0.200 F 
ATOM     76  F   UNL A   1      35.271  31.916  32.798  1.00  0.00    -0.200 F 
ENDBRANCH  52  66
BRANCH  53  77
ATOM     77  C   UNL A   1      47.159  27.522  26.436  1.00  0.00     0.064 A 
ATOM     78  C   UNL A   1      48.280  27.012  27.100  1.00  0.00     0.173 A 
ATOM     79  C   UNL A   1      47.199  27.560  25.031  1.00  0.00     0.173 A 
ATOM     80  F   UNL A   1      48.301  26.972  28.440  1.00  0.00    -0.203 F 
ATOM     81  C   UNL A   1      49.399  26.572  26.394  1.00  0.00     0.198 A 
ATOM     82  C   UNL A   1      48.299  27.076  24.324  1.00  0.00     0.198 A 
ATOM     83  F   UNL A   1      46.152  28.031  24.337  1.00  0.00    -0.203 F 
ATOM     84  F   UNL A   1      50.476  26.135  27.060  1.00  0.00    -0.200 F 
ATOM     85  C   UNL A   1      49.403  26.594  25.008  1.00  0.00     0.200 A 
ATOM     86  F   UNL A   1      48.284  27.072  22.984  1.00  0.00    -0.200 F 
ATOM     87  F   UNL A   1      50.472  26.153  24.331  1.00  0.00    -0.200 F 
ENDBRANCH  53  77
BRANCH  65  88
ATOM     88  C   UNL A   1      44.940  33.742  28.623  1.00  0.00     0.064 A 
ATOM     89  C   UNL A   1      45.754  34.227  29.656  1.00  0.00     0.173 A 
ATOM     90  C   UNL A   1      44.723  34.570  27.511  1.00  0.00     0.173 A 
ATOM     91  F   UNL A   1      45.971  33.483  30.751  1.00  0.00    -0.203 F 
ATOM     92  C   UNL A   1      46.302  35.505  29.593  1.00  0.00     0.198 A 
ATOM     93  C   UNL A   1      45.307  35.829  27.432  1.00  0.00     0.198 A 
ATOM     94  F   UNL A   1      43.952  34.151  26.496  1.00  0.00    -0.203 F 
ATOM     95  F   UNL A   1      47.021  35.975  30.622  1.00  0.00    -0.200 F 
ATOM     96  C   UNL A   1      46.086  36.300  28.477  1.00  0.00     0.200 A 
ATOM     97  F   UNL A   1      45.111  36.588  26.346  1.00  0.00    -0.200 F 
ATOM     98  F   UNL A   1      46.620  37.527  28.415  1.00  0.00    -0.200 F 
ENDBRANCH  65  88
ENDBRANCH  39  40
ENDBRANCH  32  34
ENDBRANCH  31  32
ENDBRANCH  30  31
ENDBRANCH  29  30
ENDBRANCH   1  29
TORSDOF 17
ENDMDL
