MODEL 1
REMARK VINA RESULT:     -12.5      0.000      0.000
REMARK SMILES COc1cccc(NC(=O)[C@@H]2[C@@H](C(=O)OCCOC(=O)c3ccc(-c4c5nc(c(-c6c(F)c(F)c(F)c(F)c6F)c6ccc([nH]6)c(-c6c(F)c(F)c(F)c(F)c6F)c6nc(c(-c7c(F)c(F)c(F)c(F)c7F)c7ccc4[nH]7)C=C6)C=C5)cc3)[C@H]3C=C[C@@H]2C3)c1
REMARK SMILES IDX 16 1 15 2 13 3 14 4 12 5 11 6 87 7 84 8 86 9 88 10 85 11
REMARK SMILES IDX 9 12 8 13 10 15 7 16 3 17 4 18 89 19 5 20 6 21 2 22 1 23
REMARK SMILES IDX 17 24 18 25 19 26 20 27 21 28 22 29 83 30 23 31 82 32 24 33
REMARK SMILES IDX 25 34 26 35 76 36 27 37 81 38 75 39 77 40 28 41 80 42 74 43
REMARK SMILES IDX 73 44 29 46 61 47 41 48 60 49 42 50 45 51 59 52 78 53 43 54
REMARK SMILES IDX 44 55 58 57 79 58 46 59 30 60 31 61 39 62 32 63 33 64 37 65
REMARK SMILES IDX 40 66 34 67 35 68 38 69 36 70 62 71 63 72 71 73 64 74 65 75
REMARK SMILES IDX 69 76 72 77 66 78 67 79 70 80 68 81 47 82 48 83 56 84 49 85
REMARK SMILES IDX 50 86 54 87 57 88 51 89 52 90 55 91 53 92
REMARK H PARENT 8 14 77 45 45 56
REMARK Flexibility Score: inf
ROOT
ATOM      1  C   UNL A   1      31.145  30.125  24.906  1.00  0.00     0.274 C 
ENDROOT
BRANCH   1   2
ATOM      2  O   UNL A   1      30.803  28.739  24.685  1.00  0.00    -0.462 OA
BRANCH   2   3
ATOM      3  C   UNL A   1      31.366  28.130  23.598  1.00  0.00     0.310 C 
ATOM      4  O   UNL A   1      31.440  28.628  22.485  1.00  0.00    -0.252 OA
BRANCH   3   5
ATOM      5  C   UNL A   1      31.866  26.743  23.989  1.00  0.00     0.119 C 
ATOM      6  C   UNL A   1      31.628  26.339  25.458  1.00  0.00     0.100 C 
ATOM      7  C   UNL A   1      33.047  26.054  26.015  1.00  0.00     0.025 C 
ATOM      8  C   UNL A   1      33.414  26.621  23.883  1.00  0.00     0.027 C 
ATOM      9  C   UNL A   1      33.810  27.362  26.027  1.00  0.00    -0.027 C 
ATOM     10  C   UNL A   1      33.738  25.434  24.808  1.00  0.00     0.017 C 
ATOM     11  C   UNL A   1      34.053  27.691  24.748  1.00  0.00    -0.027 C 
BRANCH   6  12
ATOM     12  C   UNL A   1      30.637  25.236  25.800  1.00  0.00     0.228 C 
ATOM     13  N   UNL A   1      30.580  23.932  25.458  1.00  0.00    -0.326 N 
ATOM     14  H   UNL A   1      29.819  23.524  25.931  1.00  0.00     0.169 HD
ATOM     15  O   UNL A   1      29.724  25.565  26.583  1.00  0.00    -0.274 OA
BRANCH  13  16
ATOM     16  C   UNL A   1      31.199  22.935  24.676  1.00  0.00     0.044 A 
ATOM     17  C   UNL A   1      32.127  20.671  24.717  1.00  0.00     0.120 A 
ATOM     18  C   UNL A   1      32.434  20.734  23.366  1.00  0.00     0.046 A 
ATOM     19  C   UNL A   1      31.531  21.755  25.370  1.00  0.00     0.072 A 
ATOM     20  C   UNL A   1      32.119  21.887  22.667  1.00  0.00     0.006 A 
ATOM     21  C   UNL A   1      31.517  22.973  23.323  1.00  0.00     0.026 A 
BRANCH  17  22
ATOM     22  O   UNL A   1      32.491  19.558  25.421  1.00  0.00    -0.497 OA
ATOM     23  C   UNL A   1      33.505  18.834  24.724  1.00  0.00     0.278 C 
ENDBRANCH  17  22
ENDBRANCH  13  16
ENDBRANCH   6  12
ENDBRANCH   3   5
ENDBRANCH   2   3
ENDBRANCH   1   2
BRANCH   1  24
ATOM     24  C   UNL A   1      31.624  30.356  26.338  1.00  0.00     0.275 C 
BRANCH  24  25
ATOM     25  O   UNL A   1      33.010  30.730  26.311  1.00  0.00    -0.458 OA
BRANCH  25  26
ATOM     26  C   UNL A   1      33.380  31.730  27.143  1.00  0.00     0.338 C 
ATOM     27  O   UNL A   1      32.751  32.730  27.438  1.00  0.00    -0.246 OA
BRANCH  26  28
ATOM     28  C   UNL A   1      34.690  31.391  27.724  1.00  0.00     0.060 A 
ATOM     29  C   UNL A   1      34.905  30.081  28.140  1.00  0.00     0.016 A 
ATOM     30  C   UNL A   1      35.655  32.363  27.964  1.00  0.00     0.016 A 
ATOM     31  C   UNL A   1      36.045  29.737  28.856  1.00  0.00     0.010 A 
ATOM     32  C   UNL A   1      36.845  32.001  28.611  1.00  0.00     0.010 A 
ATOM     33  C   UNL A   1      37.041  30.689  29.091  1.00  0.00    -0.014 A 
BRANCH  33  34
ATOM     34  C   UNL A   1      38.236  30.337  29.910  1.00  0.00     0.031 A 
ATOM     35  C   UNL A   1      39.318  29.479  29.314  1.00  0.00     0.074 A 
ATOM     36  C   UNL A   1      38.390  30.808  31.165  1.00  0.00     0.049 A 
ATOM     37  N   UNL A   1      40.309  28.861  29.904  1.00  0.00    -0.248 NA
ATOM     38  C   UNL A   1      39.266  29.277  27.857  1.00  0.00     0.031 C 
ATOM     39  C   UNL A   1      37.476  31.720  31.851  1.00  0.00     0.029 A 
ATOM     40  N   UNL A   1      39.389  30.589  32.083  1.00  0.00    -0.354 N 
ATOM     41  C   UNL A   1      40.948  28.135  28.906  1.00  0.00     0.074 A 
ATOM     42  C   UNL A   1      40.244  28.403  27.670  1.00  0.00     0.031 C 
ATOM     43  C   UNL A   1      37.977  32.019  33.060  1.00  0.00     0.029 A 
ATOM     44  C   UNL A   1      39.196  31.245  33.274  1.00  0.00     0.049 A 
ATOM     45  H   UNL A   1      40.170  30.017  31.905  1.00  0.00     0.167 HD
ATOM     46  C   UNL A   1      42.017  27.312  29.019  1.00  0.00     0.037 A 
ATOM     47  C   UNL A   1      39.894  31.197  34.426  1.00  0.00     0.037 A 
ATOM     48  C   UNL A   1      42.767  27.117  30.232  1.00  0.00     0.049 A 
ATOM     49  C   UNL A   1      41.076  30.274  34.532  1.00  0.00     0.074 A 
ATOM     50  C   UNL A   1      43.861  26.298  30.451  1.00  0.00     0.029 A 
ATOM     51  N   UNL A   1      42.518  27.780  31.425  1.00  0.00    -0.354 N 
ATOM     52  N   UNL A   1      41.599  29.492  33.619  1.00  0.00    -0.248 NA
ATOM     53  C   UNL A   1      41.743  30.199  35.839  1.00  0.00     0.031 C 
ATOM     54  C   UNL A   1      44.263  26.452  31.784  1.00  0.00     0.029 A 
ATOM     55  C   UNL A   1      43.439  27.390  32.383  1.00  0.00     0.049 A 
ATOM     56  H   UNL A   1      41.794  28.431  31.569  1.00  0.00     0.167 HD
ATOM     57  C   UNL A   1      42.652  28.835  34.238  1.00  0.00     0.074 A 
ATOM     58  C   UNL A   1      42.714  29.329  35.597  1.00  0.00     0.031 C 
ATOM     59  C   UNL A   1      43.486  27.895  33.730  1.00  0.00     0.037 A 
BRANCH  46  60
ATOM     60  C   UNL A   1      42.412  26.520  27.809  1.00  0.00     0.064 A 
ATOM     61  C   UNL A   1      43.391  26.967  26.911  1.00  0.00     0.173 A 
ATOM     62  C   UNL A   1      41.814  25.274  27.564  1.00  0.00     0.173 A 
ATOM     63  F   UNL A   1      43.980  28.158  27.092  1.00  0.00    -0.203 F 
ATOM     64  C   UNL A   1      43.742  26.204  25.799  1.00  0.00     0.198 A 
ATOM     65  C   UNL A   1      42.185  24.503  26.467  1.00  0.00     0.198 A 
ATOM     66  F   UNL A   1      40.874  24.800  28.396  1.00  0.00    -0.203 F 
ATOM     67  F   UNL A   1      44.650  26.668  24.929  1.00  0.00    -0.200 F 
ATOM     68  C   UNL A   1      43.144  24.971  25.582  1.00  0.00     0.200 A 
ATOM     69  F   UNL A   1      41.614  23.308  26.265  1.00  0.00    -0.200 F 
ATOM     70  F   UNL A   1      43.487  24.235  24.515  1.00  0.00    -0.200 F 
ENDBRANCH  46  60
BRANCH  47  71
ATOM     71  C   UNL A   1      39.458  32.010  35.593  1.00  0.00     0.064 A 
ATOM     72  C   UNL A   1      38.514  31.514  36.502  1.00  0.00     0.173 A 
ATOM     73  C   UNL A   1      39.976  33.293  35.822  1.00  0.00     0.173 A 
ATOM     74  F   UNL A   1      37.965  30.306  36.308  1.00  0.00    -0.203 F 
ATOM     75  C   UNL A   1      38.101  32.276  37.595  1.00  0.00     0.198 A 
ATOM     76  C   UNL A   1      39.584  34.040  36.929  1.00  0.00     0.198 A 
ATOM     77  F   UNL A   1      40.875  33.816  34.975  1.00  0.00    -0.203 F 
ATOM     78  F   UNL A   1      37.167  31.796  38.428  1.00  0.00    -0.200 F 
ATOM     79  C   UNL A   1      38.643  33.534  37.812  1.00  0.00     0.200 A 
ATOM     80  F   UNL A   1      40.118  35.251  37.142  1.00  0.00    -0.200 F 
ATOM     81  F   UNL A   1      38.251  34.261  38.867  1.00  0.00    -0.200 F 
ENDBRANCH  47  71
BRANCH  59  82
ATOM     82  C   UNL A   1      44.544  27.356  34.643  1.00  0.00     0.064 A 
ATOM     83  C   UNL A   1      45.775  28.011  34.799  1.00  0.00     0.173 A 
ATOM     84  C   UNL A   1      44.314  26.194  35.393  1.00  0.00     0.173 A 
ATOM     85  F   UNL A   1      46.046  29.117  34.090  1.00  0.00    -0.203 F 
ATOM     86  C   UNL A   1      46.745  27.509  35.661  1.00  0.00     0.198 A 
ATOM     87  C   UNL A   1      45.278  25.707  36.269  1.00  0.00     0.198 A 
ATOM     88  F   UNL A   1      43.150  25.536  35.280  1.00  0.00    -0.203 F 
ATOM     89  F   UNL A   1      47.929  28.128  35.768  1.00  0.00    -0.200 F 
ATOM     90  C   UNL A   1      46.495  26.362  36.399  1.00  0.00     0.200 A 
ATOM     91  F   UNL A   1      45.033  24.602  36.987  1.00  0.00    -0.200 F 
ATOM     92  F   UNL A   1      47.429  25.880  37.230  1.00  0.00    -0.200 F 
ENDBRANCH  59  82
ENDBRANCH  33  34
ENDBRANCH  26  28
ENDBRANCH  25  26
ENDBRANCH  24  25
ENDBRANCH   1  24
TORSDOF 14
ENDMDL
MODEL 2
REMARK VINA RESULT:     -12.3      4.385      9.837
REMARK SMILES COc1cccc(NC(=O)[C@@H]2[C@@H](C(=O)OCCOC(=O)c3ccc(-c4c5nc(c(-c6c(F)c(F)c(F)c(F)c6F)c6ccc([nH]6)c(-c6c(F)c(F)c(F)c(F)c6F)c6nc(c(-c7c(F)c(F)c(F)c(F)c7F)c7ccc4[nH]7)C=C6)C=C5)cc3)[C@H]3C=C[C@@H]2C3)c1
REMARK SMILES IDX 16 1 15 2 13 3 14 4 12 5 11 6 87 7 84 8 86 9 88 10 85 11
REMARK SMILES IDX 9 12 8 13 10 15 7 16 3 17 4 18 89 19 5 20 6 21 2 22 1 23
REMARK SMILES IDX 17 24 18 25 19 26 20 27 21 28 22 29 83 30 23 31 82 32 24 33
REMARK SMILES IDX 25 34 26 35 76 36 27 37 81 38 75 39 77 40 28 41 80 42 74 43
REMARK SMILES IDX 73 44 29 46 61 47 41 48 60 49 42 50 45 51 59 52 78 53 43 54
REMARK SMILES IDX 44 55 58 57 79 58 46 59 30 60 31 61 39 62 32 63 33 64 37 65
REMARK SMILES IDX 40 66 34 67 35 68 38 69 36 70 62 71 63 72 71 73 64 74 65 75
REMARK SMILES IDX 69 76 72 77 66 78 67 79 70 80 68 81 47 82 48 83 56 84 49 85
REMARK SMILES IDX 50 86 54 87 57 88 51 89 52 90 55 91 53 92
REMARK H PARENT 8 14 77 45 45 56
REMARK Flexibility Score: inf
ROOT
ATOM      1  C   UNL A   1      35.835  20.382  25.050  1.00  0.00     0.274 C 
ENDROOT
BRANCH   1   2
ATOM      2  O   UNL A   1      34.686  21.005  24.438  1.00  0.00    -0.462 OA
BRANCH   2   3
ATOM      3  C   UNL A   1      33.639  21.314  25.262  1.00  0.00     0.310 C 
ATOM      4  O   UNL A   1      33.164  20.555  26.094  1.00  0.00    -0.252 OA
BRANCH   3   5
ATOM      5  C   UNL A   1      33.156  22.732  24.970  1.00  0.00     0.119 C 
ATOM      6  C   UNL A   1      33.945  23.493  23.886  1.00  0.00     0.100 C 
ATOM      7  C   UNL A   1      34.476  24.756  24.611  1.00  0.00     0.025 C 
ATOM      8  C   UNL A   1      33.324  23.677  26.196  1.00  0.00     0.027 C 
ATOM      9  C   UNL A   1      35.474  24.303  25.656  1.00  0.00    -0.027 C 
ATOM     10  C   UNL A   1      33.330  25.079  25.559  1.00  0.00     0.017 C 
ATOM     11  C   UNL A   1      34.780  23.677  26.621  1.00  0.00    -0.027 C 
BRANCH   6  12
ATOM     12  C   UNL A   1      33.293  23.820  22.551  1.00  0.00     0.228 C 
ATOM     13  N   UNL A   1      32.273  24.637  22.217  1.00  0.00    -0.326 N 
ATOM     14  H   UNL A   1      32.183  24.632  21.236  1.00  0.00     0.169 HD
ATOM     15  O   UNL A   1      33.816  23.279  21.556  1.00  0.00    -0.274 OA
BRANCH  13  16
ATOM     16  C   UNL A   1      31.285  25.495  22.745  1.00  0.00     0.044 A 
ATOM     17  C   UNL A   1      30.277  27.717  22.556  1.00  0.00     0.120 A 
ATOM     18  C   UNL A   1      29.382  27.436  23.576  1.00  0.00     0.046 A 
ATOM     19  C   UNL A   1      31.224  26.770  22.151  1.00  0.00     0.072 A 
ATOM     20  C   UNL A   1      29.428  26.189  24.176  1.00  0.00     0.006 A 
ATOM     21  C   UNL A   1      30.376  25.239  23.766  1.00  0.00     0.026 A 
BRANCH  17  22
ATOM     22  O   UNL A   1      30.273  28.966  22.004  1.00  0.00    -0.497 OA
ATOM     23  C   UNL A   1      29.636  29.898  22.879  1.00  0.00     0.278 C 
ENDBRANCH  17  22
ENDBRANCH  13  16
ENDBRANCH   6  12
ENDBRANCH   3   5
ENDBRANCH   2   3
ENDBRANCH   1   2
BRANCH   1  24
ATOM     24  C   UNL A   1      37.127  21.096  24.659  1.00  0.00     0.275 C 
BRANCH  24  25
ATOM     25  O   UNL A   1      37.670  21.747  25.818  1.00  0.00    -0.458 OA
BRANCH  25  26
ATOM     26  C   UNL A   1      38.952  21.452  26.130  1.00  0.00     0.338 C 
ATOM     27  O   UNL A   1      39.540  20.399  25.961  1.00  0.00    -0.246 OA
BRANCH  26  28
ATOM     28  C   UNL A   1      39.590  22.664  26.671  1.00  0.00     0.060 A 
ATOM     29  C   UNL A   1      39.190  23.897  26.166  1.00  0.00     0.016 A 
ATOM     30  C   UNL A   1      40.644  22.592  27.575  1.00  0.00     0.016 A 
ATOM     31  C   UNL A   1      39.873  25.061  26.499  1.00  0.00     0.010 A 
ATOM     32  C   UNL A   1      41.280  23.775  27.979  1.00  0.00     0.010 A 
ATOM     33  C   UNL A   1      40.921  25.020  27.423  1.00  0.00    -0.014 A 
BRANCH  33  34
ATOM     34  C   UNL A   1      41.693  26.256  27.736  1.00  0.00     0.031 A 
ATOM     35  C   UNL A   1      41.071  27.320  28.599  1.00  0.00     0.074 A 
ATOM     36  C   UNL A   1      42.957  26.425  27.297  1.00  0.00     0.049 A 
ATOM     37  N   UNL A   1      41.453  28.556  28.801  1.00  0.00    -0.248 NA
ATOM     38  C   UNL A   1      39.846  26.946  29.321  1.00  0.00     0.031 C 
ATOM     39  C   UNL A   1      43.728  25.450  26.526  1.00  0.00     0.029 A 
ATOM     40  N   UNL A   1      43.821  27.482  27.451  1.00  0.00    -0.354 N 
ATOM     41  C   UNL A   1      40.474  29.127  29.604  1.00  0.00     0.074 A 
ATOM     42  C   UNL A   1      39.490  28.098  29.868  1.00  0.00     0.031 C 
ATOM     43  C   UNL A   1      44.962  25.933  26.315  1.00  0.00     0.029 A 
ATOM     44  C   UNL A   1      45.041  27.289  26.848  1.00  0.00     0.049 A 
ATOM     45  H   UNL A   1      43.590  28.301  27.946  1.00  0.00     0.167 HD
ATOM     46  C   UNL A   1      40.402  30.398  30.065  1.00  0.00     0.037 A 
ATOM     47  C   UNL A   1      46.088  28.123  26.701  1.00  0.00     0.037 A 
ATOM     48  C   UNL A   1      41.425  31.391  29.873  1.00  0.00     0.049 A 
ATOM     49  C   UNL A   1      45.986  29.531  27.218  1.00  0.00     0.074 A 
ATOM     50  C   UNL A   1      41.442  32.709  30.295  1.00  0.00     0.029 A 
ATOM     51  N   UNL A   1      42.632  31.161  29.230  1.00  0.00    -0.354 N 
ATOM     52  N   UNL A   1      45.002  30.105  27.867  1.00  0.00    -0.248 NA
ATOM     53  C   UNL A   1      47.126  30.420  26.951  1.00  0.00     0.031 C 
ATOM     54  C   UNL A   1      42.654  33.283  29.891  1.00  0.00     0.029 A 
ATOM     55  C   UNL A   1      43.403  32.312  29.246  1.00  0.00     0.049 A 
ATOM     56  H   UNL A   1      42.902  30.306  28.824  1.00  0.00     0.167 HD
ATOM     57  C   UNL A   1      45.402  31.416  28.085  1.00  0.00     0.074 A 
ATOM     58  C   UNL A   1      46.730  31.548  27.524  1.00  0.00     0.031 C 
ATOM     59  C   UNL A   1      44.723  32.423  28.685  1.00  0.00     0.037 A 
BRANCH  46  60
ATOM     60  C   UNL A   1      39.149  30.802  30.785  1.00  0.00     0.064 A 
ATOM     61  C   UNL A   1      38.024  31.292  30.108  1.00  0.00     0.173 A 
ATOM     62  C   UNL A   1      39.071  30.666  32.180  1.00  0.00     0.173 A 
ATOM     63  F   UNL A   1      38.055  31.457  28.778  1.00  0.00    -0.203 F 
ATOM     64  C   UNL A   1      36.873  31.652  30.805  1.00  0.00     0.198 A 
ATOM     65  C   UNL A   1      37.911  31.000  32.870  1.00  0.00     0.198 A 
ATOM     66  F   UNL A   1      40.121  30.197  32.873  1.00  0.00    -0.203 F 
ATOM     67  F   UNL A   1      35.822  32.158  30.145  1.00  0.00    -0.200 F 
ATOM     68  C   UNL A   1      36.815  31.499  32.183  1.00  0.00     0.200 A 
ATOM     69  F   UNL A   1      37.854  30.843  34.199  1.00  0.00    -0.200 F 
ATOM     70  F   UNL A   1      35.703  31.840  32.851  1.00  0.00    -0.200 F 
ENDBRANCH  46  60
BRANCH  47  71
ATOM     71  C   UNL A   1      47.307  27.665  25.983  1.00  0.00     0.064 A 
ATOM     72  C   UNL A   1      48.400  27.137  26.683  1.00  0.00     0.173 A 
ATOM     73  C   UNL A   1      47.403  27.744  24.586  1.00  0.00     0.173 A 
ATOM     74  F   UNL A   1      48.370  27.071  28.023  1.00  0.00    -0.203 F 
ATOM     75  C   UNL A   1      49.546  26.710  26.012  1.00  0.00     0.198 A 
ATOM     76  C   UNL A   1      48.536  27.290  23.915  1.00  0.00     0.198 A 
ATOM     77  F   UNL A   1      46.388  28.250  23.870  1.00  0.00    -0.203 F 
ATOM     78  F   UNL A   1      50.593  26.246  26.708  1.00  0.00    -0.200 F 
ATOM     79  C   UNL A   1      49.608  26.779  24.629  1.00  0.00     0.200 A 
ATOM     80  F   UNL A   1      48.588  27.348  22.576  1.00  0.00    -0.200 F 
ATOM     81  F   UNL A   1      50.706  26.360  23.985  1.00  0.00    -0.200 F 
ENDBRANCH  47  71
BRANCH  59  82
ATOM     82  C   UNL A   1      45.414  33.749  28.779  1.00  0.00     0.064 A 
ATOM     83  C   UNL A   1      45.249  34.730  27.790  1.00  0.00     0.173 A 
ATOM     84  C   UNL A   1      46.221  34.055  29.884  1.00  0.00     0.173 A 
ATOM     85  F   UNL A   1      44.499  34.476  26.706  1.00  0.00    -0.203 F 
ATOM     86  C   UNL A   1      45.884  35.964  27.895  1.00  0.00     0.198 A 
ATOM     87  C   UNL A   1      46.837  35.297  29.997  1.00  0.00     0.198 A 
ATOM     88  F   UNL A   1      46.405  33.150  30.858  1.00  0.00    -0.203 F 
ATOM     89  F   UNL A   1      45.744  36.873  26.921  1.00  0.00    -0.200 F 
ATOM     90  C   UNL A   1      46.673  36.248  29.000  1.00  0.00     0.200 A 
ATOM     91  F   UNL A   1      47.594  35.574  31.068  1.00  0.00    -0.200 F 
ATOM     92  F   UNL A   1      47.282  37.437  29.102  1.00  0.00    -0.200 F 
ENDBRANCH  59  82
ENDBRANCH  33  34
ENDBRANCH  26  28
ENDBRANCH  25  26
ENDBRANCH  24  25
ENDBRANCH   1  24
TORSDOF 14
ENDMDL
MODEL 3
REMARK VINA RESULT:     -12.3      4.293      9.838
REMARK SMILES COc1cccc(NC(=O)[C@@H]2[C@@H](C(=O)OCCOC(=O)c3ccc(-c4c5nc(c(-c6c(F)c(F)c(F)c(F)c6F)c6ccc([nH]6)c(-c6c(F)c(F)c(F)c(F)c6F)c6nc(c(-c7c(F)c(F)c(F)c(F)c7F)c7ccc4[nH]7)C=C6)C=C5)cc3)[C@H]3C=C[C@@H]2C3)c1
REMARK SMILES IDX 16 1 15 2 13 3 14 4 12 5 11 6 87 7 84 8 86 9 88 10 85 11
REMARK SMILES IDX 9 12 8 13 10 15 7 16 3 17 4 18 89 19 5 20 6 21 2 22 1 23
REMARK SMILES IDX 17 24 18 25 19 26 20 27 21 28 22 29 83 30 23 31 82 32 24 33
REMARK SMILES IDX 25 34 26 35 76 36 27 37 81 38 75 39 77 40 28 41 80 42 74 43
REMARK SMILES IDX 73 44 29 46 61 47 41 48 60 49 42 50 45 51 59 52 78 53 43 54
REMARK SMILES IDX 44 55 58 57 79 58 46 59 30 60 31 61 39 62 32 63 33 64 37 65
REMARK SMILES IDX 40 66 34 67 35 68 38 69 36 70 62 71 63 72 71 73 64 74 65 75
REMARK SMILES IDX 69 76 72 77 66 78 67 79 70 80 68 81 47 82 48 83 56 84 49 85
REMARK SMILES IDX 50 86 54 87 57 88 51 89 52 90 55 91 53 92
REMARK H PARENT 8 14 77 45 45 56
REMARK Flexibility Score: inf
ROOT
ATOM      1  C   UNL A   1      35.683  20.457  25.148  1.00  0.00     0.274 C 
ENDROOT
BRANCH   1   2
ATOM      2  O   UNL A   1      35.104  21.361  26.115  1.00  0.00    -0.462 OA
BRANCH   2   3
ATOM      3  C   UNL A   1      33.862  21.855  25.831  1.00  0.00     0.310 C 
ATOM      4  O   UNL A   1      32.930  21.189  25.405  1.00  0.00    -0.252 OA
BRANCH   3   5
ATOM      5  C   UNL A   1      33.829  23.354  26.114  1.00  0.00     0.119 C 
ATOM      6  C   UNL A   1      32.585  24.102  25.595  1.00  0.00     0.100 C 
ATOM      7  C   UNL A   1      33.154  25.179  24.636  1.00  0.00     0.025 C 
ATOM      8  C   UNL A   1      34.974  24.119  25.388  1.00  0.00     0.027 C 
ATOM      9  C   UNL A   1      33.773  24.463  23.453  1.00  0.00    -0.027 C 
ATOM     10  C   UNL A   1      34.451  25.566  25.333  1.00  0.00     0.017 C 
ATOM     11  C   UNL A   1      34.880  23.847  23.899  1.00  0.00    -0.027 C 
BRANCH   6  12
ATOM     12  C   UNL A   1      31.569  24.674  26.573  1.00  0.00     0.228 C 
ATOM     13  N   UNL A   1      31.166  25.936  26.825  1.00  0.00    -0.326 N 
ATOM     14  H   UNL A   1      30.439  25.899  27.488  1.00  0.00     0.169 HD
ATOM     15  O   UNL A   1      30.943  23.829  27.245  1.00  0.00    -0.274 OA
BRANCH  13  16
ATOM     16  C   UNL A   1      31.395  27.288  26.498  1.00  0.00     0.044 A 
ATOM     17  C   UNL A   1      31.176  28.968  24.732  1.00  0.00     0.120 A 
ATOM     18  C   UNL A   1      31.713  29.950  25.551  1.00  0.00     0.046 A 
ATOM     19  C   UNL A   1      31.029  27.655  25.188  1.00  0.00     0.072 A 
ATOM     20  C   UNL A   1      32.083  29.610  26.841  1.00  0.00     0.006 A 
ATOM     21  C   UNL A   1      31.931  28.292  27.298  1.00  0.00     0.026 A 
BRANCH  17  22
ATOM     22  O   UNL A   1      30.866  29.289  23.441  1.00  0.00    -0.497 OA
ATOM     23  C   UNL A   1      29.607  28.723  23.073  1.00  0.00     0.278 C 
ENDBRANCH  17  22
ENDBRANCH  13  16
ENDBRANCH   6  12
ENDBRANCH   3   5
ENDBRANCH   2   3
ENDBRANCH   1   2
BRANCH   1  24
ATOM     24  C   UNL A   1      37.075  20.919  24.722  1.00  0.00     0.275 C 
BRANCH  24  25
ATOM     25  O   UNL A   1      37.651  21.702  25.779  1.00  0.00    -0.458 OA
BRANCH  25  26
ATOM     26  C   UNL A   1      38.923  21.404  26.126  1.00  0.00     0.338 C 
ATOM     27  O   UNL A   1      39.509  20.346  25.984  1.00  0.00    -0.246 OA
BRANCH  26  28
ATOM     28  C   UNL A   1      39.555  22.619  26.666  1.00  0.00     0.060 A 
ATOM     29  C   UNL A   1      39.151  23.849  26.160  1.00  0.00     0.016 A 
ATOM     30  C   UNL A   1      40.609  22.552  27.571  1.00  0.00     0.016 A 
ATOM     31  C   UNL A   1      39.829  25.017  26.494  1.00  0.00     0.010 A 
ATOM     32  C   UNL A   1      41.239  23.737  27.976  1.00  0.00     0.010 A 
ATOM     33  C   UNL A   1      40.876  24.980  27.419  1.00  0.00    -0.014 A 
BRANCH  33  34
ATOM     34  C   UNL A   1      41.642  26.220  27.732  1.00  0.00     0.031 A 
ATOM     35  C   UNL A   1      41.016  27.280  28.598  1.00  0.00     0.074 A 
ATOM     36  C   UNL A   1      42.904  26.396  27.291  1.00  0.00     0.049 A 
ATOM     37  N   UNL A   1      41.392  28.518  28.799  1.00  0.00    -0.248 NA
ATOM     38  C   UNL A   1      39.793  26.899  29.321  1.00  0.00     0.031 C 
ATOM     39  C   UNL A   1      43.679  25.426  26.517  1.00  0.00     0.029 A 
ATOM     40  N   UNL A   1      43.764  27.457  27.444  1.00  0.00    -0.354 N 
ATOM     41  C   UNL A   1      40.412  29.083  29.605  1.00  0.00     0.074 A 
ATOM     42  C   UNL A   1      39.433  28.049  29.870  1.00  0.00     0.031 C 
ATOM     43  C   UNL A   1      44.910  25.915  26.305  1.00  0.00     0.029 A 
ATOM     44  C   UNL A   1      44.983  27.271  26.840  1.00  0.00     0.049 A 
ATOM     45  H   UNL A   1      43.529  28.275  27.941  1.00  0.00     0.167 HD
ATOM     46  C   UNL A   1      40.333  30.353  30.068  1.00  0.00     0.037 A 
ATOM     47  C   UNL A   1      46.026  28.111  26.692  1.00  0.00     0.037 A 
ATOM     48  C   UNL A   1      41.352  31.351  29.875  1.00  0.00     0.049 A 
ATOM     49  C   UNL A   1      45.918  29.518  27.211  1.00  0.00     0.074 A 
ATOM     50  C   UNL A   1      41.363  32.669  30.299  1.00  0.00     0.029 A 
ATOM     51  N   UNL A   1      42.559  31.128  29.230  1.00  0.00    -0.354 N 
ATOM     52  N   UNL A   1      44.932  30.085  27.862  1.00  0.00    -0.248 NA
ATOM     53  C   UNL A   1      47.052  30.412  26.943  1.00  0.00     0.031 C 
ATOM     54  C   UNL A   1      42.571  33.249  29.893  1.00  0.00     0.029 A 
ATOM     55  C   UNL A   1      43.323  32.283  29.246  1.00  0.00     0.049 A 
ATOM     56  H   UNL A   1      42.832  30.275  28.822  1.00  0.00     0.167 HD
ATOM     57  C   UNL A   1      45.325  31.398  28.081  1.00  0.00     0.074 A 
ATOM     58  C   UNL A   1      46.651  31.538  27.518  1.00  0.00     0.031 C 
ATOM     59  C   UNL A   1      44.643  32.402  28.683  1.00  0.00     0.037 A 
BRANCH  46  60
ATOM     60  C   UNL A   1      39.080  30.750  30.790  1.00  0.00     0.064 A 
ATOM     61  C   UNL A   1      37.954  31.241  30.116  1.00  0.00     0.173 A 
ATOM     62  C   UNL A   1      39.003  30.606  32.184  1.00  0.00     0.173 A 
ATOM     63  F   UNL A   1      37.984  31.413  28.787  1.00  0.00    -0.203 F 
ATOM     64  C   UNL A   1      36.802  31.594  30.815  1.00  0.00     0.198 A 
ATOM     65  C   UNL A   1      37.842  30.934  32.876  1.00  0.00     0.198 A 
ATOM     66  F   UNL A   1      40.054  30.136  32.875  1.00  0.00    -0.203 F 
ATOM     67  F   UNL A   1      35.749  32.101  30.158  1.00  0.00    -0.200 F 
ATOM     68  C   UNL A   1      36.744  31.434  32.193  1.00  0.00     0.200 A 
ATOM     69  F   UNL A   1      37.785  30.769  34.205  1.00  0.00    -0.200 F 
ATOM     70  F   UNL A   1      35.632  31.768  32.863  1.00  0.00    -0.200 F 
ENDBRANCH  46  60
BRANCH  47  71
ATOM     71  C   UNL A   1      47.246  27.659  25.971  1.00  0.00     0.064 A 
ATOM     72  C   UNL A   1      48.346  27.142  26.670  1.00  0.00     0.173 A 
ATOM     73  C   UNL A   1      47.337  27.734  24.574  1.00  0.00     0.173 A 
ATOM     74  F   UNL A   1      48.320  27.081  28.010  1.00  0.00    -0.203 F 
ATOM     75  C   UNL A   1      49.492  26.722  25.997  1.00  0.00     0.198 A 
ATOM     76  C   UNL A   1      48.471  27.287  23.901  1.00  0.00     0.198 A 
ATOM     77  F   UNL A   1      46.316  28.230  23.860  1.00  0.00    -0.203 F 
ATOM     78  F   UNL A   1      50.545  26.268  26.690  1.00  0.00    -0.200 F 
ATOM     79  C   UNL A   1      49.549  26.786  24.613  1.00  0.00     0.200 A 
ATOM     80  F   UNL A   1      48.518  27.341  22.562  1.00  0.00    -0.200 F 
ATOM     81  F   UNL A   1      50.648  26.374  23.966  1.00  0.00    -0.200 F 
ENDBRANCH  47  71
BRANCH  59  82
ATOM     82  C   UNL A   1      45.327  33.731  28.778  1.00  0.00     0.064 A 
ATOM     83  C   UNL A   1      45.155  34.712  27.790  1.00  0.00     0.173 A 
ATOM     84  C   UNL A   1      46.134  34.039  29.882  1.00  0.00     0.173 A 
ATOM     85  F   UNL A   1      44.405  34.455  26.707  1.00  0.00    -0.203 F 
ATOM     86  C   UNL A   1      45.784  35.949  27.896  1.00  0.00     0.198 A 
ATOM     87  C   UNL A   1      46.744  35.285  29.995  1.00  0.00     0.198 A 
ATOM     88  F   UNL A   1      46.324  33.134  30.854  1.00  0.00    -0.203 F 
ATOM     89  F   UNL A   1      45.638  36.858  26.923  1.00  0.00    -0.200 F 
ATOM     90  C   UNL A   1      46.574  36.236  28.999  1.00  0.00     0.200 A 
ATOM     91  F   UNL A   1      47.501  35.564  31.066  1.00  0.00    -0.200 F 
ATOM     92  F   UNL A   1      47.177  37.428  29.101  1.00  0.00    -0.200 F 
ENDBRANCH  59  82
ENDBRANCH  33  34
ENDBRANCH  26  28
ENDBRANCH  25  26
ENDBRANCH  24  25
ENDBRANCH   1  24
TORSDOF 14
ENDMDL
