MODEL 1
REMARK VINA RESULT:     -12.9      0.000      0.000
REMARK SMILES CC1=CC2=[NH+]C(=O)C[C@@](C)(C(=O)OCCOC(=O)c3ccc(-c4c5nc(c(-c6c(F)c(F)c(F)c(F)c6F)c6ccc([nH]6)c(-c6c(F)c(F)c(F)c(F)c6F)c6nc(c(-c7c(F)c(F)c(F)c(F)c7F)c7ccc4[nH]7)C=C6)C=C5)cc3)N2C=C1
REMARK SMILES IDX 15 1 14 2 13 3 11 4 12 5 9 6 1 7 2 8 3 9 84 10 4 11 83 12
REMARK SMILES IDX 5 13 82 14 6 15 7 17 8 18 10 19 16 20 17 21 18 22 19 23
REMARK SMILES IDX 20 24 81 25 21 26 80 27 22 28 23 29 24 30 74 31 25 32 79 33
REMARK SMILES IDX 73 34 75 35 26 36 78 37 72 38 71 39 27 41 59 42 39 43 58 44
REMARK SMILES IDX 40 45 43 46 57 47 76 48 41 49 42 50 56 52 77 53 44 54 28 55
REMARK SMILES IDX 29 56 37 57 30 58 31 59 35 60 38 61 32 62 33 63 36 64 34 65
REMARK SMILES IDX 60 66 61 67 69 68 62 69 63 70 67 71 70 72 64 73 65 74 68 75
REMARK SMILES IDX 66 76 45 77 46 78 54 79 47 80 48 81 52 82 55 83 49 84 50 85
REMARK SMILES IDX 53 86 51 87
REMARK H PARENT 5 16 75 40 43 51
REMARK Flexibility Score: inf
ROOT
ATOM      1  C   UNL A   1      31.675  29.142  25.624  1.00  0.00     0.275 C 
ENDROOT
BRANCH   1   2
ATOM      2  C   UNL A   1      30.933  29.462  24.309  1.00  0.00     0.274 C 
BRANCH   2   3
ATOM      3  O   UNL A   1      31.767  29.067  23.191  1.00  0.00    -0.459 OA
BRANCH   3   4
ATOM      4  C   UNL A   1      31.527  27.858  22.576  1.00  0.00     0.355 C 
ATOM      5  O   UNL A   1      30.490  27.583  21.990  1.00  0.00    -0.247 OA
BRANCH   4   6
ATOM      6  C   UNL A   1      32.815  26.977  22.653  1.00  0.00     0.216 C 
ATOM      7  C   UNL A   1      32.436  23.150  27.000  1.00  0.00     0.045 C 
ATOM      8  C   UNL A   1      32.452  24.255  25.986  1.00  0.00    -0.039 C 
ATOM      9  C   UNL A   1      31.594  24.190  24.954  1.00  0.00     0.102 C 
ATOM     10  C   UNL A   1      33.492  25.282  26.016  1.00  0.00     0.047 C 
ATOM     11  C   UNL A   1      32.065  24.911  23.747  1.00  0.00     0.282 C 
ATOM     12  C   UNL A   1      33.583  26.183  25.014  1.00  0.00     0.202 C 
ATOM     13  N   UNL A   1      31.944  24.244  22.642  1.00  0.00    -0.210 N 
ATOM     14  N   UNL A   1      32.803  26.084  23.858  1.00  0.00    -0.217 N 
ATOM     15  C   UNL A   1      32.778  24.664  21.651  1.00  0.00     0.312 C 
ATOM     16  H   UNL A   1      31.306  23.503  22.529  1.00  0.00     0.315 HD
ATOM     17  O   UNL A   1      33.431  23.889  20.961  1.00  0.00    -0.247 OA
ATOM     18  C   UNL A   1      32.772  26.124  21.368  1.00  0.00     0.193 C 
ATOM     19  C   UNL A   1      34.050  27.887  22.621  1.00  0.00     0.076 C 
ENDBRANCH   4   6
ENDBRANCH   3   4
ENDBRANCH   2   3
ENDBRANCH   1   2
BRANCH   1  20
ATOM     20  O   UNL A   1      32.853  29.970  25.680  1.00  0.00    -0.458 OA
BRANCH  20  21
ATOM     21  C   UNL A   1      32.959  30.882  26.687  1.00  0.00     0.338 C 
ATOM     22  O   UNL A   1      32.084  31.633  27.067  1.00  0.00    -0.246 OA
BRANCH  21  23
ATOM     23  C   UNL A   1      34.311  30.744  27.318  1.00  0.00     0.060 A 
ATOM     24  C   UNL A   1      34.790  29.482  27.642  1.00  0.00     0.016 A 
ATOM     25  C   UNL A   1      35.080  31.857  27.687  1.00  0.00     0.016 A 
ATOM     26  C   UNL A   1      35.953  29.342  28.397  1.00  0.00     0.010 A 
ATOM     27  C   UNL A   1      36.314  31.692  28.368  1.00  0.00     0.010 A 
ATOM     28  C   UNL A   1      36.772  30.420  28.757  1.00  0.00    -0.014 A 
BRANCH  28  29
ATOM     29  C   UNL A   1      38.052  30.177  29.526  1.00  0.00     0.031 A 
ATOM     30  C   UNL A   1      39.198  29.377  28.941  1.00  0.00     0.074 A 
ATOM     31  C   UNL A   1      38.266  30.728  30.747  1.00  0.00     0.049 A 
ATOM     32  N   UNL A   1      40.215  28.814  29.556  1.00  0.00    -0.248 NA
ATOM     33  C   UNL A   1      39.216  29.196  27.483  1.00  0.00     0.031 C 
ATOM     34  C   UNL A   1      37.357  31.631  31.455  1.00  0.00     0.029 A 
ATOM     35  N   UNL A   1      39.341  30.629  31.609  1.00  0.00    -0.354 N 
ATOM     36  C   UNL A   1      40.937  28.141  28.577  1.00  0.00     0.074 A 
ATOM     37  C   UNL A   1      40.269  28.402  27.318  1.00  0.00     0.031 C 
ATOM     38  C   UNL A   1      37.947  32.088  32.565  1.00  0.00     0.029 A 
ATOM     39  C   UNL A   1      39.177  31.342  32.775  1.00  0.00     0.049 A 
ATOM     40  H   UNL A   1      40.146  30.100  31.409  1.00  0.00     0.167 HD
ATOM     41  C   UNL A   1      42.040  27.359  28.722  1.00  0.00     0.037 A 
ATOM     42  C   UNL A   1      39.849  31.329  33.943  1.00  0.00     0.037 A 
ATOM     43  C   UNL A   1      42.758  27.167  29.960  1.00  0.00     0.049 A 
ATOM     44  C   UNL A   1      40.987  30.370  34.129  1.00  0.00     0.074 A 
ATOM     45  C   UNL A   1      43.853  26.355  30.212  1.00  0.00     0.029 A 
ATOM     46  N   UNL A   1      42.475  27.822  31.148  1.00  0.00    -0.354 N 
ATOM     47  N   UNL A   1      41.546  29.574  33.254  1.00  0.00    -0.248 NA
ATOM     48  C   UNL A   1      41.549  30.264  35.484  1.00  0.00     0.031 C 
ATOM     49  C   UNL A   1      44.207  26.489  31.558  1.00  0.00     0.029 A 
ATOM     50  C   UNL A   1      43.363  27.421  32.137  1.00  0.00     0.049 A 
ATOM     51  H   UNL A   1      41.750  28.477  31.273  1.00  0.00     0.167 HD
ATOM     52  C   UNL A   1      42.523  28.876  33.948  1.00  0.00     0.074 A 
ATOM     53  C   UNL A   1      42.501  29.360  35.311  1.00  0.00     0.031 C 
ATOM     54  C   UNL A   1      43.354  27.909  33.490  1.00  0.00     0.037 A 
BRANCH  41  55
ATOM     55  C   UNL A   1      42.505  26.572  27.529  1.00  0.00     0.064 A 
ATOM     56  C   UNL A   1      43.530  27.014  26.682  1.00  0.00     0.173 A 
ATOM     57  C   UNL A   1      41.949  25.306  27.277  1.00  0.00     0.173 A 
ATOM     58  F   UNL A   1      44.098  28.212  26.878  1.00  0.00    -0.203 F 
ATOM     59  C   UNL A   1      43.963  26.229  25.613  1.00  0.00     0.198 A 
ATOM     60  C   UNL A   1      42.402  24.513  26.226  1.00  0.00     0.198 A 
ATOM     61  F   UNL A   1      40.980  24.824  28.070  1.00  0.00    -0.203 F 
ATOM     62  F   UNL A   1      44.922  26.684  24.795  1.00  0.00    -0.200 F 
ATOM     63  C   UNL A   1      43.404  24.978  25.390  1.00  0.00     0.200 A 
ATOM     64  F   UNL A   1      41.875  23.296  26.028  1.00  0.00    -0.200 F 
ATOM     65  F   UNL A   1      43.831  24.223  24.368  1.00  0.00    -0.200 F 
ENDBRANCH  41  55
BRANCH  42  66
ATOM     66  C   UNL A   1      39.363  32.151  35.089  1.00  0.00     0.064 A 
ATOM     67  C   UNL A   1      38.526  31.606  36.071  1.00  0.00     0.173 A 
ATOM     68  C   UNL A   1      39.724  33.503  35.218  1.00  0.00     0.173 A 
ATOM     69  F   UNL A   1      38.117  30.333  35.972  1.00  0.00    -0.203 F 
ATOM     70  C   UNL A   1      38.071  32.381  37.136  1.00  0.00     0.198 A 
ATOM     71  C   UNL A   1      39.307  34.262  36.308  1.00  0.00     0.198 A 
ATOM     72  F   UNL A   1      40.510  34.082  34.299  1.00  0.00    -0.203 F 
ATOM     73  F   UNL A   1      37.230  31.851  38.036  1.00  0.00    -0.200 F 
ATOM     74  C   UNL A   1      38.473  33.703  37.262  1.00  0.00     0.200 A 
ATOM     75  F   UNL A   1      39.717  35.531  36.433  1.00  0.00    -0.200 F 
ATOM     76  F   UNL A   1      38.048  34.441  38.297  1.00  0.00    -0.200 F 
ENDBRANCH  42  66
BRANCH  54  77
ATOM     77  C   UNL A   1      44.343  27.337  34.462  1.00  0.00     0.064 A 
ATOM     78  C   UNL A   1      44.063  26.177  35.199  1.00  0.00     0.173 A 
ATOM     79  C   UNL A   1      45.594  27.944  34.641  1.00  0.00     0.173 A 
ATOM     80  F   UNL A   1      42.871  25.574  35.081  1.00  0.00    -0.203 F 
ATOM     81  C   UNL A   1      44.995  25.655  36.093  1.00  0.00     0.198 A 
ATOM     82  C   UNL A   1      46.533  27.407  35.517  1.00  0.00     0.198 A 
ATOM     83  F   UNL A   1      45.909  29.058  33.962  1.00  0.00    -0.203 F 
ATOM     84  F   UNL A   1      44.691  24.571  36.818  1.00  0.00    -0.200 F 
ATOM     85  C   UNL A   1      46.231  26.265  36.245  1.00  0.00     0.200 A 
ATOM     86  F   UNL A   1      47.729  27.994  35.659  1.00  0.00    -0.200 F 
ATOM     87  F   UNL A   1      47.129  25.759  37.102  1.00  0.00    -0.200 F 
ENDBRANCH  54  77
ENDBRANCH  28  29
ENDBRANCH  21  23
ENDBRANCH  20  21
ENDBRANCH   1  20
TORSDOF 11
ENDMDL
MODEL 2
REMARK VINA RESULT:     -12.9      0.983      2.064
REMARK SMILES CC1=CC2=[NH+]C(=O)C[C@@](C)(C(=O)OCCOC(=O)c3ccc(-c4c5nc(c(-c6c(F)c(F)c(F)c(F)c6F)c6ccc([nH]6)c(-c6c(F)c(F)c(F)c(F)c6F)c6nc(c(-c7c(F)c(F)c(F)c(F)c7F)c7ccc4[nH]7)C=C6)C=C5)cc3)N2C=C1
REMARK SMILES IDX 15 1 14 2 13 3 11 4 12 5 9 6 1 7 2 8 3 9 84 10 4 11 83 12
REMARK SMILES IDX 5 13 82 14 6 15 7 17 8 18 10 19 16 20 17 21 18 22 19 23
REMARK SMILES IDX 20 24 81 25 21 26 80 27 22 28 23 29 24 30 74 31 25 32 79 33
REMARK SMILES IDX 73 34 75 35 26 36 78 37 72 38 71 39 27 41 59 42 39 43 58 44
REMARK SMILES IDX 40 45 43 46 57 47 76 48 41 49 42 50 56 52 77 53 44 54 28 55
REMARK SMILES IDX 29 56 37 57 30 58 31 59 35 60 38 61 32 62 33 63 36 64 34 65
REMARK SMILES IDX 60 66 61 67 69 68 62 69 63 70 67 71 70 72 64 73 65 74 68 75
REMARK SMILES IDX 66 76 45 77 46 78 54 79 47 80 48 81 52 82 55 83 49 84 50 85
REMARK SMILES IDX 53 86 51 87
REMARK H PARENT 5 16 75 40 43 51
REMARK Flexibility Score: inf
ROOT
ATOM      1  C   UNL A   1      31.479  29.077  26.356  1.00  0.00     0.275 C 
ENDROOT
BRANCH   1   2
ATOM      2  C   UNL A   1      31.790  27.842  27.227  1.00  0.00     0.274 C 
BRANCH   2   3
ATOM      3  O   UNL A   1      31.624  26.646  26.423  1.00  0.00    -0.459 OA
BRANCH   3   4
ATOM      4  C   UNL A   1      32.579  26.343  25.478  1.00  0.00     0.355 C 
ATOM      5  O   UNL A   1      33.782  26.338  25.697  1.00  0.00    -0.247 OA
BRANCH   4   6
ATOM      6  C   UNL A   1      31.871  25.905  24.155  1.00  0.00     0.216 C 
ATOM      7  C   UNL A   1      29.232  30.417  21.635  1.00  0.00     0.045 C 
ATOM      8  C   UNL A   1      29.860  29.321  22.443  1.00  0.00    -0.039 C 
ATOM      9  C   UNL A   1      31.196  29.314  22.583  1.00  0.00     0.102 C 
ATOM     10  C   UNL A   1      29.064  28.189  22.914  1.00  0.00     0.047 C 
ATOM     11  C   UNL A   1      31.759  27.963  22.822  1.00  0.00     0.282 C 
ATOM     12  C   UNL A   1      29.668  27.138  23.510  1.00  0.00     0.202 C 
ATOM     13  N   UNL A   1      32.797  27.678  22.100  1.00  0.00    -0.210 N 
ATOM     14  N   UNL A   1      31.059  27.019  23.566  1.00  0.00    -0.217 N 
ATOM     15  C   UNL A   1      33.014  26.342  21.952  1.00  0.00     0.312 C 
ATOM     16  H   UNL A   1      33.375  28.364  21.696  1.00  0.00     0.315 HD
ATOM     17  O   UNL A   1      33.277  25.828  20.869  1.00  0.00    -0.247 OA
ATOM     18  C   UNL A   1      33.031  25.541  23.204  1.00  0.00     0.193 C 
ATOM     19  C   UNL A   1      31.023  24.655  24.428  1.00  0.00     0.076 C 
ENDBRANCH   4   6
ENDBRANCH   3   4
ENDBRANCH   2   3
ENDBRANCH   1   2
BRANCH   1  20
ATOM     20  O   UNL A   1      32.725  29.746  26.075  1.00  0.00    -0.458 OA
BRANCH  20  21
ATOM     21  C   UNL A   1      33.012  30.896  26.747  1.00  0.00     0.338 C 
ATOM     22  O   UNL A   1      32.275  31.852  26.875  1.00  0.00    -0.246 OA
BRANCH  21  23
ATOM     23  C   UNL A   1      34.359  30.754  27.386  1.00  0.00     0.060 A 
ATOM     24  C   UNL A   1      34.873  29.486  27.626  1.00  0.00     0.016 A 
ATOM     25  C   UNL A   1      35.088  31.859  27.847  1.00  0.00     0.016 A 
ATOM     26  C   UNL A   1      36.030  29.327  28.386  1.00  0.00     0.010 A 
ATOM     27  C   UNL A   1      36.317  31.683  28.534  1.00  0.00     0.010 A 
ATOM     28  C   UNL A   1      36.810  30.401  28.836  1.00  0.00    -0.014 A 
BRANCH  28  29
ATOM     29  C   UNL A   1      38.087  30.141  29.605  1.00  0.00     0.031 A 
ATOM     30  C   UNL A   1      39.228  29.339  29.014  1.00  0.00     0.074 A 
ATOM     31  C   UNL A   1      38.301  30.678  30.832  1.00  0.00     0.049 A 
ATOM     32  N   UNL A   1      40.240  28.764  29.625  1.00  0.00    -0.248 NA
ATOM     33  C   UNL A   1      39.248  29.173  27.555  1.00  0.00     0.031 C 
ATOM     34  C   UNL A   1      37.398  31.580  31.547  1.00  0.00     0.029 A 
ATOM     35  N   UNL A   1      39.374  30.563  31.695  1.00  0.00    -0.354 N 
ATOM     36  C   UNL A   1      40.960  28.095  28.641  1.00  0.00     0.074 A 
ATOM     37  C   UNL A   1      40.296  28.374  27.383  1.00  0.00     0.031 C 
ATOM     38  C   UNL A   1      37.989  32.022  32.663  1.00  0.00     0.029 A 
ATOM     39  C   UNL A   1      39.213  31.266  32.868  1.00  0.00     0.049 A 
ATOM     40  H   UNL A   1      40.177  30.031  31.491  1.00  0.00     0.167 HD
ATOM     41  C   UNL A   1      42.057  27.305  28.780  1.00  0.00     0.037 A 
ATOM     42  C   UNL A   1      39.883  31.237  34.037  1.00  0.00     0.037 A 
ATOM     43  C   UNL A   1      42.771  27.095  30.017  1.00  0.00     0.049 A 
ATOM     44  C   UNL A   1      41.014  30.268  34.215  1.00  0.00     0.074 A 
ATOM     45  C   UNL A   1      43.861  26.273  30.263  1.00  0.00     0.029 A 
ATOM     46  N   UNL A   1      42.490  27.740  31.212  1.00  0.00    -0.354 N 
ATOM     47  N   UNL A   1      41.569  29.477  33.333  1.00  0.00    -0.248 NA
ATOM     48  C   UNL A   1      41.572  30.145  35.570  1.00  0.00     0.031 C 
ATOM     49  C   UNL A   1      44.212  26.391  31.612  1.00  0.00     0.029 A 
ATOM     50  C   UNL A   1      43.374  27.323  32.198  1.00  0.00     0.049 A 
ATOM     51  H   UNL A   1      41.770  28.398  31.342  1.00  0.00     0.167 HD
ATOM     52  C   UNL A   1      42.540  28.766  34.022  1.00  0.00     0.074 A 
ATOM     53  C   UNL A   1      42.519  29.235  35.390  1.00  0.00     0.031 C 
ATOM     54  C   UNL A   1      43.365  27.798  33.556  1.00  0.00     0.037 A 
BRANCH  41  55
ATOM     55  C   UNL A   1      42.519  26.526  27.580  1.00  0.00     0.064 A 
ATOM     56  C   UNL A   1      43.545  26.972  26.736  1.00  0.00     0.173 A 
ATOM     57  C   UNL A   1      41.959  25.264  27.318  1.00  0.00     0.173 A 
ATOM     58  F   UNL A   1      44.117  28.167  26.942  1.00  0.00    -0.203 F 
ATOM     59  C   UNL A   1      43.975  26.196  25.661  1.00  0.00     0.198 A 
ATOM     60  C   UNL A   1      42.409  24.479  26.259  1.00  0.00     0.198 A 
ATOM     61  F   UNL A   1      40.989  24.778  28.107  1.00  0.00    -0.203 F 
ATOM     62  F   UNL A   1      44.935  26.655  24.845  1.00  0.00    -0.200 F 
ATOM     63  C   UNL A   1      43.412  24.948  25.427  1.00  0.00     0.200 A 
ATOM     64  F   UNL A   1      41.878  23.265  26.052  1.00  0.00    -0.200 F 
ATOM     65  F   UNL A   1      43.836  24.200  24.399  1.00  0.00    -0.200 F 
ENDBRANCH  41  55
BRANCH  42  66
ATOM     66  C   UNL A   1      39.400  32.050  35.190  1.00  0.00     0.064 A 
ATOM     67  C   UNL A   1      38.565  31.498  36.170  1.00  0.00     0.173 A 
ATOM     68  C   UNL A   1      39.762  33.401  35.328  1.00  0.00     0.173 A 
ATOM     69  F   UNL A   1      38.156  30.226  36.063  1.00  0.00    -0.203 F 
ATOM     70  C   UNL A   1      38.113  32.266  37.242  1.00  0.00     0.198 A 
ATOM     71  C   UNL A   1      39.348  34.152  36.425  1.00  0.00     0.198 A 
ATOM     72  F   UNL A   1      40.546  33.987  34.411  1.00  0.00    -0.203 F 
ATOM     73  F   UNL A   1      37.275  31.730  38.140  1.00  0.00    -0.200 F 
ATOM     74  C   UNL A   1      38.516  33.587  37.377  1.00  0.00     0.200 A 
ATOM     75  F   UNL A   1      39.759  35.421  36.558  1.00  0.00    -0.200 F 
ATOM     76  F   UNL A   1      38.095  34.317  38.418  1.00  0.00    -0.200 F 
ENDBRANCH  42  66
BRANCH  54  77
ATOM     77  C   UNL A   1      44.348  27.209  34.524  1.00  0.00     0.064 A 
ATOM     78  C   UNL A   1      44.056  26.047  35.254  1.00  0.00     0.173 A 
ATOM     79  C   UNL A   1      45.606  27.802  34.706  1.00  0.00     0.173 A 
ATOM     80  F   UNL A   1      42.858  25.458  35.133  1.00  0.00    -0.203 F 
ATOM     81  C   UNL A   1      44.983  25.511  36.144  1.00  0.00     0.198 A 
ATOM     82  C   UNL A   1      46.540  27.249  35.578  1.00  0.00     0.198 A 
ATOM     83  F   UNL A   1      45.933  28.916  34.034  1.00  0.00    -0.203 F 
ATOM     84  F   UNL A   1      44.668  24.425  36.863  1.00  0.00    -0.200 F 
ATOM     85  C   UNL A   1      46.226  26.106  36.300  1.00  0.00     0.200 A 
ATOM     86  F   UNL A   1      47.742  27.822  35.723  1.00  0.00    -0.200 F 
ATOM     87  F   UNL A   1      47.118  25.585  37.153  1.00  0.00    -0.200 F 
ENDBRANCH  54  77
ENDBRANCH  28  29
ENDBRANCH  21  23
ENDBRANCH  20  21
ENDBRANCH   1  20
TORSDOF 11
ENDMDL
MODEL 3
REMARK VINA RESULT:     -12.8      1.032      2.641
REMARK SMILES CC1=CC2=[NH+]C(=O)C[C@@](C)(C(=O)OCCOC(=O)c3ccc(-c4c5nc(c(-c6c(F)c(F)c(F)c(F)c6F)c6ccc([nH]6)c(-c6c(F)c(F)c(F)c(F)c6F)c6nc(c(-c7c(F)c(F)c(F)c(F)c7F)c7ccc4[nH]7)C=C6)C=C5)cc3)N2C=C1
REMARK SMILES IDX 15 1 14 2 13 3 11 4 12 5 9 6 1 7 2 8 3 9 84 10 4 11 83 12
REMARK SMILES IDX 5 13 82 14 6 15 7 17 8 18 10 19 16 20 17 21 18 22 19 23
REMARK SMILES IDX 20 24 81 25 21 26 80 27 22 28 23 29 24 30 74 31 25 32 79 33
REMARK SMILES IDX 73 34 75 35 26 36 78 37 72 38 71 39 27 41 59 42 39 43 58 44
REMARK SMILES IDX 40 45 43 46 57 47 76 48 41 49 42 50 56 52 77 53 44 54 28 55
REMARK SMILES IDX 29 56 37 57 30 58 31 59 35 60 38 61 32 62 33 63 36 64 34 65
REMARK SMILES IDX 60 66 61 67 69 68 62 69 63 70 67 71 70 72 64 73 65 74 68 75
REMARK SMILES IDX 66 76 45 77 46 78 54 79 47 80 48 81 52 82 55 83 49 84 50 85
REMARK SMILES IDX 53 86 51 87
REMARK H PARENT 5 16 75 40 43 51
REMARK Flexibility Score: inf
ROOT
ATOM      1  C   UNL A   1      31.751  29.402  26.233  1.00  0.00     0.275 C 
ENDROOT
BRANCH   1   2
ATOM      2  C   UNL A   1      31.927  28.241  27.233  1.00  0.00     0.274 C 
BRANCH   2   3
ATOM      3  O   UNL A   1      31.779  26.984  26.525  1.00  0.00    -0.459 OA
BRANCH   3   4
ATOM      4  C   UNL A   1      32.730  26.630  25.593  1.00  0.00     0.355 C 
ATOM      5  O   UNL A   1      33.935  26.692  25.789  1.00  0.00    -0.247 OA
BRANCH   4   6
ATOM      6  C   UNL A   1      32.020  26.041  24.332  1.00  0.00     0.216 C 
ATOM      7  C   UNL A   1      28.861  30.109  21.658  1.00  0.00     0.045 C 
ATOM      8  C   UNL A   1      29.623  29.132  22.503  1.00  0.00    -0.039 C 
ATOM      9  C   UNL A   1      30.957  29.261  22.586  1.00  0.00     0.102 C 
ATOM     10  C   UNL A   1      28.959  27.962  23.077  1.00  0.00     0.047 C 
ATOM     11  C   UNL A   1      31.657  27.988  22.882  1.00  0.00     0.282 C 
ATOM     12  C   UNL A   1      29.684  27.014  23.708  1.00  0.00     0.202 C 
ATOM     13  N   UNL A   1      32.691  27.757  22.134  1.00  0.00    -0.210 N 
ATOM     14  N   UNL A   1      31.082  27.033  23.711  1.00  0.00    -0.217 N 
ATOM     15  C   UNL A   1      33.032  26.441  22.059  1.00  0.00     0.312 C 
ATOM     16  H   UNL A   1      33.184  28.467  21.665  1.00  0.00     0.315 HD
ATOM     17  O   UNL A   1      33.304  25.886  20.999  1.00  0.00    -0.247 OA
ATOM     18  C   UNL A   1      33.173  25.728  23.356  1.00  0.00     0.193 C 
ATOM     19  C   UNL A   1      31.309  24.737  24.717  1.00  0.00     0.076 C 
ENDBRANCH   4   6
ENDBRANCH   3   4
ENDBRANCH   2   3
ENDBRANCH   1   2
BRANCH   1  20
ATOM     20  O   UNL A   1      33.021  30.070  26.103  1.00  0.00    -0.458 OA
BRANCH  20  21
ATOM     21  C   UNL A   1      33.288  31.126  26.922  1.00  0.00     0.338 C 
ATOM     22  O   UNL A   1      32.535  32.044  27.174  1.00  0.00    -0.246 OA
BRANCH  21  23
ATOM     23  C   UNL A   1      34.637  30.922  27.543  1.00  0.00     0.060 A 
ATOM     24  C   UNL A   1      35.044  29.641  27.888  1.00  0.00     0.016 A 
ATOM     25  C   UNL A   1      35.473  31.995  27.882  1.00  0.00     0.016 A 
ATOM     26  C   UNL A   1      36.205  29.449  28.634  1.00  0.00     0.010 A 
ATOM     27  C   UNL A   1      36.702  31.772  28.554  1.00  0.00     0.010 A 
ATOM     28  C   UNL A   1      37.090  30.484  28.964  1.00  0.00    -0.014 A 
BRANCH  28  29
ATOM     29  C   UNL A   1      38.362  30.182  29.726  1.00  0.00     0.031 A 
ATOM     30  C   UNL A   1      39.483  29.364  29.120  1.00  0.00     0.074 A 
ATOM     31  C   UNL A   1      38.591  30.693  30.961  1.00  0.00     0.049 A 
ATOM     32  N   UNL A   1      40.482  28.755  29.719  1.00  0.00    -0.248 NA
ATOM     33  C   UNL A   1      39.496  29.221  27.657  1.00  0.00     0.031 C 
ATOM     34  C   UNL A   1      37.710  31.604  31.694  1.00  0.00     0.029 A 
ATOM     35  N   UNL A   1      39.663  30.539  31.820  1.00  0.00    -0.354 N 
ATOM     36  C   UNL A   1      41.184  28.086  28.721  1.00  0.00     0.074 A 
ATOM     37  C   UNL A   1      40.525  28.401  27.470  1.00  0.00     0.031 C 
ATOM     38  C   UNL A   1      38.313  32.013  32.815  1.00  0.00     0.029 A 
ATOM     39  C   UNL A   1      39.521  31.225  33.004  1.00  0.00     0.049 A 
ATOM     40  H   UNL A   1      40.452  29.992  31.605  1.00  0.00     0.167 HD
ATOM     41  C   UNL A   1      42.263  27.268  28.845  1.00  0.00     0.037 A 
ATOM     42  C   UNL A   1      40.192  31.161  34.172  1.00  0.00     0.037 A 
ATOM     43  C   UNL A   1      42.975  27.022  30.077  1.00  0.00     0.049 A 
ATOM     44  C   UNL A   1      41.300  30.164  34.331  1.00  0.00     0.074 A 
ATOM     45  C   UNL A   1      44.045  26.170  30.306  1.00  0.00     0.029 A 
ATOM     46  N   UNL A   1      42.711  27.653  31.282  1.00  0.00    -0.354 N 
ATOM     47  N   UNL A   1      41.834  29.375  33.435  1.00  0.00    -0.248 NA
ATOM     48  C   UNL A   1      41.857  30.005  35.682  1.00  0.00     0.031 C 
ATOM     49  C   UNL A   1      44.402  26.257  31.656  1.00  0.00     0.029 A 
ATOM     50  C   UNL A   1      43.587  27.199  32.260  1.00  0.00     0.049 A 
ATOM     51  H   UNL A   1      42.006  28.325  31.425  1.00  0.00     0.167 HD
ATOM     52  C   UNL A   1      42.791  28.630  34.109  1.00  0.00     0.074 A 
ATOM     53  C   UNL A   1      42.782  29.077  35.485  1.00  0.00     0.031 C 
ATOM     54  C   UNL A   1      43.592  27.651  33.626  1.00  0.00     0.037 A 
BRANCH  41  55
ATOM     55  C   UNL A   1      42.705  26.499  27.631  1.00  0.00     0.064 A 
ATOM     56  C   UNL A   1      43.711  26.956  26.769  1.00  0.00     0.173 A 
ATOM     57  C   UNL A   1      42.147  25.235  27.373  1.00  0.00     0.173 A 
ATOM     58  F   UNL A   1      44.280  28.153  26.970  1.00  0.00    -0.203 F 
ATOM     59  C   UNL A   1      44.123  26.188  25.680  1.00  0.00     0.198 A 
ATOM     60  C   UNL A   1      42.579  24.459  26.300  1.00  0.00     0.198 A 
ATOM     61  F   UNL A   1      41.196  24.740  28.179  1.00  0.00    -0.203 F 
ATOM     62  F   UNL A   1      45.063  26.658  24.848  1.00  0.00    -0.200 F 
ATOM     63  C   UNL A   1      43.562  24.939  25.451  1.00  0.00     0.200 A 
ATOM     64  F   UNL A   1      42.050  23.244  26.097  1.00  0.00    -0.200 F 
ATOM     65  F   UNL A   1      43.969  24.200  24.410  1.00  0.00    -0.200 F 
ENDBRANCH  41  55
BRANCH  42  66
ATOM     66  C   UNL A   1      39.730  31.966  35.339  1.00  0.00     0.064 A 
ATOM     67  C   UNL A   1      40.265  33.233  35.606  1.00  0.00     0.173 A 
ATOM     68  C   UNL A   1      38.746  31.477  36.216  1.00  0.00     0.173 A 
ATOM     69  F   UNL A   1      41.236  33.728  34.825  1.00  0.00    -0.203 F 
ATOM     70  C   UNL A   1      39.832  33.978  36.702  1.00  0.00     0.198 A 
ATOM     71  C   UNL A   1      38.283  32.242  37.282  1.00  0.00     0.198 A 
ATOM     72  F   UNL A   1      38.211  30.263  36.019  1.00  0.00    -0.203 F 
ATOM     73  F   UNL A   1      40.395  35.166  36.965  1.00  0.00    -0.200 F 
ATOM     74  C   UNL A   1      38.832  33.489  37.530  1.00  0.00     0.200 A 
ATOM     75  F   UNL A   1      37.302  31.771  38.064  1.00  0.00    -0.200 F 
ATOM     76  F   UNL A   1      38.406  34.215  38.572  1.00  0.00    -0.200 F 
ENDBRANCH  42  66
BRANCH  54  77
ATOM     77  C   UNL A   1      44.563  27.023  34.581  1.00  0.00     0.064 A 
ATOM     78  C   UNL A   1      45.825  27.585  34.822  1.00  0.00     0.173 A 
ATOM     79  C   UNL A   1      44.217  25.857  35.280  1.00  0.00     0.173 A 
ATOM     80  F   UNL A   1      46.211  28.685  34.159  1.00  0.00    -0.203 F 
ATOM     81  C   UNL A   1      46.713  26.992  35.716  1.00  0.00     0.198 A 
ATOM     82  C   UNL A   1      45.097  25.281  36.192  1.00  0.00     0.198 A 
ATOM     83  F   UNL A   1      43.022  25.279  35.082  1.00  0.00    -0.203 F 
ATOM     84  F   UNL A   1      47.929  27.521  35.900  1.00  0.00    -0.200 F 
ATOM     85  C   UNL A   1      46.345  25.846  36.407  1.00  0.00     0.200 A 
ATOM     86  F   UNL A   1      44.738  24.177  36.861  1.00  0.00    -0.200 F 
ATOM     87  F   UNL A   1      47.199  25.280  37.271  1.00  0.00    -0.200 F 
ENDBRANCH  54  77
ENDBRANCH  28  29
ENDBRANCH  21  23
ENDBRANCH  20  21
ENDBRANCH   1  20
TORSDOF 11
ENDMDL
