MODEL 1
REMARK VINA RESULT:     -12.8      0.000      0.000
REMARK SMILES CCOC(=O)c1cccc(Nc2c(-c3ccc(C(=O)OCCOC(=O)c4ccc(-c5c6nc(c(-c7c(F)c(F)c(F)c(F)c7F)c7ccc([nH]7)c(-c7c(F)c(F)c(F)c(F)c7F)c7nc(c(-c8c(F)c(F)c(F)c(F)c8F)c8ccc5[nH]8)C=C7)C=C6)cc4)cc3)nc3cnccn23)c1
REMARK SMILES IDX 18 1 19 2 17 3 14 4 15 5 90 6 16 7 89 8 13 9 12 10 97 11
REMARK SMILES IDX 91 12 92 13 96 14 93 15 95 16 94 17 11 18 10 20 6 21 7 22
REMARK SMILES IDX 98 23 8 24 9 25 4 26 5 27 3 28 2 29 1 30 20 31 21 32 22 33
REMARK SMILES IDX 23 34 24 35 25 36 26 37 27 38 88 39 28 40 87 41 29 42 30 43
REMARK SMILES IDX 31 44 81 45 32 46 86 47 80 48 82 49 33 50 85 51 79 52 78 53
REMARK SMILES IDX 34 55 66 56 46 57 65 58 47 59 50 60 64 61 83 62 48 63 49 64
REMARK SMILES IDX 63 66 84 67 51 68 35 69 36 70 44 71 37 72 38 73 42 74 45 75
REMARK SMILES IDX 39 76 40 77 43 78 41 79 67 80 68 81 76 82 69 83 70 84 74 85
REMARK SMILES IDX 77 86 71 87 72 88 75 89 73 90 52 91 53 92 61 93 54 94 55 95
REMARK SMILES IDX 59 96 62 97 56 98 57 99 60 100 58 101
REMARK H PARENT 11 19 82 54 50 65
REMARK Flexibility Score: inf
ROOT
ATOM      1  C   UNL A   1      33.741  27.924  24.278  1.00  0.00     0.338 C 
ATOM      2  O   UNL A   1      34.364  28.503  23.402  1.00  0.00    -0.246 OA
ENDROOT
BRANCH   1   3
ATOM      3  C   UNL A   1      33.680  26.445  24.354  1.00  0.00     0.060 A 
ATOM      4  C   UNL A   1      33.760  23.651  24.633  1.00  0.00     0.004 A 
ATOM      5  C   UNL A   1      33.771  24.468  25.763  1.00  0.00     0.011 A 
ATOM      6  C   UNL A   1      33.707  24.237  23.360  1.00  0.00     0.011 A 
ATOM      7  C   UNL A   1      33.763  25.851  25.619  1.00  0.00     0.016 A 
ATOM      8  C   UNL A   1      33.643  25.634  23.218  1.00  0.00     0.016 A 
BRANCH   4   9
ATOM      9  C   UNL A   1      33.935  22.221  24.797  1.00  0.00     0.114 A 
ATOM     10  C   UNL A   1      35.101  21.504  24.533  1.00  0.00     0.143 A 
ATOM     11  N   UNL A   1      34.734  20.186  24.727  1.00  0.00    -0.283 N 
ATOM     12  N   UNL A   1      32.874  21.390  25.078  1.00  0.00    -0.225 NA
ATOM     13  C   UNL A   1      33.386  20.185  24.988  1.00  0.00     0.157 A 
ATOM     14  C   UNL A   1      35.426  18.985  24.713  1.00  0.00     0.115 A 
ATOM     15  C   UNL A   1      32.717  18.924  25.143  1.00  0.00     0.158 A 
ATOM     16  C   UNL A   1      34.735  17.846  24.894  1.00  0.00     0.129 A 
ATOM     17  N   UNL A   1      33.364  17.789  25.092  1.00  0.00    -0.259 NA
BRANCH  10  18
ATOM     18  N   UNL A   1      36.361  21.917  24.222  1.00  0.00    -0.339 N 
ATOM     19  H   UNL A   1      36.622  21.844  23.275  1.00  0.00     0.168 HD
BRANCH  18  20
ATOM     20  C   UNL A   1      37.340  22.439  25.102  1.00  0.00     0.040 A 
ATOM     21  C   UNL A   1      39.393  22.077  26.357  1.00  0.00     0.062 A 
ATOM     22  C   UNL A   1      39.338  23.369  26.875  1.00  0.00     0.016 A 
ATOM     23  C   UNL A   1      38.413  21.615  25.469  1.00  0.00     0.041 A 
ATOM     24  C   UNL A   1      38.301  24.211  26.484  1.00  0.00     0.003 A 
ATOM     25  C   UNL A   1      37.312  23.747  25.608  1.00  0.00     0.026 A 
BRANCH  21  26
ATOM     26  C   UNL A   1      40.444  21.165  26.829  1.00  0.00     0.338 C 
ATOM     27  O   UNL A   1      40.715  21.022  28.006  1.00  0.00    -0.246 OA
BRANCH  26  28
ATOM     28  O   UNL A   1      41.017  20.562  25.761  1.00  0.00    -0.462 OA
BRANCH  28  29
ATOM     29  C   UNL A   1      41.715  19.339  26.038  1.00  0.00     0.230 C 
ATOM     30  C   UNL A   1      43.194  19.426  25.699  1.00  0.00     0.049 C 
ENDBRANCH  28  29
ENDBRANCH  26  28
ENDBRANCH  21  26
ENDBRANCH  18  20
ENDBRANCH  10  18
ENDBRANCH   4   9
ENDBRANCH   1   3
BRANCH   1  31
ATOM     31  O   UNL A   1      33.099  28.501  25.323  1.00  0.00    -0.458 OA
BRANCH  31  32
ATOM     32  C   UNL A   1      31.963  29.320  24.973  1.00  0.00     0.275 C 
BRANCH  32  33
ATOM     33  C   UNL A   1      31.803  30.515  25.915  1.00  0.00     0.275 C 
BRANCH  33  34
ATOM     34  O   UNL A   1      32.638  30.372  27.081  1.00  0.00    -0.458 OA
BRANCH  34  35
ATOM     35  C   UNL A   1      33.380  31.456  27.394  1.00  0.00     0.338 C 
ATOM     36  O   UNL A   1      33.001  32.610  27.509  1.00  0.00    -0.246 OA
BRANCH  35  37
ATOM     37  C   UNL A   1      34.777  31.078  27.662  1.00  0.00     0.060 A 
ATOM     38  C   UNL A   1      35.071  29.728  27.797  1.00  0.00     0.016 A 
ATOM     39  C   UNL A   1      35.718  32.033  28.034  1.00  0.00     0.016 A 
ATOM     40  C   UNL A   1      36.227  29.323  28.461  1.00  0.00     0.010 A 
ATOM     41  C   UNL A   1      36.943  31.618  28.578  1.00  0.00     0.010 A 
ATOM     42  C   UNL A   1      37.185  30.262  28.872  1.00  0.00    -0.014 A 
BRANCH  42  43
ATOM     43  C   UNL A   1      38.376  29.835  29.677  1.00  0.00     0.031 A 
ATOM     44  C   UNL A   1      38.535  30.294  31.110  1.00  0.00     0.074 A 
ATOM     45  C   UNL A   1      39.311  29.014  29.155  1.00  0.00     0.049 A 
ATOM     46  N   UNL A   1      39.571  30.197  31.908  1.00  0.00    -0.248 NA
ATOM     47  C   UNL A   1      37.385  30.988  31.712  1.00  0.00     0.031 C 
ATOM     48  C   UNL A   1      39.303  28.467  27.797  1.00  0.00     0.029 A 
ATOM     49  N   UNL A   1      40.451  28.484  29.713  1.00  0.00    -0.354 N 
ATOM     50  C   UNL A   1      39.220  30.874  33.074  1.00  0.00     0.074 A 
ATOM     51  C   UNL A   1      37.890  31.405  32.864  1.00  0.00     0.031 C 
ATOM     52  C   UNL A   1      40.352  27.648  27.643  1.00  0.00     0.029 A 
ATOM     53  C   UNL A   1      41.160  27.675  28.858  1.00  0.00     0.049 A 
ATOM     54  H   UNL A   1      40.733  28.666  30.639  1.00  0.00     0.167 HD
ATOM     55  C   UNL A   1      39.928  31.021  34.223  1.00  0.00     0.037 A 
ATOM     56  C   UNL A   1      42.345  27.053  29.009  1.00  0.00     0.037 A 
ATOM     57  C   UNL A   1      41.191  30.379  34.486  1.00  0.00     0.049 A 
ATOM     58  C   UNL A   1      43.101  27.207  30.300  1.00  0.00     0.074 A 
ATOM     59  C   UNL A   1      41.948  30.403  35.645  1.00  0.00     0.029 A 
ATOM     60  N   UNL A   1      41.859  29.556  33.592  1.00  0.00    -0.354 N 
ATOM     61  N   UNL A   1      42.775  27.882  31.374  1.00  0.00    -0.248 NA
ATOM     62  C   UNL A   1      44.396  26.519  30.394  1.00  0.00     0.031 C 
ATOM     63  C   UNL A   1      43.091  29.620  35.442  1.00  0.00     0.029 A 
ATOM     64  C   UNL A   1      43.026  29.077  34.169  1.00  0.00     0.049 A 
ATOM     65  H   UNL A   1      41.551  29.342  32.681  1.00  0.00     0.167 HD
ATOM     66  C   UNL A   1      43.810  27.684  32.277  1.00  0.00     0.074 A 
ATOM     67  C   UNL A   1      44.766  26.809  31.632  1.00  0.00     0.031 C 
ATOM     68  C   UNL A   1      43.958  28.189  33.526  1.00  0.00     0.037 A 
BRANCH  55  69
ATOM     69  C   UNL A   1      39.347  31.892  35.307  1.00  0.00     0.064 A 
ATOM     70  C   UNL A   1      38.549  31.361  36.327  1.00  0.00     0.173 A 
ATOM     71  C   UNL A   1      39.639  33.262  35.366  1.00  0.00     0.173 A 
ATOM     72  F   UNL A   1      38.220  30.066  36.310  1.00  0.00    -0.203 F 
ATOM     73  C   UNL A   1      38.041  32.160  37.348  1.00  0.00     0.198 A 
ATOM     74  C   UNL A   1      39.156  34.059  36.404  1.00  0.00     0.198 A 
ATOM     75  F   UNL A   1      40.408  33.832  34.425  1.00  0.00    -0.203 F 
ATOM     76  F   UNL A   1      37.242  31.623  38.281  1.00  0.00    -0.200 F 
ATOM     77  C   UNL A   1      38.352  33.508  37.390  1.00  0.00     0.200 A 
ATOM     78  F   UNL A   1      39.471  35.360  36.451  1.00  0.00    -0.200 F 
ATOM     79  F   UNL A   1      37.873  34.277  38.379  1.00  0.00    -0.200 F 
ENDBRANCH  55  69
BRANCH  56  80
ATOM     80  C   UNL A   1      42.906  26.246  27.894  1.00  0.00     0.064 A 
ATOM     81  C   UNL A   1      43.655  26.845  26.872  1.00  0.00     0.173 A 
ATOM     82  C   UNL A   1      42.703  24.859  27.827  1.00  0.00     0.173 A 
ATOM     83  F   UNL A   1      43.853  28.171  26.876  1.00  0.00    -0.203 F 
ATOM     84  C   UNL A   1      44.166  26.090  25.818  1.00  0.00     0.198 A 
ATOM     85  C   UNL A   1      43.244  24.101  26.792  1.00  0.00     0.198 A 
ATOM     86  F   UNL A   1      41.993  24.237  28.780  1.00  0.00    -0.203 F 
ATOM     87  F   UNL A   1      44.839  26.694  24.829  1.00  0.00    -0.200 F 
ATOM     88  C   UNL A   1      43.969  24.717  25.784  1.00  0.00     0.200 A 
ATOM     89  F   UNL A   1      43.063  22.773  26.771  1.00  0.00    -0.200 F 
ATOM     90  F   UNL A   1      44.469  23.991  24.775  1.00  0.00    -0.200 F 
ENDBRANCH  56  80
BRANCH  68  91
ATOM     91  C   UNL A   1      45.175  27.764  34.293  1.00  0.00     0.064 A 
ATOM     92  C   UNL A   1      45.149  26.664  35.163  1.00  0.00     0.173 A 
ATOM     93  C   UNL A   1      46.384  28.461  34.150  1.00  0.00     0.173 A 
ATOM     94  F   UNL A   1      44.012  25.976  35.348  1.00  0.00    -0.203 F 
ATOM     95  C   UNL A   1      46.280  26.298  35.887  1.00  0.00     0.198 A 
ATOM     96  C   UNL A   1      47.521  28.075  34.854  1.00  0.00     0.198 A 
ATOM     97  F   UNL A   1      46.462  29.517  33.327  1.00  0.00    -0.203 F 
ATOM     98  F   UNL A   1      46.219  25.277  36.754  1.00  0.00    -0.200 F 
ATOM     99  C   UNL A   1      47.466  27.000  35.728  1.00  0.00     0.200 A 
ATOM    100  F   UNL A   1      48.668  28.748  34.693  1.00  0.00    -0.200 F 
ATOM    101  F   UNL A   1      48.554  26.648  36.427  1.00  0.00    -0.200 F 
ENDBRANCH  68  91
ENDBRANCH  42  43
ENDBRANCH  35  37
ENDBRANCH  34  35
ENDBRANCH  33  34
ENDBRANCH  32  33
ENDBRANCH  31  32
ENDBRANCH   1  31
TORSDOF 17
ENDMDL
MODEL 2
REMARK VINA RESULT:     -12.7      4.119     10.255
REMARK SMILES CCOC(=O)c1cccc(Nc2c(-c3ccc(C(=O)OCCOC(=O)c4ccc(-c5c6nc(c(-c7c(F)c(F)c(F)c(F)c7F)c7ccc([nH]7)c(-c7c(F)c(F)c(F)c(F)c7F)c7nc(c(-c8c(F)c(F)c(F)c(F)c8F)c8ccc5[nH]8)C=C7)C=C6)cc4)cc3)nc3cnccn23)c1
REMARK SMILES IDX 18 1 19 2 17 3 14 4 15 5 90 6 16 7 89 8 13 9 12 10 97 11
REMARK SMILES IDX 91 12 92 13 96 14 93 15 95 16 94 17 11 18 10 20 6 21 7 22
REMARK SMILES IDX 98 23 8 24 9 25 4 26 5 27 3 28 2 29 1 30 20 31 21 32 22 33
REMARK SMILES IDX 23 34 24 35 25 36 26 37 27 38 88 39 28 40 87 41 29 42 30 43
REMARK SMILES IDX 31 44 81 45 32 46 86 47 80 48 82 49 33 50 85 51 79 52 78 53
REMARK SMILES IDX 34 55 66 56 46 57 65 58 47 59 50 60 64 61 83 62 48 63 49 64
REMARK SMILES IDX 63 66 84 67 51 68 35 69 36 70 44 71 37 72 38 73 42 74 45 75
REMARK SMILES IDX 39 76 40 77 43 78 41 79 67 80 68 81 76 82 69 83 70 84 74 85
REMARK SMILES IDX 77 86 71 87 72 88 75 89 73 90 52 91 53 92 61 93 54 94 55 95
REMARK SMILES IDX 59 96 62 97 56 98 57 99 60 100 58 101
REMARK H PARENT 11 19 82 54 50 65
REMARK Flexibility Score: inf
ROOT
ATOM      1  C   UNL A   1      34.627  22.625  26.509  1.00  0.00     0.338 C 
ATOM      2  O   UNL A   1      34.180  21.978  27.443  1.00  0.00    -0.246 OA
ENDROOT
BRANCH   1   3
ATOM      3  C   UNL A   1      34.041  23.924  26.102  1.00  0.00     0.060 A 
ATOM      4  C   UNL A   1      32.742  26.266  25.254  1.00  0.00     0.004 A 
ATOM      5  C   UNL A   1      32.099  25.382  26.120  1.00  0.00     0.011 A 
ATOM      6  C   UNL A   1      34.042  25.975  24.814  1.00  0.00     0.011 A 
ATOM      7  C   UNL A   1      32.733  24.209  26.512  1.00  0.00     0.016 A 
ATOM      8  C   UNL A   1      34.703  24.816  25.255  1.00  0.00     0.016 A 
BRANCH   4   9
ATOM      9  C   UNL A   1      32.004  27.398  24.727  1.00  0.00     0.114 A 
ATOM     10  C   UNL A   1      31.651  28.545  25.437  1.00  0.00     0.143 A 
ATOM     11  N   UNL A   1      30.870  29.259  24.549  1.00  0.00    -0.283 N 
ATOM     12  N   UNL A   1      31.420  27.364  23.481  1.00  0.00    -0.225 NA
ATOM     13  C   UNL A   1      30.722  28.475  23.431  1.00  0.00     0.157 A 
ATOM     14  C   UNL A   1      30.275  30.511  24.585  1.00  0.00     0.115 A 
ATOM     15  C   UNL A   1      29.872  28.940  22.372  1.00  0.00     0.158 A 
ATOM     16  C   UNL A   1      29.516  30.890  23.542  1.00  0.00     0.129 A 
ATOM     17  N   UNL A   1      29.281  30.106  22.424  1.00  0.00    -0.259 NA
BRANCH  10  18
ATOM     18  N   UNL A   1      31.999  28.978  26.680  1.00  0.00    -0.339 N 
ATOM     19  H   UNL A   1      31.304  28.911  27.375  1.00  0.00     0.168 HD
BRANCH  18  20
ATOM     20  C   UNL A   1      33.244  29.513  27.090  1.00  0.00     0.040 A 
ATOM     21  C   UNL A   1      34.528  31.457  27.792  1.00  0.00     0.062 A 
ATOM     22  C   UNL A   1      35.687  30.691  27.894  1.00  0.00     0.016 A 
ATOM     23  C   UNL A   1      33.312  30.877  27.405  1.00  0.00     0.041 A 
ATOM     24  C   UNL A   1      35.622  29.327  27.627  1.00  0.00     0.003 A 
ATOM     25  C   UNL A   1      34.412  28.747  27.226  1.00  0.00     0.026 A 
BRANCH  21  26
ATOM     26  C   UNL A   1      34.613  32.910  28.000  1.00  0.00     0.338 C 
ATOM     27  O   UNL A   1      35.560  33.576  27.627  1.00  0.00    -0.246 OA
BRANCH  26  28
ATOM     28  O   UNL A   1      33.504  33.327  28.654  1.00  0.00    -0.462 OA
BRANCH  28  29
ATOM     29  C   UNL A   1      33.287  34.746  28.669  1.00  0.00     0.230 C 
ATOM     30  C   UNL A   1      33.124  35.291  30.078  1.00  0.00     0.049 C 
ENDBRANCH  28  29
ENDBRANCH  26  28
ENDBRANCH  21  26
ENDBRANCH  18  20
ENDBRANCH  10  18
ENDBRANCH   4   9
ENDBRANCH   1   3
BRANCH   1  31
ATOM     31  O   UNL A   1      35.726  22.325  25.776  1.00  0.00    -0.458 OA
BRANCH  31  32
ATOM     32  C   UNL A   1      35.780  20.973  25.272  1.00  0.00     0.275 C 
BRANCH  32  33
ATOM     33  C   UNL A   1      37.216  20.516  25.003  1.00  0.00     0.275 C 
BRANCH  33  34
ATOM     34  O   UNL A   1      38.144  21.609  25.150  1.00  0.00    -0.458 OA
BRANCH  34  35
ATOM     35  C   UNL A   1      39.170  21.381  26.000  1.00  0.00     0.338 C 
ATOM     36  O   UNL A   1      39.803  20.349  26.142  1.00  0.00    -0.246 OA
BRANCH  35  37
ATOM     37  C   UNL A   1      39.517  22.602  26.744  1.00  0.00     0.060 A 
ATOM     38  C   UNL A   1      38.868  23.780  26.400  1.00  0.00     0.016 A 
ATOM     39  C   UNL A   1      40.633  22.642  27.572  1.00  0.00     0.016 A 
ATOM     40  C   UNL A   1      39.426  25.013  26.733  1.00  0.00     0.010 A 
ATOM     41  C   UNL A   1      41.116  23.881  28.021  1.00  0.00     0.010 A 
ATOM     42  C   UNL A   1      40.568  25.088  27.546  1.00  0.00    -0.014 A 
BRANCH  42  43
ATOM     43  C   UNL A   1      41.226  26.408  27.816  1.00  0.00     0.031 A 
ATOM     44  C   UNL A   1      42.597  26.709  27.249  1.00  0.00     0.074 A 
ATOM     45  C   UNL A   1      40.605  27.361  28.541  1.00  0.00     0.049 A 
ATOM     46  N   UNL A   1      43.413  27.700  27.517  1.00  0.00    -0.248 NA
ATOM     47  C   UNL A   1      43.134  25.746  26.276  1.00  0.00     0.031 C 
ATOM     48  C   UNL A   1      39.278  27.240  29.147  1.00  0.00     0.029 A 
ATOM     49  N   UNL A   1      41.006  28.632  28.884  1.00  0.00    -0.354 N 
ATOM     50  C   UNL A   1      44.579  27.441  26.800  1.00  0.00     0.074 A 
ATOM     51  C   UNL A   1      44.375  26.183  26.115  1.00  0.00     0.031 C 
ATOM     52  C   UNL A   1      38.956  28.397  29.743  1.00  0.00     0.029 A 
ATOM     53  C   UNL A   1      40.085  29.315  29.641  1.00  0.00     0.049 A 
ATOM     54  H   UNL A   1      41.871  29.015  28.613  1.00  0.00     0.167 HD
ATOM     55  C   UNL A   1      45.707  28.189  26.703  1.00  0.00     0.037 A 
ATOM     56  C   UNL A   1      40.147  30.528  30.224  1.00  0.00     0.037 A 
ATOM     57  C   UNL A   1      45.859  29.505  27.272  1.00  0.00     0.049 A 
ATOM     58  C   UNL A   1      41.396  31.353  30.081  1.00  0.00     0.074 A 
ATOM     59  C   UNL A   1      46.931  30.374  27.164  1.00  0.00     0.029 A 
ATOM     60  N   UNL A   1      44.890  30.160  28.016  1.00  0.00    -0.354 N 
ATOM     61  N   UNL A   1      42.501  31.077  29.436  1.00  0.00    -0.248 NA
ATOM     62  C   UNL A   1      41.407  32.659  30.757  1.00  0.00     0.031 C 
ATOM     63  C   UNL A   1      46.624  31.544  27.869  1.00  0.00     0.029 A 
ATOM     64  C   UNL A   1      45.345  31.418  28.384  1.00  0.00     0.049 A 
ATOM     65  H   UNL A   1      44.008  29.788  28.249  1.00  0.00     0.167 HD
ATOM     66  C   UNL A   1      43.329  32.177  29.609  1.00  0.00     0.074 A 
ATOM     67  C   UNL A   1      42.591  33.135  30.404  1.00  0.00     0.031 C 
ATOM     68  C   UNL A   1      44.592  32.371  29.156  1.00  0.00     0.037 A 
BRANCH  55  69
ATOM     69  C   UNL A   1      46.868  27.624  25.928  1.00  0.00     0.064 A 
ATOM     70  C   UNL A   1      47.006  27.836  24.551  1.00  0.00     0.173 A 
ATOM     71  C   UNL A   1      47.890  26.913  26.575  1.00  0.00     0.173 A 
ATOM     72  F   UNL A   1      46.053  28.487  23.879  1.00  0.00    -0.203 F 
ATOM     73  C   UNL A   1      48.098  27.342  23.842  1.00  0.00     0.198 A 
ATOM     74  C   UNL A   1      48.999  26.443  25.871  1.00  0.00     0.198 A 
ATOM     75  F   UNL A   1      47.824  26.685  27.896  1.00  0.00    -0.203 F 
ATOM     76  F   UNL A   1      48.171  27.526  22.516  1.00  0.00    -0.200 F 
ATOM     77  C   UNL A   1      49.099  26.652  24.505  1.00  0.00     0.200 A 
ATOM     78  F   UNL A   1      49.973  25.789  26.518  1.00  0.00    -0.200 F 
ATOM     79  F   UNL A   1      50.156  26.186  23.825  1.00  0.00    -0.200 F 
ENDBRANCH  55  69
BRANCH  56  80
ATOM     80  C   UNL A   1      38.997  31.026  31.023  1.00  0.00     0.064 A 
ATOM     81  C   UNL A   1      38.029  31.865  30.455  1.00  0.00     0.173 A 
ATOM     82  C   UNL A   1      38.843  30.673  32.372  1.00  0.00     0.173 A 
ATOM     83  F   UNL A   1      38.146  32.253  29.176  1.00  0.00    -0.203 F 
ATOM     84  C   UNL A   1      36.960  32.343  31.209  1.00  0.00     0.198 A 
ATOM     85  C   UNL A   1      37.755  31.124  33.116  1.00  0.00     0.198 A 
ATOM     86  F   UNL A   1      39.742  29.873  32.965  1.00  0.00    -0.203 F 
ATOM     87  F   UNL A   1      36.074  33.182  30.655  1.00  0.00    -0.200 F 
ATOM     88  C   UNL A   1      36.818  31.966  32.536  1.00  0.00     0.200 A 
ATOM     89  F   UNL A   1      37.616  30.744  34.393  1.00  0.00    -0.200 F 
ATOM     90  F   UNL A   1      35.785  32.420  33.258  1.00  0.00    -0.200 F 
ENDBRANCH  56  80
BRANCH  68  91
ATOM     91  C   UNL A   1      45.232  33.691  29.469  1.00  0.00     0.064 A 
ATOM     92  C   UNL A   1      45.107  34.792  28.608  1.00  0.00     0.173 A 
ATOM     93  C   UNL A   1      45.973  33.860  30.648  1.00  0.00     0.173 A 
ATOM     94  F   UNL A   1      44.424  34.676  27.459  1.00  0.00    -0.203 F 
ATOM     95  C   UNL A   1      45.728  36.003  28.900  1.00  0.00     0.198 A 
ATOM     96  C   UNL A   1      46.570  35.080  30.950  1.00  0.00     0.198 A 
ATOM     97  F   UNL A   1      46.119  32.840  31.507  1.00  0.00    -0.203 F 
ATOM     98  F   UNL A   1      45.641  37.024  28.037  1.00  0.00    -0.200 F 
ATOM     99  C   UNL A   1      46.454  36.148  30.073  1.00  0.00     0.200 A 
ATOM    100  F   UNL A   1      47.264  35.222  32.088  1.00  0.00    -0.200 F 
ATOM    101  F   UNL A   1      47.054  37.314  30.351  1.00  0.00    -0.200 F 
ENDBRANCH  68  91
ENDBRANCH  42  43
ENDBRANCH  35  37
ENDBRANCH  34  35
ENDBRANCH  33  34
ENDBRANCH  32  33
ENDBRANCH  31  32
ENDBRANCH   1  31
TORSDOF 17
ENDMDL
MODEL 3
REMARK VINA RESULT:     -12.5      4.104      8.053
REMARK SMILES CCOC(=O)c1cccc(Nc2c(-c3ccc(C(=O)OCCOC(=O)c4ccc(-c5c6nc(c(-c7c(F)c(F)c(F)c(F)c7F)c7ccc([nH]7)c(-c7c(F)c(F)c(F)c(F)c7F)c7nc(c(-c8c(F)c(F)c(F)c(F)c8F)c8ccc5[nH]8)C=C7)C=C6)cc4)cc3)nc3cnccn23)c1
REMARK SMILES IDX 18 1 19 2 17 3 14 4 15 5 90 6 16 7 89 8 13 9 12 10 97 11
REMARK SMILES IDX 91 12 92 13 96 14 93 15 95 16 94 17 11 18 10 20 6 21 7 22
REMARK SMILES IDX 98 23 8 24 9 25 4 26 5 27 3 28 2 29 1 30 20 31 21 32 22 33
REMARK SMILES IDX 23 34 24 35 25 36 26 37 27 38 88 39 28 40 87 41 29 42 30 43
REMARK SMILES IDX 31 44 81 45 32 46 86 47 80 48 82 49 33 50 85 51 79 52 78 53
REMARK SMILES IDX 34 55 66 56 46 57 65 58 47 59 50 60 64 61 83 62 48 63 49 64
REMARK SMILES IDX 63 66 84 67 51 68 35 69 36 70 44 71 37 72 38 73 42 74 45 75
REMARK SMILES IDX 39 76 40 77 43 78 41 79 67 80 68 81 76 82 69 83 70 84 74 85
REMARK SMILES IDX 77 86 71 87 72 88 75 89 73 90 52 91 53 92 61 93 54 94 55 95
REMARK SMILES IDX 59 96 62 97 56 98 57 99 60 100 58 101
REMARK H PARENT 11 19 82 54 50 65
REMARK Flexibility Score: inf
ROOT
ATOM      1  C   UNL A   1      34.393  22.900  26.588  1.00  0.00     0.338 C 
ATOM      2  O   UNL A   1      33.994  22.336  27.596  1.00  0.00    -0.246 OA
ENDROOT
BRANCH   1   3
ATOM      3  C   UNL A   1      33.816  24.185  26.127  1.00  0.00     0.060 A 
ATOM      4  C   UNL A   1      32.536  26.498  25.176  1.00  0.00     0.004 A 
ATOM      5  C   UNL A   1      31.874  25.642  26.056  1.00  0.00     0.011 A 
ATOM      6  C   UNL A   1      33.845  26.193  24.774  1.00  0.00     0.011 A 
ATOM      7  C   UNL A   1      32.500  24.482  26.499  1.00  0.00     0.016 A 
ATOM      8  C   UNL A   1      34.497  25.050  25.266  1.00  0.00     0.016 A 
BRANCH   4   9
ATOM      9  C   UNL A   1      31.810  27.612  24.597  1.00  0.00     0.114 A 
ATOM     10  C   UNL A   1      31.421  28.770  25.268  1.00  0.00     0.143 A 
ATOM     11  N   UNL A   1      30.669  29.458  24.335  1.00  0.00    -0.283 N 
ATOM     12  N   UNL A   1      31.275  27.546  23.331  1.00  0.00    -0.225 NA
ATOM     13  C   UNL A   1      30.571  28.650  23.230  1.00  0.00     0.157 A 
ATOM     14  C   UNL A   1      30.064  30.706  24.322  1.00  0.00     0.115 A 
ATOM     15  C   UNL A   1      29.759  29.085  22.129  1.00  0.00     0.158 A 
ATOM     16  C   UNL A   1      29.343  31.056  23.243  1.00  0.00     0.129 A 
ATOM     17  N   UNL A   1      29.158  30.246  22.133  1.00  0.00    -0.259 NA
BRANCH  10  18
ATOM     18  N   UNL A   1      31.718  29.232  26.514  1.00  0.00    -0.339 N 
ATOM     19  H   UNL A   1      30.971  29.264  27.156  1.00  0.00     0.168 HD
BRANCH  18  20
ATOM     20  C   UNL A   1      32.974  29.673  26.995  1.00  0.00     0.040 A 
ATOM     21  C   UNL A   1      34.383  31.529  27.697  1.00  0.00     0.062 A 
ATOM     22  C   UNL A   1      35.453  30.666  27.929  1.00  0.00     0.016 A 
ATOM     23  C   UNL A   1      33.150  31.041  27.245  1.00  0.00     0.041 A 
ATOM     24  C   UNL A   1      35.277  29.301  27.727  1.00  0.00     0.003 A 
ATOM     25  C   UNL A   1      34.050  28.812  27.261  1.00  0.00     0.026 A 
BRANCH  21  26
ATOM     26  C   UNL A   1      34.592  32.977  27.837  1.00  0.00     0.338 C 
ATOM     27  O   UNL A   1      35.655  33.517  27.598  1.00  0.00    -0.246 OA
BRANCH  26  28
ATOM     28  O   UNL A   1      33.443  33.548  28.267  1.00  0.00    -0.462 OA
BRANCH  28  29
ATOM     29  C   UNL A   1      33.535  34.933  28.630  1.00  0.00     0.230 C 
ATOM     30  C   UNL A   1      33.289  35.160  30.113  1.00  0.00     0.049 C 
ENDBRANCH  28  29
ENDBRANCH  26  28
ENDBRANCH  21  26
ENDBRANCH  18  20
ENDBRANCH  10  18
ENDBRANCH   4   9
ENDBRANCH   1   3
BRANCH   1  31
ATOM     31  O   UNL A   1      35.429  22.512  25.807  1.00  0.00    -0.458 OA
BRANCH  31  32
ATOM     32  C   UNL A   1      35.416  21.124  25.410  1.00  0.00     0.275 C 
BRANCH  32  33
ATOM     33  C   UNL A   1      36.813  20.616  25.046  1.00  0.00     0.275 C 
BRANCH  33  34
ATOM     34  O   UNL A   1      37.788  21.674  25.132  1.00  0.00    -0.458 OA
BRANCH  34  35
ATOM     35  C   UNL A   1      38.894  21.381  25.850  1.00  0.00     0.338 C 
ATOM     36  O   UNL A   1      39.513  20.330  25.867  1.00  0.00    -0.246 OA
BRANCH  35  37
ATOM     37  C   UNL A   1      39.349  22.551  26.617  1.00  0.00     0.060 A 
ATOM     38  C   UNL A   1      38.856  23.798  26.255  1.00  0.00     0.016 A 
ATOM     39  C   UNL A   1      40.428  22.459  27.490  1.00  0.00     0.016 A 
ATOM     40  C   UNL A   1      39.539  24.956  26.619  1.00  0.00     0.010 A 
ATOM     41  C   UNL A   1      41.032  23.633  27.966  1.00  0.00     0.010 A 
ATOM     42  C   UNL A   1      40.647  24.897  27.478  1.00  0.00    -0.014 A 
BRANCH  42  43
ATOM     43  C   UNL A   1      41.442  26.131  27.784  1.00  0.00     0.031 A 
ATOM     44  C   UNL A   1      40.867  27.209  28.677  1.00  0.00     0.074 A 
ATOM     45  C   UNL A   1      42.691  26.293  27.299  1.00  0.00     0.049 A 
ATOM     46  N   UNL A   1      41.305  28.423  28.909  1.00  0.00    -0.248 NA
ATOM     47  C   UNL A   1      39.610  26.889  29.371  1.00  0.00     0.031 C 
ATOM     48  C   UNL A   1      43.400  25.346  26.438  1.00  0.00     0.029 A 
ATOM     49  N   UNL A   1      43.594  27.316  27.472  1.00  0.00    -0.354 N 
ATOM     50  C   UNL A   1      40.347  29.027  29.719  1.00  0.00     0.074 A 
ATOM     51  C   UNL A   1      39.288  28.058  29.906  1.00  0.00     0.031 C 
ATOM     52  C   UNL A   1      44.636  25.805  26.197  1.00  0.00     0.029 A 
ATOM     53  C   UNL A   1      44.783  27.120  26.811  1.00  0.00     0.049 A 
ATOM     54  H   UNL A   1      43.407  28.114  28.017  1.00  0.00     0.167 HD
ATOM     55  C   UNL A   1      40.354  30.266  30.273  1.00  0.00     0.037 A 
ATOM     56  C   UNL A   1      45.860  27.917  26.676  1.00  0.00     0.037 A 
ATOM     57  C   UNL A   1      41.466  31.180  30.202  1.00  0.00     0.049 A 
ATOM     58  C   UNL A   1      45.860  29.275  27.322  1.00  0.00     0.074 A 
ATOM     59  C   UNL A   1      41.602  32.424  30.795  1.00  0.00     0.029 A 
ATOM     60  N   UNL A   1      42.655  30.927  29.535  1.00  0.00    -0.354 N 
ATOM     61  N   UNL A   1      44.931  29.847  28.047  1.00  0.00    -0.248 NA
ATOM     62  C   UNL A   1      47.057  30.103  27.120  1.00  0.00     0.031 C 
ATOM     63  C   UNL A   1      42.861  32.938  30.461  1.00  0.00     0.029 A 
ATOM     64  C   UNL A   1      43.524  31.997  29.691  1.00  0.00     0.049 A 
ATOM     65  H   UNL A   1      42.853  30.108  29.025  1.00  0.00     0.167 HD
ATOM     66  C   UNL A   1      45.437  31.088  28.406  1.00  0.00     0.074 A 
ATOM     67  C   UNL A   1      46.764  31.180  27.834  1.00  0.00     0.031 C 
ATOM     68  C   UNL A   1      44.850  32.067  29.136  1.00  0.00     0.037 A 
BRANCH  55  69
ATOM     69  C   UNL A   1      39.133  30.709  31.036  1.00  0.00     0.064 A 
ATOM     70  C   UNL A   1      38.975  30.427  32.399  1.00  0.00     0.173 A 
ATOM     71  C   UNL A   1      38.135  31.476  30.418  1.00  0.00     0.173 A 
ATOM     72  F   UNL A   1      39.884  29.682  33.034  1.00  0.00    -0.203 F 
ATOM     73  C   UNL A   1      37.863  30.866  33.111  1.00  0.00     0.198 A 
ATOM     74  C   UNL A   1      37.034  31.942  31.138  1.00  0.00     0.198 A 
ATOM     75  F   UNL A   1      38.231  31.791  29.118  1.00  0.00    -0.203 F 
ATOM     76  F   UNL A   1      37.725  30.538  34.404  1.00  0.00    -0.200 F 
ATOM     77  C   UNL A   1      36.896  31.632  32.482  1.00  0.00     0.200 A 
ATOM     78  F   UNL A   1      36.108  32.695  30.530  1.00  0.00    -0.200 F 
ATOM     79  F   UNL A   1      35.830  32.065  33.169  1.00  0.00    -0.200 F 
ENDBRANCH  55  69
BRANCH  56  80
ATOM     80  C   UNL A   1      47.023  27.461  25.871  1.00  0.00     0.064 A 
ATOM     81  C   UNL A   1      48.052  26.705  26.448  1.00  0.00     0.173 A 
ATOM     82  C   UNL A   1      47.130  27.774  24.507  1.00  0.00     0.173 A 
ATOM     83  F   UNL A   1      48.010  26.404  27.755  1.00  0.00    -0.203 F 
ATOM     84  C   UNL A   1      49.150  26.291  25.696  1.00  0.00     0.198 A 
ATOM     85  C   UNL A   1      48.210  27.330  23.749  1.00  0.00     0.198 A 
ATOM     86  F   UNL A   1      46.173  28.495  23.906  1.00  0.00    -0.203 F 
ATOM     87  F   UNL A   1      50.143  25.609  26.283  1.00  0.00    -0.200 F 
ATOM     88  C   UNL A   1      49.224  26.596  24.345  1.00  0.00     0.200 A 
ATOM     89  F   UNL A   1      48.270  27.615  22.440  1.00  0.00    -0.200 F 
ATOM     90  F   UNL A   1      50.276  26.190  23.621  1.00  0.00    -0.200 F 
ENDBRANCH  56  80
BRANCH  68  91
ATOM     91  C   UNL A   1      45.663  33.300  29.401  1.00  0.00     0.064 A 
ATOM     92  C   UNL A   1      45.611  34.412  28.549  1.00  0.00     0.173 A 
ATOM     93  C   UNL A   1      46.499  33.371  30.525  1.00  0.00     0.173 A 
ATOM     94  F   UNL A   1      44.841  34.386  27.450  1.00  0.00    -0.203 F 
ATOM     95  C   UNL A   1      46.390  35.539  28.794  1.00  0.00     0.198 A 
ATOM     96  C   UNL A   1      47.256  34.510  30.783  1.00  0.00     0.198 A 
ATOM     97  F   UNL A   1      46.582  32.335  31.374  1.00  0.00    -0.203 F 
ATOM     98  F   UNL A   1      46.367  36.569  27.937  1.00  0.00    -0.200 F 
ATOM     99  C   UNL A   1      47.208  35.589  29.914  1.00  0.00     0.200 A 
ATOM    100  F   UNL A   1      48.040  34.561  31.869  1.00  0.00    -0.200 F 
ATOM    101  F   UNL A   1      47.961  36.674  30.148  1.00  0.00    -0.200 F 
ENDBRANCH  68  91
ENDBRANCH  42  43
ENDBRANCH  35  37
ENDBRANCH  34  35
ENDBRANCH  33  34
ENDBRANCH  32  33
ENDBRANCH  31  32
ENDBRANCH   1  31
TORSDOF 17
ENDMDL
