MODEL 1
REMARK VINA RESULT:      -9.9      0.000      0.000
REMARK SMILES CC(=O)CCCCC/C=C/C(=O)OCCOC(=O)c1ccc(-c2c3nc(c(-c4c(F)c(F)c(F)c(F)c4F)c4ccc([nH]4)c(-c4c(F)c(F)c(F)c(F)c4F)c4nc(c(-c5c(F)c(F)c(F)c(F)c5F)c5ccc2[nH]5)C=C4)C=C3)cc1
REMARK SMILES IDX 11 1 12 2 10 3 9 4 8 5 7 6 6 7 5 8 4 9 2 10 1 11 3 12 13 13
REMARK SMILES IDX 14 14 15 15 16 16 17 17 18 18 19 19 20 20 81 21 21 22 80 23
REMARK SMILES IDX 22 24 23 25 24 26 74 27 25 28 79 29 73 30 75 31 26 32 78 33
REMARK SMILES IDX 72 34 71 35 27 37 59 38 39 39 58 40 40 41 43 42 57 43 76 44
REMARK SMILES IDX 41 45 42 46 56 48 77 49 44 50 28 51 29 52 37 53 30 54 31 55
REMARK SMILES IDX 35 56 38 57 32 58 33 59 36 60 34 61 60 62 61 63 69 64 62 65
REMARK SMILES IDX 63 66 67 67 70 68 64 69 65 70 68 71 66 72 45 73 46 74 54 75
REMARK SMILES IDX 47 76 48 77 52 78 55 79 49 80 50 81 53 82 51 83
REMARK H PARENT 75 36 43 47
REMARK Flexibility Score: inf
ROOT
ATOM      1  C   UNL A   1      36.845  21.851  25.274  1.00  0.00     0.330 C 
ATOM      2  O   UNL A   1      36.762  22.804  26.035  1.00  0.00    -0.247 OA
ENDROOT
BRANCH   1   3
ATOM      3  C   UNL A   1      35.661  21.328  24.558  1.00  0.00     0.089 C 
ATOM      4  C   UNL A   1      34.412  21.794  24.704  1.00  0.00    -0.019 C 
BRANCH   4   5
ATOM      5  C   UNL A   1      33.208  21.135  24.091  1.00  0.00     0.027 C 
BRANCH   5   6
ATOM      6  C   UNL A   1      32.349  20.410  25.135  1.00  0.00     0.004 C 
BRANCH   6   7
ATOM      7  C   UNL A   1      32.833  19.004  25.516  1.00  0.00     0.001 C 
BRANCH   7   8
ATOM      8  C   UNL A   1      32.937  18.001  24.360  1.00  0.00     0.008 C 
BRANCH   8   9
ATOM      9  C   UNL A   1      34.254  17.236  24.270  1.00  0.00     0.075 C 
BRANCH   9  10
ATOM     10  C   UNL A   1      34.213  15.905  24.994  1.00  0.00     0.129 C 
ATOM     11  C   UNL A   1      32.869  15.299  25.292  1.00  0.00     0.087 C 
ATOM     12  O   UNL A   1      35.252  15.311  25.290  1.00  0.00    -0.300 OA
ENDBRANCH   9  10
ENDBRANCH   8   9
ENDBRANCH   7   8
ENDBRANCH   6   7
ENDBRANCH   5   6
ENDBRANCH   4   5
ENDBRANCH   1   3
BRANCH   1  13
ATOM     13  O   UNL A   1      37.981  21.230  24.878  1.00  0.00    -0.459 OA
BRANCH  13  14
ATOM     14  C   UNL A   1      37.987  19.796  24.966  1.00  0.00     0.275 C 
BRANCH  14  15
ATOM     15  C   UNL A   1      39.245  19.291  25.680  1.00  0.00     0.275 C 
BRANCH  15  16
ATOM     16  O   UNL A   1      40.200  20.349  25.897  1.00  0.00    -0.458 OA
BRANCH  16  17
ATOM     17  C   UNL A   1      40.676  20.449  27.161  1.00  0.00     0.338 C 
ATOM     18  O   UNL A   1      40.877  19.540  27.948  1.00  0.00    -0.246 OA
BRANCH  17  19
ATOM     19  C   UNL A   1      41.062  21.845  27.442  1.00  0.00     0.060 A 
ATOM     20  C   UNL A   1      40.593  22.836  26.575  1.00  0.00     0.016 A 
ATOM     21  C   UNL A   1      41.915  22.176  28.498  1.00  0.00     0.016 A 
ATOM     22  C   UNL A   1      40.965  24.165  26.764  1.00  0.00     0.010 A 
ATOM     23  C   UNL A   1      42.299  23.511  28.680  1.00  0.00     0.010 A 
ATOM     24  C   UNL A   1      41.830  24.512  27.810  1.00  0.00    -0.014 A 
BRANCH  24  25
ATOM     25  C   UNL A   1      42.276  25.920  27.953  1.00  0.00     0.031 A 
ATOM     26  C   UNL A   1      43.592  26.351  27.372  1.00  0.00     0.074 A 
ATOM     27  C   UNL A   1      41.481  26.817  28.564  1.00  0.00     0.049 A 
ATOM     28  N   UNL A   1      44.173  27.523  27.416  1.00  0.00    -0.248 NA
ATOM     29  C   UNL A   1      44.352  25.327  26.640  1.00  0.00     0.031 C 
ATOM     30  C   UNL A   1      40.166  26.526  29.134  1.00  0.00     0.029 A 
ATOM     31  N   UNL A   1      41.665  28.155  28.809  1.00  0.00    -0.354 N 
ATOM     32  C   UNL A   1      45.364  27.381  26.717  1.00  0.00     0.074 A 
ATOM     33  C   UNL A   1      45.438  26.001  26.285  1.00  0.00     0.031 C 
ATOM     34  C   UNL A   1      39.663  27.651  29.669  1.00  0.00     0.029 A 
ATOM     35  C   UNL A   1      40.635  28.731  29.511  1.00  0.00     0.049 A 
ATOM     36  H   UNL A   1      42.459  28.654  28.510  1.00  0.00     0.167 HD
ATOM     37  C   UNL A   1      46.305  28.319  26.453  1.00  0.00     0.037 A 
ATOM     38  C   UNL A   1      40.503  29.982  29.993  1.00  0.00     0.037 A 
ATOM     39  C   UNL A   1      46.233  29.689  26.890  1.00  0.00     0.049 A 
ATOM     40  C   UNL A   1      41.595  30.988  29.741  1.00  0.00     0.074 A 
ATOM     41  C   UNL A   1      47.147  30.709  26.689  1.00  0.00     0.029 A 
ATOM     42  N   UNL A   1      45.184  30.231  27.618  1.00  0.00    -0.354 N 
ATOM     43  N   UNL A   1      42.718  30.843  29.081  1.00  0.00    -0.248 NA
ATOM     44  C   UNL A   1      41.398  32.335  30.299  1.00  0.00     0.031 C 
ATOM     45  C   UNL A   1      46.668  31.860  27.325  1.00  0.00     0.029 A 
ATOM     46  C   UNL A   1      45.435  31.568  27.884  1.00  0.00     0.049 A 
ATOM     47  H   UNL A   1      44.381  29.739  27.903  1.00  0.00     0.167 HD
ATOM     48  C   UNL A   1      43.350  32.079  29.126  1.00  0.00     0.074 A 
ATOM     49  C   UNL A   1      42.477  32.969  29.862  1.00  0.00     0.031 C 
ATOM     50  C   UNL A   1      44.549  32.443  28.609  1.00  0.00     0.037 A 
BRANCH  37  51
ATOM     51  C   UNL A   1      47.505  27.892  25.662  1.00  0.00     0.064 A 
ATOM     52  C   UNL A   1      47.470  27.818  24.262  1.00  0.00     0.173 A 
ATOM     53  C   UNL A   1      48.717  27.603  26.305  1.00  0.00     0.173 A 
ATOM     54  F   UNL A   1      46.331  28.073  23.601  1.00  0.00    -0.203 F 
ATOM     55  C   UNL A   1      48.601  27.453  23.536  1.00  0.00     0.198 A 
ATOM     56  C   UNL A   1      49.852  27.262  25.575  1.00  0.00     0.198 A 
ATOM     57  F   UNL A   1      48.804  27.664  27.643  1.00  0.00    -0.203 F 
ATOM     58  F   UNL A   1      48.536  27.354  22.201  1.00  0.00    -0.200 F 
ATOM     59  C   UNL A   1      49.793  27.182  24.192  1.00  0.00     0.200 A 
ATOM     60  F   UNL A   1      51.006  27.012  26.211  1.00  0.00    -0.200 F 
ATOM     61  F   UNL A   1      50.882  26.840  23.492  1.00  0.00    -0.200 F 
ENDBRANCH  37  51
BRANCH  38  62
ATOM     62  C   UNL A   1      39.304  30.348  30.792  1.00  0.00     0.064 A 
ATOM     63  C   UNL A   1      38.183  30.937  30.192  1.00  0.00     0.173 A 
ATOM     64  C   UNL A   1      39.269  30.139  32.179  1.00  0.00     0.173 A 
ATOM     65  F   UNL A   1      38.180  31.181  28.873  1.00  0.00    -0.203 F 
ATOM     66  C   UNL A   1      37.082  31.325  30.952  1.00  0.00     0.198 A 
ATOM     67  C   UNL A   1      38.155  30.500  32.933  1.00  0.00     0.198 A 
ATOM     68  F   UNL A   1      40.318  29.583  32.801  1.00  0.00    -0.203 F 
ATOM     69  F   UNL A   1      36.044  31.935  30.363  1.00  0.00    -0.200 F 
ATOM     70  C   UNL A   1      37.066  31.100  32.321  1.00  0.00     0.200 A 
ATOM     71  F   UNL A   1      38.141  30.272  34.254  1.00  0.00    -0.200 F 
ATOM     72  F   UNL A   1      36.008  31.475  33.052  1.00  0.00    -0.200 F 
ENDBRANCH  38  62
BRANCH  50  73
ATOM     73  C   UNL A   1      44.972  33.871  28.792  1.00  0.00     0.064 A 
ATOM     74  C   UNL A   1      45.751  34.271  29.888  1.00  0.00     0.173 A 
ATOM     75  C   UNL A   1      44.625  34.842  27.840  1.00  0.00     0.173 A 
ATOM     76  F   UNL A   1      46.095  33.383  30.832  1.00  0.00    -0.203 F 
ATOM     77  C   UNL A   1      46.146  35.598  30.036  1.00  0.00     0.198 A 
ATOM     78  C   UNL A   1      45.045  36.162  27.979  1.00  0.00     0.198 A 
ATOM     79  F   UNL A   1      43.887  34.508  26.771  1.00  0.00    -0.203 F 
ATOM     80  F   UNL A   1      46.852  35.968  31.114  1.00  0.00    -0.200 F 
ATOM     81  C   UNL A   1      45.799  36.540  29.079  1.00  0.00     0.200 A 
ATOM     82  F   UNL A   1      44.719  37.068  27.048  1.00  0.00    -0.200 F 
ATOM     83  F   UNL A   1      46.186  37.816  29.221  1.00  0.00    -0.200 F 
ENDBRANCH  50  73
ENDBRANCH  24  25
ENDBRANCH  17  19
ENDBRANCH  16  17
ENDBRANCH  15  16
ENDBRANCH  14  15
ENDBRANCH  13  14
ENDBRANCH   1  13
TORSDOF 17
ENDMDL
MODEL 2
REMARK VINA RESULT:      -9.8      4.804      7.233
REMARK SMILES CC(=O)CCCCC/C=C/C(=O)OCCOC(=O)c1ccc(-c2c3nc(c(-c4c(F)c(F)c(F)c(F)c4F)c4ccc([nH]4)c(-c4c(F)c(F)c(F)c(F)c4F)c4nc(c(-c5c(F)c(F)c(F)c(F)c5F)c5ccc2[nH]5)C=C4)C=C3)cc1
REMARK SMILES IDX 11 1 12 2 10 3 9 4 8 5 7 6 6 7 5 8 4 9 2 10 1 11 3 12 13 13
REMARK SMILES IDX 14 14 15 15 16 16 17 17 18 18 19 19 20 20 81 21 21 22 80 23
REMARK SMILES IDX 22 24 23 25 24 26 74 27 25 28 79 29 73 30 75 31 26 32 78 33
REMARK SMILES IDX 72 34 71 35 27 37 59 38 39 39 58 40 40 41 43 42 57 43 76 44
REMARK SMILES IDX 41 45 42 46 56 48 77 49 44 50 28 51 29 52 37 53 30 54 31 55
REMARK SMILES IDX 35 56 38 57 32 58 33 59 36 60 34 61 60 62 61 63 69 64 62 65
REMARK SMILES IDX 63 66 67 67 70 68 64 69 65 70 68 71 66 72 45 73 46 74 54 75
REMARK SMILES IDX 47 76 48 77 52 78 55 79 49 80 50 81 53 82 51 83
REMARK H PARENT 75 36 43 47
REMARK Flexibility Score: inf
ROOT
ATOM      1  C   UNL A   1      40.686  21.057  26.782  1.00  0.00     0.330 C 
ATOM      2  O   UNL A   1      40.782  20.372  27.790  1.00  0.00    -0.247 OA
ENDROOT
BRANCH   1   3
ATOM      3  C   UNL A   1      39.686  22.142  26.676  1.00  0.00     0.089 C 
ATOM      4  C   UNL A   1      38.566  22.079  25.942  1.00  0.00    -0.019 C 
BRANCH   4   5
ATOM      5  C   UNL A   1      37.656  23.255  25.722  1.00  0.00     0.027 C 
BRANCH   5   6
ATOM      6  C   UNL A   1      36.605  22.979  24.637  1.00  0.00     0.004 C 
BRANCH   6   7
ATOM      7  C   UNL A   1      35.961  21.586  24.693  1.00  0.00     0.001 C 
BRANCH   7   8
ATOM      8  C   UNL A   1      34.433  21.555  24.562  1.00  0.00     0.008 C 
BRANCH   8   9
ATOM      9  C   UNL A   1      33.726  20.476  25.376  1.00  0.00     0.075 C 
BRANCH   9  10
ATOM     10  C   UNL A   1      32.636  19.768  24.595  1.00  0.00     0.129 C 
ATOM     11  C   UNL A   1      32.199  20.363  23.285  1.00  0.00     0.087 C 
ATOM     12  O   UNL A   1      32.153  18.708  24.999  1.00  0.00    -0.300 OA
ENDBRANCH   9  10
ENDBRANCH   8   9
ENDBRANCH   7   8
ENDBRANCH   6   7
ENDBRANCH   5   6
ENDBRANCH   4   5
ENDBRANCH   1   3
BRANCH   1  13
ATOM     13  O   UNL A   1      41.510  21.033  25.708  1.00  0.00    -0.459 OA
BRANCH  13  14
ATOM     14  C   UNL A   1      42.875  20.660  25.962  1.00  0.00     0.275 C 
BRANCH  14  15
ATOM     15  C   UNL A   1      43.847  21.701  25.394  1.00  0.00     0.275 C 
BRANCH  15  16
ATOM     16  O   UNL A   1      43.155  22.860  24.887  1.00  0.00    -0.458 OA
BRANCH  16  17
ATOM     17  C   UNL A   1      43.836  24.026  24.980  1.00  0.00     0.338 C 
ATOM     18  O   UNL A   1      44.733  24.419  24.252  1.00  0.00    -0.246 OA
BRANCH  17  19
ATOM     19  C   UNL A   1      43.250  24.866  26.042  1.00  0.00     0.060 A 
ATOM     20  C   UNL A   1      43.753  26.162  26.197  1.00  0.00     0.016 A 
ATOM     21  C   UNL A   1      42.269  24.382  26.910  1.00  0.00     0.016 A 
ATOM     22  C   UNL A   1      43.271  26.983  27.214  1.00  0.00     0.010 A 
ATOM     23  C   UNL A   1      41.792  25.204  27.940  1.00  0.00     0.010 A 
ATOM     24  C   UNL A   1      42.296  26.507  28.101  1.00  0.00    -0.014 A 
BRANCH  24  25
ATOM     25  C   UNL A   1      41.847  27.367  29.223  1.00  0.00     0.031 A 
ATOM     26  C   UNL A   1      42.600  27.357  30.522  1.00  0.00     0.074 A 
ATOM     27  C   UNL A   1      40.792  28.187  29.060  1.00  0.00     0.049 A 
ATOM     28  N   UNL A   1      42.353  28.010  31.629  1.00  0.00    -0.248 NA
ATOM     29  C   UNL A   1      43.795  26.502  30.580  1.00  0.00     0.031 C 
ATOM     30  C   UNL A   1      40.005  28.312  27.834  1.00  0.00     0.029 A 
ATOM     31  N   UNL A   1      40.201  29.068  29.931  1.00  0.00    -0.354 N 
ATOM     32  C   UNL A   1      43.359  27.648  32.514  1.00  0.00     0.074 A 
ATOM     33  C   UNL A   1      44.205  26.696  31.826  1.00  0.00     0.031 C 
ATOM     34  C   UNL A   1      39.029  29.213  28.033  1.00  0.00     0.029 A 
ATOM     35  C   UNL A   1      39.100  29.700  29.409  1.00  0.00     0.049 A 
ATOM     36  H   UNL A   1      40.534  29.230  30.843  1.00  0.00     0.167 HD
ATOM     37  C   UNL A   1      43.563  28.080  33.782  1.00  0.00     0.037 A 
ATOM     38  C   UNL A   1      38.233  30.555  29.985  1.00  0.00     0.037 A 
ATOM     39  C   UNL A   1      42.716  29.022  34.468  1.00  0.00     0.049 A 
ATOM     40  C   UNL A   1      38.446  30.969  31.417  1.00  0.00     0.074 A 
ATOM     41  C   UNL A   1      42.830  29.505  35.760  1.00  0.00     0.029 A 
ATOM     42  N   UNL A   1      41.597  29.626  33.912  1.00  0.00    -0.354 N 
ATOM     43  N   UNL A   1      39.399  30.620  32.246  1.00  0.00    -0.248 NA
ATOM     44  C   UNL A   1      37.463  31.899  31.993  1.00  0.00     0.031 C 
ATOM     45  C   UNL A   1      41.760  30.374  35.999  1.00  0.00     0.029 A 
ATOM     46  C   UNL A   1      41.005  30.467  34.842  1.00  0.00     0.049 A 
ATOM     47  H   UNL A   1      41.272  29.478  32.995  1.00  0.00     0.167 HD
ATOM     48  C   UNL A   1      39.144  31.299  33.430  1.00  0.00     0.074 A 
ATOM     49  C   UNL A   1      37.957  32.097  33.206  1.00  0.00     0.031 C 
ATOM     50  C   UNL A   1      39.829  31.262  34.599  1.00  0.00     0.037 A 
BRANCH  37  51
ATOM     51  C   UNL A   1      44.745  27.526  34.520  1.00  0.00     0.064 A 
ATOM     52  C   UNL A   1      45.986  28.179  34.509  1.00  0.00     0.173 A 
ATOM     53  C   UNL A   1      44.623  26.359  35.287  1.00  0.00     0.173 A 
ATOM     54  F   UNL A   1      46.156  29.293  33.781  1.00  0.00    -0.203 F 
ATOM     55  C   UNL A   1      47.067  27.673  35.226  1.00  0.00     0.198 A 
ATOM     56  C   UNL A   1      45.699  25.869  36.022  1.00  0.00     0.198 A 
ATOM     57  F   UNL A   1      43.456  25.699  35.335  1.00  0.00    -0.203 F 
ATOM     58  F   UNL A   1      48.254  28.294  35.173  1.00  0.00    -0.200 F 
ATOM     59  C   UNL A   1      46.922  26.523  35.987  1.00  0.00     0.200 A 
ATOM     60  F   UNL A   1      45.553  24.763  36.766  1.00  0.00    -0.200 F 
ATOM     61  F   UNL A   1      47.960  26.042  36.684  1.00  0.00    -0.200 F 
ENDBRANCH  37  51
BRANCH  38  62
ATOM     62  C   UNL A   1      37.064  31.058  29.216  1.00  0.00     0.064 A 
ATOM     63  C   UNL A   1      37.010  32.380  28.754  1.00  0.00     0.173 A 
ATOM     64  C   UNL A   1      35.962  30.229  28.954  1.00  0.00     0.173 A 
ATOM     65  F   UNL A   1      38.027  33.218  29.004  1.00  0.00    -0.203 F 
ATOM     66  C   UNL A   1      35.890  32.860  28.078  1.00  0.00     0.198 A 
ATOM     67  C   UNL A   1      34.856  30.702  28.252  1.00  0.00     0.198 A 
ATOM     68  F   UNL A   1      35.963  28.957  29.378  1.00  0.00    -0.203 F 
ATOM     69  F   UNL A   1      35.842  34.143  27.694  1.00  0.00    -0.200 F 
ATOM     70  C   UNL A   1      34.817  32.020  27.822  1.00  0.00     0.200 A 
ATOM     71  F   UNL A   1      33.826  29.883  27.999  1.00  0.00    -0.200 F 
ATOM     72  F   UNL A   1      33.740  32.482  27.175  1.00  0.00    -0.200 F 
ENDBRANCH  38  62
BRANCH  50  73
ATOM     73  C   UNL A   1      39.331  32.133  35.716  1.00  0.00     0.064 A 
ATOM     74  C   UNL A   1      38.398  31.663  36.652  1.00  0.00     0.173 A 
ATOM     75  C   UNL A   1      39.821  33.438  35.871  1.00  0.00     0.173 A 
ATOM     76  F   UNL A   1      37.889  30.428  36.537  1.00  0.00    -0.203 F 
ATOM     77  C   UNL A   1      37.956  32.479  37.690  1.00  0.00     0.198 A 
ATOM     78  C   UNL A   1      39.396  34.241  36.926  1.00  0.00     0.198 A 
ATOM     79  F   UNL A   1      40.719  33.931  35.005  1.00  0.00    -0.203 F 
ATOM     80  F   UNL A   1      37.031  32.026  38.548  1.00  0.00    -0.200 F 
ATOM     81  C   UNL A   1      38.460  33.764  37.830  1.00  0.00     0.200 A 
ATOM     82  F   UNL A   1      39.892  35.478  37.066  1.00  0.00    -0.200 F 
ATOM     83  F   UNL A   1      38.037  34.545  38.834  1.00  0.00    -0.200 F 
ENDBRANCH  50  73
ENDBRANCH  24  25
ENDBRANCH  17  19
ENDBRANCH  16  17
ENDBRANCH  15  16
ENDBRANCH  14  15
ENDBRANCH  13  14
ENDBRANCH   1  13
TORSDOF 17
ENDMDL
MODEL 3
REMARK VINA RESULT:      -9.7      3.469      9.613
REMARK SMILES CC(=O)CCCCC/C=C/C(=O)OCCOC(=O)c1ccc(-c2c3nc(c(-c4c(F)c(F)c(F)c(F)c4F)c4ccc([nH]4)c(-c4c(F)c(F)c(F)c(F)c4F)c4nc(c(-c5c(F)c(F)c(F)c(F)c5F)c5ccc2[nH]5)C=C4)C=C3)cc1
REMARK SMILES IDX 11 1 12 2 10 3 9 4 8 5 7 6 6 7 5 8 4 9 2 10 1 11 3 12 13 13
REMARK SMILES IDX 14 14 15 15 16 16 17 17 18 18 19 19 20 20 81 21 21 22 80 23
REMARK SMILES IDX 22 24 23 25 24 26 74 27 25 28 79 29 73 30 75 31 26 32 78 33
REMARK SMILES IDX 72 34 71 35 27 37 59 38 39 39 58 40 40 41 43 42 57 43 76 44
REMARK SMILES IDX 41 45 42 46 56 48 77 49 44 50 28 51 29 52 37 53 30 54 31 55
REMARK SMILES IDX 35 56 38 57 32 58 33 59 36 60 34 61 60 62 61 63 69 64 62 65
REMARK SMILES IDX 63 66 67 67 70 68 64 69 65 70 68 71 66 72 45 73 46 74 54 75
REMARK SMILES IDX 47 76 48 77 52 78 55 79 49 80 50 81 53 82 51 83
REMARK H PARENT 75 36 43 47
REMARK Flexibility Score: inf
ROOT
ATOM      1  C   UNL A   1      45.046  20.299  24.214  1.00  0.00     0.330 C 
ATOM      2  O   UNL A   1      44.541  19.886  23.181  1.00  0.00    -0.247 OA
ENDROOT
BRANCH   1   3
ATOM      3  C   UNL A   1      45.941  21.477  24.222  1.00  0.00     0.089 C 
ATOM      4  C   UNL A   1      46.013  22.375  25.215  1.00  0.00    -0.019 C 
BRANCH   4   5
ATOM      5  C   UNL A   1      46.807  23.648  25.121  1.00  0.00     0.027 C 
BRANCH   5   6
ATOM      6  C   UNL A   1      45.907  24.883  24.977  1.00  0.00     0.004 C 
BRANCH   6   7
ATOM      7  C   UNL A   1      46.637  26.233  25.039  1.00  0.00     0.001 C 
BRANCH   7   8
ATOM      8  C   UNL A   1      45.827  27.400  25.616  1.00  0.00     0.008 C 
BRANCH   8   9
ATOM      9  C   UNL A   1      46.427  28.787  25.400  1.00  0.00     0.075 C 
BRANCH   9  10
ATOM     10  C   UNL A   1      45.893  29.818  26.374  1.00  0.00     0.129 C 
ATOM     11  C   UNL A   1      46.859  30.813  26.957  1.00  0.00     0.087 C 
ATOM     12  O   UNL A   1      44.692  29.872  26.647  1.00  0.00    -0.300 OA
ENDBRANCH   9  10
ENDBRANCH   8   9
ENDBRANCH   7   8
ENDBRANCH   6   7
ENDBRANCH   5   6
ENDBRANCH   4   5
ENDBRANCH   1   3
BRANCH   1  13
ATOM     13  O   UNL A   1      44.789  19.861  25.470  1.00  0.00    -0.459 OA
BRANCH  13  14
ATOM     14  C   UNL A   1      44.357  18.496  25.591  1.00  0.00     0.275 C 
BRANCH  14  15
ATOM     15  C   UNL A   1      42.905  18.417  26.076  1.00  0.00     0.275 C 
BRANCH  15  16
ATOM     16  O   UNL A   1      42.043  19.301  25.333  1.00  0.00    -0.458 OA
BRANCH  16  17
ATOM     17  C   UNL A   1      41.099  19.939  26.065  1.00  0.00     0.338 C 
ATOM     18  O   UNL A   1      40.004  19.512  26.392  1.00  0.00    -0.246 OA
BRANCH  17  19
ATOM     19  C   UNL A   1      41.628  21.226  26.554  1.00  0.00     0.060 A 
ATOM     20  C   UNL A   1      41.504  21.503  27.919  1.00  0.00     0.016 A 
ATOM     21  C   UNL A   1      42.182  22.173  25.690  1.00  0.00     0.016 A 
ATOM     22  C   UNL A   1      41.942  22.722  28.429  1.00  0.00     0.010 A 
ATOM     23  C   UNL A   1      42.612  23.405  26.201  1.00  0.00     0.010 A 
ATOM     24  C   UNL A   1      42.489  23.688  27.573  1.00  0.00    -0.014 A 
BRANCH  24  25
ATOM     25  C   UNL A   1      42.882  25.010  28.120  1.00  0.00     0.031 A 
ATOM     26  C   UNL A   1      41.839  26.064  28.352  1.00  0.00     0.074 A 
ATOM     27  C   UNL A   1      44.166  25.246  28.447  1.00  0.00     0.049 A 
ATOM     28  N   UNL A   1      41.982  27.289  28.792  1.00  0.00    -0.248 NA
ATOM     29  C   UNL A   1      40.449  25.688  28.055  1.00  0.00     0.031 C 
ATOM     30  C   UNL A   1      45.261  24.287  28.303  1.00  0.00     0.029 A 
ATOM     31  N   UNL A   1      44.766  26.366  28.966  1.00  0.00    -0.354 N 
ATOM     32  C   UNL A   1      40.704  27.830  28.827  1.00  0.00     0.074 A 
ATOM     33  C   UNL A   1      39.800  26.810  28.336  1.00  0.00     0.031 C 
ATOM     34  C   UNL A   1      46.402  24.863  28.717  1.00  0.00     0.029 A 
ATOM     35  C   UNL A   1      46.124  26.240  29.122  1.00  0.00     0.049 A 
ATOM     36  H   UNL A   1      44.269  27.182  29.205  1.00  0.00     0.167 HD
ATOM     37  C   UNL A   1      40.319  29.061  29.240  1.00  0.00     0.037 A 
ATOM     38  C   UNL A   1      47.042  27.141  29.521  1.00  0.00     0.037 A 
ATOM     39  C   UNL A   1      41.220  30.076  29.721  1.00  0.00     0.049 A 
ATOM     40  C   UNL A   1      46.595  28.524  29.914  1.00  0.00     0.074 A 
ATOM     41  C   UNL A   1      40.927  31.361  30.144  1.00  0.00     0.029 A 
ATOM     42  N   UNL A   1      42.593  29.918  29.845  1.00  0.00    -0.354 N 
ATOM     43  N   UNL A   1      45.384  29.026  29.941  1.00  0.00    -0.248 NA
ATOM     44  C   UNL A   1      47.643  29.466  30.333  1.00  0.00     0.031 C 
ATOM     45  C   UNL A   1      42.127  31.994  30.490  1.00  0.00     0.029 A 
ATOM     46  C   UNL A   1      43.161  31.088  30.325  1.00  0.00     0.049 A 
ATOM     47  H   UNL A   1      43.089  29.098  29.624  1.00  0.00     0.167 HD
ATOM     48  C   UNL A   1      45.521  30.330  30.399  1.00  0.00     0.074 A 
ATOM     49  C   UNL A   1      46.931  30.537  30.655  1.00  0.00     0.031 C 
ATOM     50  C   UNL A   1      44.566  31.273  30.585  1.00  0.00     0.037 A 
BRANCH  37  51
ATOM     51  C   UNL A   1      38.857  29.387  29.178  1.00  0.00     0.064 A 
ATOM     52  C   UNL A   1      38.076  29.466  30.340  1.00  0.00     0.173 A 
ATOM     53  C   UNL A   1      38.241  29.672  27.952  1.00  0.00     0.173 A 
ATOM     54  F   UNL A   1      38.615  29.190  31.537  1.00  0.00    -0.203 F 
ATOM     55  C   UNL A   1      36.726  29.802  30.274  1.00  0.00     0.198 A 
ATOM     56  C   UNL A   1      36.898  30.032  27.891  1.00  0.00     0.198 A 
ATOM     57  F   UNL A   1      38.946  29.615  26.811  1.00  0.00    -0.203 F 
ATOM     58  F   UNL A   1      35.989  29.838  31.393  1.00  0.00    -0.200 F 
ATOM     59  C   UNL A   1      36.140  30.092  29.051  1.00  0.00     0.200 A 
ATOM     60  F   UNL A   1      36.336  30.322  26.709  1.00  0.00    -0.200 F 
ATOM     61  F   UNL A   1      34.843  30.424  28.989  1.00  0.00    -0.200 F 
ENDBRANCH  37  51
BRANCH  38  62
ATOM     62  C   UNL A   1      48.483  26.775  29.543  1.00  0.00     0.064 A 
ATOM     63  C   UNL A   1      49.055  26.137  30.652  1.00  0.00     0.173 A 
ATOM     64  C   UNL A   1      49.322  27.083  28.461  1.00  0.00     0.173 A 
ATOM     65  F   UNL A   1      48.299  25.846  31.721  1.00  0.00    -0.203 F 
ATOM     66  C   UNL A   1      50.416  25.842  30.687  1.00  0.00     0.198 A 
ATOM     67  C   UNL A   1      50.676  26.760  28.486  1.00  0.00     0.198 A 
ATOM     68  F   UNL A   1      48.823  27.697  27.379  1.00  0.00    -0.203 F 
ATOM     69  F   UNL A   1      50.949  25.280  31.781  1.00  0.00    -0.200 F 
ATOM     70  C   UNL A   1      51.224  26.148  29.602  1.00  0.00     0.200 A 
ATOM     71  F   UNL A   1      51.451  27.050  27.432  1.00  0.00    -0.200 F 
ATOM     72  F   UNL A   1      52.533  25.866  29.638  1.00  0.00    -0.200 F 
ENDBRANCH  38  62
BRANCH  50  73
ATOM     73  C   UNL A   1      45.008  32.604  31.121  1.00  0.00     0.064 A 
ATOM     74  C   UNL A   1      45.036  32.867  32.498  1.00  0.00     0.173 A 
ATOM     75  C   UNL A   1      45.443  33.612  30.248  1.00  0.00     0.173 A 
ATOM     76  F   UNL A   1      44.616  31.941  33.372  1.00  0.00    -0.203 F 
ATOM     77  C   UNL A   1      45.461  34.103  32.980  1.00  0.00     0.198 A 
ATOM     78  C   UNL A   1      45.892  34.836  30.736  1.00  0.00     0.198 A 
ATOM     79  F   UNL A   1      45.442  33.406  28.922  1.00  0.00    -0.203 F 
ATOM     80  F   UNL A   1      45.438  34.350  34.298  1.00  0.00    -0.200 F 
ATOM     81  C   UNL A   1      45.895  35.083  32.100  1.00  0.00     0.200 A 
ATOM     82  F   UNL A   1      46.322  35.777  29.884  1.00  0.00    -0.200 F 
ATOM     83  F   UNL A   1      46.309  36.269  32.566  1.00  0.00    -0.200 F 
ENDBRANCH  50  73
ENDBRANCH  24  25
ENDBRANCH  17  19
ENDBRANCH  16  17
ENDBRANCH  15  16
ENDBRANCH  14  15
ENDBRANCH  13  14
ENDBRANCH   1  13
TORSDOF 17
ENDMDL
