MODEL 1
REMARK VINA RESULT:     -12.9      0.000      0.000
REMARK SMILES CC(C)[C@@H](NC(=O)/C(=C\c1ccccc1F)NC(=O)c1ccccc1)C(=O)OCCOC(=O)c1ccc(-c2c3nc(c(-c4c(F)c(F)c(F)c(F)c4F)c4ccc([nH]4)c(-c4c(F)c(F)c(F)c(F)c4F)c4nc(c(-c5c(F)c(F)c(F)c(F)c5F)c5ccc2[nH]5)C=C4)C=C3)cc1
REMARK SMILES IDX 29 1 28 2 26 3 27 4 4 5 2 6 1 7 3 8 5 9 6 10 7 12 8 13 9 14
REMARK SMILES IDX 17 15 18 16 19 18 20 19 21 20 25 21 22 22 24 23 23 24 10 25
REMARK SMILES IDX 11 26 15 27 12 28 14 29 16 30 13 31 30 32 31 33 32 34 33 35
REMARK SMILES IDX 34 36 35 37 96 38 36 39 95 40 37 41 38 42 39 43 89 44 40 45
REMARK SMILES IDX 94 46 88 47 90 48 41 49 93 50 87 51 86 52 42 54 74 55 54 56
REMARK SMILES IDX 73 57 55 58 58 59 72 60 91 61 56 62 57 63 71 65 92 66 59 67
REMARK SMILES IDX 43 68 44 69 52 70 45 71 46 72 50 73 53 74 47 75 48 76 51 77
REMARK SMILES IDX 49 78 75 79 76 80 84 81 77 82 78 83 82 84 85 85 79 86 80 87
REMARK SMILES IDX 83 88 81 89 60 90 61 91 69 92 62 93 63 94 67 95 70 96 64 97
REMARK SMILES IDX 65 98 68 99 66 100
REMARK H PARENT 5 11 17 17 90 53 58 64
REMARK Flexibility Score: inf
ROOT
ATOM      1  C   UNL A   1      34.531  21.512  24.658  1.00  0.00     0.274 C 
ENDROOT
BRANCH   1   2
ATOM      2  O   UNL A   1      34.579  22.925  24.941  1.00  0.00    -0.461 OA
BRANCH   2   3
ATOM      3  C   UNL A   1      33.762  23.370  25.942  1.00  0.00     0.329 C 
ATOM      4  O   UNL A   1      33.948  23.145  27.132  1.00  0.00    -0.250 OA
BRANCH   3   5
ATOM      5  C   UNL A   1      32.645  24.276  25.376  1.00  0.00     0.195 C 
BRANCH   5   6
ATOM      6  C   UNL A   1      31.343  23.568  24.919  1.00  0.00     0.017 C 
ATOM      7  C   UNL A   1      31.429  23.175  23.428  1.00  0.00     0.010 C 
ATOM      8  C   UNL A   1      31.068  22.270  25.696  1.00  0.00     0.010 C 
ENDBRANCH   5   6
BRANCH   5   9
ATOM      9  N   UNL A   1      32.355  25.443  26.225  1.00  0.00    -0.337 N 
ATOM     10  C   UNL A   1      31.892  26.671  25.837  1.00  0.00     0.268 C 
ATOM     11  H   UNL A   1      32.513  25.326  27.190  1.00  0.00     0.164 HD
ATOM     12  O   UNL A   1      31.144  27.305  26.574  1.00  0.00    -0.268 OA
BRANCH  10  13
ATOM     13  C   UNL A   1      32.381  27.249  24.547  1.00  0.00     0.107 C 
ATOM     14  C   UNL A   1      33.118  28.376  24.565  1.00  0.00     0.043 C 
BRANCH  13  15
ATOM     15  N   UNL A   1      32.029  26.673  23.336  1.00  0.00    -0.317 N 
ATOM     16  C   UNL A   1      31.159  27.070  22.337  1.00  0.00     0.255 C 
ATOM     17  H   UNL A   1      32.483  25.818  23.154  1.00  0.00     0.170 HD
ATOM     18  O   UNL A   1      31.166  26.503  21.246  1.00  0.00    -0.269 OA
BRANCH  16  19
ATOM     19  C   UNL A   1      30.109  28.063  22.606  1.00  0.00     0.040 A 
ATOM     20  C   UNL A   1      30.362  29.394  22.260  1.00  0.00     0.014 A 
ATOM     21  C   UNL A   1      28.887  27.688  23.170  1.00  0.00     0.014 A 
ATOM     22  C   UNL A   1      29.352  30.342  22.398  1.00  0.00     0.001 A 
ATOM     23  C   UNL A   1      27.870  28.638  23.279  1.00  0.00     0.001 A 
ATOM     24  C   UNL A   1      28.100  29.959  22.881  1.00  0.00     0.000 A 
ENDBRANCH  16  19
ENDBRANCH  13  15
BRANCH  14  25
ATOM     25  C   UNL A   1      33.424  29.178  25.759  1.00  0.00     0.012 A 
ATOM     26  C   UNL A   1      34.562  28.841  26.510  1.00  0.00     0.011 A 
ATOM     27  C   UNL A   1      32.672  30.276  26.168  1.00  0.00     0.130 A 
ATOM     28  C   UNL A   1      34.962  29.593  27.613  1.00  0.00     0.001 A 
ATOM     29  C   UNL A   1      33.059  31.032  27.276  1.00  0.00     0.040 A 
ATOM     30  F   UNL A   1      31.556  30.615  25.510  1.00  0.00    -0.206 F 
ATOM     31  C   UNL A   1      34.209  30.695  27.994  1.00  0.00     0.003 A 
ENDBRANCH  14  25
ENDBRANCH  10  13
ENDBRANCH   5   9
ENDBRANCH   3   5
ENDBRANCH   2   3
ENDBRANCH   1   2
BRANCH   1  32
ATOM     32  C   UNL A   1      35.806  20.840  25.176  1.00  0.00     0.275 C 
BRANCH  32  33
ATOM     33  O   UNL A   1      36.995  21.552  24.760  1.00  0.00    -0.458 OA
BRANCH  33  34
ATOM     34  C   UNL A   1      38.111  21.189  25.459  1.00  0.00     0.338 C 
ATOM     35  O   UNL A   1      38.632  20.083  25.424  1.00  0.00    -0.246 OA
BRANCH  34  36
ATOM     36  C   UNL A   1      38.740  22.349  26.156  1.00  0.00     0.060 A 
ATOM     37  C   UNL A   1      38.205  23.628  26.113  1.00  0.00     0.016 A 
ATOM     38  C   UNL A   1      39.957  22.174  26.820  1.00  0.00     0.016 A 
ATOM     39  C   UNL A   1      38.967  24.733  26.542  1.00  0.00     0.010 A 
ATOM     40  C   UNL A   1      40.655  23.274  27.362  1.00  0.00     0.010 A 
ATOM     41  C   UNL A   1      40.214  24.596  27.178  1.00  0.00    -0.014 A 
BRANCH  41  42
ATOM     42  C   UNL A   1      41.056  25.787  27.604  1.00  0.00     0.031 A 
ATOM     43  C   UNL A   1      40.504  26.849  28.550  1.00  0.00     0.074 A 
ATOM     44  C   UNL A   1      42.336  25.973  27.199  1.00  0.00     0.049 A 
ATOM     45  N   UNL A   1      40.937  28.069  28.782  1.00  0.00    -0.248 NA
ATOM     46  C   UNL A   1      39.306  26.499  29.328  1.00  0.00     0.031 C 
ATOM     47  C   UNL A   1      43.113  25.073  26.352  1.00  0.00     0.029 A 
ATOM     48  N   UNL A   1      43.224  27.000  27.468  1.00  0.00    -0.354 N 
ATOM     49  C   UNL A   1      40.015  28.657  29.642  1.00  0.00     0.074 A 
ATOM     50  C   UNL A   1      39.008  27.652  29.913  1.00  0.00     0.031 C 
ATOM     51  C   UNL A   1      44.369  25.526  26.248  1.00  0.00     0.029 A 
ATOM     52  C   UNL A   1      44.460  26.834  26.887  1.00  0.00     0.049 A 
ATOM     53  H   UNL A   1      42.993  27.777  28.025  1.00  0.00     0.167 HD
ATOM     54  C   UNL A   1      39.998  29.913  30.159  1.00  0.00     0.037 A 
ATOM     55  C   UNL A   1      45.535  27.646  26.795  1.00  0.00     0.037 A 
ATOM     56  C   UNL A   1      41.045  30.895  30.012  1.00  0.00     0.049 A 
ATOM     57  C   UNL A   1      45.493  29.041  27.347  1.00  0.00     0.074 A 
ATOM     58  C   UNL A   1      41.095  32.184  30.523  1.00  0.00     0.029 A 
ATOM     59  N   UNL A   1      42.242  30.692  29.348  1.00  0.00    -0.354 N 
ATOM     60  N   UNL A   1      44.541  29.639  28.015  1.00  0.00    -0.248 NA
ATOM     61  C   UNL A   1      46.667  29.893  27.089  1.00  0.00     0.031 C 
ATOM     62  C   UNL A   1      42.308  32.770  30.145  1.00  0.00     0.029 A 
ATOM     63  C   UNL A   1      43.033  31.830  29.435  1.00  0.00     0.049 A 
ATOM     64  H   UNL A   1      42.497  29.862  28.883  1.00  0.00     0.167 HD
ATOM     65  C   UNL A   1      44.994  30.931  28.251  1.00  0.00     0.074 A 
ATOM     66  C   UNL A   1      46.322  31.025  27.685  1.00  0.00     0.031 C 
ATOM     67  C   UNL A   1      44.351  31.948  28.872  1.00  0.00     0.037 A 
BRANCH  54  68
ATOM     68  C   UNL A   1      38.782  30.346  30.931  1.00  0.00     0.064 A 
ATOM     69  C   UNL A   1      37.725  30.988  30.262  1.00  0.00     0.173 A 
ATOM     70  C   UNL A   1      38.705  30.238  32.325  1.00  0.00     0.173 A 
ATOM     71  F   UNL A   1      37.758  31.132  28.929  1.00  0.00    -0.203 F 
ATOM     72  C   UNL A   1      36.647  31.521  30.964  1.00  0.00     0.198 A 
ATOM     73  C   UNL A   1      37.609  30.748  33.022  1.00  0.00     0.198 A 
ATOM     74  F   UNL A   1      39.684  29.631  33.011  1.00  0.00    -0.203 F 
ATOM     75  F   UNL A   1      35.674  32.167  30.306  1.00  0.00    -0.200 F 
ATOM     76  C   UNL A   1      36.589  31.397  32.342  1.00  0.00     0.200 A 
ATOM     77  F   UNL A   1      37.544  30.611  34.353  1.00  0.00    -0.200 F 
ATOM     78  F   UNL A   1      35.550  31.907  33.018  1.00  0.00    -0.200 F 
ENDBRANCH  54  68
BRANCH  55  79
ATOM     79  C   UNL A   1      46.746  27.173  26.070  1.00  0.00     0.064 A 
ATOM     80  C   UNL A   1      47.748  26.439  26.725  1.00  0.00     0.173 A 
ATOM     81  C   UNL A   1      46.927  27.456  24.710  1.00  0.00     0.173 A 
ATOM     82  F   UNL A   1      47.613  26.129  28.023  1.00  0.00    -0.203 F 
ATOM     83  C   UNL A   1      48.905  26.049  26.058  1.00  0.00     0.198 A 
ATOM     84  C   UNL A   1      48.069  27.032  24.035  1.00  0.00     0.198 A 
ATOM     85  F   UNL A   1      45.976  28.114  24.030  1.00  0.00    -0.203 F 
ATOM     86  F   UNL A   1      49.869  25.395  26.721  1.00  0.00    -0.200 F 
ATOM     87  C   UNL A   1      49.064  26.343  24.712  1.00  0.00     0.200 A 
ATOM     88  F   UNL A   1      48.203  27.284  22.725  1.00  0.00    -0.200 F 
ATOM     89  F   UNL A   1      50.173  25.954  24.068  1.00  0.00    -0.200 F 
ENDBRANCH  55  79
BRANCH  67  90
ATOM     90  C   UNL A   1      45.070  33.261  28.988  1.00  0.00     0.064 A 
ATOM     91  C   UNL A   1      45.890  33.534  30.094  1.00  0.00     0.173 A 
ATOM     92  C   UNL A   1      44.927  34.263  28.017  1.00  0.00     0.173 A 
ATOM     93  F   UNL A   1      46.057  32.613  31.055  1.00  0.00    -0.203 F 
ATOM     94  C   UNL A   1      46.540  34.759  30.222  1.00  0.00     0.198 A 
ATOM     95  C   UNL A   1      45.597  35.479  28.135  1.00  0.00     0.198 A 
ATOM     96  F   UNL A   1      44.166  34.048  26.932  1.00  0.00    -0.203 F 
ATOM     97  F   UNL A   1      47.306  35.002  31.294  1.00  0.00    -0.200 F 
ATOM     98  C   UNL A   1      46.398  35.728  29.239  1.00  0.00     0.200 A 
ATOM     99  F   UNL A   1      45.479  36.405  27.173  1.00  0.00    -0.200 F 
ATOM    100  F   UNL A   1      47.041  36.899  29.353  1.00  0.00    -0.200 F 
ENDBRANCH  67  90
ENDBRANCH  41  42
ENDBRANCH  34  36
ENDBRANCH  33  34
ENDBRANCH  32  33
ENDBRANCH   1  32
TORSDOF 17
ENDMDL
MODEL 2
REMARK VINA RESULT:     -12.8      3.946      9.648
REMARK SMILES CC(C)[C@@H](NC(=O)/C(=C\c1ccccc1F)NC(=O)c1ccccc1)C(=O)OCCOC(=O)c1ccc(-c2c3nc(c(-c4c(F)c(F)c(F)c(F)c4F)c4ccc([nH]4)c(-c4c(F)c(F)c(F)c(F)c4F)c4nc(c(-c5c(F)c(F)c(F)c(F)c5F)c5ccc2[nH]5)C=C4)C=C3)cc1
REMARK SMILES IDX 29 1 28 2 26 3 27 4 4 5 2 6 1 7 3 8 5 9 6 10 7 12 8 13 9 14
REMARK SMILES IDX 17 15 18 16 19 18 20 19 21 20 25 21 22 22 24 23 23 24 10 25
REMARK SMILES IDX 11 26 15 27 12 28 14 29 16 30 13 31 30 32 31 33 32 34 33 35
REMARK SMILES IDX 34 36 35 37 96 38 36 39 95 40 37 41 38 42 39 43 89 44 40 45
REMARK SMILES IDX 94 46 88 47 90 48 41 49 93 50 87 51 86 52 42 54 74 55 54 56
REMARK SMILES IDX 73 57 55 58 58 59 72 60 91 61 56 62 57 63 71 65 92 66 59 67
REMARK SMILES IDX 43 68 44 69 52 70 45 71 46 72 50 73 53 74 47 75 48 76 51 77
REMARK SMILES IDX 49 78 75 79 76 80 84 81 77 82 78 83 82 84 85 85 79 86 80 87
REMARK SMILES IDX 83 88 81 89 60 90 61 91 69 92 62 93 63 94 67 95 70 96 64 97
REMARK SMILES IDX 65 98 68 99 66 100
REMARK H PARENT 5 11 17 17 90 53 58 64
REMARK Flexibility Score: inf
ROOT
ATOM      1  C   UNL A   1      31.303  28.306  25.132  1.00  0.00     0.274 C 
ENDROOT
BRANCH   1   2
ATOM      2  O   UNL A   1      32.442  27.476  25.435  1.00  0.00    -0.461 OA
BRANCH   2   3
ATOM      3  C   UNL A   1      33.265  27.172  24.386  1.00  0.00     0.329 C 
ATOM      4  O   UNL A   1      34.172  27.895  23.993  1.00  0.00    -0.250 OA
BRANCH   3   5
ATOM      5  C   UNL A   1      32.962  25.757  23.844  1.00  0.00     0.195 C 
BRANCH   5   6
ATOM      6  C   UNL A   1      31.958  25.667  22.665  1.00  0.00     0.017 C 
ATOM      7  C   UNL A   1      32.700  25.456  21.328  1.00  0.00     0.010 C 
ATOM      8  C   UNL A   1      30.978  24.491  22.809  1.00  0.00     0.010 C 
ENDBRANCH   5   6
BRANCH   5   9
ATOM      9  N   UNL A   1      34.173  24.962  23.584  1.00  0.00    -0.337 N 
ATOM     10  C   UNL A   1      34.410  23.658  23.925  1.00  0.00     0.268 C 
ATOM     11  H   UNL A   1      34.900  25.423  23.107  1.00  0.00     0.164 HD
ATOM     12  O   UNL A   1      35.095  22.948  23.194  1.00  0.00    -0.268 OA
BRANCH  10  13
ATOM     13  C   UNL A   1      33.892  23.150  25.233  1.00  0.00     0.107 C 
ATOM     14  C   UNL A   1      34.764  22.827  26.208  1.00  0.00     0.043 C 
BRANCH  13  15
ATOM     15  N   UNL A   1      32.535  22.948  25.425  1.00  0.00    -0.317 N 
ATOM     16  C   UNL A   1      31.752  21.808  25.399  1.00  0.00     0.255 C 
ATOM     17  H   UNL A   1      32.032  23.773  25.614  1.00  0.00     0.170 HD
ATOM     18  O   UNL A   1      30.595  21.840  25.811  1.00  0.00    -0.269 OA
BRANCH  16  19
ATOM     19  C   UNL A   1      32.229  20.585  24.737  1.00  0.00     0.040 A 
ATOM     20  C   UNL A   1      32.786  19.583  25.537  1.00  0.00     0.014 A 
ATOM     21  C   UNL A   1      32.111  20.418  23.355  1.00  0.00     0.014 A 
ATOM     22  C   UNL A   1      33.148  18.367  24.961  1.00  0.00     0.001 A 
ATOM     23  C   UNL A   1      32.449  19.187  22.789  1.00  0.00     0.001 A 
ATOM     24  C   UNL A   1      32.953  18.161  23.594  1.00  0.00     0.000 A 
ENDBRANCH  16  19
ENDBRANCH  13  15
BRANCH  14  25
ATOM     25  C   UNL A   1      36.229  22.835  26.082  1.00  0.00     0.012 A 
ATOM     26  C   UNL A   1      36.916  24.015  26.410  1.00  0.00     0.011 A 
ATOM     27  C   UNL A   1      36.979  21.729  25.691  1.00  0.00     0.130 A 
ATOM     28  C   UNL A   1      38.308  24.084  26.387  1.00  0.00     0.001 A 
ATOM     29  C   UNL A   1      38.373  21.789  25.657  1.00  0.00     0.040 A 
ATOM     30  F   UNL A   1      36.370  20.592  25.329  1.00  0.00    -0.206 F 
ATOM     31  C   UNL A   1      39.038  22.965  26.012  1.00  0.00     0.003 A 
ENDBRANCH  14  25
ENDBRANCH  10  13
ENDBRANCH   5   9
ENDBRANCH   3   5
ENDBRANCH   2   3
ENDBRANCH   1   2
BRANCH   1  32
ATOM     32  C   UNL A   1      31.655  29.776  25.382  1.00  0.00     0.275 C 
BRANCH  32  33
ATOM     33  O   UNL A   1      31.950  30.026  26.777  1.00  0.00    -0.458 OA
BRANCH  33  34
ATOM     34  C   UNL A   1      32.652  31.182  26.978  1.00  0.00     0.338 C 
ATOM     35  O   UNL A   1      32.182  32.308  26.909  1.00  0.00    -0.246 OA
BRANCH  34  36
ATOM     36  C   UNL A   1      34.038  30.919  27.462  1.00  0.00     0.060 A 
ATOM     37  C   UNL A   1      34.557  29.639  27.588  1.00  0.00     0.016 A 
ATOM     38  C   UNL A   1      34.833  31.989  27.881  1.00  0.00     0.016 A 
ATOM     39  C   UNL A   1      35.753  29.424  28.304  1.00  0.00     0.010 A 
ATOM     40  C   UNL A   1      36.090  31.769  28.483  1.00  0.00     0.010 A 
ATOM     41  C   UNL A   1      36.558  30.476  28.775  1.00  0.00    -0.014 A 
BRANCH  41  42
ATOM     42  C   UNL A   1      37.824  30.245  29.583  1.00  0.00     0.031 A 
ATOM     43  C   UNL A   1      39.001  29.467  29.003  1.00  0.00     0.074 A 
ATOM     44  C   UNL A   1      38.000  30.724  30.838  1.00  0.00     0.049 A 
ATOM     45  N   UNL A   1      40.019  28.909  29.621  1.00  0.00    -0.248 NA
ATOM     46  C   UNL A   1      39.034  29.285  27.544  1.00  0.00     0.031 C 
ATOM     47  C   UNL A   1      37.058  31.550  31.587  1.00  0.00     0.029 A 
ATOM     48  N   UNL A   1      39.065  30.588  31.711  1.00  0.00    -0.354 N 
ATOM     49  C   UNL A   1      40.746  28.231  28.647  1.00  0.00     0.074 A 
ATOM     50  C   UNL A   1      40.066  28.466  27.390  1.00  0.00     0.031 C 
ATOM     51  C   UNL A   1      37.611  31.923  32.749  1.00  0.00     0.029 A 
ATOM     52  C   UNL A   1      38.889  31.237  32.911  1.00  0.00     0.049 A 
ATOM     53  H   UNL A   1      39.875  30.073  31.494  1.00  0.00     0.167 HD
ATOM     54  C   UNL A   1      41.869  27.478  28.778  1.00  0.00     0.037 A 
ATOM     55  C   UNL A   1      39.610  31.244  34.052  1.00  0.00     0.037 A 
ATOM     56  C   UNL A   1      42.640  27.325  29.989  1.00  0.00     0.049 A 
ATOM     57  C   UNL A   1      40.834  30.387  34.193  1.00  0.00     0.074 A 
ATOM     58  C   UNL A   1      43.798  26.586  30.185  1.00  0.00     0.029 A 
ATOM     59  N   UNL A   1      42.368  27.951  31.192  1.00  0.00    -0.354 N 
ATOM     60  N   UNL A   1      41.412  29.618  33.308  1.00  0.00    -0.248 NA
ATOM     61  C   UNL A   1      41.482  30.367  35.517  1.00  0.00     0.031 C 
ATOM     62  C   UNL A   1      44.210  26.741  31.512  1.00  0.00     0.029 A 
ATOM     63  C   UNL A   1      43.333  27.612  32.132  1.00  0.00     0.049 A 
ATOM     64  H   UNL A   1      41.603  28.549  31.359  1.00  0.00     0.167 HD
ATOM     65  C   UNL A   1      42.481  29.020  33.963  1.00  0.00     0.074 A 
ATOM     66  C   UNL A   1      42.496  29.538  35.313  1.00  0.00     0.031 C 
ATOM     67  C   UNL A   1      43.360  28.109  33.482  1.00  0.00     0.037 A 
BRANCH  54  68
ATOM     68  C   UNL A   1      42.352  26.710  27.578  1.00  0.00     0.064 A 
ATOM     69  C   UNL A   1      41.954  25.373  27.401  1.00  0.00     0.173 A 
ATOM     70  C   UNL A   1      43.285  27.240  26.678  1.00  0.00     0.173 A 
ATOM     71  F   UNL A   1      41.075  24.812  28.246  1.00  0.00    -0.203 F 
ATOM     72  C   UNL A   1      42.487  24.593  26.380  1.00  0.00     0.198 A 
ATOM     73  C   UNL A   1      43.795  26.463  25.638  1.00  0.00     0.198 A 
ATOM     74  F   UNL A   1      43.695  28.511  26.800  1.00  0.00    -0.203 F 
ATOM     75  F   UNL A   1      42.124  23.308  26.259  1.00  0.00    -0.200 F 
ATOM     76  C   UNL A   1      43.404  25.139  25.497  1.00  0.00     0.200 A 
ATOM     77  F   UNL A   1      44.667  26.998  24.773  1.00  0.00    -0.200 F 
ATOM     78  F   UNL A   1      43.915  24.390  24.510  1.00  0.00    -0.200 F 
ENDBRANCH  54  68
BRANCH  55  79
ATOM     79  C   UNL A   1      39.137  32.055  35.209  1.00  0.00     0.064 A 
ATOM     80  C   UNL A   1      39.426  33.425  35.305  1.00  0.00     0.173 A 
ATOM     81  C   UNL A   1      38.395  31.470  36.243  1.00  0.00     0.173 A 
ATOM     82  F   UNL A   1      40.120  34.035  34.333  1.00  0.00    -0.203 F 
ATOM     83  C   UNL A   1      39.032  34.167  36.415  1.00  0.00     0.198 A 
ATOM     84  C   UNL A   1      37.970  32.222  37.335  1.00  0.00     0.198 A 
ATOM     85  F   UNL A   1      38.055  30.174  36.173  1.00  0.00    -0.203 F 
ATOM     86  F   UNL A   1      39.368  35.461  36.505  1.00  0.00    -0.200 F 
ATOM     87  C   UNL A   1      38.302  33.566  37.428  1.00  0.00     0.200 A 
ATOM     88  F   UNL A   1      37.231  31.647  38.295  1.00  0.00    -0.200 F 
ATOM     89  F   UNL A   1      37.912  34.284  38.490  1.00  0.00    -0.200 F 
ENDBRANCH  55  79
BRANCH  67  90
ATOM     90  C   UNL A   1      44.429  27.611  34.411  1.00  0.00     0.064 A 
ATOM     91  C   UNL A   1      44.228  26.454  35.180  1.00  0.00     0.173 A 
ATOM     92  C   UNL A   1      45.646  28.293  34.561  1.00  0.00     0.173 A 
ATOM     93  F   UNL A   1      43.081  25.767  35.080  1.00  0.00    -0.203 F 
ATOM     94  C   UNL A   1      45.205  26.000  36.064  1.00  0.00     0.198 A 
ATOM     95  C   UNL A   1      46.631  27.823  35.428  1.00  0.00     0.198 A 
ATOM     96  F   UNL A   1      45.895  29.396  33.838  1.00  0.00    -0.203 F 
ATOM     97  F   UNL A   1      44.984  24.901  36.798  1.00  0.00    -0.200 F 
ATOM     98  C   UNL A   1      46.408  26.681  36.182  1.00  0.00     0.200 A 
ATOM     99  F   UNL A   1      47.801  28.468  35.523  1.00  0.00    -0.200 F 
ATOM    100  F   UNL A   1      47.355  26.231  37.017  1.00  0.00    -0.200 F 
ENDBRANCH  67  90
ENDBRANCH  41  42
ENDBRANCH  34  36
ENDBRANCH  33  34
ENDBRANCH  32  33
ENDBRANCH   1  32
TORSDOF 17
ENDMDL
MODEL 3
REMARK VINA RESULT:     -12.6      0.652      1.709
REMARK SMILES CC(C)[C@@H](NC(=O)/C(=C\c1ccccc1F)NC(=O)c1ccccc1)C(=O)OCCOC(=O)c1ccc(-c2c3nc(c(-c4c(F)c(F)c(F)c(F)c4F)c4ccc([nH]4)c(-c4c(F)c(F)c(F)c(F)c4F)c4nc(c(-c5c(F)c(F)c(F)c(F)c5F)c5ccc2[nH]5)C=C4)C=C3)cc1
REMARK SMILES IDX 29 1 28 2 26 3 27 4 4 5 2 6 1 7 3 8 5 9 6 10 7 12 8 13 9 14
REMARK SMILES IDX 17 15 18 16 19 18 20 19 21 20 25 21 22 22 24 23 23 24 10 25
REMARK SMILES IDX 11 26 15 27 12 28 14 29 16 30 13 31 30 32 31 33 32 34 33 35
REMARK SMILES IDX 34 36 35 37 96 38 36 39 95 40 37 41 38 42 39 43 89 44 40 45
REMARK SMILES IDX 94 46 88 47 90 48 41 49 93 50 87 51 86 52 42 54 74 55 54 56
REMARK SMILES IDX 73 57 55 58 58 59 72 60 91 61 56 62 57 63 71 65 92 66 59 67
REMARK SMILES IDX 43 68 44 69 52 70 45 71 46 72 50 73 53 74 47 75 48 76 51 77
REMARK SMILES IDX 49 78 75 79 76 80 84 81 77 82 78 83 82 84 85 85 79 86 80 87
REMARK SMILES IDX 83 88 81 89 60 90 61 91 69 92 62 93 63 94 67 95 70 96 64 97
REMARK SMILES IDX 65 98 68 99 66 100
REMARK H PARENT 5 11 17 17 90 53 58 64
REMARK Flexibility Score: inf
ROOT
ATOM      1  C   UNL A   1      35.530  22.844  23.817  1.00  0.00     0.274 C 
ENDROOT
BRANCH   1   2
ATOM      2  O   UNL A   1      34.717  22.891  25.007  1.00  0.00    -0.461 OA
BRANCH   2   3
ATOM      3  C   UNL A   1      34.322  24.132  25.421  1.00  0.00     0.329 C 
ATOM      4  O   UNL A   1      35.066  25.102  25.493  1.00  0.00    -0.250 OA
BRANCH   3   5
ATOM      5  C   UNL A   1      32.798  24.164  25.679  1.00  0.00     0.195 C 
BRANCH   5   6
ATOM      6  C   UNL A   1      32.168  22.875  26.268  1.00  0.00     0.017 C 
ATOM      7  C   UNL A   1      32.766  22.557  27.655  1.00  0.00     0.010 C 
ATOM      8  C   UNL A   1      30.648  22.993  26.466  1.00  0.00     0.010 C 
ENDBRANCH   5   6
BRANCH   5   9
ATOM      9  N   UNL A   1      32.355  25.363  26.408  1.00  0.00    -0.337 N 
ATOM     10  C   UNL A   1      31.816  26.510  25.890  1.00  0.00     0.268 C 
ATOM     11  H   UNL A   1      32.460  25.338  27.386  1.00  0.00     0.164 HD
ATOM     12  O   UNL A   1      30.970  27.131  26.526  1.00  0.00    -0.268 OA
BRANCH  10  13
ATOM     13  C   UNL A   1      32.337  27.025  24.587  1.00  0.00     0.107 C 
ATOM     14  C   UNL A   1      33.131  28.114  24.577  1.00  0.00     0.043 C 
BRANCH  13  15
ATOM     15  N   UNL A   1      31.959  26.435  23.391  1.00  0.00    -0.317 N 
ATOM     16  C   UNL A   1      31.132  26.859  22.367  1.00  0.00     0.255 C 
ATOM     17  H   UNL A   1      32.352  25.544  23.245  1.00  0.00     0.170 HD
ATOM     18  O   UNL A   1      31.111  26.255  21.296  1.00  0.00    -0.269 OA
BRANCH  16  19
ATOM     19  C   UNL A   1      30.155  27.934  22.586  1.00  0.00     0.040 A 
ATOM     20  C   UNL A   1      30.486  29.220  22.150  1.00  0.00     0.014 A 
ATOM     21  C   UNL A   1      28.922  27.677  23.193  1.00  0.00     0.014 A 
ATOM     22  C   UNL A   1      29.542  30.240  22.242  1.00  0.00     0.001 A 
ATOM     23  C   UNL A   1      27.971  28.697  23.255  1.00  0.00     0.001 A 
ATOM     24  C   UNL A   1      28.278  29.971  22.768  1.00  0.00     0.000 A 
ENDBRANCH  16  19
ENDBRANCH  13  15
BRANCH  14  25
ATOM     25  C   UNL A   1      33.475  28.932  25.749  1.00  0.00     0.012 A 
ATOM     26  C   UNL A   1      34.614  28.580  26.491  1.00  0.00     0.011 A 
ATOM     27  C   UNL A   1      32.758  30.058  26.145  1.00  0.00     0.130 A 
ATOM     28  C   UNL A   1      35.050  29.344  27.572  1.00  0.00     0.001 A 
ATOM     29  C   UNL A   1      33.181  30.826  27.231  1.00  0.00     0.040 A 
ATOM     30  F   UNL A   1      31.642  30.413  25.495  1.00  0.00    -0.206 F 
ATOM     31  C   UNL A   1      34.331  30.473  27.940  1.00  0.00     0.003 A 
ENDBRANCH  14  25
ENDBRANCH  10  13
ENDBRANCH   5   9
ENDBRANCH   3   5
ENDBRANCH   2   3
ENDBRANCH   1   2
BRANCH   1  32
ATOM     32  C   UNL A   1      36.707  21.887  24.034  1.00  0.00     0.275 C 
BRANCH  32  33
ATOM     33  O   UNL A   1      36.938  21.632  25.440  1.00  0.00    -0.458 OA
BRANCH  33  34
ATOM     34  C   UNL A   1      38.257  21.440  25.740  1.00  0.00     0.338 C 
ATOM     35  O   UNL A   1      38.927  20.483  25.379  1.00  0.00    -0.246 OA
BRANCH  34  36
ATOM     36  C   UNL A   1      38.855  22.622  26.428  1.00  0.00     0.060 A 
ATOM     37  C   UNL A   1      38.316  23.896  26.330  1.00  0.00     0.016 A 
ATOM     38  C   UNL A   1      40.047  22.471  27.139  1.00  0.00     0.016 A 
ATOM     39  C   UNL A   1      39.057  25.017  26.757  1.00  0.00     0.010 A 
ATOM     40  C   UNL A   1      40.720  23.590  27.676  1.00  0.00     0.010 A 
ATOM     41  C   UNL A   1      40.280  24.904  27.441  1.00  0.00    -0.014 A 
BRANCH  41  42
ATOM     42  C   UNL A   1      41.101  26.111  27.865  1.00  0.00     0.031 A 
ATOM     43  C   UNL A   1      40.511  27.193  28.764  1.00  0.00     0.074 A 
ATOM     44  C   UNL A   1      42.392  26.295  27.498  1.00  0.00     0.049 A 
ATOM     45  N   UNL A   1      40.929  28.421  28.979  1.00  0.00    -0.248 NA
ATOM     46  C   UNL A   1      39.290  26.855  29.510  1.00  0.00     0.031 C 
ATOM     47  C   UNL A   1      43.202  25.378  26.701  1.00  0.00     0.029 A 
ATOM     48  N   UNL A   1      43.266  27.333  27.771  1.00  0.00    -0.354 N 
ATOM     49  C   UNL A   1      39.975  29.024  29.793  1.00  0.00     0.074 A 
ATOM     50  C   UNL A   1      38.965  28.020  30.055  1.00  0.00     0.031 C 
ATOM     51  C   UNL A   1      44.459  25.836  26.628  1.00  0.00     0.029 A 
ATOM     52  C   UNL A   1      44.521  27.162  27.236  1.00  0.00     0.049 A 
ATOM     53  H   UNL A   1      43.011  28.124  28.300  1.00  0.00     0.167 HD
ATOM     54  C   UNL A   1      39.934  30.293  30.276  1.00  0.00     0.037 A 
ATOM     55  C   UNL A   1      45.594  27.977  27.161  1.00  0.00     0.037 A 
ATOM     56  C   UNL A   1      40.980  31.278  30.140  1.00  0.00     0.049 A 
ATOM     57  C   UNL A   1      45.526  29.386  27.675  1.00  0.00     0.074 A 
ATOM     58  C   UNL A   1      41.006  32.580  30.620  1.00  0.00     0.029 A 
ATOM     59  N   UNL A   1      42.200  31.066  29.522  1.00  0.00    -0.354 N 
ATOM     60  N   UNL A   1      44.548  29.994  28.295  1.00  0.00    -0.248 NA
ATOM     61  C   UNL A   1      46.703  30.238  27.436  1.00  0.00     0.031 C 
ATOM     62  C   UNL A   1      42.227  33.164  30.268  1.00  0.00     0.029 A 
ATOM     63  C   UNL A   1      42.981  32.211  29.607  1.00  0.00     0.049 A 
ATOM     64  H   UNL A   1      42.475  30.226  29.087  1.00  0.00     0.167 HD
ATOM     65  C   UNL A   1      44.986  31.294  28.513  1.00  0.00     0.074 A 
ATOM     66  C   UNL A   1      46.332  31.383  27.990  1.00  0.00     0.031 C 
ATOM     67  C   UNL A   1      44.317  32.323  29.086  1.00  0.00     0.037 A 
BRANCH  54  68
ATOM     68  C   UNL A   1      38.690  30.737  30.996  1.00  0.00     0.064 A 
ATOM     69  C   UNL A   1      37.628  31.302  30.267  1.00  0.00     0.173 A 
ATOM     70  C   UNL A   1      38.587  30.717  32.393  1.00  0.00     0.173 A 
ATOM     71  F   UNL A   1      37.685  31.362  28.928  1.00  0.00    -0.203 F 
ATOM     72  C   UNL A   1      36.522  31.846  30.912  1.00  0.00     0.198 A 
ATOM     73  C   UNL A   1      37.463  31.237  33.034  1.00  0.00     0.198 A 
ATOM     74  F   UNL A   1      39.569  30.185  33.135  1.00  0.00    -0.203 F 
ATOM     75  F   UNL A   1      35.544  32.419  30.196  1.00  0.00    -0.200 F 
ATOM     76  C   UNL A   1      36.438  31.810  32.295  1.00  0.00     0.200 A 
ATOM     77  F   UNL A   1      37.374  31.184  34.370  1.00  0.00    -0.200 F 
ATOM     78  F   UNL A   1      35.371  32.330  32.917  1.00  0.00    -0.200 F 
ENDBRANCH  54  68
BRANCH  55  79
ATOM     79  C   UNL A   1      46.832  27.494  26.489  1.00  0.00     0.064 A 
ATOM     80  C   UNL A   1      47.011  27.631  25.104  1.00  0.00     0.173 A 
ATOM     81  C   UNL A   1      47.854  26.877  27.222  1.00  0.00     0.173 A 
ATOM     82  F   UNL A   1      46.068  28.229  24.361  1.00  0.00    -0.203 F 
ATOM     83  C   UNL A   1      48.144  27.126  24.472  1.00  0.00     0.198 A 
ATOM     84  C   UNL A   1      49.003  26.405  26.593  1.00  0.00     0.198 A 
ATOM     85  F   UNL A   1      47.749  26.764  28.555  1.00  0.00    -0.203 F 
ATOM     86  F   UNL A   1      48.264  27.224  23.141  1.00  0.00    -0.200 F 
ATOM     87  C   UNL A   1      49.141  26.516  25.217  1.00  0.00     0.200 A 
ATOM     88  F   UNL A   1      49.983  25.850  27.321  1.00  0.00    -0.200 F 
ATOM     89  F   UNL A   1      50.237  26.042  24.609  1.00  0.00    -0.200 F 
ENDBRANCH  55  79
BRANCH  67  90
ATOM     90  C   UNL A   1      45.024  33.643  29.193  1.00  0.00     0.064 A 
ATOM     91  C   UNL A   1      44.899  34.607  28.181  1.00  0.00     0.173 A 
ATOM     92  C   UNL A   1      45.847  33.946  30.287  1.00  0.00     0.173 A 
ATOM     93  F   UNL A   1      44.129  34.367  27.109  1.00  0.00    -0.203 F 
ATOM     94  C   UNL A   1      45.573  35.824  28.261  1.00  0.00     0.198 A 
ATOM     95  C   UNL A   1      46.501  35.174  30.377  1.00  0.00     0.198 A 
ATOM     96  F   UNL A   1      45.988  33.065  31.290  1.00  0.00    -0.203 F 
ATOM     97  F   UNL A   1      45.450  36.723  27.275  1.00  0.00    -0.200 F 
ATOM     98  C   UNL A   1      46.367  36.109  29.361  1.00  0.00     0.200 A 
ATOM     99  F   UNL A   1      47.248  35.458  31.452  1.00  0.00    -0.200 F 
ATOM    100  F   UNL A   1      46.998  37.289  29.447  1.00  0.00    -0.200 F 
ENDBRANCH  67  90
ENDBRANCH  41  42
ENDBRANCH  34  36
ENDBRANCH  33  34
ENDBRANCH  32  33
ENDBRANCH   1  32
TORSDOF 17
ENDMDL
