MODEL 1
REMARK VINA RESULT:     -11.6      0.000      0.000
REMARK SMILES O=C(Cc1csc(SC[C@@H]2Cc3ccccc3S2)n1)OCCOC(=O)c1ccc(-c2c3nc(c(-c4c(F)c(F)c(F)c(F)c4F)c4ccc([nH]4)c(-c4c(F)c(F)c(F)c(F)c4F)c4nc(c(-c5c(F)c(F)c(F)c(F)c5F)c5ccc2[nH]5)C=C4)C=C3)cc1
REMARK SMILES IDX 21 1 20 2 2 3 1 4 3 5 4 6 5 7 19 8 6 9 7 10 8 11 9 12 10 13
REMARK SMILES IDX 11 14 18 15 12 16 17 17 13 18 16 19 14 20 15 21 22 22 23 23
REMARK SMILES IDX 24 24 25 25 26 26 27 27 88 28 28 29 87 30 29 31 30 32 31 33
REMARK SMILES IDX 81 34 32 35 86 36 80 37 82 38 33 39 85 40 79 41 78 42 34 44
REMARK SMILES IDX 66 45 46 46 65 47 47 48 50 49 64 50 83 51 48 52 49 53 63 55
REMARK SMILES IDX 84 56 51 57 35 58 36 59 44 60 37 61 38 62 42 63 45 64 39 65
REMARK SMILES IDX 40 66 43 67 41 68 67 69 68 70 76 71 69 72 70 73 74 74 77 75
REMARK SMILES IDX 71 76 72 77 75 78 73 79 52 80 53 81 61 82 54 83 55 84 59 85
REMARK SMILES IDX 62 86 56 87 57 88 60 89 58 90
REMARK H PARENT 82 43 50 54
REMARK Flexibility Score: inf
ROOT
ATOM      1  C   UNL A   1      38.450  20.808  25.158  1.00  0.00     0.274 C 
ENDROOT
BRANCH   1   2
ATOM      2  O   UNL A   1      37.530  21.752  25.746  1.00  0.00    -0.462 OA
BRANCH   2   3
ATOM      3  C   UNL A   1      37.188  22.942  25.198  1.00  0.00     0.312 C 
ATOM      4  O   UNL A   1      37.233  23.969  25.874  1.00  0.00    -0.252 OA
BRANCH   3   5
ATOM      5  C   UNL A   1      36.677  22.958  23.786  1.00  0.00     0.179 C 
BRANCH   5   6
ATOM      6  C   UNL A   1      35.203  22.893  23.641  1.00  0.00     0.064 A 
ATOM      7  C   UNL A   1      34.330  22.148  24.414  1.00  0.00     0.092 A 
ATOM      8  N   UNL A   1      34.592  23.780  22.785  1.00  0.00    -0.234 NA
ATOM      9  S   UNL A   1      32.713  22.629  24.097  1.00  0.00    -0.116 S 
ATOM     10  C   UNL A   1      33.300  23.807  23.006  1.00  0.00     0.150 A 
BRANCH  10  11
ATOM     11  S   UNL A   1      32.294  25.027  22.278  1.00  0.00    -0.094 SA
BRANCH  11  12
ATOM     12  C   UNL A   1      33.477  26.417  22.108  1.00  0.00     0.092 C 
BRANCH  12  13
ATOM     13  C   UNL A   1      33.075  27.849  22.536  1.00  0.00     0.066 C 
ATOM     14  C   UNL A   1      34.032  28.567  23.511  1.00  0.00     0.052 C 
ATOM     15  S   UNL A   1      31.417  27.952  23.319  1.00  0.00    -0.121 SA
ATOM     16  C   UNL A   1      33.480  28.399  24.899  1.00  0.00    -0.033 A 
ATOM     17  C   UNL A   1      32.117  28.107  24.936  1.00  0.00     0.011 A 
ATOM     18  C   UNL A   1      34.181  28.590  26.087  1.00  0.00     0.005 A 
ATOM     19  C   UNL A   1      31.445  27.975  26.140  1.00  0.00     0.015 A 
ATOM     20  C   UNL A   1      33.514  28.465  27.306  1.00  0.00     0.000 A 
ATOM     21  C   UNL A   1      32.150  28.159  27.331  1.00  0.00     0.001 A 
ENDBRANCH  12  13
ENDBRANCH  11  12
ENDBRANCH  10  11
ENDBRANCH   5   6
ENDBRANCH   3   5
ENDBRANCH   2   3
ENDBRANCH   1   2
BRANCH   1  22
ATOM     22  C   UNL A   1      39.634  20.514  26.085  1.00  0.00     0.275 C 
BRANCH  22  23
ATOM     23  O   UNL A   1      40.287  19.274  25.731  1.00  0.00    -0.458 OA
BRANCH  23  24
ATOM     24  C   UNL A   1      41.606  19.174  26.040  1.00  0.00     0.338 C 
ATOM     25  O   UNL A   1      42.301  18.181  25.906  1.00  0.00    -0.246 OA
BRANCH  24  26
ATOM     26  C   UNL A   1      42.158  20.509  26.407  1.00  0.00     0.060 A 
ATOM     27  C   UNL A   1      42.709  21.384  25.465  1.00  0.00     0.016 A 
ATOM     28  C   UNL A   1      42.135  20.885  27.758  1.00  0.00     0.016 A 
ATOM     29  C   UNL A   1      43.208  22.632  25.875  1.00  0.00     0.010 A 
ATOM     30  C   UNL A   1      42.625  22.135  28.163  1.00  0.00     0.010 A 
ATOM     31  C   UNL A   1      43.159  23.029  27.225  1.00  0.00    -0.014 A 
BRANCH  31  32
ATOM     32  C   UNL A   1      43.512  24.424  27.607  1.00  0.00     0.031 A 
ATOM     33  C   UNL A   1      44.925  24.905  27.748  1.00  0.00     0.074 A 
ATOM     34  C   UNL A   1      42.525  25.306  27.846  1.00  0.00     0.049 A 
ATOM     35  N   UNL A   1      45.378  26.135  27.705  1.00  0.00    -0.248 NA
ATOM     36  C   UNL A   1      45.966  23.896  27.944  1.00  0.00     0.031 C 
ATOM     37  C   UNL A   1      41.097  25.002  27.836  1.00  0.00     0.029 A 
ATOM     38  N   UNL A   1      42.586  26.640  28.167  1.00  0.00    -0.354 N 
ATOM     39  C   UNL A   1      46.760  26.026  27.693  1.00  0.00     0.074 A 
ATOM     40  C   UNL A   1      47.074  24.624  27.851  1.00  0.00     0.031 C 
ATOM     41  C   UNL A   1      40.414  26.113  28.156  1.00  0.00     0.029 A 
ATOM     42  C   UNL A   1      41.358  27.204  28.391  1.00  0.00     0.049 A 
ATOM     43  H   UNL A   1      43.430  27.141  28.229  1.00  0.00     0.167 HD
ATOM     44  C   UNL A   1      47.676  27.008  27.535  1.00  0.00     0.037 A 
ATOM     45  C   UNL A   1      41.032  28.459  28.754  1.00  0.00     0.037 A 
ATOM     46  C   UNL A   1      47.388  28.412  27.630  1.00  0.00     0.049 A 
ATOM     47  C   UNL A   1      42.101  29.509  28.882  1.00  0.00     0.074 A 
ATOM     48  C   UNL A   1      48.249  29.487  27.496  1.00  0.00     0.029 A 
ATOM     49  N   UNL A   1      46.156  28.929  27.993  1.00  0.00    -0.354 N 
ATOM     50  N   UNL A   1      43.375  29.430  28.590  1.00  0.00    -0.248 NA
ATOM     51  C   UNL A   1      41.680  30.826  29.380  1.00  0.00     0.031 C 
ATOM     52  C   UNL A   1      47.560  30.645  27.878  1.00  0.00     0.029 A 
ATOM     53  C   UNL A   1      46.256  30.295  28.193  1.00  0.00     0.049 A 
ATOM     54  H   UNL A   1      45.330  28.402  28.095  1.00  0.00     0.167 HD
ATOM     55  C   UNL A   1      43.903  30.692  28.836  1.00  0.00     0.074 A 
ATOM     56  C   UNL A   1      42.809  31.518  29.301  1.00  0.00     0.031 C 
ATOM     57  C   UNL A   1      45.180  31.122  28.674  1.00  0.00     0.037 A 
BRANCH  44  58
ATOM     58  C   UNL A   1      49.081  26.608  27.215  1.00  0.00     0.064 A 
ATOM     59  C   UNL A   1      49.500  26.564  25.877  1.00  0.00     0.173 A 
ATOM     60  C   UNL A   1      50.035  26.395  28.215  1.00  0.00     0.173 A 
ATOM     61  F   UNL A   1      48.624  26.788  24.885  1.00  0.00    -0.203 F 
ATOM     62  C   UNL A   1      50.830  26.316  25.551  1.00  0.00     0.198 A 
ATOM     63  C   UNL A   1      51.369  26.155  27.886  1.00  0.00     0.198 A 
ATOM     64  F   UNL A   1      49.683  26.452  29.508  1.00  0.00    -0.203 F 
ATOM     65  F   UNL A   1      51.207  26.277  24.266  1.00  0.00    -0.200 F 
ATOM     66  C   UNL A   1      51.764  26.115  26.556  1.00  0.00     0.200 A 
ATOM     67  F   UNL A   1      52.276  25.982  28.857  1.00  0.00    -0.200 F 
ATOM     68  F   UNL A   1      53.049  25.898  26.242  1.00  0.00    -0.200 F 
ENDBRANCH  44  58
BRANCH  45  69
ATOM     69  C   UNL A   1      39.609  28.785  29.013  1.00  0.00     0.064 A 
ATOM     70  C   UNL A   1      39.042  28.592  30.278  1.00  0.00     0.173 A 
ATOM     71  C   UNL A   1      38.798  29.320  28.000  1.00  0.00     0.173 A 
ATOM     72  F   UNL A   1      39.776  28.065  31.268  1.00  0.00    -0.203 F 
ATOM     73  C   UNL A   1      37.710  28.920  30.521  1.00  0.00     0.198 A 
ATOM     74  C   UNL A   1      37.475  29.669  28.252  1.00  0.00     0.198 A 
ATOM     75  F   UNL A   1      39.300  29.520  26.773  1.00  0.00    -0.203 F 
ATOM     76  F   UNL A   1      37.181  28.704  31.733  1.00  0.00    -0.200 F 
ATOM     77  C   UNL A   1      36.931  29.466  29.511  1.00  0.00     0.200 A 
ATOM     78  F   UNL A   1      36.728  30.206  27.276  1.00  0.00    -0.200 F 
ATOM     79  F   UNL A   1      35.653  29.792  29.750  1.00  0.00    -0.200 F 
ENDBRANCH  45  69
BRANCH  57  80
ATOM     80  C   UNL A   1      45.486  32.553  29.005  1.00  0.00     0.064 A 
ATOM     81  C   UNL A   1      45.288  33.579  28.069  1.00  0.00     0.173 A 
ATOM     82  C   UNL A   1      45.923  32.913  30.289  1.00  0.00     0.173 A 
ATOM     83  F   UNL A   1      44.887  33.287  26.823  1.00  0.00    -0.203 F 
ATOM     84  C   UNL A   1      45.530  34.910  28.402  1.00  0.00     0.198 A 
ATOM     85  C   UNL A   1      46.133  34.247  30.628  1.00  0.00     0.198 A 
ATOM     86  F   UNL A   1      46.122  31.972  31.224  1.00  0.00    -0.203 F 
ATOM     87  F   UNL A   1      45.369  35.869  27.480  1.00  0.00    -0.200 F 
ATOM     88  C   UNL A   1      45.942  35.244  29.684  1.00  0.00     0.200 A 
ATOM     89  F   UNL A   1      46.517  34.568  31.871  1.00  0.00    -0.200 F 
ATOM     90  F   UNL A   1      46.160  36.525  30.006  1.00  0.00    -0.200 F 
ENDBRANCH  57  80
ENDBRANCH  31  32
ENDBRANCH  24  26
ENDBRANCH  23  24
ENDBRANCH  22  23
ENDBRANCH   1  22
TORSDOF 15
ENDMDL
MODEL 2
REMARK VINA RESULT:     -11.6      0.451      7.388
REMARK SMILES O=C(Cc1csc(SC[C@@H]2Cc3ccccc3S2)n1)OCCOC(=O)c1ccc(-c2c3nc(c(-c4c(F)c(F)c(F)c(F)c4F)c4ccc([nH]4)c(-c4c(F)c(F)c(F)c(F)c4F)c4nc(c(-c5c(F)c(F)c(F)c(F)c5F)c5ccc2[nH]5)C=C4)C=C3)cc1
REMARK SMILES IDX 21 1 20 2 2 3 1 4 3 5 4 6 5 7 19 8 6 9 7 10 8 11 9 12 10 13
REMARK SMILES IDX 11 14 18 15 12 16 17 17 13 18 16 19 14 20 15 21 22 22 23 23
REMARK SMILES IDX 24 24 25 25 26 26 27 27 88 28 28 29 87 30 29 31 30 32 31 33
REMARK SMILES IDX 81 34 32 35 86 36 80 37 82 38 33 39 85 40 79 41 78 42 34 44
REMARK SMILES IDX 66 45 46 46 65 47 47 48 50 49 64 50 83 51 48 52 49 53 63 55
REMARK SMILES IDX 84 56 51 57 35 58 36 59 44 60 37 61 38 62 42 63 45 64 39 65
REMARK SMILES IDX 40 66 43 67 41 68 67 69 68 70 76 71 69 72 70 73 74 74 77 75
REMARK SMILES IDX 71 76 72 77 75 78 73 79 52 80 53 81 61 82 54 83 55 84 59 85
REMARK SMILES IDX 62 86 56 87 57 88 60 89 58 90
REMARK H PARENT 82 43 50 54
REMARK Flexibility Score: inf
ROOT
ATOM      1  C   UNL A   1      38.987  21.043  25.759  1.00  0.00     0.274 C 
ENDROOT
BRANCH   1   2
ATOM      2  O   UNL A   1      37.872  21.375  24.906  1.00  0.00    -0.462 OA
BRANCH   2   3
ATOM      3  C   UNL A   1      37.356  22.618  24.756  1.00  0.00     0.312 C 
ATOM      4  O   UNL A   1      37.381  23.414  25.693  1.00  0.00    -0.252 OA
BRANCH   3   5
ATOM      5  C   UNL A   1      36.685  22.962  23.457  1.00  0.00     0.179 C 
BRANCH   5   6
ATOM      6  C   UNL A   1      35.203  22.920  23.475  1.00  0.00     0.064 A 
ATOM      7  C   UNL A   1      34.407  22.227  24.370  1.00  0.00     0.092 A 
ATOM      8  N   UNL A   1      34.517  23.783  22.651  1.00  0.00    -0.234 NA
ATOM      9  S   UNL A   1      32.774  22.727  24.208  1.00  0.00    -0.116 S 
ATOM     10  C   UNL A   1      33.257  23.846  23.008  1.00  0.00     0.150 A 
BRANCH  10  11
ATOM     11  S   UNL A   1      32.198  25.054  22.340  1.00  0.00    -0.094 SA
BRANCH  11  12
ATOM     12  C   UNL A   1      33.353  26.458  22.105  1.00  0.00     0.092 C 
BRANCH  12  13
ATOM     13  C   UNL A   1      32.956  27.887  22.550  1.00  0.00     0.066 C 
ATOM     14  C   UNL A   1      33.935  28.605  23.501  1.00  0.00     0.052 C 
ATOM     15  S   UNL A   1      31.319  27.978  23.378  1.00  0.00    -0.121 SA
ATOM     16  C   UNL A   1      33.422  28.430  24.903  1.00  0.00    -0.033 A 
ATOM     17  C   UNL A   1      32.062  28.131  24.976  1.00  0.00     0.011 A 
ATOM     18  C   UNL A   1      34.155  28.620  26.072  1.00  0.00     0.005 A 
ATOM     19  C   UNL A   1      31.424  27.991  26.197  1.00  0.00     0.015 A 
ATOM     20  C   UNL A   1      33.521  28.487  27.308  1.00  0.00     0.000 A 
ATOM     21  C   UNL A   1      32.160  28.174  27.369  1.00  0.00     0.001 A 
ENDBRANCH  12  13
ENDBRANCH  11  12
ENDBRANCH  10  11
ENDBRANCH   5   6
ENDBRANCH   3   5
ENDBRANCH   2   3
ENDBRANCH   1   2
BRANCH   1  22
ATOM     22  C   UNL A   1      39.536  19.643  25.459  1.00  0.00     0.275 C 
BRANCH  22  23
ATOM     23  O   UNL A   1      40.377  19.164  26.533  1.00  0.00    -0.458 OA
BRANCH  23  24
ATOM     24  C   UNL A   1      41.715  19.166  26.301  1.00  0.00     0.338 C 
ATOM     25  O   UNL A   1      42.365  18.243  25.840  1.00  0.00    -0.246 OA
BRANCH  24  26
ATOM     26  C   UNL A   1      42.280  20.529  26.518  1.00  0.00     0.060 A 
ATOM     27  C   UNL A   1      42.985  21.220  25.528  1.00  0.00     0.016 A 
ATOM     28  C   UNL A   1      42.105  21.124  27.776  1.00  0.00     0.016 A 
ATOM     29  C   UNL A   1      43.488  22.505  25.793  1.00  0.00     0.010 A 
ATOM     30  C   UNL A   1      42.599  22.411  28.034  1.00  0.00     0.010 A 
ATOM     31  C   UNL A   1      43.288  23.121  27.043  1.00  0.00    -0.014 A 
BRANCH  31  32
ATOM     32  C   UNL A   1      43.657  24.551  27.239  1.00  0.00     0.031 A 
ATOM     33  C   UNL A   1      42.645  25.651  27.367  1.00  0.00     0.074 A 
ATOM     34  C   UNL A   1      44.957  24.888  27.301  1.00  0.00     0.049 A 
ATOM     35  N   UNL A   1      42.794  26.840  27.899  1.00  0.00    -0.248 NA
ATOM     36  C   UNL A   1      41.299  25.393  26.859  1.00  0.00     0.031 C 
ATOM     37  C   UNL A   1      46.079  23.971  27.119  1.00  0.00     0.029 A 
ATOM     38  N   UNL A   1      45.548  26.109  27.515  1.00  0.00    -0.354 N 
ATOM     39  C   UNL A   1      41.524  27.394  27.942  1.00  0.00     0.074 A 
ATOM     40  C   UNL A   1      40.637  26.465  27.280  1.00  0.00     0.031 C 
ATOM     41  C   UNL A   1      47.226  24.665  27.209  1.00  0.00     0.029 A 
ATOM     42  C   UNL A   1      46.916  26.072  27.457  1.00  0.00     0.049 A 
ATOM     43  H   UNL A   1      45.037  26.931  27.694  1.00  0.00     0.167 HD
ATOM     44  C   UNL A   1      41.137  28.558  28.511  1.00  0.00     0.037 A 
ATOM     45  C   UNL A   1      47.818  27.063  27.582  1.00  0.00     0.037 A 
ATOM     46  C   UNL A   1      42.037  29.592  28.942  1.00  0.00     0.049 A 
ATOM     47  C   UNL A   1      47.365  28.457  27.920  1.00  0.00     0.074 A 
ATOM     48  C   UNL A   1      41.743  30.814  29.520  1.00  0.00     0.029 A 
ATOM     49  N   UNL A   1      43.405  29.564  28.737  1.00  0.00    -0.354 N 
ATOM     50  N   UNL A   1      46.166  28.884  28.228  1.00  0.00    -0.248 NA
ATOM     51  C   UNL A   1      48.397  29.504  27.939  1.00  0.00     0.031 C 
ATOM     52  C   UNL A   1      42.925  31.565  29.570  1.00  0.00     0.029 A 
ATOM     53  C   UNL A   1      43.960  30.786  29.077  1.00  0.00     0.049 A 
ATOM     54  H   UNL A   1      43.911  28.789  28.398  1.00  0.00     0.167 HD
ATOM     55  C   UNL A   1      46.302  30.238  28.509  1.00  0.00     0.074 A 
ATOM     56  C   UNL A   1      47.702  30.562  28.335  1.00  0.00     0.031 C 
ATOM     57  C   UNL A   1      45.347  31.124  28.890  1.00  0.00     0.037 A 
BRANCH  44  58
ATOM     58  C   UNL A   1      39.674  28.777  28.729  1.00  0.00     0.064 A 
ATOM     59  C   UNL A   1      39.115  28.512  29.989  1.00  0.00     0.173 A 
ATOM     60  C   UNL A   1      38.859  29.359  27.753  1.00  0.00     0.173 A 
ATOM     61  F   UNL A   1      39.866  27.977  30.964  1.00  0.00    -0.203 F 
ATOM     62  C   UNL A   1      37.786  28.819  30.261  1.00  0.00     0.198 A 
ATOM     63  C   UNL A   1      37.529  29.673  28.031  1.00  0.00     0.198 A 
ATOM     64  F   UNL A   1      39.359  29.651  26.543  1.00  0.00    -0.203 F 
ATOM     65  F   UNL A   1      37.273  28.555  31.471  1.00  0.00    -0.200 F 
ATOM     66  C   UNL A   1      36.995  29.403  29.283  1.00  0.00     0.200 A 
ATOM     67  F   UNL A   1      36.771  30.257  27.094  1.00  0.00    -0.200 F 
ATOM     68  F   UNL A   1      35.720  29.719  29.554  1.00  0.00    -0.200 F 
ENDBRANCH  44  58
BRANCH  45  69
ATOM     69  C   UNL A   1      49.255  26.755  27.390  1.00  0.00     0.064 A 
ATOM     70  C   UNL A   1      50.078  26.435  28.476  1.00  0.00     0.173 A 
ATOM     71  C   UNL A   1      49.826  26.755  26.108  1.00  0.00     0.173 A 
ATOM     72  F   UNL A   1      49.578  26.444  29.720  1.00  0.00    -0.203 F 
ATOM     73  C   UNL A   1      51.423  26.126  28.288  1.00  0.00     0.198 A 
ATOM     74  C   UNL A   1      51.164  26.423  25.919  1.00  0.00     0.198 A 
ATOM     75  F   UNL A   1      49.075  27.057  25.038  1.00  0.00    -0.203 F 
ATOM     76  F   UNL A   1      52.198  25.846  29.344  1.00  0.00    -0.200 F 
ATOM     77  C   UNL A   1      51.962  26.112  27.009  1.00  0.00     0.200 A 
ATOM     78  F   UNL A   1      51.678  26.400  24.681  1.00  0.00    -0.200 F 
ATOM     79  F   UNL A   1      53.254  25.803  26.828  1.00  0.00    -0.200 F 
ENDBRANCH  45  69
BRANCH  57  80
ATOM     80  C   UNL A   1      45.766  32.542  29.145  1.00  0.00     0.064 A 
ATOM     81  C   UNL A   1      46.288  32.939  30.384  1.00  0.00     0.173 A 
ATOM     82  C   UNL A   1      45.705  33.502  28.123  1.00  0.00     0.173 A 
ATOM     83  F   UNL A   1      46.355  32.065  31.400  1.00  0.00    -0.203 F 
ATOM     84  C   UNL A   1      46.720  34.247  30.595  1.00  0.00     0.198 A 
ATOM     85  C   UNL A   1      46.165  34.799  28.327  1.00  0.00     0.198 A 
ATOM     86  F   UNL A   1      45.219  33.173  26.915  1.00  0.00    -0.203 F 
ATOM     87  F   UNL A   1      47.180  34.612  31.799  1.00  0.00    -0.200 F 
ATOM     88  C   UNL A   1      46.667  35.173  29.564  1.00  0.00     0.200 A 
ATOM     89  F   UNL A   1      46.127  35.688  27.324  1.00  0.00    -0.200 F 
ATOM     90  F   UNL A   1      47.096  36.426  29.764  1.00  0.00    -0.200 F 
ENDBRANCH  57  80
ENDBRANCH  31  32
ENDBRANCH  24  26
ENDBRANCH  23  24
ENDBRANCH  22  23
ENDBRANCH   1  22
TORSDOF 15
ENDMDL
MODEL 3
REMARK VINA RESULT:     -11.5      5.463     10.612
REMARK SMILES O=C(Cc1csc(SC[C@@H]2Cc3ccccc3S2)n1)OCCOC(=O)c1ccc(-c2c3nc(c(-c4c(F)c(F)c(F)c(F)c4F)c4ccc([nH]4)c(-c4c(F)c(F)c(F)c(F)c4F)c4nc(c(-c5c(F)c(F)c(F)c(F)c5F)c5ccc2[nH]5)C=C4)C=C3)cc1
REMARK SMILES IDX 21 1 20 2 2 3 1 4 3 5 4 6 5 7 19 8 6 9 7 10 8 11 9 12 10 13
REMARK SMILES IDX 11 14 18 15 12 16 17 17 13 18 16 19 14 20 15 21 22 22 23 23
REMARK SMILES IDX 24 24 25 25 26 26 27 27 88 28 28 29 87 30 29 31 30 32 31 33
REMARK SMILES IDX 81 34 32 35 86 36 80 37 82 38 33 39 85 40 79 41 78 42 34 44
REMARK SMILES IDX 66 45 46 46 65 47 47 48 50 49 64 50 83 51 48 52 49 53 63 55
REMARK SMILES IDX 84 56 51 57 35 58 36 59 44 60 37 61 38 62 42 63 45 64 39 65
REMARK SMILES IDX 40 66 43 67 41 68 67 69 68 70 76 71 69 72 70 73 74 74 77 75
REMARK SMILES IDX 71 76 72 77 75 78 73 79 52 80 53 81 61 82 54 83 55 84 59 85
REMARK SMILES IDX 62 86 56 87 57 88 60 89 58 90
REMARK H PARENT 82 43 50 54
REMARK Flexibility Score: inf
ROOT
ATOM      1  C   UNL A   1      31.938  31.487  26.851  1.00  0.00     0.274 C 
ENDROOT
BRANCH   1   2
ATOM      2  O   UNL A   1      32.633  30.523  26.034  1.00  0.00    -0.462 OA
BRANCH   2   3
ATOM      3  C   UNL A   1      33.088  29.325  26.470  1.00  0.00     0.312 C 
ATOM      4  O   UNL A   1      34.219  28.946  26.167  1.00  0.00    -0.252 OA
BRANCH   3   5
ATOM      5  C   UNL A   1      32.154  28.447  27.252  1.00  0.00     0.179 C 
BRANCH   5   6
ATOM      6  C   UNL A   1      31.382  27.466  26.452  1.00  0.00     0.064 A 
ATOM      7  C   UNL A   1      30.824  27.675  25.204  1.00  0.00     0.092 A 
ATOM      8  N   UNL A   1      31.351  26.157  26.878  1.00  0.00    -0.234 NA
ATOM      9  S   UNL A   1      30.312  26.180  24.533  1.00  0.00    -0.116 S 
ATOM     10  C   UNL A   1      30.911  25.378  25.920  1.00  0.00     0.150 A 
BRANCH  10  11
ATOM     11  S   UNL A   1      31.017  23.646  26.056  1.00  0.00    -0.094 SA
BRANCH  11  12
ATOM     12  C   UNL A   1      32.734  23.437  26.667  1.00  0.00     0.092 C 
BRANCH  12  13
ATOM     13  C   UNL A   1      33.927  23.450  25.680  1.00  0.00     0.066 C 
ATOM     14  C   UNL A   1      34.545  24.830  25.372  1.00  0.00     0.052 C 
ATOM     15  S   UNL A   1      33.544  22.712  24.043  1.00  0.00    -0.121 SA
ATOM     16  C   UNL A   1      33.953  25.317  24.078  1.00  0.00    -0.033 A 
ATOM     17  C   UNL A   1      33.426  24.303  23.279  1.00  0.00     0.011 A 
ATOM     18  C   UNL A   1      33.972  26.629  23.613  1.00  0.00     0.005 A 
ATOM     19  C   UNL A   1      32.891  24.580  22.032  1.00  0.00     0.015 A 
ATOM     20  C   UNL A   1      33.442  26.919  22.356  1.00  0.00     0.000 A 
ATOM     21  C   UNL A   1      32.904  25.897  21.568  1.00  0.00     0.001 A 
ENDBRANCH  12  13
ENDBRANCH  11  12
ENDBRANCH  10  11
ENDBRANCH   5   6
ENDBRANCH   3   5
ENDBRANCH   2   3
ENDBRANCH   1   2
BRANCH   1  22
ATOM     22  C   UNL A   1      32.847  32.657  27.248  1.00  0.00     0.275 C 
BRANCH  22  23
ATOM     23  O   UNL A   1      32.158  33.594  28.106  1.00  0.00    -0.458 OA
BRANCH  23  24
ATOM     24  C   UNL A   1      32.903  34.608  28.618  1.00  0.00     0.338 C 
ATOM     25  O   UNL A   1      32.586  35.785  28.653  1.00  0.00    -0.246 OA
BRANCH  24  26
ATOM     26  C   UNL A   1      34.108  34.070  29.311  1.00  0.00     0.060 A 
ATOM     27  C   UNL A   1      34.033  33.329  30.495  1.00  0.00     0.016 A 
ATOM     28  C   UNL A   1      35.366  34.340  28.752  1.00  0.00     0.016 A 
ATOM     29  C   UNL A   1      35.207  32.846  31.097  1.00  0.00     0.010 A 
ATOM     30  C   UNL A   1      36.536  33.847  29.349  1.00  0.00     0.010 A 
ATOM     31  C   UNL A   1      36.470  33.086  30.523  1.00  0.00    -0.014 A 
BRANCH  31  32
ATOM     32  C   UNL A   1      37.678  32.404  31.066  1.00  0.00     0.031 A 
ATOM     33  C   UNL A   1      38.359  32.824  32.335  1.00  0.00     0.074 A 
ATOM     34  C   UNL A   1      38.199  31.363  30.393  1.00  0.00     0.049 A 
ATOM     35  N   UNL A   1      39.158  32.124  33.103  1.00  0.00    -0.248 NA
ATOM     36  C   UNL A   1      38.108  34.181  32.819  1.00  0.00     0.031 C 
ATOM     37  C   UNL A   1      37.723  30.864  29.105  1.00  0.00     0.029 A 
ATOM     38  N   UNL A   1      39.264  30.552  30.698  1.00  0.00    -0.354 N 
ATOM     39  C   UNL A   1      39.359  32.895  34.237  1.00  0.00     0.074 A 
ATOM     40  C   UNL A   1      38.697  34.159  34.010  1.00  0.00     0.031 C 
ATOM     41  C   UNL A   1      38.505  29.842  28.720  1.00  0.00     0.029 A 
ATOM     42  C   UNL A   1      39.534  29.617  29.734  1.00  0.00     0.049 A 
ATOM     43  H   UNL A   1      39.783  30.634  31.531  1.00  0.00     0.167 HD
ATOM     44  C   UNL A   1      40.011  32.560  35.373  1.00  0.00     0.037 A 
ATOM     45  C   UNL A   1      40.506  28.688  29.672  1.00  0.00     0.037 A 
ATOM     46  C   UNL A   1      40.875  31.420  35.509  1.00  0.00     0.049 A 
ATOM     47  C   UNL A   1      41.452  28.509  30.828  1.00  0.00     0.074 A 
ATOM     48  C   UNL A   1      41.592  31.000  36.615  1.00  0.00     0.029 A 
ATOM     49  N   UNL A   1      41.222  30.581  34.464  1.00  0.00    -0.354 N 
ATOM     50  N   UNL A   1      41.432  29.078  32.007  1.00  0.00    -0.248 NA
ATOM     51  C   UNL A   1      42.548  27.546  30.644  1.00  0.00     0.031 C 
ATOM     52  C   UNL A   1      42.450  29.968  36.210  1.00  0.00     0.029 A 
ATOM     53  C   UNL A   1      42.222  29.712  34.867  1.00  0.00     0.049 A 
ATOM     54  H   UNL A   1      40.819  30.600  33.565  1.00  0.00     0.167 HD
ATOM     55  C   UNL A   1      42.489  28.521  32.718  1.00  0.00     0.074 A 
ATOM     56  C   UNL A   1      43.129  27.569  31.836  1.00  0.00     0.031 C 
ATOM     57  C   UNL A   1      42.878  28.774  33.993  1.00  0.00     0.037 A 
BRANCH  44  58
ATOM     58  C   UNL A   1      39.803  33.419  36.579  1.00  0.00     0.064 A 
ATOM     59  C   UNL A   1      40.562  34.589  36.734  1.00  0.00     0.173 A 
ATOM     60  C   UNL A   1      38.785  33.164  37.503  1.00  0.00     0.173 A 
ATOM     61  F   UNL A   1      41.532  34.887  35.856  1.00  0.00    -0.203 F 
ATOM     62  C   UNL A   1      40.310  35.473  37.778  1.00  0.00     0.198 A 
ATOM     63  C   UNL A   1      38.529  34.055  38.544  1.00  0.00     0.198 A 
ATOM     64  F   UNL A   1      38.020  32.069  37.379  1.00  0.00    -0.203 F 
ATOM     65  F   UNL A   1      41.049  36.584  37.907  1.00  0.00    -0.200 F 
ATOM     66  C   UNL A   1      39.291  35.208  38.680  1.00  0.00     0.200 A 
ATOM     67  F   UNL A   1      37.531  33.811  39.403  1.00  0.00    -0.200 F 
ATOM     68  F   UNL A   1      39.034  36.071  39.673  1.00  0.00    -0.200 F 
ENDBRANCH  44  58
BRANCH  45  69
ATOM     69  C   UNL A   1      40.620  27.847  28.457  1.00  0.00     0.064 A 
ATOM     70  C   UNL A   1      39.967  26.613  28.367  1.00  0.00     0.173 A 
ATOM     71  C   UNL A   1      41.370  28.279  27.352  1.00  0.00     0.173 A 
ATOM     72  F   UNL A   1      39.256  26.155  29.407  1.00  0.00    -0.203 F 
ATOM     73  C   UNL A   1      40.060  25.837  27.215  1.00  0.00     0.198 A 
ATOM     74  C   UNL A   1      41.444  27.512  26.192  1.00  0.00     0.198 A 
ATOM     75  F   UNL A   1      42.014  29.454  27.395  1.00  0.00    -0.203 F 
ATOM     76  F   UNL A   1      39.446  24.647  27.159  1.00  0.00    -0.200 F 
ATOM     77  C   UNL A   1      40.792  26.291  26.126  1.00  0.00     0.200 A 
ATOM     78  F   UNL A   1      42.142  27.960  25.139  1.00  0.00    -0.200 F 
ATOM     79  F   UNL A   1      40.871  25.548  25.013  1.00  0.00    -0.200 F 
ENDBRANCH  45  69
BRANCH  57  80
ATOM     80  C   UNL A   1      44.058  28.020  34.530  1.00  0.00     0.064 A 
ATOM     81  C   UNL A   1      43.917  26.741  35.089  1.00  0.00     0.173 A 
ATOM     82  C   UNL A   1      45.354  28.550  34.430  1.00  0.00     0.173 A 
ATOM     83  F   UNL A   1      42.700  26.193  35.222  1.00  0.00    -0.203 F 
ATOM     84  C   UNL A   1      45.026  26.028  35.540  1.00  0.00     0.198 A 
ATOM     85  C   UNL A   1      46.463  27.824  34.853  1.00  0.00     0.198 A 
ATOM     86  F   UNL A   1      45.546  29.767  33.897  1.00  0.00    -0.203 F 
ATOM     87  F   UNL A   1      44.862  24.825  36.104  1.00  0.00    -0.200 F 
ATOM     88  C   UNL A   1      46.298  26.566  35.413  1.00  0.00     0.200 A 
ATOM     89  F   UNL A   1      47.692  28.339  34.715  1.00  0.00    -0.200 F 
ATOM     90  F   UNL A   1      47.365  25.873  35.834  1.00  0.00    -0.200 F 
ENDBRANCH  57  80
ENDBRANCH  31  32
ENDBRANCH  24  26
ENDBRANCH  23  24
ENDBRANCH  22  23
ENDBRANCH   1  22
TORSDOF 15
ENDMDL
