MODEL 1
REMARK VINA RESULT:     -12.2      0.000      0.000
REMARK SMILES N#Cc1ccc(C(=O)OCCOC(=O)c2ccc(-c3c4nc(c(-c5c(F)c(F)c(F)c(F)c5F)c5ccc([nH]5)c(-c5c(F)c(F)c(F)c(F)c5F)c5nc(c(-c6c(F)c(F)c(F)c(F)c6F)c6ccc3[nH]6)C=C5)C=C4)cc2)nc1/C=C/c1ccc(O)c(Cl)c1
REMARK SMILES IDX 10 1 9 2 7 3 8 4 6 5 3 6 4 7 79 8 5 9 78 10 2 11 1 12 80 13
REMARK SMILES IDX 81 14 82 15 83 16 89 17 84 18 87 19 85 20 88 21 86 22 11 24
REMARK SMILES IDX 12 25 13 26 14 27 15 28 16 29 77 30 17 31 76 32 18 33 19 34
REMARK SMILES IDX 20 35 70 36 21 37 75 38 69 39 71 40 22 41 74 42 68 43 67 44
REMARK SMILES IDX 23 46 55 47 35 48 54 49 36 50 39 51 53 52 72 53 37 54 38 55
REMARK SMILES IDX 52 57 73 58 40 59 24 60 25 61 33 62 26 63 27 64 31 65 34 66
REMARK SMILES IDX 28 67 29 68 32 69 30 70 56 71 57 72 65 73 58 74 59 75 63 76
REMARK SMILES IDX 66 77 60 78 61 79 64 80 62 81 41 82 42 83 50 84 43 85 44 86
REMARK SMILES IDX 48 87 51 88 45 89 46 90 49 91 47 92
REMARK H PARENT 86 23 71 45 39 56
REMARK Flexibility Score: inf
ROOT
ATOM      1  C   UNL A   1      31.524  29.629  24.490  1.00  0.00     0.275 C 
ENDROOT
BRANCH   1   2
ATOM      2  O   UNL A   1      31.650  28.956  23.218  1.00  0.00    -0.457 OA
BRANCH   2   3
ATOM      3  C   UNL A   1      30.764  27.952  22.973  1.00  0.00     0.357 C 
ATOM      4  O   UNL A   1      30.003  27.894  22.020  1.00  0.00    -0.244 OA
BRANCH   3   5
ATOM      5  C   UNL A   1      30.907  26.861  23.999  1.00  0.00     0.149 A 
ATOM      6  C   UNL A   1      31.307  24.875  25.856  1.00  0.00     0.078 A 
ATOM      7  C   UNL A   1      30.035  25.445  25.702  1.00  0.00     0.024 A 
ATOM      8  C   UNL A   1      32.355  25.342  25.060  1.00  0.00     0.082 A 
ATOM      9  C   UNL A   1      29.831  26.464  24.775  1.00  0.00     0.037 A 
ATOM     10  N   UNL A   1      32.149  26.296  24.110  1.00  0.00    -0.240 NA
BRANCH   6  11
ATOM     11  C   UNL A   1      31.484  23.816  26.804  1.00  0.00     0.101 C 
ATOM     12  N   UNL A   1      31.615  22.962  27.574  1.00  0.00    -0.192 NA
ENDBRANCH   6  11
BRANCH   8  13
ATOM     13  C   UNL A   1      33.754  24.869  25.228  1.00  0.00     0.030 C 
ATOM     14  C   UNL A   1      34.236  23.712  24.745  1.00  0.00     0.010 C 
BRANCH  14  15
ATOM     15  C   UNL A   1      35.625  23.265  24.927  1.00  0.00    -0.024 A 
ATOM     16  C   UNL A   1      36.071  22.056  24.371  1.00  0.00     0.012 A 
ATOM     17  C   UNL A   1      36.502  24.009  25.722  1.00  0.00     0.032 A 
ATOM     18  C   UNL A   1      37.347  21.561  24.657  1.00  0.00     0.048 A 
ATOM     19  C   UNL A   1      37.784  23.522  25.994  1.00  0.00     0.083 A 
ATOM     20  C   UNL A   1      38.196  22.292  25.476  1.00  0.00     0.134 A 
ATOM     21  Cl  UNL A   1      38.844  24.442  26.996  1.00  0.00    -0.080 Cl
BRANCH  20  22
ATOM     22  O   UNL A   1      39.426  21.760  25.749  1.00  0.00    -0.506 OA
ATOM     23  H   UNL A   1      40.099  21.781  25.098  1.00  0.00     0.293 HD
ENDBRANCH  20  22
ENDBRANCH  14  15
ENDBRANCH   8  13
ENDBRANCH   3   5
ENDBRANCH   2   3
ENDBRANCH   1   2
BRANCH   1  24
ATOM     24  C   UNL A   1      32.881  29.778  25.191  1.00  0.00     0.275 C 
BRANCH  24  25
ATOM     25  O   UNL A   1      32.732  29.978  26.609  1.00  0.00    -0.458 OA
BRANCH  25  26
ATOM     26  C   UNL A   1      33.235  31.142  27.076  1.00  0.00     0.338 C 
ATOM     27  O   UNL A   1      32.674  32.224  27.134  1.00  0.00    -0.246 OA
BRANCH  26  28
ATOM     28  C   UNL A   1      34.554  30.901  27.673  1.00  0.00     0.060 A 
ATOM     29  C   UNL A   1      34.850  29.594  28.032  1.00  0.00     0.016 A 
ATOM     30  C   UNL A   1      35.444  31.929  27.983  1.00  0.00     0.016 A 
ATOM     31  C   UNL A   1      35.999  29.309  28.748  1.00  0.00     0.010 A 
ATOM     32  C   UNL A   1      36.630  31.628  28.677  1.00  0.00     0.010 A 
ATOM     33  C   UNL A   1      36.906  30.313  29.091  1.00  0.00    -0.014 A 
BRANCH  33  34
ATOM     34  C   UNL A   1      38.071  29.947  29.946  1.00  0.00     0.031 A 
ATOM     35  C   UNL A   1      39.192  29.118  29.379  1.00  0.00     0.074 A 
ATOM     36  C   UNL A   1      38.208  30.485  31.176  1.00  0.00     0.049 A 
ATOM     37  N   UNL A   1      40.265  28.654  29.971  1.00  0.00    -0.248 NA
ATOM     38  C   UNL A   1      39.108  28.782  27.949  1.00  0.00     0.031 C 
ATOM     39  C   UNL A   1      37.271  31.424  31.797  1.00  0.00     0.029 A 
ATOM     40  N   UNL A   1      39.208  30.355  32.109  1.00  0.00    -0.354 N 
ATOM     41  C   UNL A   1      40.954  27.933  29.004  1.00  0.00     0.074 A 
ATOM     42  C   UNL A   1      40.182  28.024  27.783  1.00  0.00     0.031 C 
ATOM     43  C   UNL A   1      37.764  31.823  32.977  1.00  0.00     0.029 A 
ATOM     44  C   UNL A   1      38.990  31.084  33.254  1.00  0.00     0.049 A 
ATOM     45  H   UNL A   1      40.006  29.795  31.971  1.00  0.00     0.167 HD
ATOM     46  C   UNL A   1      42.118  27.251  29.129  1.00  0.00     0.037 A 
ATOM     47  C   UNL A   1      39.665  31.113  34.418  1.00  0.00     0.037 A 
ATOM     48  C   UNL A   1      42.896  27.190  30.341  1.00  0.00     0.049 A 
ATOM     49  C   UNL A   1      40.889  30.251  34.569  1.00  0.00     0.074 A 
ATOM     50  C   UNL A   1      44.073  26.502  30.576  1.00  0.00     0.029 A 
ATOM     51  N   UNL A   1      42.578  27.850  31.520  1.00  0.00    -0.354 N 
ATOM     52  N   UNL A   1      41.484  29.494  33.681  1.00  0.00    -0.248 NA
ATOM     53  C   UNL A   1      41.523  30.230  35.895  1.00  0.00     0.031 C 
ATOM     54  C   UNL A   1      44.428  26.684  31.917  1.00  0.00     0.029 A 
ATOM     55  C   UNL A   1      43.517  27.552  32.496  1.00  0.00     0.049 A 
ATOM     56  H   UNL A   1      41.801  28.441  31.645  1.00  0.00     0.167 HD
ATOM     57  C   UNL A   1      42.579  28.936  34.326  1.00  0.00     0.074 A 
ATOM     58  C   UNL A   1      42.571  29.448  35.680  1.00  0.00     0.031 C 
ATOM     59  C   UNL A   1      43.506  28.073  33.840  1.00  0.00     0.037 A 
BRANCH  46  60
ATOM     60  C   UNL A   1      42.588  26.448  27.949  1.00  0.00     0.064 A 
ATOM     61  C   UNL A   1      42.225  25.106  27.758  1.00  0.00     0.173 A 
ATOM     62  C   UNL A   1      43.396  27.051  26.970  1.00  0.00     0.173 A 
ATOM     63  F   UNL A   1      41.469  24.474  28.668  1.00  0.00    -0.203 F 
ATOM     64  C   UNL A   1      42.677  24.393  26.648  1.00  0.00     0.198 A 
ATOM     65  C   UNL A   1      43.815  26.346  25.846  1.00  0.00     0.198 A 
ATOM     66  F   UNL A   1      43.769  28.333  27.099  1.00  0.00    -0.203 F 
ATOM     67  F   UNL A   1      42.364  23.096  26.514  1.00  0.00    -0.200 F 
ATOM     68  C   UNL A   1      43.464  25.015  25.690  1.00  0.00     0.200 A 
ATOM     69  F   UNL A   1      44.561  26.957  24.914  1.00  0.00    -0.200 F 
ATOM     70  F   UNL A   1      43.890  24.330  24.620  1.00  0.00    -0.200 F 
ENDBRANCH  46  60
BRANCH  47  71
ATOM     71  C   UNL A   1      39.153  31.922  35.560  1.00  0.00     0.064 A 
ATOM     72  C   UNL A   1      39.527  33.261  35.737  1.00  0.00     0.173 A 
ATOM     73  C   UNL A   1      38.300  31.355  36.521  1.00  0.00     0.173 A 
ATOM     74  F   UNL A   1      40.365  33.845  34.866  1.00  0.00    -0.203 F 
ATOM     75  C   UNL A   1      39.085  33.993  36.838  1.00  0.00     0.198 A 
ATOM     76  C   UNL A   1      37.825  32.099  37.598  1.00  0.00     0.198 A 
ATOM     77  F   UNL A   1      37.917  30.074  36.411  1.00  0.00    -0.203 F 
ATOM     78  F   UNL A   1      39.509  35.252  37.018  1.00  0.00    -0.200 F 
ATOM     79  C   UNL A   1      38.228  33.415  37.763  1.00  0.00     0.200 A 
ATOM     80  F   UNL A   1      36.984  31.539  38.478  1.00  0.00    -0.200 F 
ATOM     81  F   UNL A   1      37.802  34.119  38.819  1.00  0.00    -0.200 F 
ENDBRANCH  47  71
BRANCH  59  82
ATOM     82  C   UNL A   1      44.621  27.665  34.760  1.00  0.00     0.064 A 
ATOM     83  C   UNL A   1      45.803  28.413  34.872  1.00  0.00     0.173 A 
ATOM     84  C   UNL A   1      44.487  26.527  35.570  1.00  0.00     0.173 A 
ATOM     85  F   UNL A   1      45.989  29.501  34.111  1.00  0.00    -0.203 F 
ATOM     86  C   UNL A   1      46.819  28.020  35.740  1.00  0.00     0.198 A 
ATOM     87  C   UNL A   1      45.489  26.159  36.464  1.00  0.00     0.198 A 
ATOM     88  F   UNL A   1      43.375  25.779  35.510  1.00  0.00    -0.203 F 
ATOM     89  F   UNL A   1      47.962  28.719  35.789  1.00  0.00    -0.200 F 
ATOM     90  C   UNL A   1      46.658  26.900  36.540  1.00  0.00     0.200 A 
ATOM     91  F   UNL A   1      45.322  25.087  37.251  1.00  0.00    -0.200 F 
ATOM     92  F   UNL A   1      47.633  26.530  37.383  1.00  0.00    -0.200 F 
ENDBRANCH  59  82
ENDBRANCH  33  34
ENDBRANCH  26  28
ENDBRANCH  25  26
ENDBRANCH  24  25
ENDBRANCH   1  24
TORSDOF 15
ENDMDL
MODEL 2
REMARK VINA RESULT:     -12.1      5.855      9.720
REMARK SMILES N#Cc1ccc(C(=O)OCCOC(=O)c2ccc(-c3c4nc(c(-c5c(F)c(F)c(F)c(F)c5F)c5ccc([nH]5)c(-c5c(F)c(F)c(F)c(F)c5F)c5nc(c(-c6c(F)c(F)c(F)c(F)c6F)c6ccc3[nH]6)C=C5)C=C4)cc2)nc1/C=C/c1ccc(O)c(Cl)c1
REMARK SMILES IDX 10 1 9 2 7 3 8 4 6 5 3 6 4 7 79 8 5 9 78 10 2 11 1 12 80 13
REMARK SMILES IDX 81 14 82 15 83 16 89 17 84 18 87 19 85 20 88 21 86 22 11 24
REMARK SMILES IDX 12 25 13 26 14 27 15 28 16 29 77 30 17 31 76 32 18 33 19 34
REMARK SMILES IDX 20 35 70 36 21 37 75 38 69 39 71 40 22 41 74 42 68 43 67 44
REMARK SMILES IDX 23 46 55 47 35 48 54 49 36 50 39 51 53 52 72 53 37 54 38 55
REMARK SMILES IDX 52 57 73 58 40 59 24 60 25 61 33 62 26 63 27 64 31 65 34 66
REMARK SMILES IDX 28 67 29 68 32 69 30 70 56 71 57 72 65 73 58 74 59 75 63 76
REMARK SMILES IDX 66 77 60 78 61 79 64 80 62 81 41 82 42 83 50 84 43 85 44 86
REMARK SMILES IDX 48 87 51 88 45 89 46 90 49 91 47 92
REMARK H PARENT 86 23 71 45 39 56
REMARK Flexibility Score: inf
ROOT
ATOM      1  C   UNL A   1      41.925  19.343  27.097  1.00  0.00     0.275 C 
ENDROOT
BRANCH   1   2
ATOM      2  O   UNL A   1      41.187  20.420  26.477  1.00  0.00    -0.457 OA
BRANCH   2   3
ATOM      3  C   UNL A   1      41.095  21.579  27.185  1.00  0.00     0.357 C 
ATOM      4  O   UNL A   1      41.937  22.005  27.959  1.00  0.00    -0.244 OA
BRANCH   3   5
ATOM      5  C   UNL A   1      39.841  22.323  26.817  1.00  0.00     0.149 A 
ATOM      6  C   UNL A   1      37.497  23.564  26.096  1.00  0.00     0.078 A 
ATOM      7  C   UNL A   1      38.438  24.246  26.880  1.00  0.00     0.024 A 
ATOM      8  C   UNL A   1      37.771  22.252  25.704  1.00  0.00     0.082 A 
ATOM      9  C   UNL A   1      39.620  23.616  27.263  1.00  0.00     0.037 A 
ATOM     10  N   UNL A   1      38.949  21.651  26.025  1.00  0.00    -0.240 NA
BRANCH   6  11
ATOM     11  C   UNL A   1      36.299  24.243  25.702  1.00  0.00     0.101 C 
ATOM     12  N   UNL A   1      35.326  24.790  25.394  1.00  0.00    -0.192 NA
ENDBRANCH   6  11
BRANCH   8  13
ATOM     13  C   UNL A   1      36.787  21.421  24.962  1.00  0.00     0.030 C 
ATOM     14  C   UNL A   1      35.619  20.986  25.463  1.00  0.00     0.010 C 
BRANCH  14  15
ATOM     15  C   UNL A   1      34.662  20.162  24.708  1.00  0.00    -0.024 A 
ATOM     16  C   UNL A   1      33.495  20.727  24.170  1.00  0.00     0.012 A 
ATOM     17  C   UNL A   1      34.868  18.786  24.583  1.00  0.00     0.032 A 
ATOM     18  C   UNL A   1      32.517  19.924  23.574  1.00  0.00     0.048 A 
ATOM     19  C   UNL A   1      33.898  17.985  23.972  1.00  0.00     0.083 A 
ATOM     20  C   UNL A   1      32.718  18.553  23.487  1.00  0.00     0.134 A 
ATOM     21  Cl  UNL A   1      34.160  16.285  23.847  1.00  0.00    -0.080 Cl
BRANCH  20  22
ATOM     22  O   UNL A   1      31.727  17.803  22.918  1.00  0.00    -0.506 OA
ATOM     23  H   UNL A   1      30.829  18.010  23.085  1.00  0.00     0.293 HD
ENDBRANCH  20  22
ENDBRANCH  14  15
ENDBRANCH   8  13
ENDBRANCH   3   5
ENDBRANCH   2   3
ENDBRANCH   1   2
BRANCH   1  24
ATOM     24  C   UNL A   1      42.709  18.523  26.064  1.00  0.00     0.275 C 
BRANCH  24  25
ATOM     25  O   UNL A   1      42.986  19.285  24.874  1.00  0.00    -0.458 OA
BRANCH  25  26
ATOM     26  C   UNL A   1      44.298  19.447  24.595  1.00  0.00     0.338 C 
ATOM     27  O   UNL A   1      45.058  18.632  24.097  1.00  0.00    -0.246 OA
BRANCH  26  28
ATOM     28  C   UNL A   1      44.681  20.844  24.836  1.00  0.00     0.060 A 
ATOM     29  C   UNL A   1      45.192  21.146  26.089  1.00  0.00     0.016 A 
ATOM     30  C   UNL A   1      44.451  21.862  23.911  1.00  0.00     0.016 A 
ATOM     31  C   UNL A   1      45.421  22.461  26.451  1.00  0.00     0.010 A 
ATOM     32  C   UNL A   1      44.723  23.194  24.270  1.00  0.00     0.010 A 
ATOM     33  C   UNL A   1      45.187  23.510  25.559  1.00  0.00    -0.014 A 
BRANCH  33  34
ATOM     34  C   UNL A   1      45.364  24.905  26.051  1.00  0.00     0.031 A 
ATOM     35  C   UNL A   1      46.677  25.614  25.853  1.00  0.00     0.074 A 
ATOM     36  C   UNL A   1      44.309  25.597  26.529  1.00  0.00     0.049 A 
ATOM     37  N   UNL A   1      47.046  26.807  26.251  1.00  0.00    -0.248 NA
ATOM     38  C   UNL A   1      47.708  24.895  25.089  1.00  0.00     0.031 C 
ATOM     39  C   UNL A   1      42.941  25.085  26.638  1.00  0.00     0.029 A 
ATOM     40  N   UNL A   1      44.209  26.894  26.972  1.00  0.00    -0.354 N 
ATOM     41  C   UNL A   1      48.361  26.960  25.831  1.00  0.00     0.074 A 
ATOM     42  C   UNL A   1      48.727  25.741  25.142  1.00  0.00     0.031 C 
ATOM     43  C   UNL A   1      42.135  26.066  27.065  1.00  0.00     0.029 A 
ATOM     44  C   UNL A   1      42.940  27.241  27.373  1.00  0.00     0.049 A 
ATOM     45  H   UNL A   1      44.972  27.515  27.000  1.00  0.00     0.167 HD
ATOM     46  C   UNL A   1      49.189  28.018  26.012  1.00  0.00     0.037 A 
ATOM     47  C   UNL A   1      42.484  28.357  27.973  1.00  0.00     0.037 A 
ATOM     48  C   UNL A   1      48.806  29.241  26.674  1.00  0.00     0.049 A 
ATOM     49  C   UNL A   1      43.453  29.468  28.272  1.00  0.00     0.074 A 
ATOM     50  C   UNL A   1      49.581  30.358  26.933  1.00  0.00     0.029 A 
ATOM     51  N   UNL A   1      47.540  29.510  27.173  1.00  0.00    -0.354 N 
ATOM     52  N   UNL A   1      44.721  29.570  27.958  1.00  0.00    -0.248 NA
ATOM     53  C   UNL A   1      42.930  30.614  29.030  1.00  0.00     0.031 C 
ATOM     54  C   UNL A   1      48.805  31.272  27.654  1.00  0.00     0.029 A 
ATOM     55  C   UNL A   1      47.524  30.759  27.773  1.00  0.00     0.049 A 
ATOM     56  H   UNL A   1      46.767  28.903  27.110  1.00  0.00     0.167 HD
ATOM     57  C   UNL A   1      45.139  30.800  28.447  1.00  0.00     0.074 A 
ATOM     58  C   UNL A   1      43.987  31.414  29.072  1.00  0.00     0.031 C 
ATOM     59  C   UNL A   1      46.369  31.367  28.386  1.00  0.00     0.037 A 
BRANCH  46  60
ATOM     60  C   UNL A   1      50.615  27.877  25.561  1.00  0.00     0.064 A 
ATOM     61  C   UNL A   1      51.006  28.070  24.227  1.00  0.00     0.173 A 
ATOM     62  C   UNL A   1      51.617  27.572  26.497  1.00  0.00     0.173 A 
ATOM     63  F   UNL A   1      50.089  28.347  23.288  1.00  0.00    -0.203 F 
ATOM     64  C   UNL A   1      52.340  27.934  23.845  1.00  0.00     0.198 A 
ATOM     65  C   UNL A   1      52.953  27.474  26.118  1.00  0.00     0.198 A 
ATOM     66  F   UNL A   1      51.302  27.382  27.787  1.00  0.00    -0.203 F 
ATOM     67  F   UNL A   1      52.682  28.069  22.556  1.00  0.00    -0.200 F 
ATOM     68  C   UNL A   1      53.312  27.645  24.791  1.00  0.00     0.200 A 
ATOM     69  F   UNL A   1      53.891  27.210  27.039  1.00  0.00    -0.200 F 
ATOM     70  F   UNL A   1      54.595  27.524  24.422  1.00  0.00    -0.200 F 
ENDBRANCH  46  60
BRANCH  47  71
ATOM     71  C   UNL A   1      41.061  28.444  28.407  1.00  0.00     0.064 A 
ATOM     72  C   UNL A   1      40.069  28.967  27.567  1.00  0.00     0.173 A 
ATOM     73  C   UNL A   1      40.672  28.034  29.692  1.00  0.00     0.173 A 
ATOM     74  F   UNL A   1      40.389  29.403  26.339  1.00  0.00    -0.203 F 
ATOM     75  C   UNL A   1      38.750  29.094  28.003  1.00  0.00     0.198 A 
ATOM     76  C   UNL A   1      39.347  28.122  30.112  1.00  0.00     0.198 A 
ATOM     77  F   UNL A   1      41.580  27.536  30.545  1.00  0.00    -0.203 F 
ATOM     78  F   UNL A   1      37.833  29.656  27.203  1.00  0.00    -0.200 F 
ATOM     79  C   UNL A   1      38.388  28.663  29.271  1.00  0.00     0.200 A 
ATOM     80  F   UNL A   1      39.002  27.688  31.332  1.00  0.00    -0.200 F 
ATOM     81  F   UNL A   1      37.121  28.784  29.688  1.00  0.00    -0.200 F 
ENDBRANCH  47  71
BRANCH  59  82
ATOM     82  C   UNL A   1      46.525  32.744  28.965  1.00  0.00     0.064 A 
ATOM     83  C   UNL A   1      46.925  32.950  30.294  1.00  0.00     0.173 A 
ATOM     84  C   UNL A   1      46.309  33.876  28.163  1.00  0.00     0.173 A 
ATOM     85  F   UNL A   1      47.131  31.904  31.108  1.00  0.00    -0.203 F 
ATOM     86  C   UNL A   1      47.073  34.237  30.806  1.00  0.00     0.198 A 
ATOM     87  C   UNL A   1      46.494  35.160  28.667  1.00  0.00     0.198 A 
ATOM     88  F   UNL A   1      45.933  33.738  26.883  1.00  0.00    -0.203 F 
ATOM     89  F   UNL A   1      47.400  34.410  32.094  1.00  0.00    -0.200 F 
ATOM     90  C   UNL A   1      46.866  35.340  29.991  1.00  0.00     0.200 A 
ATOM     91  F   UNL A   1      46.313  36.223  27.872  1.00  0.00    -0.200 F 
ATOM     92  F   UNL A   1      47.020  36.577  30.482  1.00  0.00    -0.200 F 
ENDBRANCH  59  82
ENDBRANCH  33  34
ENDBRANCH  26  28
ENDBRANCH  25  26
ENDBRANCH  24  25
ENDBRANCH   1  24
TORSDOF 15
ENDMDL
MODEL 3
REMARK VINA RESULT:     -12.1      3.473      9.111
REMARK SMILES N#Cc1ccc(C(=O)OCCOC(=O)c2ccc(-c3c4nc(c(-c5c(F)c(F)c(F)c(F)c5F)c5ccc([nH]5)c(-c5c(F)c(F)c(F)c(F)c5F)c5nc(c(-c6c(F)c(F)c(F)c(F)c6F)c6ccc3[nH]6)C=C5)C=C4)cc2)nc1/C=C/c1ccc(O)c(Cl)c1
REMARK SMILES IDX 10 1 9 2 7 3 8 4 6 5 3 6 4 7 79 8 5 9 78 10 2 11 1 12 80 13
REMARK SMILES IDX 81 14 82 15 83 16 89 17 84 18 87 19 85 20 88 21 86 22 11 24
REMARK SMILES IDX 12 25 13 26 14 27 15 28 16 29 77 30 17 31 76 32 18 33 19 34
REMARK SMILES IDX 20 35 70 36 21 37 75 38 69 39 71 40 22 41 74 42 68 43 67 44
REMARK SMILES IDX 23 46 55 47 35 48 54 49 36 50 39 51 53 52 72 53 37 54 38 55
REMARK SMILES IDX 52 57 73 58 40 59 24 60 25 61 33 62 26 63 27 64 31 65 34 66
REMARK SMILES IDX 28 67 29 68 32 69 30 70 56 71 57 72 65 73 58 74 59 75 63 76
REMARK SMILES IDX 66 77 60 78 61 79 64 80 62 81 41 82 42 83 50 84 43 85 44 86
REMARK SMILES IDX 48 87 51 88 45 89 46 90 49 91 47 92
REMARK H PARENT 86 23 71 45 39 56
REMARK Flexibility Score: inf
ROOT
ATOM      1  C   UNL A   1      33.981  35.177  28.418  1.00  0.00     0.275 C 
ENDROOT
BRANCH   1   2
ATOM      2  O   UNL A   1      34.008  33.765  28.726  1.00  0.00    -0.457 OA
BRANCH   2   3
ATOM      3  C   UNL A   1      35.196  33.127  28.543  1.00  0.00     0.357 C 
ATOM      4  O   UNL A   1      36.293  33.570  28.845  1.00  0.00    -0.244 OA
BRANCH   3   5
ATOM      5  C   UNL A   1      34.972  31.744  27.994  1.00  0.00     0.149 A 
ATOM      6  C   UNL A   1      34.444  29.264  26.935  1.00  0.00     0.078 A 
ATOM      7  C   UNL A   1      35.697  29.529  27.507  1.00  0.00     0.024 A 
ATOM      8  C   UNL A   1      33.487  30.280  26.909  1.00  0.00     0.082 A 
ATOM      9  C   UNL A   1      35.976  30.790  28.029  1.00  0.00     0.037 A 
ATOM     10  N   UNL A   1      33.732  31.496  27.470  1.00  0.00    -0.240 NA
BRANCH   6  11
ATOM     11  C   UNL A   1      34.179  27.953  26.423  1.00  0.00     0.101 C 
ATOM     12  N   UNL A   1      33.954  26.898  26.002  1.00  0.00    -0.192 NA
ENDBRANCH   6  11
BRANCH   8  13
ATOM     13  C   UNL A   1      32.173  30.119  26.232  1.00  0.00     0.030 C 
ATOM     14  C   UNL A   1      32.010  29.726  24.957  1.00  0.00     0.010 C 
BRANCH  14  15
ATOM     15  C   UNL A   1      30.699  29.575  24.310  1.00  0.00    -0.024 A 
ATOM     16  C   UNL A   1      30.288  28.336  23.795  1.00  0.00     0.012 A 
ATOM     17  C   UNL A   1      29.872  30.689  24.132  1.00  0.00     0.032 A 
ATOM     18  C   UNL A   1      29.106  28.221  23.056  1.00  0.00     0.048 A 
ATOM     19  C   UNL A   1      28.682  30.570  23.409  1.00  0.00     0.083 A 
ATOM     20  C   UNL A   1      28.312  29.341  22.857  1.00  0.00     0.134 A 
ATOM     21  Cl  UNL A   1      27.687  31.960  23.181  1.00  0.00    -0.080 Cl
BRANCH  20  22
ATOM     22  O   UNL A   1      27.177  29.189  22.111  1.00  0.00    -0.506 OA
ATOM     23  H   UNL A   1      27.061  29.691  21.328  1.00  0.00     0.293 HD
ENDBRANCH  20  22
ENDBRANCH  14  15
ENDBRANCH   8  13
ENDBRANCH   3   5
ENDBRANCH   2   3
ENDBRANCH   1   2
BRANCH   1  24
ATOM     24  C   UNL A   1      32.950  35.926  29.270  1.00  0.00     0.275 C 
BRANCH  24  25
ATOM     25  O   UNL A   1      32.500  35.133  30.386  1.00  0.00    -0.458 OA
BRANCH  25  26
ATOM     26  C   UNL A   1      32.723  35.682  31.601  1.00  0.00     0.338 C 
ATOM     27  O   UNL A   1      32.053  36.531  32.166  1.00  0.00    -0.246 OA
BRANCH  26  28
ATOM     28  C   UNL A   1      33.840  34.988  32.254  1.00  0.00     0.060 A 
ATOM     29  C   UNL A   1      35.095  35.564  32.125  1.00  0.00     0.016 A 
ATOM     30  C   UNL A   1      33.699  33.752  32.882  1.00  0.00     0.016 A 
ATOM     31  C   UNL A   1      36.220  34.891  32.568  1.00  0.00     0.010 A 
ATOM     32  C   UNL A   1      34.841  33.090  33.366  1.00  0.00     0.010 A 
ATOM     33  C   UNL A   1      36.122  33.644  33.188  1.00  0.00    -0.014 A 
BRANCH  33  34
ATOM     34  C   UNL A   1      37.382  32.936  33.549  1.00  0.00     0.031 A 
ATOM     35  C   UNL A   1      38.009  33.155  34.901  1.00  0.00     0.074 A 
ATOM     36  C   UNL A   1      37.882  31.978  32.740  1.00  0.00     0.049 A 
ATOM     37  N   UNL A   1      39.127  32.673  35.386  1.00  0.00    -0.248 NA
ATOM     38  C   UNL A   1      37.272  34.014  35.840  1.00  0.00     0.031 C 
ATOM     39  C   UNL A   1      37.292  31.555  31.468  1.00  0.00     0.029 A 
ATOM     40  N   UNL A   1      38.972  31.156  32.886  1.00  0.00    -0.354 N 
ATOM     41  C   UNL A   1      39.251  33.208  36.662  1.00  0.00     0.074 A 
ATOM     42  C   UNL A   1      38.092  34.048  36.881  1.00  0.00     0.031 C 
ATOM     43  C   UNL A   1      37.994  30.524  30.978  1.00  0.00     0.029 A 
ATOM     44  C   UNL A   1      39.148  30.286  31.835  1.00  0.00     0.049 A 
ATOM     45  H   UNL A   1      39.570  31.185  33.667  1.00  0.00     0.167 HD
ATOM     46  C   UNL A   1      40.246  33.022  37.563  1.00  0.00     0.037 A 
ATOM     47  C   UNL A   1      40.154  29.434  31.561  1.00  0.00     0.037 A 
ATOM     48  C   UNL A   1      41.382  32.160  37.349  1.00  0.00     0.049 A 
ATOM     49  C   UNL A   1      41.306  29.337  32.523  1.00  0.00     0.074 A 
ATOM     50  C   UNL A   1      42.457  31.928  38.189  1.00  0.00     0.029 A 
ATOM     51  N   UNL A   1      41.585  31.383  36.218  1.00  0.00    -0.354 N 
ATOM     52  N   UNL A   1      41.467  29.919  33.686  1.00  0.00    -0.248 NA
ATOM     53  C   UNL A   1      42.431  28.480  32.122  1.00  0.00     0.031 C 
ATOM     54  C   UNL A   1      43.347  31.069  37.535  1.00  0.00     0.029 A 
ATOM     55  C   UNL A   1      42.787  30.701  36.322  1.00  0.00     0.049 A 
ATOM     56  H   UNL A   1      40.966  31.325  35.454  1.00  0.00     0.167 HD
ATOM     57  C   UNL A   1      42.689  29.473  34.171  1.00  0.00     0.074 A 
ATOM     58  C   UNL A   1      43.225  28.565  33.180  1.00  0.00     0.031 C 
ATOM     59  C   UNL A   1      43.310  29.792  35.333  1.00  0.00     0.037 A 
BRANCH  46  60
ATOM     60  C   UNL A   1      40.198  33.822  38.834  1.00  0.00     0.064 A 
ATOM     61  C   UNL A   1      40.861  35.049  38.978  1.00  0.00     0.173 A 
ATOM     62  C   UNL A   1      39.439  33.359  39.922  1.00  0.00     0.173 A 
ATOM     63  F   UNL A   1      41.614  35.532  37.978  1.00  0.00    -0.203 F 
ATOM     64  C   UNL A   1      40.791  35.766  40.172  1.00  0.00     0.198 A 
ATOM     65  C   UNL A   1      39.341  34.096  41.099  1.00  0.00     0.198 A 
ATOM     66  F   UNL A   1      38.778  32.194  39.839  1.00  0.00    -0.203 F 
ATOM     67  F   UNL A   1      41.478  36.910  40.306  1.00  0.00    -0.200 F 
ATOM     68  C   UNL A   1      40.025  35.294  41.227  1.00  0.00     0.200 A 
ATOM     69  F   UNL A   1      38.586  33.642  42.110  1.00  0.00    -0.200 F 
ATOM     70  F   UNL A   1      39.951  35.989  42.371  1.00  0.00    -0.200 F 
ENDBRANCH  46  60
BRANCH  47  71
ATOM     71  C   UNL A   1      40.157  28.667  30.283  1.00  0.00     0.064 A 
ATOM     72  C   UNL A   1      40.739  29.186  29.119  1.00  0.00     0.173 A 
ATOM     73  C   UNL A   1      39.544  27.407  30.195  1.00  0.00     0.173 A 
ATOM     74  F   UNL A   1      41.313  30.399  29.137  1.00  0.00    -0.203 F 
ATOM     75  C   UNL A   1      40.690  28.484  27.915  1.00  0.00     0.198 A 
ATOM     76  C   UNL A   1      39.532  26.688  29.003  1.00  0.00     0.198 A 
ATOM     77  F   UNL A   1      38.960  26.864  31.274  1.00  0.00    -0.203 F 
ATOM     78  F   UNL A   1      41.198  29.031  26.802  1.00  0.00    -0.200 F 
ATOM     79  C   UNL A   1      40.094  27.232  27.860  1.00  0.00     0.200 A 
ATOM     80  F   UNL A   1      38.969  25.473  28.961  1.00  0.00    -0.200 F 
ATOM     81  F   UNL A   1      40.050  26.558  26.703  1.00  0.00    -0.200 F 
ENDBRANCH  47  71
BRANCH  59  82
ATOM     82  C   UNL A   1      44.620  29.116  35.625  1.00  0.00     0.064 A 
ATOM     83  C   UNL A   1      45.850  29.702  35.288  1.00  0.00     0.173 A 
ATOM     84  C   UNL A   1      44.644  27.879  36.288  1.00  0.00     0.173 A 
ATOM     85  F   UNL A   1      45.884  30.876  34.641  1.00  0.00    -0.203 F 
ATOM     86  C   UNL A   1      47.051  29.060  35.578  1.00  0.00     0.198 A 
ATOM     87  C   UNL A   1      45.848  27.259  36.610  1.00  0.00     0.198 A 
ATOM     88  F   UNL A   1      43.499  27.277  36.641  1.00  0.00    -0.203 F 
ATOM     89  F   UNL A   1      48.212  29.612  35.196  1.00  0.00    -0.200 F 
ATOM     90  C   UNL A   1      47.051  27.845  36.245  1.00  0.00     0.200 A 
ATOM     91  F   UNL A   1      45.844  26.094  37.273  1.00  0.00    -0.200 F 
ATOM     92  F   UNL A   1      48.208  27.235  36.533  1.00  0.00    -0.200 F 
ENDBRANCH  59  82
ENDBRANCH  33  34
ENDBRANCH  26  28
ENDBRANCH  25  26
ENDBRANCH  24  25
ENDBRANCH   1  24
TORSDOF 15
ENDMDL
