MODEL 1
REMARK VINA RESULT:     -12.8      0.000      0.000
REMARK SMILES O=C(C[NH+]1CCN(c2nccc(N3CCCCC3)n2)CC1)OCCOC(=O)c1ccc(-c2c3nc(c(-c4c(F)c(F)c(F)c(F)c4F)c4ccc([nH]4)c(-c4c(F)c(F)c(F)c(F)c4F)c4nc(c(-c5c(F)c(F)c(F)c(F)c5F)c5ccc2[nH]5)C=C4)C=C3)cc1
REMARK SMILES IDX 23 1 22 2 2 3 1 4 3 5 4 6 5 7 21 8 6 10 20 11 7 12 8 13 9 14
REMARK SMILES IDX 19 15 10 16 12 17 11 18 13 19 14 20 18 21 15 22 17 23 16 24
REMARK SMILES IDX 24 25 25 26 26 27 27 28 28 29 29 30 90 31 30 32 89 33 31 34
REMARK SMILES IDX 32 35 33 36 83 37 34 38 88 39 82 40 84 41 35 42 87 43 81 44
REMARK SMILES IDX 80 45 36 47 68 48 48 49 67 50 49 51 52 52 66 53 85 54 50 55
REMARK SMILES IDX 51 56 65 58 86 59 53 60 37 61 38 62 46 63 39 64 40 65 44 66
REMARK SMILES IDX 47 67 41 68 42 69 45 70 43 71 69 72 70 73 78 74 71 75 72 76
REMARK SMILES IDX 76 77 79 78 73 79 74 80 77 81 75 82 54 83 55 84 63 85 56 86
REMARK SMILES IDX 57 87 61 88 64 89 58 90 59 91 62 92 60 93
REMARK H PARENT 4 9 84 46 52 57
REMARK Flexibility Score: inf
ROOT
ATOM      1  C   UNL A   1      42.741  21.461  25.950  1.00  0.00     0.274 C 
ENDROOT
BRANCH   1   2
ATOM      2  O   UNL A   1      41.464  22.082  25.753  1.00  0.00    -0.458 OA
BRANCH   2   3
ATOM      3  C   UNL A   1      40.399  21.526  26.401  1.00  0.00     0.361 C 
ATOM      4  O   UNL A   1      40.387  20.335  26.696  1.00  0.00    -0.245 OA
BRANCH   3   5
ATOM      5  C   UNL A   1      39.162  22.423  26.488  1.00  0.00     0.386 C 
BRANCH   5   6
ATOM      6  N   UNL A   1      38.467  22.614  25.192  1.00  0.00    -0.323 N 
ATOM      7  C   UNL A   1      37.847  21.365  24.676  1.00  0.00     0.284 C 
ATOM      8  C   UNL A   1      37.350  23.585  25.351  1.00  0.00     0.284 C 
ATOM      9  H   UNL A   1      39.185  22.938  24.544  1.00  0.00     0.348 HD
ATOM     10  C   UNL A   1      36.740  20.746  25.560  1.00  0.00     0.181 C 
ATOM     11  C   UNL A   1      36.189  23.111  26.257  1.00  0.00     0.181 C 
ATOM     12  N   UNL A   1      35.772  21.750  25.956  1.00  0.00    -0.329 N 
BRANCH  12  13
ATOM     13  C   UNL A   1      34.478  21.487  25.597  1.00  0.00     0.227 A 
ATOM     14  N   UNL A   1      33.592  22.484  25.756  1.00  0.00    -0.221 NA
ATOM     15  N   UNL A   1      34.155  20.249  25.197  1.00  0.00    -0.196 NA
ATOM     16  C   UNL A   1      32.321  22.217  25.429  1.00  0.00     0.119 A 
ATOM     17  C   UNL A   1      32.867  20.000  24.912  1.00  0.00     0.134 A 
ATOM     18  C   UNL A   1      31.906  20.988  24.990  1.00  0.00     0.067 A 
BRANCH  17  19
ATOM     19  N   UNL A   1      32.473  18.713  24.594  1.00  0.00    -0.356 N 
ATOM     20  C   UNL A   1      32.528  17.691  25.632  1.00  0.00     0.118 C 
ATOM     21  C   UNL A   1      32.522  18.301  23.199  1.00  0.00     0.118 C 
ATOM     22  C   UNL A   1      33.666  16.704  25.392  1.00  0.00     0.022 C 
ATOM     23  C   UNL A   1      33.696  17.350  22.970  1.00  0.00     0.022 C 
ATOM     24  C   UNL A   1      33.656  16.185  23.955  1.00  0.00     0.004 C 
ENDBRANCH  17  19
ENDBRANCH  12  13
ENDBRANCH   5   6
ENDBRANCH   3   5
ENDBRANCH   2   3
ENDBRANCH   1   2
BRANCH   1  25
ATOM     25  C   UNL A   1      43.898  22.276  25.360  1.00  0.00     0.275 C 
BRANCH  25  26
ATOM     26  O   UNL A   1      43.429  23.464  24.700  1.00  0.00    -0.458 OA
BRANCH  26  27
ATOM     27  C   UNL A   1      44.115  24.593  25.014  1.00  0.00     0.338 C 
ATOM     28  O   UNL A   1      45.170  24.961  24.522  1.00  0.00    -0.246 OA
BRANCH  27  29
ATOM     29  C   UNL A   1      43.322  25.440  25.936  1.00  0.00     0.060 A 
ATOM     30  C   UNL A   1      43.945  26.581  26.456  1.00  0.00     0.016 A 
ATOM     31  C   UNL A   1      42.002  25.145  26.293  1.00  0.00     0.016 A 
ATOM     32  C   UNL A   1      43.280  27.386  27.384  1.00  0.00     0.010 A 
ATOM     33  C   UNL A   1      41.328  25.962  27.211  1.00  0.00     0.010 A 
ATOM     34  C   UNL A   1      41.982  27.057  27.803  1.00  0.00    -0.014 A 
BRANCH  34  35
ATOM     35  C   UNL A   1      41.415  27.745  28.993  1.00  0.00     0.031 A 
ATOM     36  C   UNL A   1      42.126  27.606  30.314  1.00  0.00     0.074 A 
ATOM     37  C   UNL A   1      40.335  28.541  28.903  1.00  0.00     0.049 A 
ATOM     38  N   UNL A   1      41.901  28.217  31.451  1.00  0.00    -0.248 NA
ATOM     39  C   UNL A   1      43.243  26.650  30.359  1.00  0.00     0.031 C 
ATOM     40  C   UNL A   1      39.548  28.771  27.696  1.00  0.00     0.029 A 
ATOM     41  N   UNL A   1      39.721  29.316  29.859  1.00  0.00    -0.354 N 
ATOM     42  C   UNL A   1      42.853  27.729  32.337  1.00  0.00     0.074 A 
ATOM     43  C   UNL A   1      43.624  26.733  31.625  1.00  0.00     0.031 C 
ATOM     44  C   UNL A   1      38.559  29.639  27.978  1.00  0.00     0.029 A 
ATOM     45  C   UNL A   1      38.643  30.023  29.387  1.00  0.00     0.049 A 
ATOM     46  H   UNL A   1      40.027  29.359  30.794  1.00  0.00     0.167 HD
ATOM     47  C   UNL A   1      43.086  28.092  33.620  1.00  0.00     0.037 A 
ATOM     48  C   UNL A   1      37.828  30.891  30.019  1.00  0.00     0.037 A 
ATOM     49  C   UNL A   1      42.330  29.079  34.341  1.00  0.00     0.049 A 
ATOM     50  C   UNL A   1      38.078  31.244  31.465  1.00  0.00     0.074 A 
ATOM     51  C   UNL A   1      42.519  29.537  35.633  1.00  0.00     0.029 A 
ATOM     52  N   UNL A   1      41.229  29.752  33.834  1.00  0.00    -0.354 N 
ATOM     53  N   UNL A   1      39.035  30.845  32.265  1.00  0.00    -0.248 NA
ATOM     54  C   UNL A   1      37.138  32.190  32.088  1.00  0.00     0.031 C 
ATOM     55  C   UNL A   1      41.503  30.453  35.925  1.00  0.00     0.029 A 
ATOM     56  C   UNL A   1      40.713  30.604  34.798  1.00  0.00     0.049 A 
ATOM     57  H   UNL A   1      40.869  29.643  32.924  1.00  0.00     0.167 HD
ATOM     58  C   UNL A   1      38.841  31.522  33.464  1.00  0.00     0.074 A 
ATOM     59  C   UNL A   1      37.676  32.361  33.287  1.00  0.00     0.031 C 
ATOM     60  C   UNL A   1      39.568  31.456  34.607  1.00  0.00     0.037 A 
BRANCH  47  61
ATOM     61  C   UNL A   1      44.212  27.402  34.332  1.00  0.00     0.064 A 
ATOM     62  C   UNL A   1      44.014  26.195  35.019  1.00  0.00     0.173 A 
ATOM     63  C   UNL A   1      45.504  27.945  34.311  1.00  0.00     0.173 A 
ATOM     64  F   UNL A   1      42.792  25.645  35.080  1.00  0.00    -0.203 F 
ATOM     65  C   UNL A   1      45.065  25.572  35.687  1.00  0.00     0.198 A 
ATOM     66  C   UNL A   1      46.558  27.304  34.956  1.00  0.00     0.198 A 
ATOM     67  F   UNL A   1      45.746  29.095  33.665  1.00  0.00    -0.203 F 
ATOM     68  F   UNL A   1      44.842  24.446  36.380  1.00  0.00    -0.200 F 
ATOM     69  C   UNL A   1      46.336  26.123  35.650  1.00  0.00     0.200 A 
ATOM     70  F   UNL A   1      47.789  27.832  34.912  1.00  0.00    -0.200 F 
ATOM     71  F   UNL A   1      47.347  25.521  36.290  1.00  0.00    -0.200 F 
ENDBRANCH  47  61
BRANCH  48  72
ATOM     72  C   UNL A   1      36.704  31.530  29.285  1.00  0.00     0.064 A 
ATOM     73  C   UNL A   1      36.710  32.906  29.014  1.00  0.00     0.173 A 
ATOM     74  C   UNL A   1      35.580  30.791  28.889  1.00  0.00     0.173 A 
ATOM     75  F   UNL A   1      37.749  33.660  29.401  1.00  0.00    -0.203 F 
ATOM     76  C   UNL A   1      35.622  33.523  28.398  1.00  0.00     0.198 A 
ATOM     77  C   UNL A   1      34.505  31.404  28.251  1.00  0.00     0.198 A 
ATOM     78  F   UNL A   1      35.524  29.474  29.132  1.00  0.00    -0.203 F 
ATOM     79  F   UNL A   1      35.629  34.849  28.203  1.00  0.00    -0.200 F 
ATOM     80  C   UNL A   1      34.522  32.771  28.015  1.00  0.00     0.200 A 
ATOM     81  F   UNL A   1      33.444  30.674  27.878  1.00  0.00    -0.200 F 
ATOM     82  F   UNL A   1      33.472  33.365  27.432  1.00  0.00    -0.200 F 
ENDBRANCH  48  72
BRANCH  60  83
ATOM     83  C   UNL A   1      39.166  32.355  35.743  1.00  0.00     0.064 A 
ATOM     84  C   UNL A   1      38.314  31.918  36.768  1.00  0.00     0.173 A 
ATOM     85  C   UNL A   1      39.677  33.660  35.827  1.00  0.00     0.173 A 
ATOM     86  F   UNL A   1      37.789  30.684  36.730  1.00  0.00    -0.203 F 
ATOM     87  C   UNL A   1      37.967  32.764  37.820  1.00  0.00     0.198 A 
ATOM     88  C   UNL A   1      39.352  34.492  36.895  1.00  0.00     0.198 A 
ATOM     89  F   UNL A   1      40.504  34.124  34.878  1.00  0.00    -0.203 F 
ATOM     90  F   UNL A   1      37.113  32.342  38.762  1.00  0.00    -0.200 F 
ATOM     91  C   UNL A   1      38.491  34.046  37.885  1.00  0.00     0.200 A 
ATOM     92  F   UNL A   1      39.872  35.725  36.964  1.00  0.00    -0.200 F 
ATOM     93  F   UNL A   1      38.161  34.855  38.902  1.00  0.00    -0.200 F 
ENDBRANCH  60  83
ENDBRANCH  34  35
ENDBRANCH  27  29
ENDBRANCH  26  27
ENDBRANCH  25  26
ENDBRANCH   1  25
TORSDOF 14
ENDMDL
MODEL 2
REMARK VINA RESULT:     -12.8      4.586      7.486
REMARK SMILES O=C(C[NH+]1CCN(c2nccc(N3CCCCC3)n2)CC1)OCCOC(=O)c1ccc(-c2c3nc(c(-c4c(F)c(F)c(F)c(F)c4F)c4ccc([nH]4)c(-c4c(F)c(F)c(F)c(F)c4F)c4nc(c(-c5c(F)c(F)c(F)c(F)c5F)c5ccc2[nH]5)C=C4)C=C3)cc1
REMARK SMILES IDX 23 1 22 2 2 3 1 4 3 5 4 6 5 7 21 8 6 10 20 11 7 12 8 13 9 14
REMARK SMILES IDX 19 15 10 16 12 17 11 18 13 19 14 20 18 21 15 22 17 23 16 24
REMARK SMILES IDX 24 25 25 26 26 27 27 28 28 29 29 30 90 31 30 32 89 33 31 34
REMARK SMILES IDX 32 35 33 36 83 37 34 38 88 39 82 40 84 41 35 42 87 43 81 44
REMARK SMILES IDX 80 45 36 47 68 48 48 49 67 50 49 51 52 52 66 53 85 54 50 55
REMARK SMILES IDX 51 56 65 58 86 59 53 60 37 61 38 62 46 63 39 64 40 65 44 66
REMARK SMILES IDX 47 67 41 68 42 69 45 70 43 71 69 72 70 73 78 74 71 75 72 76
REMARK SMILES IDX 76 77 79 78 73 79 74 80 77 81 75 82 54 83 55 84 63 85 56 86
REMARK SMILES IDX 57 87 61 88 64 89 58 90 59 91 62 92 60 93
REMARK H PARENT 4 9 84 46 52 57
REMARK Flexibility Score: inf
ROOT
ATOM      1  C   UNL A   1      36.030  20.492  25.176  1.00  0.00     0.274 C 
ENDROOT
BRANCH   1   2
ATOM      2  O   UNL A   1      35.215  19.458  24.607  1.00  0.00    -0.458 OA
BRANCH   2   3
ATOM      3  C   UNL A   1      33.913  19.403  25.013  1.00  0.00     0.361 C 
ATOM      4  O   UNL A   1      33.184  18.472  24.682  1.00  0.00    -0.245 OA
BRANCH   3   5
ATOM      5  C   UNL A   1      33.391  20.682  25.668  1.00  0.00     0.386 C 
BRANCH   5   6
ATOM      6  N   UNL A   1      32.304  21.346  24.910  1.00  0.00    -0.323 N 
ATOM      7  C   UNL A   1      31.863  22.624  25.526  1.00  0.00     0.284 C 
ATOM      8  C   UNL A   1      32.776  21.697  23.542  1.00  0.00     0.284 C 
ATOM      9  H   UNL A   1      31.532  20.679  24.903  1.00  0.00     0.348 HD
ATOM     10  C   UNL A   1      32.933  23.736  25.614  1.00  0.00     0.181 C 
ATOM     11  C   UNL A   1      33.889  22.769  23.486  1.00  0.00     0.181 C 
ATOM     12  N   UNL A   1      33.604  23.911  24.341  1.00  0.00    -0.329 N 
BRANCH  12  13
ATOM     13  C   UNL A   1      33.534  25.171  23.811  1.00  0.00     0.227 A 
ATOM     14  N   UNL A   1      33.572  25.266  22.472  1.00  0.00    -0.221 NA
ATOM     15  N   UNL A   1      33.517  26.222  24.641  1.00  0.00    -0.196 NA
ATOM     16  C   UNL A   1      33.529  26.501  21.956  1.00  0.00     0.119 A 
ATOM     17  C   UNL A   1      33.513  27.449  24.096  1.00  0.00     0.134 A 
ATOM     18  C   UNL A   1      33.488  27.632  22.728  1.00  0.00     0.067 A 
BRANCH  17  19
ATOM     19  N   UNL A   1      33.598  28.562  24.914  1.00  0.00    -0.356 N 
ATOM     20  C   UNL A   1      34.200  28.412  26.233  1.00  0.00     0.118 C 
ATOM     21  C   UNL A   1      32.670  29.659  24.685  1.00  0.00     0.118 C 
ATOM     22  C   UNL A   1      33.155  28.485  27.341  1.00  0.00     0.022 C 
ATOM     23  C   UNL A   1      31.604  29.686  25.780  1.00  0.00     0.022 C 
ATOM     24  C   UNL A   1      32.245  29.699  27.167  1.00  0.00     0.004 C 
ENDBRANCH  17  19
ENDBRANCH  12  13
ENDBRANCH   5   6
ENDBRANCH   3   5
ENDBRANCH   2   3
ENDBRANCH   1   2
BRANCH   1  25
ATOM     25  C   UNL A   1      37.530  20.243  24.982  1.00  0.00     0.275 C 
BRANCH  25  26
ATOM     26  O   UNL A   1      38.310  21.403  25.319  1.00  0.00    -0.458 OA
BRANCH  26  27
ATOM     27  C   UNL A   1      39.404  21.145  26.082  1.00  0.00     0.338 C 
ATOM     28  O   UNL A   1      40.040  20.104  26.109  1.00  0.00    -0.246 OA
BRANCH  27  29
ATOM     29  C   UNL A   1      39.851  22.375  26.777  1.00  0.00     0.060 A 
ATOM     30  C   UNL A   1      39.167  23.562  26.487  1.00  0.00     0.016 A 
ATOM     31  C   UNL A   1      40.906  22.389  27.695  1.00  0.00     0.016 A 
ATOM     32  C   UNL A   1      39.579  24.769  27.054  1.00  0.00     0.010 A 
ATOM     33  C   UNL A   1      41.309  23.598  28.278  1.00  0.00     0.010 A 
ATOM     34  C   UNL A   1      40.682  24.804  27.919  1.00  0.00    -0.014 A 
BRANCH  34  35
ATOM     35  C   UNL A   1      41.279  26.120  28.271  1.00  0.00     0.031 A 
ATOM     36  C   UNL A   1      42.675  26.429  27.797  1.00  0.00     0.074 A 
ATOM     37  C   UNL A   1      40.581  27.060  28.933  1.00  0.00     0.049 A 
ATOM     38  N   UNL A   1      43.349  27.550  27.863  1.00  0.00    -0.248 NA
ATOM     39  C   UNL A   1      43.410  25.324  27.161  1.00  0.00     0.031 C 
ATOM     40  C   UNL A   1      39.225  26.903  29.451  1.00  0.00     0.029 A 
ATOM     41  N   UNL A   1      40.926  28.347  29.272  1.00  0.00    -0.354 N 
ATOM     42  C   UNL A   1      44.576  27.288  27.267  1.00  0.00     0.074 A 
ATOM     43  C   UNL A   1      44.578  25.891  26.895  1.00  0.00     0.031 C 
ATOM     44  C   UNL A   1      38.846  28.055  30.034  1.00  0.00     0.029 A 
ATOM     45  C   UNL A   1      39.933  29.029  29.932  1.00  0.00     0.049 A 
ATOM     46  H   UNL A   1      41.802  28.743  29.060  1.00  0.00     0.167 HD
ATOM     47  C   UNL A   1      45.603  28.137  27.026  1.00  0.00     0.037 A 
ATOM     48  C   UNL A   1      39.904  30.297  30.389  1.00  0.00     0.037 A 
ATOM     49  C   UNL A   1      45.618  29.527  27.389  1.00  0.00     0.049 A 
ATOM     50  C   UNL A   1      41.081  31.211  30.151  1.00  0.00     0.074 A 
ATOM     51  C   UNL A   1      46.600  30.472  27.152  1.00  0.00     0.029 A 
ATOM     52  N   UNL A   1      44.603  30.171  28.081  1.00  0.00    -0.354 N 
ATOM     53  N   UNL A   1      42.198  30.978  29.508  1.00  0.00    -0.248 NA
ATOM     54  C   UNL A   1      40.978  32.576  30.689  1.00  0.00     0.031 C 
ATOM     55  C   UNL A   1      46.202  31.677  27.742  1.00  0.00     0.029 A 
ATOM     56  C   UNL A   1      44.949  31.495  28.301  1.00  0.00     0.049 A 
ATOM     57  H   UNL A   1      43.761  29.751  28.371  1.00  0.00     0.167 HD
ATOM     58  C   UNL A   1      42.907  32.174  29.524  1.00  0.00     0.074 A 
ATOM     59  C   UNL A   1      42.093  33.133  30.238  1.00  0.00     0.031 C 
ATOM     60  C   UNL A   1      44.123  32.452  28.991  1.00  0.00     0.037 A 
BRANCH  47  61
ATOM     61  C   UNL A   1      46.810  27.573  26.337  1.00  0.00     0.064 A 
ATOM     62  C   UNL A   1      46.945  27.619  24.941  1.00  0.00     0.173 A 
ATOM     63  C   UNL A   1      47.849  26.997  27.081  1.00  0.00     0.173 A 
ATOM     64  F   UNL A   1      45.970  28.146  24.186  1.00  0.00    -0.203 F 
ATOM     65  C   UNL A   1      48.065  27.081  24.313  1.00  0.00     0.198 A 
ATOM     66  C   UNL A   1      48.980  26.485  26.451  1.00  0.00     0.198 A 
ATOM     67  F   UNL A   1      47.770  26.932  28.418  1.00  0.00    -0.203 F 
ATOM     68  F   UNL A   1      48.150  27.090  22.975  1.00  0.00    -0.200 F 
ATOM     69  C   UNL A   1      49.083  26.520  25.068  1.00  0.00     0.200 A 
ATOM     70  F   UNL A   1      49.969  25.952  27.182  1.00  0.00    -0.200 F 
ATOM     71  F   UNL A   1      50.162  26.005  24.463  1.00  0.00    -0.200 F 
ENDBRANCH  47  61
BRANCH  48  72
ATOM     72  C   UNL A   1      38.699  30.809  31.094  1.00  0.00     0.064 A 
ATOM     73  C   UNL A   1      37.662  31.434  30.388  1.00  0.00     0.173 A 
ATOM     74  C   UNL A   1      38.587  30.733  32.490  1.00  0.00     0.173 A 
ATOM     75  F   UNL A   1      37.740  31.558  29.055  1.00  0.00    -0.203 F 
ATOM     76  C   UNL A   1      36.569  31.987  31.053  1.00  0.00     0.198 A 
ATOM     77  C   UNL A   1      37.483  31.263  33.151  1.00  0.00     0.198 A 
ATOM     78  F   UNL A   1      39.556  30.151  33.210  1.00  0.00    -0.203 F 
ATOM     79  F   UNL A   1      35.620  32.630  30.360  1.00  0.00    -0.200 F 
ATOM     80  C   UNL A   1      36.480  31.899  32.434  1.00  0.00     0.200 A 
ATOM     81  F   UNL A   1      37.396  31.173  34.486  1.00  0.00    -0.200 F 
ATOM     82  F   UNL A   1      35.435  32.440  33.076  1.00  0.00    -0.200 F 
ENDBRANCH  48  72
BRANCH  60  83
ATOM     83  C   UNL A   1      44.629  33.863  29.102  1.00  0.00     0.064 A 
ATOM     84  C   UNL A   1      45.435  34.278  30.173  1.00  0.00     0.173 A 
ATOM     85  C   UNL A   1      44.336  34.801  28.100  1.00  0.00     0.173 A 
ATOM     86  F   UNL A   1      45.735  33.424  31.163  1.00  0.00    -0.203 F 
ATOM     87  C   UNL A   1      45.906  35.588  30.249  1.00  0.00     0.198 A 
ATOM     88  C   UNL A   1      44.833  36.100  28.164  1.00  0.00     0.198 A 
ATOM     89  F   UNL A   1      43.577  34.453  27.050  1.00  0.00    -0.203 F 
ATOM     90  F   UNL A   1      46.634  35.975  31.304  1.00  0.00    -0.200 F 
ATOM     91  C   UNL A   1      45.610  36.494  29.241  1.00  0.00     0.200 A 
ATOM     92  F   UNL A   1      44.558  36.970  27.182  1.00  0.00    -0.200 F 
ATOM     93  F   UNL A   1      46.070  37.751  29.313  1.00  0.00    -0.200 F 
ENDBRANCH  60  83
ENDBRANCH  34  35
ENDBRANCH  27  29
ENDBRANCH  26  27
ENDBRANCH  25  26
ENDBRANCH   1  25
TORSDOF 14
ENDMDL
MODEL 3
REMARK VINA RESULT:     -12.7      3.758      8.402
REMARK SMILES O=C(C[NH+]1CCN(c2nccc(N3CCCCC3)n2)CC1)OCCOC(=O)c1ccc(-c2c3nc(c(-c4c(F)c(F)c(F)c(F)c4F)c4ccc([nH]4)c(-c4c(F)c(F)c(F)c(F)c4F)c4nc(c(-c5c(F)c(F)c(F)c(F)c5F)c5ccc2[nH]5)C=C4)C=C3)cc1
REMARK SMILES IDX 23 1 22 2 2 3 1 4 3 5 4 6 5 7 21 8 6 10 20 11 7 12 8 13 9 14
REMARK SMILES IDX 19 15 10 16 12 17 11 18 13 19 14 20 18 21 15 22 17 23 16 24
REMARK SMILES IDX 24 25 25 26 26 27 27 28 28 29 29 30 90 31 30 32 89 33 31 34
REMARK SMILES IDX 32 35 33 36 83 37 34 38 88 39 82 40 84 41 35 42 87 43 81 44
REMARK SMILES IDX 80 45 36 47 68 48 48 49 67 50 49 51 52 52 66 53 85 54 50 55
REMARK SMILES IDX 51 56 65 58 86 59 53 60 37 61 38 62 46 63 39 64 40 65 44 66
REMARK SMILES IDX 47 67 41 68 42 69 45 70 43 71 69 72 70 73 78 74 71 75 72 76
REMARK SMILES IDX 76 77 79 78 73 79 74 80 77 81 75 82 54 83 55 84 63 85 56 86
REMARK SMILES IDX 57 87 61 88 64 89 58 90 59 91 62 92 60 93
REMARK H PARENT 4 9 84 46 52 57
REMARK Flexibility Score: inf
ROOT
ATOM      1  C   UNL A   1      31.721  29.396  25.641  1.00  0.00     0.274 C 
ENDROOT
BRANCH   1   2
ATOM      2  O   UNL A   1      32.425  29.137  24.418  1.00  0.00    -0.458 OA
BRANCH   2   3
ATOM      3  C   UNL A   1      31.775  28.394  23.475  1.00  0.00     0.361 C 
ATOM      4  O   UNL A   1      30.942  28.901  22.732  1.00  0.00    -0.245 OA
BRANCH   3   5
ATOM      5  C   UNL A   1      31.977  26.883  23.601  1.00  0.00     0.386 C 
BRANCH   5   6
ATOM      6  N   UNL A   1      33.398  26.462  23.577  1.00  0.00    -0.323 N 
ATOM      7  C   UNL A   1      33.856  25.889  24.870  1.00  0.00     0.284 C 
ATOM      8  C   UNL A   1      33.596  25.388  22.566  1.00  0.00     0.284 C 
ATOM      9  H   UNL A   1      33.928  27.308  23.365  1.00  0.00     0.348 HD
ATOM     10  C   UNL A   1      33.135  24.601  25.331  1.00  0.00     0.181 C 
ATOM     11  C   UNL A   1      32.884  24.051  22.878  1.00  0.00     0.181 C 
ATOM     12  N   UNL A   1      33.077  23.628  24.257  1.00  0.00    -0.329 N 
BRANCH  12  13
ATOM     13  C   UNL A   1      33.648  22.416  24.535  1.00  0.00     0.227 A 
ATOM     14  N   UNL A   1      34.964  22.415  24.802  1.00  0.00    -0.221 NA
ATOM     15  N   UNL A   1      32.897  21.310  24.445  1.00  0.00    -0.196 NA
ATOM     16  C   UNL A   1      35.527  21.225  25.048  1.00  0.00     0.119 A 
ATOM     17  C   UNL A   1      33.496  20.128  24.660  1.00  0.00     0.134 A 
ATOM     18  C   UNL A   1      34.831  20.046  25.000  1.00  0.00     0.067 A 
BRANCH  17  19
ATOM     19  N   UNL A   1      32.783  18.956  24.479  1.00  0.00    -0.356 N 
ATOM     20  C   UNL A   1      32.529  18.109  25.638  1.00  0.00     0.118 C 
ATOM     21  C   UNL A   1      32.767  18.357  23.153  1.00  0.00     0.118 C 
ATOM     22  C   UNL A   1      33.369  16.837  25.602  1.00  0.00     0.022 C 
ATOM     23  C   UNL A   1      33.652  17.110  23.126  1.00  0.00     0.022 C 
ATOM     24  C   UNL A   1      33.268  16.144  24.245  1.00  0.00     0.004 C 
ENDBRANCH  17  19
ENDBRANCH  12  13
ENDBRANCH   5   6
ENDBRANCH   3   5
ENDBRANCH   2   3
ENDBRANCH   1   2
BRANCH   1  25
ATOM     25  C   UNL A   1      31.910  30.831  26.145  1.00  0.00     0.275 C 
BRANCH  25  26
ATOM     26  O   UNL A   1      32.589  30.865  27.411  1.00  0.00    -0.458 OA
BRANCH  26  27
ATOM     27  C   UNL A   1      33.379  31.954  27.599  1.00  0.00     0.338 C 
ATOM     28  O   UNL A   1      33.014  33.118  27.625  1.00  0.00    -0.246 OA
BRANCH  27  29
ATOM     29  C   UNL A   1      34.758  31.539  27.949  1.00  0.00     0.060 A 
ATOM     30  C   UNL A   1      34.983  30.174  28.163  1.00  0.00     0.016 A 
ATOM     31  C   UNL A   1      35.818  32.444  28.064  1.00  0.00     0.016 A 
ATOM     32  C   UNL A   1      36.242  29.722  28.562  1.00  0.00     0.010 A 
ATOM     33  C   UNL A   1      37.087  31.989  28.448  1.00  0.00     0.010 A 
ATOM     34  C   UNL A   1      37.293  30.631  28.752  1.00  0.00    -0.014 A 
BRANCH  34  35
ATOM     35  C   UNL A   1      38.522  30.175  29.452  1.00  0.00     0.031 A 
ATOM     36  C   UNL A   1      38.755  30.627  30.871  1.00  0.00     0.074 A 
ATOM     37  C   UNL A   1      39.386  29.316  28.881  1.00  0.00     0.049 A 
ATOM     38  N   UNL A   1      39.676  30.255  31.724  1.00  0.00    -0.248 NA
ATOM     39  C   UNL A   1      37.822  31.635  31.398  1.00  0.00     0.031 C 
ATOM     40  C   UNL A   1      39.290  28.794  27.521  1.00  0.00     0.029 A 
ATOM     41  N   UNL A   1      40.516  28.723  29.392  1.00  0.00    -0.354 N 
ATOM     42  C   UNL A   1      39.424  30.971  32.887  1.00  0.00     0.074 A 
ATOM     43  C   UNL A   1      38.300  31.839  32.616  1.00  0.00     0.031 C 
ATOM     44  C   UNL A   1      40.314  27.948  27.305  1.00  0.00     0.029 A 
ATOM     45  C   UNL A   1      41.138  27.871  28.512  1.00  0.00     0.049 A 
ATOM     46  H   UNL A   1      40.849  28.893  30.303  1.00  0.00     0.167 HD
ATOM     47  C   UNL A   1      40.052  30.897  34.084  1.00  0.00     0.037 A 
ATOM     48  C   UNL A   1      42.238  27.108  28.670  1.00  0.00     0.037 A 
ATOM     49  C   UNL A   1      41.170  30.040  34.370  1.00  0.00     0.049 A 
ATOM     50  C   UNL A   1      42.951  27.079  30.000  1.00  0.00     0.074 A 
ATOM     51  C   UNL A   1      41.846  29.873  35.566  1.00  0.00     0.029 A 
ATOM     52  N   UNL A   1      41.785  29.213  33.444  1.00  0.00    -0.354 N 
ATOM     53  N   UNL A   1      42.650  27.692  31.118  1.00  0.00    -0.248 NA
ATOM     54  C   UNL A   1      44.150  26.231  30.090  1.00  0.00     0.031 C 
ATOM     55  C   UNL A   1      42.902  28.980  35.351  1.00  0.00     0.029 A 
ATOM     56  C   UNL A   1      42.851  28.552  34.035  1.00  0.00     0.049 A 
ATOM     57  H   UNL A   1      41.506  29.109  32.505  1.00  0.00     0.167 HD
ATOM     58  C   UNL A   1      43.590  27.269  32.052  1.00  0.00     0.074 A 
ATOM     59  C   UNL A   1      44.470  26.345  31.371  1.00  0.00     0.031 C 
ATOM     60  C   UNL A   1      43.708  27.614  33.358  1.00  0.00     0.037 A 
BRANCH  47  61
ATOM     61  C   UNL A   1      39.541  31.784  35.181  1.00  0.00     0.064 A 
ATOM     62  C   UNL A   1      38.604  31.324  36.118  1.00  0.00     0.173 A 
ATOM     63  C   UNL A   1      40.007  33.100  35.306  1.00  0.00     0.173 A 
ATOM     64  F   UNL A   1      38.118  30.077  36.031  1.00  0.00    -0.203 F 
ATOM     65  C   UNL A   1      38.130  32.161  37.124  1.00  0.00     0.198 A 
ATOM     66  C   UNL A   1      39.551  33.926  36.329  1.00  0.00     0.198 A 
ATOM     67  F   UNL A   1      40.905  33.587  34.437  1.00  0.00    -0.203 F 
ATOM     68  F   UNL A   1      37.197  31.717  37.979  1.00  0.00    -0.200 F 
ATOM     69  C   UNL A   1      38.607  33.458  37.233  1.00  0.00     0.200 A 
ATOM     70  F   UNL A   1      40.019  35.177  36.439  1.00  0.00    -0.200 F 
ATOM     71  F   UNL A   1      38.151  34.262  38.202  1.00  0.00    -0.200 F 
ENDBRANCH  47  61
BRANCH  48  72
ATOM     72  C   UNL A   1      42.730  26.265  27.548  1.00  0.00     0.064 A 
ATOM     73  C   UNL A   1      42.296  24.941  27.397  1.00  0.00     0.173 A 
ATOM     74  C   UNL A   1      43.682  26.749  26.639  1.00  0.00     0.173 A 
ATOM     75  F   UNL A   1      41.409  24.425  28.261  1.00  0.00    -0.203 F 
ATOM     76  C   UNL A   1      42.815  24.123  26.395  1.00  0.00     0.198 A 
ATOM     77  C   UNL A   1      44.181  25.938  25.623  1.00  0.00     0.198 A 
ATOM     78  F   UNL A   1      44.134  28.006  26.746  1.00  0.00    -0.203 F 
ATOM     79  F   UNL A   1      42.426  22.844  26.309  1.00  0.00    -0.200 F 
ATOM     80  C   UNL A   1      43.755  24.623  25.508  1.00  0.00     0.200 A 
ATOM     81  F   UNL A   1      45.088  26.426  24.764  1.00  0.00    -0.200 F 
ATOM     82  F   UNL A   1      44.263  23.834  24.551  1.00  0.00    -0.200 F 
ENDBRANCH  48  72
BRANCH  60  83
ATOM     83  C   UNL A   1      44.791  26.950  34.161  1.00  0.00     0.064 A 
ATOM     84  C   UNL A   1      44.582  25.730  34.821  1.00  0.00     0.173 A 
ATOM     85  C   UNL A   1      46.070  27.525  34.236  1.00  0.00     0.173 A 
ATOM     86  F   UNL A   1      43.376  25.144  34.791  1.00  0.00    -0.203 F 
ATOM     87  C   UNL A   1      45.606  25.125  35.548  1.00  0.00     0.198 A 
ATOM     88  C   UNL A   1      47.098  26.902  34.938  1.00  0.00     0.198 A 
ATOM     89  F   UNL A   1      46.325  28.687  33.616  1.00  0.00    -0.203 F 
ATOM     90  F   UNL A   1      45.370  23.984  36.210  1.00  0.00    -0.200 F 
ATOM     91  C   UNL A   1      46.863  25.708  35.600  1.00  0.00     0.200 A 
ATOM     92  F   UNL A   1      48.316  27.460  34.974  1.00  0.00    -0.200 F 
ATOM     93  F   UNL A   1      47.848  25.120  36.294  1.00  0.00    -0.200 F 
ENDBRANCH  60  83
ENDBRANCH  34  35
ENDBRANCH  27  29
ENDBRANCH  26  27
ENDBRANCH  25  26
ENDBRANCH   1  25
TORSDOF 14
ENDMDL
