MODEL 1
REMARK VINA RESULT:     -14.0      0.000      0.000
REMARK SMILES Cc1ccc(-c2cc(C[C@H]3CCCC3=O)ccc2[C@@H](C)C(=O)OCCOC(=O)c2ccc(-c3c4nc(c(-c5c(F)c(F)c(F)c(F)c5F)c5ccc([nH]5)c(-c5c(F)c(F)c(F)c(F)c5F)c5nc(c(-c6c(F)c(F)c(F)c(F)c6F)c6ccc3[nH]6)C=C5)C=C4)cc2)cc1
REMARK SMILES IDX 24 1 23 2 21 3 22 4 19 5 20 6 18 7 6 8 7 9 8 10 17 11 16 12
REMARK SMILES IDX 5 13 1 14 2 15 3 16 93 17 4 18 92 19 9 20 10 21 11 22 14 23
REMARK SMILES IDX 12 24 13 25 15 26 25 27 26 28 27 29 28 30 29 31 30 32 91 33
REMARK SMILES IDX 31 34 90 35 32 36 33 37 34 38 84 39 35 40 89 41 83 42 85 43
REMARK SMILES IDX 36 44 88 45 82 46 81 47 37 49 69 50 49 51 68 52 50 53 53 54
REMARK SMILES IDX 67 55 86 56 51 57 52 58 66 60 87 61 54 62 38 63 39 64 47 65
REMARK SMILES IDX 40 66 41 67 45 68 48 69 42 70 43 71 46 72 44 73 70 74 71 75
REMARK SMILES IDX 79 76 72 77 73 78 77 79 80 80 74 81 75 82 78 83 76 84 55 85
REMARK SMILES IDX 56 86 64 87 57 88 58 89 62 90 65 91 59 92 60 93 63 94 61 95
REMARK H PARENT 85 48 53 59
REMARK Flexibility Score: inf
ROOT
ATOM      1  C   UNL A   1      36.459  21.938  26.114  1.00  0.00     0.274 C 
ENDROOT
BRANCH   1   2
ATOM      2  O   UNL A   1      35.324  22.829  26.186  1.00  0.00    -0.462 OA
BRANCH   2   3
ATOM      3  C   UNL A   1      35.088  23.589  25.098  1.00  0.00     0.313 C 
ATOM      4  O   UNL A   1      34.908  24.798  25.190  1.00  0.00    -0.252 OA
BRANCH   3   5
ATOM      5  C   UNL A   1      35.025  22.830  23.750  1.00  0.00     0.127 C 
ATOM      6  C   UNL A   1      36.141  23.061  22.738  1.00  0.00     0.025 C 
BRANCH   5   7
ATOM      7  C   UNL A   1      33.664  23.207  23.179  1.00  0.00    -0.026 A 
ATOM      8  C   UNL A   1      32.510  22.490  23.570  1.00  0.00    -0.014 A 
ATOM      9  C   UNL A   1      31.302  23.200  23.623  1.00  0.00     0.012 A 
ATOM     10  C   UNL A   1      31.233  24.549  23.237  1.00  0.00    -0.047 A 
ATOM     11  C   UNL A   1      33.554  24.493  22.621  1.00  0.00     0.005 A 
ATOM     12  C   UNL A   1      32.340  25.149  22.635  1.00  0.00     0.004 A 
BRANCH   8  13
ATOM     13  C   UNL A   1      32.543  21.062  23.949  1.00  0.00    -0.018 A 
ATOM     14  C   UNL A   1      32.691  16.906  25.193  1.00  0.00     0.044 C 
ATOM     15  C   UNL A   1      32.639  18.344  24.764  1.00  0.00    -0.051 A 
ATOM     16  C   UNL A   1      32.410  18.681  23.426  1.00  0.00     0.004 A 
ATOM     17  C   UNL A   1      32.794  19.373  25.697  1.00  0.00     0.004 A 
ATOM     18  C   UNL A   1      32.380  20.024  23.020  1.00  0.00     0.009 A 
ATOM     19  C   UNL A   1      32.743  20.712  25.292  1.00  0.00     0.009 A 
ENDBRANCH   8  13
BRANCH  10  20
ATOM     20  C   UNL A   1      30.012  25.386  23.511  1.00  0.00     0.047 C 
BRANCH  20  21
ATOM     21  C   UNL A   1      30.066  26.239  24.790  1.00  0.00     0.060 C 
ATOM     22  C   UNL A   1      30.691  25.576  26.020  1.00  0.00     0.012 C 
ATOM     23  C   UNL A   1      30.847  27.528  24.665  1.00  0.00     0.136 C 
ATOM     24  C   UNL A   1      32.001  26.288  26.330  1.00  0.00     0.009 C 
ATOM     25  C   UNL A   1      31.952  27.656  25.675  1.00  0.00     0.076 C 
ATOM     26  O   UNL A   1      30.583  28.411  23.854  1.00  0.00    -0.299 OA
ENDBRANCH  20  21
ENDBRANCH  10  20
ENDBRANCH   5   7
ENDBRANCH   3   5
ENDBRANCH   2   3
ENDBRANCH   1   2
BRANCH   1  27
ATOM     27  C   UNL A   1      37.914  22.451  25.841  1.00  0.00     0.275 C 
BRANCH  27  28
ATOM     28  O   UNL A   1      38.579  23.646  26.384  1.00  0.00    -0.458 OA
BRANCH  28  29
ATOM     29  C   UNL A   1      39.778  23.848  26.981  1.00  0.00     0.338 C 
ATOM     30  O   UNL A   1      40.567  22.952  27.247  1.00  0.00    -0.246 OA
BRANCH  29  31
ATOM     31  C   UNL A   1      40.028  25.218  27.414  1.00  0.00     0.060 A 
ATOM     32  C   UNL A   1      40.406  26.229  26.513  1.00  0.00     0.016 A 
ATOM     33  C   UNL A   1      39.725  25.492  28.735  1.00  0.00     0.016 A 
ATOM     34  C   UNL A   1      40.319  27.559  26.914  1.00  0.00     0.010 A 
ATOM     35  C   UNL A   1      39.412  26.779  29.046  1.00  0.00     0.010 A 
ATOM     36  C   UNL A   1      39.763  27.815  28.166  1.00  0.00    -0.014 A 
BRANCH  36  37
ATOM     37  C   UNL A   1      39.817  29.077  28.877  1.00  0.00     0.031 A 
ATOM     38  C   UNL A   1      38.676  29.992  28.970  1.00  0.00     0.074 A 
ATOM     39  C   UNL A   1      40.893  29.074  29.694  1.00  0.00     0.049 A 
ATOM     40  N   UNL A   1      38.776  31.272  29.065  1.00  0.00    -0.248 NA
ATOM     41  C   UNL A   1      37.289  29.529  28.945  1.00  0.00     0.031 C 
ATOM     42  C   UNL A   1      41.201  29.810  30.898  1.00  0.00     0.029 A 
ATOM     43  N   UNL A   1      42.018  28.248  29.510  1.00  0.00    -0.354 N 
ATOM     44  C   UNL A   1      37.537  31.731  29.470  1.00  0.00     0.074 A 
ATOM     45  C   UNL A   1      36.615  30.663  29.170  1.00  0.00     0.031 C 
ATOM     46  C   UNL A   1      42.520  29.658  31.151  1.00  0.00     0.029 A 
ATOM     47  C   UNL A   1      43.112  28.917  30.035  1.00  0.00     0.049 A 
ATOM     48  H   UNL A   1      42.026  27.359  29.088  1.00  0.00     0.167 HD
ATOM     49  C   UNL A   1      37.460  32.823  30.291  1.00  0.00     0.037 A 
ATOM     50  C   UNL A   1      44.008  29.382  29.115  1.00  0.00     0.037 A 
ATOM     51  C   UNL A   1      38.809  33.166  30.744  1.00  0.00     0.049 A 
ATOM     52  C   UNL A   1      43.921  30.881  29.062  1.00  0.00     0.074 A 
ATOM     53  C   UNL A   1      39.475  32.817  31.909  1.00  0.00     0.029 A 
ATOM     54  N   UNL A   1      39.777  33.598  29.845  1.00  0.00    -0.354 N 
ATOM     55  N   UNL A   1      42.824  31.561  29.268  1.00  0.00    -0.248 NA
ATOM     56  C   UNL A   1      45.093  31.721  28.871  1.00  0.00     0.031 C 
ATOM     57  C   UNL A   1      40.864  32.983  31.682  1.00  0.00     0.029 A 
ATOM     58  C   UNL A   1      41.041  33.433  30.384  1.00  0.00     0.049 A 
ATOM     59  H   UNL A   1      39.590  33.967  28.952  1.00  0.00     0.167 HD
ATOM     60  C   UNL A   1      43.136  32.889  29.337  1.00  0.00     0.074 A 
ATOM     61  C   UNL A   1      44.561  32.941  29.057  1.00  0.00     0.031 C 
ATOM     62  C   UNL A   1      42.225  33.854  29.656  1.00  0.00     0.037 A 
BRANCH  49  63
ATOM     63  C   UNL A   1      36.217  33.328  31.009  1.00  0.00     0.064 A 
ATOM     64  C   UNL A   1      35.298  34.179  30.348  1.00  0.00     0.173 A 
ATOM     65  C   UNL A   1      35.856  33.002  32.331  1.00  0.00     0.173 A 
ATOM     66  F   UNL A   1      35.431  34.479  29.049  1.00  0.00    -0.203 F 
ATOM     67  C   UNL A   1      34.188  34.741  30.985  1.00  0.00     0.198 A 
ATOM     68  C   UNL A   1      34.761  33.592  32.981  1.00  0.00     0.198 A 
ATOM     69  F   UNL A   1      36.513  32.061  33.021  1.00  0.00    -0.203 F 
ATOM     70  F   UNL A   1      33.367  35.550  30.299  1.00  0.00    -0.200 F 
ATOM     71  C   UNL A   1      33.934  34.471  32.311  1.00  0.00     0.200 A 
ATOM     72  F   UNL A   1      34.507  33.292  34.264  1.00  0.00    -0.200 F 
ATOM     73  F   UNL A   1      32.882  35.026  32.929  1.00  0.00    -0.200 F 
ENDBRANCH  49  63
BRANCH  50  74
ATOM     74  C   UNL A   1      44.173  28.467  27.924  1.00  0.00     0.064 A 
ATOM     75  C   UNL A   1      44.735  27.184  28.131  1.00  0.00     0.173 A 
ATOM     76  C   UNL A   1      43.532  28.673  26.694  1.00  0.00     0.173 A 
ATOM     77  F   UNL A   1      45.354  26.904  29.290  1.00  0.00    -0.203 F 
ATOM     78  C   UNL A   1      44.579  26.145  27.209  1.00  0.00     0.198 A 
ATOM     79  C   UNL A   1      43.398  27.633  25.760  1.00  0.00     0.198 A 
ATOM     80  F   UNL A   1      42.962  29.853  26.414  1.00  0.00    -0.203 F 
ATOM     81  F   UNL A   1      45.036  24.918  27.500  1.00  0.00    -0.200 F 
ATOM     82  C   UNL A   1      43.897  26.366  26.029  1.00  0.00     0.200 A 
ATOM     83  F   UNL A   1      42.717  27.839  24.622  1.00  0.00    -0.200 F 
ATOM     84  F   UNL A   1      43.689  25.359  25.169  1.00  0.00    -0.200 F 
ENDBRANCH  50  74
BRANCH  62  85
ATOM     85  C   UNL A   1      42.426  35.324  29.413  1.00  0.00     0.064 A 
ATOM     86  C   UNL A   1      43.278  36.115  30.199  1.00  0.00     0.173 A 
ATOM     87  C   UNL A   1      41.896  35.945  28.258  1.00  0.00     0.173 A 
ATOM     88  F   UNL A   1      43.950  35.602  31.238  1.00  0.00    -0.203 F 
ATOM     89  C   UNL A   1      43.515  37.455  29.901  1.00  0.00     0.198 A 
ATOM     90  C   UNL A   1      42.199  37.261  27.922  1.00  0.00     0.198 A 
ATOM     91  F   UNL A   1      41.099  35.288  27.402  1.00  0.00    -0.203 F 
ATOM     92  F   UNL A   1      44.286  38.184  30.717  1.00  0.00    -0.200 F 
ATOM     93  C   UNL A   1      42.988  38.023  28.757  1.00  0.00     0.200 A 
ATOM     94  F   UNL A   1      41.737  37.775  26.773  1.00  0.00    -0.200 F 
ATOM     95  F   UNL A   1      43.262  39.295  28.447  1.00  0.00    -0.200 F 
ENDBRANCH  62  85
ENDBRANCH  36  37
ENDBRANCH  29  31
ENDBRANCH  28  29
ENDBRANCH  27  28
ENDBRANCH   1  27
TORSDOF 15
ENDMDL
MODEL 2
REMARK VINA RESULT:     -13.9      3.826     10.151
REMARK SMILES Cc1ccc(-c2cc(C[C@H]3CCCC3=O)ccc2[C@@H](C)C(=O)OCCOC(=O)c2ccc(-c3c4nc(c(-c5c(F)c(F)c(F)c(F)c5F)c5ccc([nH]5)c(-c5c(F)c(F)c(F)c(F)c5F)c5nc(c(-c6c(F)c(F)c(F)c(F)c6F)c6ccc3[nH]6)C=C5)C=C4)cc2)cc1
REMARK SMILES IDX 24 1 23 2 21 3 22 4 19 5 20 6 18 7 6 8 7 9 8 10 17 11 16 12
REMARK SMILES IDX 5 13 1 14 2 15 3 16 93 17 4 18 92 19 9 20 10 21 11 22 14 23
REMARK SMILES IDX 12 24 13 25 15 26 25 27 26 28 27 29 28 30 29 31 30 32 91 33
REMARK SMILES IDX 31 34 90 35 32 36 33 37 34 38 84 39 35 40 89 41 83 42 85 43
REMARK SMILES IDX 36 44 88 45 82 46 81 47 37 49 69 50 49 51 68 52 50 53 53 54
REMARK SMILES IDX 67 55 86 56 51 57 52 58 66 60 87 61 54 62 38 63 39 64 47 65
REMARK SMILES IDX 40 66 41 67 45 68 48 69 42 70 43 71 46 72 44 73 70 74 71 75
REMARK SMILES IDX 79 76 72 77 73 78 77 79 80 80 74 81 75 82 78 83 76 84 55 85
REMARK SMILES IDX 56 86 64 87 57 88 58 89 62 90 65 91 59 92 60 93 63 94 61 95
REMARK H PARENT 85 48 53 59
REMARK Flexibility Score: inf
ROOT
ATOM      1  C   UNL A   1      33.419  29.984  25.969  1.00  0.00     0.274 C 
ENDROOT
BRANCH   1   2
ATOM      2  O   UNL A   1      33.016  29.098  24.900  1.00  0.00    -0.462 OA
BRANCH   2   3
ATOM      3  C   UNL A   1      32.704  27.836  25.253  1.00  0.00     0.313 C 
ATOM      4  O   UNL A   1      33.448  26.897  24.992  1.00  0.00    -0.252 OA
BRANCH   3   5
ATOM      5  C   UNL A   1      31.342  27.657  25.968  1.00  0.00     0.127 C 
ATOM      6  C   UNL A   1      31.322  27.643  27.491  1.00  0.00     0.025 C 
BRANCH   5   7
ATOM      7  C   UNL A   1      30.791  26.360  25.389  1.00  0.00    -0.026 A 
ATOM      8  C   UNL A   1      30.309  26.327  24.061  1.00  0.00    -0.014 A 
ATOM      9  C   UNL A   1      30.464  25.127  23.352  1.00  0.00     0.012 A 
ATOM     10  C   UNL A   1      31.012  23.986  23.963  1.00  0.00    -0.047 A 
ATOM     11  C   UNL A   1      31.164  25.173  26.046  1.00  0.00     0.005 A 
ATOM     12  C   UNL A   1      31.254  23.992  25.337  1.00  0.00     0.004 A 
BRANCH   8  13
ATOM     13  C   UNL A   1      29.696  27.498  23.401  1.00  0.00    -0.018 A 
ATOM     14  C   UNL A   1      28.028  30.990  21.434  1.00  0.00     0.044 C 
ATOM     15  C   UNL A   1      28.606  29.782  22.113  1.00  0.00    -0.051 A 
ATOM     16  C   UNL A   1      27.789  28.919  22.850  1.00  0.00     0.004 A 
ATOM     17  C   UNL A   1      29.966  29.483  22.001  1.00  0.00     0.004 A 
ATOM     18  C   UNL A   1      28.330  27.800  23.501  1.00  0.00     0.009 A 
ATOM     19  C   UNL A   1      30.500  28.355  22.634  1.00  0.00     0.009 A 
ENDBRANCH   8  13
BRANCH  10  20
ATOM     20  C   UNL A   1      31.403  22.774  23.161  1.00  0.00     0.047 C 
BRANCH  20  21
ATOM     21  C   UNL A   1      32.914  22.587  22.935  1.00  0.00     0.060 C 
ATOM     22  C   UNL A   1      33.733  23.867  22.749  1.00  0.00     0.012 C 
ATOM     23  C   UNL A   1      33.644  21.876  24.053  1.00  0.00     0.136 C 
ATOM     24  C   UNL A   1      34.646  24.028  23.958  1.00  0.00     0.009 C 
ATOM     25  C   UNL A   1      34.792  22.667  24.613  1.00  0.00     0.076 C 
ATOM     26  O   UNL A   1      33.365  20.745  24.439  1.00  0.00    -0.299 OA
ENDBRANCH  20  21
ENDBRANCH  10  20
ENDBRANCH   5   7
ENDBRANCH   3   5
ENDBRANCH   2   3
ENDBRANCH   1   2
BRANCH   1  27
ATOM     27  C   UNL A   1      34.508  29.589  27.022  1.00  0.00     0.275 C 
BRANCH  27  28
ATOM     28  O   UNL A   1      35.517  30.450  27.662  1.00  0.00    -0.458 OA
BRANCH  28  29
ATOM     29  C   UNL A   1      36.280  30.315  28.772  1.00  0.00     0.338 C 
ATOM     30  O   UNL A   1      36.079  30.921  29.815  1.00  0.00    -0.246 OA
BRANCH  29  31
ATOM     31  C   UNL A   1      37.464  29.478  28.609  1.00  0.00     0.060 A 
ATOM     32  C   UNL A   1      38.372  29.669  27.553  1.00  0.00     0.016 A 
ATOM     33  C   UNL A   1      37.714  28.589  29.637  1.00  0.00     0.016 A 
ATOM     34  C   UNL A   1      39.627  29.070  27.625  1.00  0.00     0.010 A 
ATOM     35  C   UNL A   1      39.005  28.205  29.825  1.00  0.00     0.010 A 
ATOM     36  C   UNL A   1      39.944  28.389  28.798  1.00  0.00    -0.014 A 
BRANCH  36  37
ATOM     37  C   UNL A   1      41.066  27.488  28.980  1.00  0.00     0.031 A 
ATOM     38  C   UNL A   1      41.041  26.085  28.557  1.00  0.00     0.074 A 
ATOM     39  C   UNL A   1      42.176  28.216  29.231  1.00  0.00     0.049 A 
ATOM     40  N   UNL A   1      41.694  25.140  29.138  1.00  0.00    -0.248 NA
ATOM     41  C   UNL A   1      40.245  25.616  27.425  1.00  0.00     0.031 C 
ATOM     42  C   UNL A   1      43.582  27.933  29.063  1.00  0.00     0.029 A 
ATOM     43  N   UNL A   1      42.157  29.531  29.736  1.00  0.00    -0.354 N 
ATOM     44  C   UNL A   1      41.690  24.068  28.264  1.00  0.00     0.074 A 
ATOM     45  C   UNL A   1      40.615  24.332  27.339  1.00  0.00     0.031 C 
ATOM     46  C   UNL A   1      44.278  28.872  29.743  1.00  0.00     0.029 A 
ATOM     47  C   UNL A   1      43.319  29.708  30.469  1.00  0.00     0.049 A 
ATOM     48  H   UNL A   1      41.449  30.200  29.593  1.00  0.00     0.167 HD
ATOM     49  C   UNL A   1      42.775  23.235  28.216  1.00  0.00     0.037 A 
ATOM     50  C   UNL A   1      43.150  29.791  31.821  1.00  0.00     0.037 A 
ATOM     51  C   UNL A   1      43.850  23.818  29.020  1.00  0.00     0.049 A 
ATOM     52  C   UNL A   1      43.696  28.544  32.459  1.00  0.00     0.074 A 
ATOM     53  C   UNL A   1      44.924  24.607  28.636  1.00  0.00     0.029 A 
ATOM     54  N   UNL A   1      43.714  23.972  30.394  1.00  0.00    -0.354 N 
ATOM     55  N   UNL A   1      43.683  27.365  31.896  1.00  0.00    -0.248 NA
ATOM     56  C   UNL A   1      44.385  28.565  33.739  1.00  0.00     0.031 C 
ATOM     57  C   UNL A   1      45.395  25.290  29.785  1.00  0.00     0.029 A 
ATOM     58  C   UNL A   1      44.612  24.915  30.864  1.00  0.00     0.049 A 
ATOM     59  H   UNL A   1      43.070  23.481  30.954  1.00  0.00     0.167 HD
ATOM     60  C   UNL A   1      44.423  26.506  32.657  1.00  0.00     0.074 A 
ATOM     61  C   UNL A   1      44.820  27.295  33.812  1.00  0.00     0.031 C 
ATOM     62  C   UNL A   1      44.699  25.223  32.281  1.00  0.00     0.037 A 
BRANCH  49  63
ATOM     63  C   UNL A   1      43.039  22.156  27.177  1.00  0.00     0.064 A 
ATOM     64  C   UNL A   1      42.282  20.960  27.170  1.00  0.00     0.173 A 
ATOM     65  C   UNL A   1      44.002  22.238  26.152  1.00  0.00     0.173 A 
ATOM     66  F   UNL A   1      41.244  20.783  27.999  1.00  0.00    -0.203 F 
ATOM     67  C   UNL A   1      42.540  19.901  26.295  1.00  0.00     0.198 A 
ATOM     68  C   UNL A   1      44.285  21.162  25.296  1.00  0.00     0.198 A 
ATOM     69  F   UNL A   1      44.663  23.376  25.905  1.00  0.00    -0.203 F 
ATOM     70  F   UNL A   1      41.789  18.791  26.355  1.00  0.00    -0.200 F 
ATOM     71  C   UNL A   1      43.561  19.989  25.376  1.00  0.00     0.200 A 
ATOM     72  F   UNL A   1      45.261  21.276  24.383  1.00  0.00    -0.200 F 
ATOM     73  F   UNL A   1      43.824  18.966  24.551  1.00  0.00    -0.200 F 
ENDBRANCH  49  63
BRANCH  50  74
ATOM     74  C   UNL A   1      41.878  30.501  32.223  1.00  0.00     0.064 A 
ATOM     75  C   UNL A   1      41.790  31.898  32.014  1.00  0.00     0.173 A 
ATOM     76  C   UNL A   1      40.674  29.838  32.499  1.00  0.00     0.173 A 
ATOM     77  F   UNL A   1      42.898  32.603  31.731  1.00  0.00    -0.203 F 
ATOM     78  C   UNL A   1      40.566  32.572  31.983  1.00  0.00     0.198 A 
ATOM     79  C   UNL A   1      39.447  30.522  32.491  1.00  0.00     0.198 A 
ATOM     80  F   UNL A   1      40.658  28.513  32.701  1.00  0.00    -0.203 F 
ATOM     81  F   UNL A   1      40.527  33.876  31.673  1.00  0.00    -0.200 F 
ATOM     82  C   UNL A   1      39.392  31.879  32.207  1.00  0.00     0.200 A 
ATOM     83  F   UNL A   1      38.304  29.848  32.688  1.00  0.00    -0.200 F 
ATOM     84  F   UNL A   1      38.210  32.505  32.117  1.00  0.00    -0.200 F 
ENDBRANCH  50  74
BRANCH  62  85
ATOM     85  C   UNL A   1      45.201  24.156  33.212  1.00  0.00     0.064 A 
ATOM     86  C   UNL A   1      44.430  23.043  33.581  1.00  0.00     0.173 A 
ATOM     87  C   UNL A   1      46.555  24.134  33.624  1.00  0.00     0.173 A 
ATOM     88  F   UNL A   1      43.178  22.880  33.134  1.00  0.00    -0.203 F 
ATOM     89  C   UNL A   1      44.948  22.023  34.375  1.00  0.00     0.198 A 
ATOM     90  C   UNL A   1      47.088  23.074  34.351  1.00  0.00     0.198 A 
ATOM     91  F   UNL A   1      47.409  25.118  33.306  1.00  0.00    -0.203 F 
ATOM     92  F   UNL A   1      44.153  21.014  34.750  1.00  0.00    -0.200 F 
ATOM     93  C   UNL A   1      46.278  22.031  34.748  1.00  0.00     0.200 A 
ATOM     94  F   UNL A   1      48.396  23.063  34.644  1.00  0.00    -0.200 F 
ATOM     95  F   UNL A   1      46.785  21.022  35.466  1.00  0.00    -0.200 F 
ENDBRANCH  62  85
ENDBRANCH  36  37
ENDBRANCH  29  31
ENDBRANCH  28  29
ENDBRANCH  27  28
ENDBRANCH   1  27
TORSDOF 15
ENDMDL
MODEL 3
REMARK VINA RESULT:     -13.8      3.653     10.075
REMARK SMILES Cc1ccc(-c2cc(C[C@H]3CCCC3=O)ccc2[C@@H](C)C(=O)OCCOC(=O)c2ccc(-c3c4nc(c(-c5c(F)c(F)c(F)c(F)c5F)c5ccc([nH]5)c(-c5c(F)c(F)c(F)c(F)c5F)c5nc(c(-c6c(F)c(F)c(F)c(F)c6F)c6ccc3[nH]6)C=C5)C=C4)cc2)cc1
REMARK SMILES IDX 24 1 23 2 21 3 22 4 19 5 20 6 18 7 6 8 7 9 8 10 17 11 16 12
REMARK SMILES IDX 5 13 1 14 2 15 3 16 93 17 4 18 92 19 9 20 10 21 11 22 14 23
REMARK SMILES IDX 12 24 13 25 15 26 25 27 26 28 27 29 28 30 29 31 30 32 91 33
REMARK SMILES IDX 31 34 90 35 32 36 33 37 34 38 84 39 35 40 89 41 83 42 85 43
REMARK SMILES IDX 36 44 88 45 82 46 81 47 37 49 69 50 49 51 68 52 50 53 53 54
REMARK SMILES IDX 67 55 86 56 51 57 52 58 66 60 87 61 54 62 38 63 39 64 47 65
REMARK SMILES IDX 40 66 41 67 45 68 48 69 42 70 43 71 46 72 44 73 70 74 71 75
REMARK SMILES IDX 79 76 72 77 73 78 77 79 80 80 74 81 75 82 78 83 76 84 55 85
REMARK SMILES IDX 56 86 64 87 57 88 58 89 62 90 65 91 59 92 60 93 63 94 61 95
REMARK H PARENT 85 48 53 59
REMARK Flexibility Score: inf
ROOT
ATOM      1  C   UNL A   1      34.349  29.130  25.856  1.00  0.00     0.274 C 
ENDROOT
BRANCH   1   2
ATOM      2  O   UNL A   1      33.514  28.256  25.064  1.00  0.00    -0.462 OA
BRANCH   2   3
ATOM      3  C   UNL A   1      32.975  27.200  25.703  1.00  0.00     0.313 C 
ATOM      4  O   UNL A   1      33.637  26.201  25.959  1.00  0.00    -0.252 OA
BRANCH   3   5
ATOM      5  C   UNL A   1      31.471  27.324  26.054  1.00  0.00     0.127 C 
ATOM      6  C   UNL A   1      31.080  27.454  27.521  1.00  0.00     0.025 C 
BRANCH   5   7
ATOM      7  C   UNL A   1      30.842  26.093  25.413  1.00  0.00    -0.026 A 
ATOM      8  C   UNL A   1      30.425  26.134  24.063  1.00  0.00    -0.014 A 
ATOM      9  C   UNL A   1      30.513  24.941  23.330  1.00  0.00     0.012 A 
ATOM     10  C   UNL A   1      30.932  23.744  23.934  1.00  0.00    -0.047 A 
ATOM     11  C   UNL A   1      31.080  24.864  26.054  1.00  0.00     0.005 A 
ATOM     12  C   UNL A   1      31.105  23.697  25.318  1.00  0.00     0.004 A 
BRANCH   8  13
ATOM     13  C   UNL A   1      29.947  27.368  23.408  1.00  0.00    -0.018 A 
ATOM     14  C   UNL A   1      28.402  30.949  21.502  1.00  0.00     0.044 C 
ATOM     15  C   UNL A   1      28.935  29.711  22.163  1.00  0.00    -0.051 A 
ATOM     16  C   UNL A   1      30.296  29.395  22.093  1.00  0.00     0.004 A 
ATOM     17  C   UNL A   1      28.087  28.863  22.880  1.00  0.00     0.004 A 
ATOM     18  C   UNL A   1      30.793  28.228  22.694  1.00  0.00     0.009 A 
ATOM     19  C   UNL A   1      28.589  27.710  23.495  1.00  0.00     0.009 A 
ENDBRANCH   8  13
BRANCH  10  20
ATOM     20  C   UNL A   1      31.258  22.522  23.118  1.00  0.00     0.047 C 
BRANCH  20  21
ATOM     21  C   UNL A   1      32.755  22.279  22.857  1.00  0.00     0.060 C 
ATOM     22  C   UNL A   1      33.575  23.501  22.434  1.00  0.00     0.012 C 
ATOM     23  C   UNL A   1      33.531  21.741  24.040  1.00  0.00     0.136 C 
ATOM     24  C   UNL A   1      34.544  23.836  23.561  1.00  0.00     0.009 C 
ATOM     25  C   UNL A   1      34.710  22.593  24.415  1.00  0.00     0.076 C 
ATOM     26  O   UNL A   1      33.262  20.690  24.612  1.00  0.00    -0.299 OA
ENDBRANCH  20  21
ENDBRANCH  10  20
ENDBRANCH   5   7
ENDBRANCH   3   5
ENDBRANCH   2   3
ENDBRANCH   1   2
BRANCH   1  27
ATOM     27  C   UNL A   1      34.132  29.332  27.394  1.00  0.00     0.275 C 
BRANCH  27  28
ATOM     28  O   UNL A   1      34.974  30.073  28.347  1.00  0.00    -0.458 OA
BRANCH  28  29
ATOM     29  C   UNL A   1      36.155  30.723  28.228  1.00  0.00     0.338 C 
ATOM     30  O   UNL A   1      36.280  31.818  27.696  1.00  0.00    -0.246 OA
BRANCH  29  31
ATOM     31  C   UNL A   1      37.323  29.969  28.670  1.00  0.00     0.060 A 
ATOM     32  C   UNL A   1      37.264  29.065  29.745  1.00  0.00     0.016 A 
ATOM     33  C   UNL A   1      38.447  30.085  27.874  1.00  0.00     0.016 A 
ATOM     34  C   UNL A   1      38.299  28.150  29.916  1.00  0.00     0.010 A 
ATOM     35  C   UNL A   1      39.329  29.050  27.891  1.00  0.00     0.010 A 
ATOM     36  C   UNL A   1      39.295  28.121  28.942  1.00  0.00    -0.014 A 
BRANCH  36  37
ATOM     37  C   UNL A   1      40.573  27.447  29.055  1.00  0.00     0.031 A 
ATOM     38  C   UNL A   1      40.847  26.144  28.442  1.00  0.00     0.074 A 
ATOM     39  C   UNL A   1      41.504  28.337  29.460  1.00  0.00     0.049 A 
ATOM     40  N   UNL A   1      41.666  25.273  28.919  1.00  0.00    -0.248 NA
ATOM     41  C   UNL A   1      40.189  25.694  27.216  1.00  0.00     0.031 C 
ATOM     42  C   UNL A   1      42.942  28.369  29.328  1.00  0.00     0.029 A 
ATOM     43  N   UNL A   1      41.205  29.533  30.140  1.00  0.00    -0.354 N 
ATOM     44  C   UNL A   1      41.902  24.362  27.906  1.00  0.00     0.074 A 
ATOM     45  C   UNL A   1      40.817  24.537  26.973  1.00  0.00     0.031 C 
ATOM     46  C   UNL A   1      43.415  29.319  30.166  1.00  0.00     0.029 A 
ATOM     47  C   UNL A   1      42.289  29.831  30.949  1.00  0.00     0.049 A 
ATOM     48  H   UNL A   1      40.378  30.061  30.056  1.00  0.00     0.167 HD
ATOM     49  C   UNL A   1      43.135  23.779  27.800  1.00  0.00     0.037 A 
ATOM     50  C   UNL A   1      42.076  29.680  32.290  1.00  0.00     0.037 A 
ATOM     51  C   UNL A   1      44.050  24.442  28.731  1.00  0.00     0.049 A 
ATOM     52  C   UNL A   1      42.853  28.488  32.777  1.00  0.00     0.074 A 
ATOM     53  C   UNL A   1      44.947  25.477  28.515  1.00  0.00     0.029 A 
ATOM     54  N   UNL A   1      43.855  24.363  30.104  1.00  0.00    -0.354 N 
ATOM     55  N   UNL A   1      43.095  27.425  32.056  1.00  0.00    -0.248 NA
ATOM     56  C   UNL A   1      43.495  28.460  34.081  1.00  0.00     0.031 C 
ATOM     57  C   UNL A   1      45.242  26.065  29.770  1.00  0.00     0.029 A 
ATOM     58  C   UNL A   1      44.529  25.388  30.745  1.00  0.00     0.049 A 
ATOM     59  H   UNL A   1      43.313  23.677  30.557  1.00  0.00     0.167 HD
ATOM     60  C   UNL A   1      43.978  26.631  32.728  1.00  0.00     0.074 A 
ATOM     61  C   UNL A   1      44.179  27.306  34.000  1.00  0.00     0.031 C 
ATOM     62  C   UNL A   1      44.520  25.498  32.194  1.00  0.00     0.037 A 
BRANCH  49  63
ATOM     63  C   UNL A   1      43.639  22.937  26.637  1.00  0.00     0.064 A 
ATOM     64  C   UNL A   1      43.269  21.576  26.518  1.00  0.00     0.173 A 
ATOM     65  C   UNL A   1      44.467  23.405  25.598  1.00  0.00     0.173 A 
ATOM     66  F   UNL A   1      42.385  21.015  27.354  1.00  0.00    -0.203 F 
ATOM     67  C   UNL A   1      43.771  20.735  25.520  1.00  0.00     0.198 A 
ATOM     68  C   UNL A   1      44.998  22.554  24.616  1.00  0.00     0.198 A 
ATOM     69  F   UNL A   1      44.745  24.708  25.461  1.00  0.00    -0.203 F 
ATOM     70  F   UNL A   1      43.386  19.451  25.477  1.00  0.00    -0.200 F 
ATOM     71  C   UNL A   1      44.659  21.217  24.585  1.00  0.00     0.200 A 
ATOM     72  F   UNL A   1      45.836  23.046  23.691  1.00  0.00    -0.200 F 
ATOM     73  F   UNL A   1      45.158  20.407  23.641  1.00  0.00    -0.200 F 
ENDBRANCH  49  63
BRANCH  50  74
ATOM     74  C   UNL A   1      40.677  30.055  32.720  1.00  0.00     0.064 A 
ATOM     75  C   UNL A   1      40.266  31.402  32.577  1.00  0.00     0.173 A 
ATOM     76  C   UNL A   1      39.662  29.118  32.960  1.00  0.00     0.173 A 
ATOM     77  F   UNL A   1      41.177  32.358  32.332  1.00  0.00    -0.203 F 
ATOM     78  C   UNL A   1      38.918  31.773  32.574  1.00  0.00     0.198 A 
ATOM     79  C   UNL A   1      38.311  29.498  32.979  1.00  0.00     0.198 A 
ATOM     80  F   UNL A   1      39.957  27.818  33.098  1.00  0.00    -0.203 F 
ATOM     81  F   UNL A   1      38.575  33.046  32.326  1.00  0.00    -0.200 F 
ATOM     82  C   UNL A   1      37.939  30.817  32.760  1.00  0.00     0.200 A 
ATOM     83  F   UNL A   1      37.357  28.568  33.139  1.00  0.00    -0.200 F 
ATOM     84  F   UNL A   1      36.644  31.155  32.696  1.00  0.00    -0.200 F 
ENDBRANCH  50  74
BRANCH  62  85
ATOM     85  C   UNL A   1      45.210  24.428  32.993  1.00  0.00     0.064 A 
ATOM     86  C   UNL A   1      46.494  24.592  33.535  1.00  0.00     0.173 A 
ATOM     87  C   UNL A   1      44.516  23.261  33.388  1.00  0.00     0.173 A 
ATOM     88  F   UNL A   1      47.194  25.719  33.349  1.00  0.00    -0.203 F 
ATOM     89  C   UNL A   1      47.076  23.621  34.345  1.00  0.00     0.198 A 
ATOM     90  C   UNL A   1      45.073  22.331  34.261  1.00  0.00     0.198 A 
ATOM     91  F   UNL A   1      43.267  23.002  32.972  1.00  0.00    -0.203 F 
ATOM     92  F   UNL A   1      48.328  23.796  34.788  1.00  0.00    -0.200 F 
ATOM     93  C   UNL A   1      46.362  22.498  34.719  1.00  0.00     0.200 A 
ATOM     94  F   UNL A   1      44.341  21.284  34.670  1.00  0.00    -0.200 F 
ATOM     95  F   UNL A   1      46.907  21.594  35.541  1.00  0.00    -0.200 F 
ENDBRANCH  62  85
ENDBRANCH  36  37
ENDBRANCH  29  31
ENDBRANCH  28  29
ENDBRANCH  27  28
ENDBRANCH   1  27
TORSDOF 15
ENDMDL
