MODEL 1
REMARK VINA RESULT:     -12.2      0.000      0.000
REMARK SMILES C[N@@H+]1[C@H]2CC[C@@H]1[C@@H](C(=O)OCCOC(=O)c1ccc(-c3c4nc(c(-c5c(F)c(F)c(F)c(F)c5F)c5ccc([nH]5)c(-c5c(F)c(F)c(F)c(F)c5F)c5nc(c(-c6c(F)c(F)c(F)c(F)c6F)c6ccc3[nH]6)C=C5)C=C4)cc1)[C@@H](OC(=O)c1ccccc1)C2
REMARK SMILES IDX 11 1 10 2 8 3 9 4 7 5 1 6 2 7 3 8 6 9 4 11 89 12 5 13 79 14
REMARK SMILES IDX 80 15 81 16 82 17 83 18 84 19 88 20 85 21 87 22 86 23 12 24
REMARK SMILES IDX 13 25 14 26 15 27 16 28 17 29 78 30 18 31 77 32 19 33 20 34
REMARK SMILES IDX 21 35 71 36 22 37 76 38 70 39 72 40 23 41 75 42 69 43 68 44
REMARK SMILES IDX 24 46 56 47 36 48 55 49 37 50 40 51 54 52 73 53 38 54 39 55
REMARK SMILES IDX 53 57 74 58 41 59 25 60 26 61 34 62 27 63 28 64 32 65 35 66
REMARK SMILES IDX 29 67 30 68 33 69 31 70 57 71 58 72 66 73 59 74 60 75 64 76
REMARK SMILES IDX 67 77 61 78 62 79 65 80 63 81 42 82 43 83 51 84 44 85 45 86
REMARK SMILES IDX 49 87 52 88 46 89 47 90 50 91 48 92
REMARK H PARENT 2 10 72 45 40 56
REMARK Flexibility Score: inf
ROOT
ATOM      1  C   UNL A   1      31.791  28.701  27.275  1.00  0.00     0.274 C 
ENDROOT
BRANCH   1   2
ATOM      2  O   UNL A   1      32.498  27.534  26.800  1.00  0.00    -0.462 OA
BRANCH   2   3
ATOM      3  C   UNL A   1      31.721  26.517  26.364  1.00  0.00     0.318 C 
ATOM      4  O   UNL A   1      30.600  26.277  26.811  1.00  0.00    -0.252 OA
BRANCH   3   5
ATOM      5  C   UNL A   1      32.315  25.656  25.267  1.00  0.00     0.198 C 
ATOM      6  C   UNL A   1      30.462  27.539  23.580  1.00  0.00     0.333 C 
ATOM      7  N   UNL A   1      31.627  26.814  23.114  1.00  0.00    -0.332 N 
ATOM      8  C   UNL A   1      31.374  25.499  22.521  1.00  0.00     0.188 C 
ATOM      9  C   UNL A   1      32.702  26.578  24.082  1.00  0.00     0.202 C 
ATOM     10  H   UNL A   1      31.922  27.492  22.412  1.00  0.00     0.348 HD
ATOM     11  C   UNL A   1      32.812  25.122  22.136  1.00  0.00     0.071 C 
ATOM     12  C   UNL A   1      30.754  24.525  23.544  1.00  0.00     0.111 C 
ATOM     13  C   UNL A   1      33.697  25.870  23.146  1.00  0.00     0.072 C 
ATOM     14  C   UNL A   1      31.637  24.353  24.788  1.00  0.00     0.203 C 
BRANCH  14  15
ATOM     15  O   UNL A   1      31.187  23.486  25.857  1.00  0.00    -0.457 OA
BRANCH  15  16
ATOM     16  C   UNL A   1      32.013  22.793  26.671  1.00  0.00     0.338 C 
ATOM     17  O   UNL A   1      32.145  22.935  27.875  1.00  0.00    -0.246 OA
BRANCH  16  18
ATOM     18  C   UNL A   1      32.844  21.831  25.886  1.00  0.00     0.060 A 
ATOM     19  C   UNL A   1      32.181  20.806  25.196  1.00  0.00     0.015 A 
ATOM     20  C   UNL A   1      34.247  21.853  25.892  1.00  0.00     0.015 A 
ATOM     21  C   UNL A   1      32.906  19.789  24.571  1.00  0.00     0.001 A 
ATOM     22  C   UNL A   1      34.970  20.826  25.278  1.00  0.00     0.001 A 
ATOM     23  C   UNL A   1      34.300  19.792  24.626  1.00  0.00     0.000 A 
ENDBRANCH  16  18
ENDBRANCH  15  16
ENDBRANCH  14  15
ENDBRANCH   3   5
ENDBRANCH   2   3
ENDBRANCH   1   2
BRANCH   1  24
ATOM     24  C   UNL A   1      31.916  29.917  26.341  1.00  0.00     0.275 C 
BRANCH  24  25
ATOM     25  O   UNL A   1      33.272  30.376  26.150  1.00  0.00    -0.458 OA
BRANCH  25  26
ATOM     26  C   UNL A   1      33.682  31.224  27.114  1.00  0.00     0.338 C 
ATOM     27  O   UNL A   1      33.051  32.157  27.575  1.00  0.00    -0.246 OA
BRANCH  26  28
ATOM     28  C   UNL A   1      34.981  30.913  27.694  1.00  0.00     0.060 A 
ATOM     29  C   UNL A   1      35.146  29.622  28.208  1.00  0.00     0.016 A 
ATOM     30  C   UNL A   1      35.905  31.922  27.965  1.00  0.00     0.016 A 
ATOM     31  C   UNL A   1      36.243  29.329  29.001  1.00  0.00     0.010 A 
ATOM     32  C   UNL A   1      37.023  31.617  28.743  1.00  0.00     0.010 A 
ATOM     33  C   UNL A   1      37.192  30.322  29.262  1.00  0.00    -0.014 A 
BRANCH  33  34
ATOM     34  C   UNL A   1      38.415  29.967  30.006  1.00  0.00     0.031 A 
ATOM     35  C   UNL A   1      39.432  29.040  29.423  1.00  0.00     0.074 A 
ATOM     36  C   UNL A   1      38.587  30.517  31.221  1.00  0.00     0.049 A 
ATOM     37  N   UNL A   1      40.498  28.531  29.984  1.00  0.00    -0.248 NA
ATOM     38  C   UNL A   1      39.234  28.633  28.024  1.00  0.00     0.031 C 
ATOM     39  C   UNL A   1      37.673  31.478  31.842  1.00  0.00     0.029 A 
ATOM     40  N   UNL A   1      39.579  30.348  32.147  1.00  0.00    -0.354 N 
ATOM     41  C   UNL A   1      41.092  27.734  29.018  1.00  0.00     0.074 A 
ATOM     42  C   UNL A   1      40.267  27.821  27.831  1.00  0.00     0.031 C 
ATOM     43  C   UNL A   1      38.147  31.815  33.049  1.00  0.00     0.029 A 
ATOM     44  C   UNL A   1      39.360  31.049  33.306  1.00  0.00     0.049 A 
ATOM     45  H   UNL A   1      40.370  29.782  31.998  1.00  0.00     0.167 HD
ATOM     46  C   UNL A   1      42.221  26.994  29.128  1.00  0.00     0.037 A 
ATOM     47  C   UNL A   1      40.045  31.041  34.463  1.00  0.00     0.037 A 
ATOM     48  C   UNL A   1      43.023  26.919  30.323  1.00  0.00     0.049 A 
ATOM     49  C   UNL A   1      41.255  30.163  34.575  1.00  0.00     0.074 A 
ATOM     50  C   UNL A   1      44.168  26.178  30.554  1.00  0.00     0.029 A 
ATOM     51  N   UNL A   1      42.759  27.621  31.491  1.00  0.00    -0.354 N 
ATOM     52  N   UNL A   1      41.784  29.371  33.674  1.00  0.00    -0.248 NA
ATOM     53  C   UNL A   1      41.954  30.165  35.865  1.00  0.00     0.031 C 
ATOM     54  C   UNL A   1      44.581  26.410  31.871  1.00  0.00     0.029 A 
ATOM     55  C   UNL A   1      43.713  27.323  32.450  1.00  0.00     0.049 A 
ATOM     56  H   UNL A   1      42.004  28.241  31.620  1.00  0.00     0.167 HD
ATOM     57  C   UNL A   1      42.883  28.786  34.282  1.00  0.00     0.074 A 
ATOM     58  C   UNL A   1      42.954  29.329  35.625  1.00  0.00     0.031 C 
ATOM     59  C   UNL A   1      43.754  27.879  33.778  1.00  0.00     0.037 A 
BRANCH  46  60
ATOM     60  C   UNL A   1      42.639  26.182  27.940  1.00  0.00     0.064 A 
ATOM     61  C   UNL A   1      42.094  24.916  27.685  1.00  0.00     0.173 A 
ATOM     62  C   UNL A   1      43.563  26.698  27.017  1.00  0.00     0.173 A 
ATOM     63  F   UNL A   1      41.219  24.373  28.544  1.00  0.00    -0.203 F 
ATOM     64  C   UNL A   1      42.466  24.191  26.556  1.00  0.00     0.198 A 
ATOM     65  C   UNL A   1      43.919  25.979  25.880  1.00  0.00     0.198 A 
ATOM     66  F   UNL A   1      44.112  27.905  27.215  1.00  0.00    -0.203 F 
ATOM     67  F   UNL A   1      41.954  22.970  26.346  1.00  0.00    -0.200 F 
ATOM     68  C   UNL A   1      43.372  24.725  25.651  1.00  0.00     0.200 A 
ATOM     69  F   UNL A   1      44.789  26.499  25.004  1.00  0.00    -0.200 F 
ATOM     70  F   UNL A   1      43.725  24.028  24.562  1.00  0.00    -0.200 F 
ENDBRANCH  46  60
BRANCH  47  71
ATOM     71  C   UNL A   1      39.572  31.869  35.597  1.00  0.00     0.064 A 
ATOM     72  C   UNL A   1      40.044  33.174  35.782  1.00  0.00     0.173 A 
ATOM     73  C   UNL A   1      38.607  31.386  36.495  1.00  0.00     0.173 A 
ATOM     74  F   UNL A   1      40.979  33.670  34.958  1.00  0.00    -0.203 F 
ATOM     75  C   UNL A   1      39.573  33.965  36.828  1.00  0.00     0.198 A 
ATOM     76  C   UNL A   1      38.120  32.185  37.524  1.00  0.00     0.198 A 
ATOM     77  F   UNL A   1      38.121  30.144  36.354  1.00  0.00    -0.203 F 
ATOM     78  F   UNL A   1      40.061  35.201  37.001  1.00  0.00    -0.200 F 
ATOM     79  C   UNL A   1      38.607  33.473  37.693  1.00  0.00     0.200 A 
ATOM     80  F   UNL A   1      37.175  31.712  38.348  1.00  0.00    -0.200 F 
ATOM     81  F   UNL A   1      38.146  34.239  38.691  1.00  0.00    -0.200 F 
ENDBRANCH  47  71
BRANCH  59  82
ATOM     82  C   UNL A   1      44.860  27.439  34.685  1.00  0.00     0.064 A 
ATOM     83  C   UNL A   1      46.085  28.120  34.722  1.00  0.00     0.173 A 
ATOM     84  C   UNL A   1      44.687  26.335  35.533  1.00  0.00     0.173 A 
ATOM     85  F   UNL A   1      46.299  29.168  33.914  1.00  0.00    -0.203 F 
ATOM     86  C   UNL A   1      47.110  27.695  35.562  1.00  0.00     0.198 A 
ATOM     87  C   UNL A   1      45.707  25.926  36.385  1.00  0.00     0.198 A 
ATOM     88  F   UNL A   1      43.531  25.655  35.530  1.00  0.00    -0.203 F 
ATOM     89  F   UNL A   1      48.288  28.333  35.554  1.00  0.00    -0.200 F 
ATOM     90  C   UNL A   1      46.918  26.602  36.396  1.00  0.00     0.200 A 
ATOM     91  F   UNL A   1      45.520  24.874  37.193  1.00  0.00    -0.200 F 
ATOM     92  F   UNL A   1      47.907  26.194  37.202  1.00  0.00    -0.200 F 
ENDBRANCH  59  82
ENDBRANCH  33  34
ENDBRANCH  26  28
ENDBRANCH  25  26
ENDBRANCH  24  25
ENDBRANCH   1  24
TORSDOF 14
ENDMDL
MODEL 2
REMARK VINA RESULT:     -12.2      1.513      3.741
REMARK SMILES C[N@@H+]1[C@H]2CC[C@@H]1[C@@H](C(=O)OCCOC(=O)c1ccc(-c3c4nc(c(-c5c(F)c(F)c(F)c(F)c5F)c5ccc([nH]5)c(-c5c(F)c(F)c(F)c(F)c5F)c5nc(c(-c6c(F)c(F)c(F)c(F)c6F)c6ccc3[nH]6)C=C5)C=C4)cc1)[C@@H](OC(=O)c1ccccc1)C2
REMARK SMILES IDX 11 1 10 2 8 3 9 4 7 5 1 6 2 7 3 8 6 9 4 11 89 12 5 13 79 14
REMARK SMILES IDX 80 15 81 16 82 17 83 18 84 19 88 20 85 21 87 22 86 23 12 24
REMARK SMILES IDX 13 25 14 26 15 27 16 28 17 29 78 30 18 31 77 32 19 33 20 34
REMARK SMILES IDX 21 35 71 36 22 37 76 38 70 39 72 40 23 41 75 42 69 43 68 44
REMARK SMILES IDX 24 46 56 47 36 48 55 49 37 50 40 51 54 52 73 53 38 54 39 55
REMARK SMILES IDX 53 57 74 58 41 59 25 60 26 61 34 62 27 63 28 64 32 65 35 66
REMARK SMILES IDX 29 67 30 68 33 69 31 70 57 71 58 72 66 73 59 74 60 75 64 76
REMARK SMILES IDX 67 77 61 78 62 79 65 80 63 81 42 82 43 83 51 84 44 85 45 86
REMARK SMILES IDX 49 87 52 88 46 89 47 90 50 91 48 92
REMARK H PARENT 2 10 72 45 40 56
REMARK Flexibility Score: inf
ROOT
ATOM      1  C   UNL A   1      31.590  28.559  27.195  1.00  0.00     0.274 C 
ENDROOT
BRANCH   1   2
ATOM      2  O   UNL A   1      32.021  27.595  26.208  1.00  0.00    -0.462 OA
BRANCH   2   3
ATOM      3  C   UNL A   1      31.078  26.719  25.795  1.00  0.00     0.318 C 
ATOM      4  O   UNL A   1      30.275  26.175  26.554  1.00  0.00    -0.252 OA
BRANCH   3   5
ATOM      5  C   UNL A   1      31.055  26.425  24.309  1.00  0.00     0.198 C 
ATOM      6  C   UNL A   1      34.137  26.320  24.869  1.00  0.00     0.333 C 
ATOM      7  N   UNL A   1      33.427  25.689  23.775  1.00  0.00    -0.332 N 
ATOM      8  C   UNL A   1      33.353  26.452  22.528  1.00  0.00     0.188 C 
ATOM      9  C   UNL A   1      32.046  25.266  24.028  1.00  0.00     0.202 C 
ATOM     10  H   UNL A   1      34.036  24.877  23.684  1.00  0.00     0.348 HD
ATOM     11  C   UNL A   1      32.591  25.436  21.663  1.00  0.00     0.071 C 
ATOM     12  C   UNL A   1      32.581  27.774  22.716  1.00  0.00     0.111 C 
ATOM     13  C   UNL A   1      31.754  24.621  22.662  1.00  0.00     0.072 C 
ATOM     14  C   UNL A   1      31.159  27.544  23.249  1.00  0.00     0.203 C 
BRANCH  14  15
ATOM     15  O   UNL A   1      30.308  28.687  23.502  1.00  0.00    -0.457 OA
BRANCH  15  16
ATOM     16  C   UNL A   1      29.006  28.758  23.148  1.00  0.00     0.338 C 
ATOM     17  O   UNL A   1      28.201  27.841  23.126  1.00  0.00    -0.246 OA
BRANCH  16  18
ATOM     18  C   UNL A   1      28.656  30.137  22.695  1.00  0.00     0.060 A 
ATOM     19  C   UNL A   1      28.224  30.300  21.370  1.00  0.00     0.015 A 
ATOM     20  C   UNL A   1      28.833  31.273  23.499  1.00  0.00     0.015 A 
ATOM     21  C   UNL A   1      28.028  31.578  20.842  1.00  0.00     0.001 A 
ATOM     22  C   UNL A   1      28.651  32.552  22.963  1.00  0.00     0.001 A 
ATOM     23  C   UNL A   1      28.257  32.703  21.635  1.00  0.00     0.000 A 
ENDBRANCH  16  18
ENDBRANCH  15  16
ENDBRANCH  14  15
ENDBRANCH   3   5
ENDBRANCH   2   3
ENDBRANCH   1   2
BRANCH   1  24
ATOM     24  C   UNL A   1      31.778  30.019  26.751  1.00  0.00     0.275 C 
BRANCH  24  25
ATOM     25  O   UNL A   1      33.140  30.360  26.411  1.00  0.00    -0.458 OA
BRANCH  25  26
ATOM     26  C   UNL A   1      33.662  31.308  27.214  1.00  0.00     0.338 C 
ATOM     27  O   UNL A   1      33.129  32.350  27.547  1.00  0.00    -0.246 OA
BRANCH  26  28
ATOM     28  C   UNL A   1      34.961  30.982  27.786  1.00  0.00     0.060 A 
ATOM     29  C   UNL A   1      35.097  29.707  28.347  1.00  0.00     0.016 A 
ATOM     30  C   UNL A   1      35.919  31.972  28.001  1.00  0.00     0.016 A 
ATOM     31  C   UNL A   1      36.198  29.412  29.135  1.00  0.00     0.010 A 
ATOM     32  C   UNL A   1      37.041  31.665  28.773  1.00  0.00     0.010 A 
ATOM     33  C   UNL A   1      37.180  30.387  29.341  1.00  0.00    -0.014 A 
BRANCH  33  34
ATOM     34  C   UNL A   1      38.405  30.024  30.079  1.00  0.00     0.031 A 
ATOM     35  C   UNL A   1      39.422  29.104  29.485  1.00  0.00     0.074 A 
ATOM     36  C   UNL A   1      38.579  30.562  31.299  1.00  0.00     0.049 A 
ATOM     37  N   UNL A   1      40.489  28.590  30.039  1.00  0.00    -0.248 NA
ATOM     38  C   UNL A   1      39.220  28.711  28.082  1.00  0.00     0.031 C 
ATOM     39  C   UNL A   1      37.665  31.518  31.931  1.00  0.00     0.029 A 
ATOM     40  N   UNL A   1      39.573  30.385  32.221  1.00  0.00    -0.354 N 
ATOM     41  C   UNL A   1      41.081  27.803  29.064  1.00  0.00     0.074 A 
ATOM     42  C   UNL A   1      40.254  27.901  27.879  1.00  0.00     0.031 C 
ATOM     43  C   UNL A   1      38.142  31.842  33.141  1.00  0.00     0.029 A 
ATOM     44  C   UNL A   1      39.356  31.074  33.388  1.00  0.00     0.049 A 
ATOM     45  H   UNL A   1      40.364  29.820  32.065  1.00  0.00     0.167 HD
ATOM     46  C   UNL A   1      42.210  27.062  29.165  1.00  0.00     0.037 A 
ATOM     47  C   UNL A   1      40.043  31.056  34.543  1.00  0.00     0.037 A 
ATOM     48  C   UNL A   1      43.015  26.976  30.357  1.00  0.00     0.049 A 
ATOM     49  C   UNL A   1      41.253  30.177  34.645  1.00  0.00     0.074 A 
ATOM     50  C   UNL A   1      44.161  26.233  30.579  1.00  0.00     0.029 A 
ATOM     51  N   UNL A   1      42.752  27.666  31.533  1.00  0.00    -0.354 N 
ATOM     52  N   UNL A   1      41.781  29.393  33.735  1.00  0.00    -0.248 NA
ATOM     53  C   UNL A   1      41.955  30.166  35.933  1.00  0.00     0.031 C 
ATOM     54  C   UNL A   1      44.576  26.452  31.897  1.00  0.00     0.029 A 
ATOM     55  C   UNL A   1      43.709  27.359  32.487  1.00  0.00     0.049 A 
ATOM     56  H   UNL A   1      41.998  28.284  31.669  1.00  0.00     0.167 HD
ATOM     57  C   UNL A   1      42.882  28.803  34.335  1.00  0.00     0.074 A 
ATOM     58  C   UNL A   1      42.955  29.333  35.683  1.00  0.00     0.031 C 
ATOM     59  C   UNL A   1      43.751  27.901  33.820  1.00  0.00     0.037 A 
BRANCH  46  60
ATOM     60  C   UNL A   1      42.626  26.262  27.968  1.00  0.00     0.064 A 
ATOM     61  C   UNL A   1      42.103  24.986  27.717  1.00  0.00     0.173 A 
ATOM     62  C   UNL A   1      43.526  26.799  27.033  1.00  0.00     0.173 A 
ATOM     63  F   UNL A   1      41.251  24.424  28.587  1.00  0.00    -0.203 F 
ATOM     64  C   UNL A   1      42.473  24.272  26.579  1.00  0.00     0.198 A 
ATOM     65  C   UNL A   1      43.879  26.090  25.888  1.00  0.00     0.198 A 
ATOM     66  F   UNL A   1      44.054  28.016  27.227  1.00  0.00    -0.203 F 
ATOM     67  F   UNL A   1      41.981  23.042  26.373  1.00  0.00    -0.200 F 
ATOM     68  C   UNL A   1      43.354  24.826  25.663  1.00  0.00     0.200 A 
ATOM     69  F   UNL A   1      44.726  26.630  25.001  1.00  0.00    -0.200 F 
ATOM     70  F   UNL A   1      43.704  24.140  24.567  1.00  0.00    -0.200 F 
ENDBRANCH  46  60
BRANCH  47  71
ATOM     71  C   UNL A   1      39.571  31.872  35.686  1.00  0.00     0.064 A 
ATOM     72  C   UNL A   1      40.076  33.159  35.908  1.00  0.00     0.173 A 
ATOM     73  C   UNL A   1      38.577  31.397  36.556  1.00  0.00     0.173 A 
ATOM     74  F   UNL A   1      41.038  33.646  35.112  1.00  0.00    -0.203 F 
ATOM     75  C   UNL A   1      39.607  33.940  36.963  1.00  0.00     0.198 A 
ATOM     76  C   UNL A   1      38.093  32.187  37.594  1.00  0.00     0.198 A 
ATOM     77  F   UNL A   1      38.060  30.172  36.379  1.00  0.00    -0.203 F 
ATOM     78  F   UNL A   1      40.125  35.158  37.171  1.00  0.00    -0.200 F 
ATOM     79  C   UNL A   1      38.612  33.457  37.799  1.00  0.00     0.200 A 
ATOM     80  F   UNL A   1      37.120  31.723  38.390  1.00  0.00    -0.200 F 
ATOM     81  F   UNL A   1      38.153  34.214  38.805  1.00  0.00    -0.200 F 
ENDBRANCH  47  71
BRANCH  59  82
ATOM     82  C   UNL A   1      44.860  27.453  34.721  1.00  0.00     0.064 A 
ATOM     83  C   UNL A   1      44.726  26.317  35.531  1.00  0.00     0.173 A 
ATOM     84  C   UNL A   1      46.069  28.162  34.764  1.00  0.00     0.173 A 
ATOM     85  F   UNL A   1      43.578  25.623  35.535  1.00  0.00    -0.203 F 
ATOM     86  C   UNL A   1      45.760  25.918  36.372  1.00  0.00     0.198 A 
ATOM     87  C   UNL A   1      47.108  27.747  35.590  1.00  0.00     0.198 A 
ATOM     88  F   UNL A   1      46.240  29.254  34.005  1.00  0.00    -0.203 F 
ATOM     89  F   UNL A   1      45.598  24.854  37.169  1.00  0.00    -0.200 F 
ATOM     90  C   UNL A   1      46.951  26.629  36.398  1.00  0.00     0.200 A 
ATOM     91  F   UNL A   1      48.259  28.432  35.612  1.00  0.00    -0.200 F 
ATOM     92  F   UNL A   1      47.944  26.244  37.210  1.00  0.00    -0.200 F 
ENDBRANCH  59  82
ENDBRANCH  33  34
ENDBRANCH  26  28
ENDBRANCH  25  26
ENDBRANCH  24  25
ENDBRANCH   1  24
TORSDOF 14
ENDMDL
MODEL 3
REMARK VINA RESULT:     -12.1      4.420      9.434
REMARK SMILES C[N@@H+]1[C@H]2CC[C@@H]1[C@@H](C(=O)OCCOC(=O)c1ccc(-c3c4nc(c(-c5c(F)c(F)c(F)c(F)c5F)c5ccc([nH]5)c(-c5c(F)c(F)c(F)c(F)c5F)c5nc(c(-c6c(F)c(F)c(F)c(F)c6F)c6ccc3[nH]6)C=C5)C=C4)cc1)[C@@H](OC(=O)c1ccccc1)C2
REMARK SMILES IDX 11 1 10 2 8 3 9 4 7 5 1 6 2 7 3 8 6 9 4 11 89 12 5 13 79 14
REMARK SMILES IDX 80 15 81 16 82 17 83 18 84 19 88 20 85 21 87 22 86 23 12 24
REMARK SMILES IDX 13 25 14 26 15 27 16 28 17 29 78 30 18 31 77 32 19 33 20 34
REMARK SMILES IDX 21 35 71 36 22 37 76 38 70 39 72 40 23 41 75 42 69 43 68 44
REMARK SMILES IDX 24 46 56 47 36 48 55 49 37 50 40 51 54 52 73 53 38 54 39 55
REMARK SMILES IDX 53 57 74 58 41 59 25 60 26 61 34 62 27 63 28 64 32 65 35 66
REMARK SMILES IDX 29 67 30 68 33 69 31 70 57 71 58 72 66 73 59 74 60 75 64 76
REMARK SMILES IDX 67 77 61 78 62 79 65 80 63 81 42 82 43 83 51 84 44 85 45 86
REMARK SMILES IDX 49 87 52 88 46 89 47 90 50 91 48 92
REMARK H PARENT 2 10 72 45 40 56
REMARK Flexibility Score: inf
ROOT
ATOM      1  C   UNL A   1      35.631  20.569  24.940  1.00  0.00     0.274 C 
ENDROOT
BRANCH   1   2
ATOM      2  O   UNL A   1      34.968  21.844  25.100  1.00  0.00    -0.462 OA
BRANCH   2   3
ATOM      3  C   UNL A   1      34.732  22.527  23.957  1.00  0.00     0.318 C 
ATOM      4  O   UNL A   1      35.621  22.931  23.209  1.00  0.00    -0.252 OA
BRANCH   3   5
ATOM      5  C   UNL A   1      33.274  22.783  23.631  1.00  0.00     0.198 C 
ATOM      6  C   UNL A   1      33.727  24.873  25.922  1.00  0.00     0.333 C 
ATOM      7  N   UNL A   1      32.712  24.916  24.889  1.00  0.00    -0.332 N 
ATOM      8  C   UNL A   1      31.413  24.336  25.236  1.00  0.00     0.188 C 
ATOM      9  C   UNL A   1      33.047  24.316  23.594  1.00  0.00     0.202 C 
ATOM     10  H   UNL A   1      32.660  25.931  24.808  1.00  0.00     0.348 HD
ATOM     11  C   UNL A   1      30.658  24.627  23.930  1.00  0.00     0.071 C 
ATOM     12  C   UNL A   1      31.527  22.828  25.537  1.00  0.00     0.111 C 
ATOM     13  C   UNL A   1      31.746  24.655  22.846  1.00  0.00     0.072 C 
ATOM     14  C   UNL A   1      32.128  22.046  24.359  1.00  0.00     0.203 C 
BRANCH  14  15
ATOM     15  O   UNL A   1      32.323  20.618  24.488  1.00  0.00    -0.457 OA
BRANCH  15  16
ATOM     16  C   UNL A   1      32.332  19.755  23.449  1.00  0.00     0.338 C 
ATOM     17  O   UNL A   1      31.982  19.983  22.303  1.00  0.00    -0.246 OA
BRANCH  16  18
ATOM     18  C   UNL A   1      32.772  18.398  23.892  1.00  0.00     0.060 A 
ATOM     19  C   UNL A   1      32.521  18.031  25.222  1.00  0.00     0.015 A 
ATOM     20  C   UNL A   1      33.503  17.527  23.070  1.00  0.00     0.015 A 
ATOM     21  C   UNL A   1      33.039  16.842  25.738  1.00  0.00     0.001 A 
ATOM     22  C   UNL A   1      34.034  16.344  23.594  1.00  0.00     0.001 A 
ATOM     23  C   UNL A   1      33.809  16.007  24.928  1.00  0.00     0.000 A 
ENDBRANCH  16  18
ENDBRANCH  15  16
ENDBRANCH  14  15
ENDBRANCH   3   5
ENDBRANCH   2   3
ENDBRANCH   1   2
BRANCH   1  24
ATOM     24  C   UNL A   1      37.165  20.664  24.997  1.00  0.00     0.275 C 
BRANCH  24  25
ATOM     25  O   UNL A   1      37.658  21.785  25.764  1.00  0.00    -0.458 OA
BRANCH  25  26
ATOM     26  C   UNL A   1      38.924  21.615  26.193  1.00  0.00     0.338 C 
ATOM     27  O   UNL A   1      39.592  20.603  26.097  1.00  0.00    -0.246 OA
BRANCH  26  28
ATOM     28  C   UNL A   1      39.550  22.807  26.748  1.00  0.00     0.060 A 
ATOM     29  C   UNL A   1      39.210  24.028  26.155  1.00  0.00     0.016 A 
ATOM     30  C   UNL A   1      40.623  22.707  27.632  1.00  0.00     0.016 A 
ATOM     31  C   UNL A   1      39.946  25.165  26.442  1.00  0.00     0.010 A 
ATOM     32  C   UNL A   1      41.348  23.859  27.940  1.00  0.00     0.010 A 
ATOM     33  C   UNL A   1      41.011  25.088  27.346  1.00  0.00    -0.014 A 
BRANCH  33  34
ATOM     34  C   UNL A   1      41.711  26.326  27.736  1.00  0.00     0.031 A 
ATOM     35  C   UNL A   1      41.036  27.364  28.574  1.00  0.00     0.074 A 
ATOM     36  C   UNL A   1      42.980  26.481  27.323  1.00  0.00     0.049 A 
ATOM     37  N   UNL A   1      41.460  28.555  28.906  1.00  0.00    -0.248 NA
ATOM     38  C   UNL A   1      39.713  27.020  29.116  1.00  0.00     0.031 C 
ATOM     39  C   UNL A   1      43.737  25.491  26.552  1.00  0.00     0.029 A 
ATOM     40  N   UNL A   1      43.855  27.520  27.487  1.00  0.00    -0.354 N 
ATOM     41  C   UNL A   1      40.455  29.112  29.683  1.00  0.00     0.074 A 
ATOM     42  C   UNL A   1      39.395  28.130  29.773  1.00  0.00     0.031 C 
ATOM     43  C   UNL A   1      44.964  25.972  26.309  1.00  0.00     0.029 A 
ATOM     44  C   UNL A   1      45.056  27.321  26.854  1.00  0.00     0.049 A 
ATOM     45  H   UNL A   1      43.645  28.329  28.007  1.00  0.00     0.167 HD
ATOM     46  C   UNL A   1      40.431  30.339  30.257  1.00  0.00     0.037 A 
ATOM     47  C   UNL A   1      46.099  28.153  26.699  1.00  0.00     0.037 A 
ATOM     48  C   UNL A   1      41.497  31.302  30.150  1.00  0.00     0.049 A 
ATOM     49  C   UNL A   1      46.016  29.527  27.292  1.00  0.00     0.074 A 
ATOM     50  C   UNL A   1      41.564  32.584  30.665  1.00  0.00     0.029 A 
ATOM     51  N   UNL A   1      42.691  31.079  29.477  1.00  0.00    -0.354 N 
ATOM     52  N   UNL A   1      45.042  30.069  27.984  1.00  0.00    -0.248 NA
ATOM     53  C   UNL A   1      47.166  30.411  27.074  1.00  0.00     0.031 C 
ATOM     54  C   UNL A   1      42.787  33.146  30.281  1.00  0.00     0.029 A 
ATOM     55  C   UNL A   1      43.497  32.203  29.555  1.00  0.00     0.049 A 
ATOM     56  H   UNL A   1      42.931  30.244  29.012  1.00  0.00     0.167 HD
ATOM     57  C   UNL A   1      45.463  31.352  28.292  1.00  0.00     0.074 A 
ATOM     58  C   UNL A   1      46.790  31.502  27.725  1.00  0.00     0.031 C 
ATOM     59  C   UNL A   1      44.811  32.321  28.978  1.00  0.00     0.037 A 
BRANCH  46  60
ATOM     60  C   UNL A   1      39.202  30.722  31.026  1.00  0.00     0.064 A 
ATOM     61  C   UNL A   1      39.093  30.485  32.403  1.00  0.00     0.173 A 
ATOM     62  C   UNL A   1      38.140  31.378  30.385  1.00  0.00     0.173 A 
ATOM     63  F   UNL A   1      40.075  29.849  33.058  1.00  0.00    -0.203 F 
ATOM     64  C   UNL A   1      37.960  30.882  33.109  1.00  0.00     0.198 A 
ATOM     65  C   UNL A   1      37.017  31.789  31.097  1.00  0.00     0.198 A 
ATOM     66  F   UNL A   1      38.196  31.628  29.068  1.00  0.00    -0.203 F 
ATOM     67  F   UNL A   1      37.863  30.620  34.421  1.00  0.00    -0.200 F 
ATOM     68  C   UNL A   1      36.926  31.539  32.458  1.00  0.00     0.200 A 
ATOM     69  F   UNL A   1      36.022  32.430  30.467  1.00  0.00    -0.200 F 
ATOM     70  F   UNL A   1      35.839  31.924  33.141  1.00  0.00    -0.200 F 
ENDBRANCH  46  60
BRANCH  47  71
ATOM     71  C   UNL A   1      47.281  27.707  25.925  1.00  0.00     0.064 A 
ATOM     72  C   UNL A   1      47.284  27.756  24.525  1.00  0.00     0.173 A 
ATOM     73  C   UNL A   1      48.446  27.261  26.569  1.00  0.00     0.173 A 
ATOM     74  F   UNL A   1      46.188  28.159  23.867  1.00  0.00    -0.203 F 
ATOM     75  C   UNL A   1      48.408  27.369  23.798  1.00  0.00     0.198 A 
ATOM     76  C   UNL A   1      49.575  26.898  25.842  1.00  0.00     0.198 A 
ATOM     77  F   UNL A   1      48.491  27.203  27.908  1.00  0.00    -0.203 F 
ATOM     78  F   UNL A   1      48.377  27.398  22.458  1.00  0.00    -0.200 F 
ATOM     79  C   UNL A   1      49.554  26.948  24.456  1.00  0.00     0.200 A 
ATOM     80  F   UNL A   1      50.685  26.507  26.482  1.00  0.00    -0.200 F 
ATOM     81  F   UNL A   1      50.638  26.589  23.755  1.00  0.00    -0.200 F 
ENDBRANCH  47  71
BRANCH  59  82
ATOM     82  C   UNL A   1      45.540  33.615  29.161  1.00  0.00     0.064 A 
ATOM     83  C   UNL A   1      46.381  33.828  30.261  1.00  0.00     0.173 A 
ATOM     84  C   UNL A   1      45.403  34.646  28.219  1.00  0.00     0.173 A 
ATOM     85  F   UNL A   1      46.525  32.876  31.195  1.00  0.00    -0.203 F 
ATOM     86  C   UNL A   1      47.046  35.040  30.425  1.00  0.00     0.198 A 
ATOM     87  C   UNL A   1      46.084  35.848  28.376  1.00  0.00     0.198 A 
ATOM     88  F   UNL A   1      44.608  34.485  27.151  1.00  0.00    -0.203 F 
ATOM     89  F   UNL A   1      47.813  35.240  31.504  1.00  0.00    -0.200 F 
ATOM     90  C   UNL A   1      46.900  36.047  29.481  1.00  0.00     0.200 A 
ATOM     91  F   UNL A   1      45.947  36.818  27.463  1.00  0.00    -0.200 F 
ATOM     92  F   UNL A   1      47.538  37.213  29.642  1.00  0.00    -0.200 F 
ENDBRANCH  59  82
ENDBRANCH  33  34
ENDBRANCH  26  28
ENDBRANCH  25  26
ENDBRANCH  24  25
ENDBRANCH   1  24
TORSDOF 14
ENDMDL
