MODEL 1
REMARK VINA RESULT:     -12.8      0.000      0.000
REMARK SMILES Cc1occc1C(=O)N1CCC(C(=O)OCCOC(=O)c2ccc(-c3c4nc(c(-c5c(F)c(F)c(F)c(F)c5F)c5ccc([nH]5)c(-c5c(F)c(F)c(F)c(F)c5F)c5nc(c(-c6c(F)c(F)c(F)c(F)c6F)c6ccc3[nH]6)C=C5)C=C4)cc2)(n2cccn2)CC1
REMARK SMILES IDX 17 1 16 2 15 3 13 4 14 5 12 6 7 7 8 8 9 9 10 10 90 11 11 12
REMARK SMILES IDX 89 13 6 14 1 15 2 16 3 17 4 18 5 19 84 20 85 21 88 22 86 23
REMARK SMILES IDX 87 24 18 25 19 26 20 27 21 28 22 29 83 30 23 31 82 32 24 33
REMARK SMILES IDX 25 34 26 35 76 36 27 37 81 38 75 39 77 40 28 41 80 42 74 43
REMARK SMILES IDX 73 44 29 46 61 47 41 48 60 49 42 50 45 51 59 52 78 53 43 54
REMARK SMILES IDX 44 55 58 57 79 58 46 59 30 60 31 61 39 62 32 63 33 64 37 65
REMARK SMILES IDX 40 66 34 67 35 68 38 69 36 70 62 71 63 72 71 73 64 74 65 75
REMARK SMILES IDX 69 76 72 77 66 78 67 79 70 80 68 81 47 82 48 83 56 84 49 85
REMARK SMILES IDX 50 86 54 87 57 88 51 89 52 90 55 91 53 92
REMARK H PARENT 77 45 45 56
REMARK Flexibility Score: inf
ROOT
ATOM      1  C   UNL A   1      31.618  29.709  25.678  1.00  0.00     0.275 C 
ENDROOT
BRANCH   1   2
ATOM      2  C   UNL A   1      31.484  28.781  24.472  1.00  0.00     0.274 C 
BRANCH   2   3
ATOM      3  O   UNL A   1      32.103  27.502  24.734  1.00  0.00    -0.460 OA
BRANCH   3   4
ATOM      4  C   UNL A   1      31.626  26.417  24.051  1.00  0.00     0.334 C 
ATOM      5  O   UNL A   1      30.611  26.473  23.369  1.00  0.00    -0.249 OA
BRANCH   4   6
ATOM      6  C   UNL A   1      32.467  25.136  24.321  1.00  0.00     0.163 C 
ATOM      7  C   UNL A   1      36.297  23.192  23.719  1.00  0.00     0.257 C 
ATOM      8  O   UNL A   1      36.637  22.953  22.562  1.00  0.00    -0.269 OA
ATOM      9  N   UNL A   1      35.047  23.754  24.005  1.00  0.00    -0.338 N 
ATOM     10  C   UNL A   1      33.967  23.414  23.091  1.00  0.00     0.123 C 
ATOM     11  C   UNL A   1      34.717  24.443  25.249  1.00  0.00     0.123 C 
ATOM     12  C   UNL A   1      32.864  24.458  22.984  1.00  0.00     0.064 C 
ATOM     13  C   UNL A   1      33.766  25.608  25.012  1.00  0.00     0.064 C 
BRANCH   7  14
ATOM     14  C   UNL A   1      37.191  22.845  24.815  1.00  0.00     0.081 A 
ATOM     15  C   UNL A   1      37.522  20.222  24.631  1.00  0.00     0.088 C 
ATOM     16  C   UNL A   1      37.689  21.594  25.157  1.00  0.00     0.113 A 
ATOM     17  O   UNL A   1      38.589  21.707  26.174  1.00  0.00    -0.469 OA
ATOM     18  C   UNL A   1      38.725  23.026  26.451  1.00  0.00     0.196 A 
ATOM     19  C   UNL A   1      37.900  23.768  25.642  1.00  0.00     0.056 A 
ENDBRANCH   7  14
BRANCH   6  20
ATOM     20  N   UNL A   1      31.725  24.233  25.235  1.00  0.00    -0.255 N 
ATOM     21  C   UNL A   1      31.238  24.475  26.497  1.00  0.00     0.110 A 
ATOM     22  N   UNL A   1      31.337  23.014  24.791  1.00  0.00    -0.180 NA
ATOM     23  C   UNL A   1      30.523  23.361  26.875  1.00  0.00     0.042 A 
ATOM     24  C   UNL A   1      30.658  22.475  25.801  1.00  0.00     0.135 A 
ENDBRANCH   6  20
ENDBRANCH   4   6
ENDBRANCH   3   4
ENDBRANCH   2   3
ENDBRANCH   1   2
BRANCH   1  25
ATOM     25  O   UNL A   1      32.996  30.078  25.867  1.00  0.00    -0.458 OA
BRANCH  25  26
ATOM     26  C   UNL A   1      33.224  31.010  26.819  1.00  0.00     0.338 C 
ATOM     27  O   UNL A   1      32.452  31.847  27.249  1.00  0.00    -0.246 OA
BRANCH  26  28
ATOM     28  C   UNL A   1      34.550  30.782  27.402  1.00  0.00     0.060 A 
ATOM     29  C   UNL A   1      34.883  29.478  27.752  1.00  0.00     0.016 A 
ATOM     30  C   UNL A   1      35.397  31.839  27.732  1.00  0.00     0.016 A 
ATOM     31  C   UNL A   1      36.027  29.221  28.495  1.00  0.00     0.010 A 
ATOM     32  C   UNL A   1      36.587  31.570  28.424  1.00  0.00     0.010 A 
ATOM     33  C   UNL A   1      36.897  30.262  28.840  1.00  0.00    -0.014 A 
BRANCH  33  34
ATOM     34  C   UNL A   1      38.080  29.970  29.692  1.00  0.00     0.031 A 
ATOM     35  C   UNL A   1      39.199  29.121  29.151  1.00  0.00     0.074 A 
ATOM     36  C   UNL A   1      38.195  30.516  30.918  1.00  0.00     0.049 A 
ATOM     37  N   UNL A   1      40.237  28.623  29.774  1.00  0.00    -0.248 NA
ATOM     38  C   UNL A   1      39.145  28.794  27.718  1.00  0.00     0.031 C 
ATOM     39  C   UNL A   1      37.235  31.434  31.531  1.00  0.00     0.029 A 
ATOM     40  N   UNL A   1      39.183  30.389  31.865  1.00  0.00    -0.354 N 
ATOM     41  C   UNL A   1      40.925  27.878  28.825  1.00  0.00     0.074 A 
ATOM     42  C   UNL A   1      40.198  28.000  27.580  1.00  0.00     0.031 C 
ATOM     43  C   UNL A   1      37.695  31.814  32.734  1.00  0.00     0.029 A 
ATOM     44  C   UNL A   1      38.934  31.098  33.016  1.00  0.00     0.049 A 
ATOM     45  H   UNL A   1      39.992  29.844  31.732  1.00  0.00     0.167 HD
ATOM     46  C   UNL A   1      42.057  27.152  28.985  1.00  0.00     0.037 A 
ATOM     47  C   UNL A   1      39.602  31.130  34.186  1.00  0.00     0.037 A 
ATOM     48  C   UNL A   1      42.807  27.075  30.210  1.00  0.00     0.049 A 
ATOM     49  C   UNL A   1      40.826  30.269  34.354  1.00  0.00     0.074 A 
ATOM     50  C   UNL A   1      43.956  26.350  30.476  1.00  0.00     0.029 A 
ATOM     51  N   UNL A   1      42.494  27.767  31.370  1.00  0.00    -0.354 N 
ATOM     52  N   UNL A   1      41.422  29.497  33.479  1.00  0.00    -0.248 NA
ATOM     53  C   UNL A   1      41.454  30.264  35.683  1.00  0.00     0.031 C 
ATOM     54  C   UNL A   1      44.320  26.579  31.807  1.00  0.00     0.029 A 
ATOM     55  C   UNL A   1      43.421  27.478  32.357  1.00  0.00     0.049 A 
ATOM     56  H   UNL A   1      41.726  28.374  31.476  1.00  0.00     0.167 HD
ATOM     57  C   UNL A   1      42.497  28.924  34.145  1.00  0.00     0.074 A 
ATOM     58  C   UNL A   1      42.487  29.456  35.491  1.00  0.00     0.031 C 
ATOM     59  C   UNL A   1      43.404  28.028  33.687  1.00  0.00     0.037 A 
BRANCH  46  60
ATOM     60  C   UNL A   1      42.533  26.339  27.819  1.00  0.00     0.064 A 
ATOM     61  C   UNL A   1      42.015  25.069  27.537  1.00  0.00     0.173 A 
ATOM     62  C   UNL A   1      43.492  26.871  26.942  1.00  0.00     0.173 A 
ATOM     63  F   UNL A   1      41.110  24.512  28.355  1.00  0.00    -0.203 F 
ATOM     64  C   UNL A   1      42.450  24.352  26.424  1.00  0.00     0.198 A 
ATOM     65  C   UNL A   1      43.908  26.162  25.818  1.00  0.00     0.198 A 
ATOM     66  F   UNL A   1      44.016  28.085  27.168  1.00  0.00    -0.203 F 
ATOM     67  F   UNL A   1      41.967  23.124  26.189  1.00  0.00    -0.200 F 
ATOM     68  C   UNL A   1      43.389  24.902  25.563  1.00  0.00     0.200 A 
ATOM     69  F   UNL A   1      44.807  26.699  24.983  1.00  0.00    -0.200 F 
ATOM     70  F   UNL A   1      43.798  24.214  24.488  1.00  0.00    -0.200 F 
ENDBRANCH  46  60
BRANCH  47  71
ATOM     71  C   UNL A   1      39.096  31.953  35.316  1.00  0.00     0.064 A 
ATOM     72  C   UNL A   1      39.392  33.320  35.405  1.00  0.00     0.173 A 
ATOM     73  C   UNL A   1      38.331  31.383  36.345  1.00  0.00     0.173 A 
ATOM     74  F   UNL A   1      40.147  33.904  34.463  1.00  0.00    -0.203 F 
ATOM     75  C   UNL A   1      38.958  34.080  36.490  1.00  0.00     0.198 A 
ATOM     76  C   UNL A   1      37.870  32.152  37.410  1.00  0.00     0.198 A 
ATOM     77  F   UNL A   1      38.026  30.078  36.312  1.00  0.00    -0.203 F 
ATOM     78  F   UNL A   1      39.303  35.372  36.579  1.00  0.00    -0.200 F 
ATOM     79  C   UNL A   1      38.192  33.497  37.488  1.00  0.00     0.200 A 
ATOM     80  F   UNL A   1      37.120  31.585  38.367  1.00  0.00    -0.200 F 
ATOM     81  F   UNL A   1      37.776  34.229  38.531  1.00  0.00    -0.200 F 
ENDBRANCH  47  71
BRANCH  59  82
ATOM     82  C   UNL A   1      44.478  27.592  34.637  1.00  0.00     0.064 A 
ATOM     83  C   UNL A   1      45.674  28.311  34.769  1.00  0.00     0.173 A 
ATOM     84  C   UNL A   1      44.291  26.465  35.452  1.00  0.00     0.173 A 
ATOM     85  F   UNL A   1      45.904  29.386  33.999  1.00  0.00    -0.203 F 
ATOM     86  C   UNL A   1      46.654  27.906  35.671  1.00  0.00     0.198 A 
ATOM     87  C   UNL A   1      45.263  26.078  36.369  1.00  0.00     0.198 A 
ATOM     88  F   UNL A   1      43.161  25.748  35.364  1.00  0.00    -0.203 F 
ATOM     89  F   UNL A   1      47.807  28.585  35.753  1.00  0.00    -0.200 F 
ATOM     90  C   UNL A   1      46.445  26.795  36.473  1.00  0.00     0.200 A 
ATOM     91  F   UNL A   1      45.055  25.010  37.151  1.00  0.00    -0.200 F 
ATOM     92  F   UNL A   1      47.388  26.410  37.345  1.00  0.00    -0.200 F 
ENDBRANCH  59  82
ENDBRANCH  33  34
ENDBRANCH  26  28
ENDBRANCH  25  26
ENDBRANCH   1  25
TORSDOF 13
ENDMDL
MODEL 2
REMARK VINA RESULT:     -12.8      0.339      1.656
REMARK SMILES Cc1occc1C(=O)N1CCC(C(=O)OCCOC(=O)c2ccc(-c3c4nc(c(-c5c(F)c(F)c(F)c(F)c5F)c5ccc([nH]5)c(-c5c(F)c(F)c(F)c(F)c5F)c5nc(c(-c6c(F)c(F)c(F)c(F)c6F)c6ccc3[nH]6)C=C5)C=C4)cc2)(n2cccn2)CC1
REMARK SMILES IDX 17 1 16 2 15 3 13 4 14 5 12 6 7 7 8 8 9 9 10 10 90 11 11 12
REMARK SMILES IDX 89 13 6 14 1 15 2 16 3 17 4 18 5 19 84 20 85 21 88 22 86 23
REMARK SMILES IDX 87 24 18 25 19 26 20 27 21 28 22 29 83 30 23 31 82 32 24 33
REMARK SMILES IDX 25 34 26 35 76 36 27 37 81 38 75 39 77 40 28 41 80 42 74 43
REMARK SMILES IDX 73 44 29 46 61 47 41 48 60 49 42 50 45 51 59 52 78 53 43 54
REMARK SMILES IDX 44 55 58 57 79 58 46 59 30 60 31 61 39 62 32 63 33 64 37 65
REMARK SMILES IDX 40 66 34 67 35 68 38 69 36 70 62 71 63 72 71 73 64 74 65 75
REMARK SMILES IDX 69 76 72 77 66 78 67 79 70 80 68 81 47 82 48 83 56 84 49 85
REMARK SMILES IDX 50 86 54 87 57 88 51 89 52 90 55 91 53 92
REMARK H PARENT 77 45 45 56
REMARK Flexibility Score: inf
ROOT
ATOM      1  C   UNL A   1      31.562  29.792  25.407  1.00  0.00     0.275 C 
ENDROOT
BRANCH   1   2
ATOM      2  C   UNL A   1      31.520  28.836  24.216  1.00  0.00     0.274 C 
BRANCH   2   3
ATOM      3  O   UNL A   1      32.080  27.552  24.566  1.00  0.00    -0.460 OA
BRANCH   3   4
ATOM      4  C   UNL A   1      31.678  26.467  23.835  1.00  0.00     0.334 C 
ATOM      5  O   UNL A   1      30.717  26.512  23.079  1.00  0.00    -0.249 OA
BRANCH   4   6
ATOM      6  C   UNL A   1      32.524  25.199  24.153  1.00  0.00     0.163 C 
ATOM      7  C   UNL A   1      36.399  23.299  23.727  1.00  0.00     0.257 C 
ATOM      8  O   UNL A   1      36.789  23.052  22.587  1.00  0.00    -0.269 OA
ATOM      9  N   UNL A   1      35.131  23.847  23.956  1.00  0.00    -0.338 N 
ATOM     10  C   UNL A   1      34.094  23.485  23.003  1.00  0.00     0.123 C 
ATOM     11  C   UNL A   1      34.741  24.544  25.178  1.00  0.00     0.123 C 
ATOM     12  C   UNL A   1      32.983  24.513  22.840  1.00  0.00     0.064 C 
ATOM     13  C   UNL A   1      33.788  25.695  24.891  1.00  0.00     0.064 C 
BRANCH   7  14
ATOM     14  C   UNL A   1      37.251  22.973  24.862  1.00  0.00     0.081 A 
ATOM     15  C   UNL A   1      37.532  20.339  24.782  1.00  0.00     0.088 C 
ATOM     16  C   UNL A   1      37.711  21.726  25.264  1.00  0.00     0.113 A 
ATOM     17  O   UNL A   1      38.583  21.857  26.304  1.00  0.00    -0.469 OA
ATOM     18  C   UNL A   1      38.738  23.182  26.538  1.00  0.00     0.196 A 
ATOM     19  C   UNL A   1      37.954  23.911  25.678  1.00  0.00     0.056 A 
ENDBRANCH   7  14
BRANCH   6  20
ATOM     20  N   UNL A   1      31.756  24.296  25.045  1.00  0.00    -0.255 N 
ATOM     21  C   UNL A   1      31.297  23.022  24.812  1.00  0.00     0.110 A 
ATOM     22  N   UNL A   1      31.531  24.666  26.327  1.00  0.00    -0.180 NA
ATOM     23  C   UNL A   1      30.747  22.569  25.990  1.00  0.00     0.042 A 
ATOM     24  C   UNL A   1      30.879  23.643  26.877  1.00  0.00     0.135 A 
ENDBRANCH   6  20
ENDBRANCH   4   6
ENDBRANCH   3   4
ENDBRANCH   2   3
ENDBRANCH   1   2
BRANCH   1  25
ATOM     25  O   UNL A   1      32.891  29.837  25.957  1.00  0.00    -0.458 OA
BRANCH  25  26
ATOM     26  C   UNL A   1      33.142  30.873  26.788  1.00  0.00     0.338 C 
ATOM     27  O   UNL A   1      32.379  31.753  27.143  1.00  0.00    -0.246 OA
BRANCH  26  28
ATOM     28  C   UNL A   1      34.488  30.717  27.351  1.00  0.00     0.060 A 
ATOM     29  C   UNL A   1      34.939  29.423  27.587  1.00  0.00     0.016 A 
ATOM     30  C   UNL A   1      35.237  31.814  27.774  1.00  0.00     0.016 A 
ATOM     31  C   UNL A   1      36.106  29.208  28.307  1.00  0.00     0.010 A 
ATOM     32  C   UNL A   1      36.450  31.596  28.442  1.00  0.00     0.010 A 
ATOM     33  C   UNL A   1      36.881  30.290  28.743  1.00  0.00    -0.014 A 
BRANCH  33  34
ATOM     34  C   UNL A   1      38.090  30.034  29.568  1.00  0.00     0.031 A 
ATOM     35  C   UNL A   1      39.219  29.213  29.006  1.00  0.00     0.074 A 
ATOM     36  C   UNL A   1      38.220  30.590  30.790  1.00  0.00     0.049 A 
ATOM     37  N   UNL A   1      40.284  28.745  29.606  1.00  0.00    -0.248 NA
ATOM     38  C   UNL A   1      39.140  28.876  27.575  1.00  0.00     0.031 C 
ATOM     39  C   UNL A   1      37.250  31.485  31.421  1.00  0.00     0.029 A 
ATOM     40  N   UNL A   1      39.232  30.494  31.714  1.00  0.00    -0.354 N 
ATOM     41  C   UNL A   1      40.970  28.014  28.646  1.00  0.00     0.074 A 
ATOM     42  C   UNL A   1      40.211  28.110  27.417  1.00  0.00     0.031 C 
ATOM     43  C   UNL A   1      37.727  31.883  32.611  1.00  0.00     0.029 A 
ATOM     44  C   UNL A   1      38.991  31.201  32.867  1.00  0.00     0.049 A 
ATOM     45  H   UNL A   1      40.051  29.970  31.564  1.00  0.00     0.167 HD
ATOM     46  C   UNL A   1      42.123  27.319  28.782  1.00  0.00     0.037 A 
ATOM     47  C   UNL A   1      39.685  31.257  34.020  1.00  0.00     0.037 A 
ATOM     48  C   UNL A   1      42.904  27.268  29.990  1.00  0.00     0.049 A 
ATOM     49  C   UNL A   1      40.935  30.430  34.164  1.00  0.00     0.074 A 
ATOM     50  C   UNL A   1      44.077  26.575  30.233  1.00  0.00     0.029 A 
ATOM     51  N   UNL A   1      42.599  27.958  31.154  1.00  0.00    -0.354 N 
ATOM     52  N   UNL A   1      41.531  29.670  33.279  1.00  0.00    -0.248 NA
ATOM     53  C   UNL A   1      41.593  30.449  35.478  1.00  0.00     0.031 C 
ATOM     54  C   UNL A   1      44.466  26.821  31.553  1.00  0.00     0.029 A 
ATOM     55  C   UNL A   1      43.556  27.698  32.120  1.00  0.00     0.049 A 
ATOM     56  H   UNL A   1      41.818  28.545  31.274  1.00  0.00     0.167 HD
ATOM     57  C   UNL A   1      42.635  29.129  33.922  1.00  0.00     0.074 A 
ATOM     58  C   UNL A   1      42.642  29.668  35.266  1.00  0.00     0.031 C 
ATOM     59  C   UNL A   1      43.555  28.255  33.447  1.00  0.00     0.037 A 
BRANCH  46  60
ATOM     60  C   UNL A   1      42.594  26.513  27.609  1.00  0.00     0.064 A 
ATOM     61  C   UNL A   1      43.558  26.996  26.714  1.00  0.00     0.173 A 
ATOM     62  C   UNL A   1      42.101  25.214  27.411  1.00  0.00     0.173 A 
ATOM     63  F   UNL A   1      44.046  28.237  26.852  1.00  0.00    -0.203 F 
ATOM     64  C   UNL A   1      44.004  26.209  25.654  1.00  0.00     0.198 A 
ATOM     65  C   UNL A   1      42.565  24.422  26.364  1.00  0.00     0.198 A 
ATOM     66  F   UNL A   1      41.178  24.707  28.242  1.00  0.00    -0.203 F 
ATOM     67  F   UNL A   1      44.903  26.700  24.790  1.00  0.00    -0.200 F 
ATOM     68  C   UNL A   1      43.513  24.922  25.485  1.00  0.00     0.200 A 
ATOM     69  F   UNL A   1      42.097  23.177  26.209  1.00  0.00    -0.200 F 
ATOM     70  F   UNL A   1      43.951  24.165  24.470  1.00  0.00    -0.200 F 
ENDBRANCH  46  60
BRANCH  47  71
ATOM     71  C   UNL A   1      39.183  32.072  35.158  1.00  0.00     0.064 A 
ATOM     72  C   UNL A   1      39.468  33.442  35.248  1.00  0.00     0.173 A 
ATOM     73  C   UNL A   1      38.434  31.493  36.194  1.00  0.00     0.173 A 
ATOM     74  F   UNL A   1      40.207  34.036  34.300  1.00  0.00    -0.203 F 
ATOM     75  C   UNL A   1      39.038  34.195  36.340  1.00  0.00     0.198 A 
ATOM     76  C   UNL A   1      37.978  32.254  37.266  1.00  0.00     0.198 A 
ATOM     77  F   UNL A   1      38.142  30.185  36.160  1.00  0.00    -0.203 F 
ATOM     78  F   UNL A   1      39.372  35.490  36.429  1.00  0.00    -0.200 F 
ATOM     79  C   UNL A   1      38.288  33.602  37.345  1.00  0.00     0.200 A 
ATOM     80  F   UNL A   1      37.244  31.678  38.229  1.00  0.00    -0.200 F 
ATOM     81  F   UNL A   1      37.876  34.328  38.393  1.00  0.00    -0.200 F 
ENDBRANCH  47  71
BRANCH  59  82
ATOM     82  C   UNL A   1      44.662  27.853  34.374  1.00  0.00     0.064 A 
ATOM     83  C   UNL A   1      44.556  26.716  35.189  1.00  0.00     0.173 A 
ATOM     84  C   UNL A   1      45.855  28.588  34.418  1.00  0.00     0.173 A 
ATOM     85  F   UNL A   1      43.429  25.991  35.194  1.00  0.00    -0.203 F 
ATOM     86  C   UNL A   1      45.602  26.342  36.029  1.00  0.00     0.198 A 
ATOM     87  C   UNL A   1      46.906  28.198  35.241  1.00  0.00     0.198 A 
ATOM     88  F   UNL A   1      46.004  29.680  33.653  1.00  0.00    -0.203 F 
ATOM     89  F   UNL A   1      45.465  25.276  36.830  1.00  0.00    -0.200 F 
ATOM     90  C   UNL A   1      46.776  27.078  36.050  1.00  0.00     0.200 A 
ATOM     91  F   UNL A   1      48.045  28.904  35.252  1.00  0.00    -0.200 F 
ATOM     92  F   UNL A   1      47.784  26.713  36.856  1.00  0.00    -0.200 F 
ENDBRANCH  59  82
ENDBRANCH  33  34
ENDBRANCH  26  28
ENDBRANCH  25  26
ENDBRANCH   1  25
TORSDOF 13
ENDMDL
MODEL 3
REMARK VINA RESULT:     -12.7      3.899      9.584
REMARK SMILES Cc1occc1C(=O)N1CCC(C(=O)OCCOC(=O)c2ccc(-c3c4nc(c(-c5c(F)c(F)c(F)c(F)c5F)c5ccc([nH]5)c(-c5c(F)c(F)c(F)c(F)c5F)c5nc(c(-c6c(F)c(F)c(F)c(F)c6F)c6ccc3[nH]6)C=C5)C=C4)cc2)(n2cccn2)CC1
REMARK SMILES IDX 17 1 16 2 15 3 13 4 14 5 12 6 7 7 8 8 9 9 10 10 90 11 11 12
REMARK SMILES IDX 89 13 6 14 1 15 2 16 3 17 4 18 5 19 84 20 85 21 88 22 86 23
REMARK SMILES IDX 87 24 18 25 19 26 20 27 21 28 22 29 83 30 23 31 82 32 24 33
REMARK SMILES IDX 25 34 26 35 76 36 27 37 81 38 75 39 77 40 28 41 80 42 74 43
REMARK SMILES IDX 73 44 29 46 61 47 41 48 60 49 42 50 45 51 59 52 78 53 43 54
REMARK SMILES IDX 44 55 58 57 79 58 46 59 30 60 31 61 39 62 32 63 33 64 37 65
REMARK SMILES IDX 40 66 34 67 35 68 38 69 36 70 62 71 63 72 71 73 64 74 65 75
REMARK SMILES IDX 69 76 72 77 66 78 67 79 70 80 68 81 47 82 48 83 56 84 49 85
REMARK SMILES IDX 50 86 54 87 57 88 51 89 52 90 55 91 53 92
REMARK H PARENT 77 45 45 56
REMARK Flexibility Score: inf
ROOT
ATOM      1  C   UNL A   1      36.029  20.917  25.020  1.00  0.00     0.275 C 
ENDROOT
BRANCH   1   2
ATOM      2  C   UNL A   1      34.558  21.197  25.322  1.00  0.00     0.274 C 
BRANCH   2   3
ATOM      3  O   UNL A   1      34.237  22.585  25.081  1.00  0.00    -0.460 OA
BRANCH   3   4
ATOM      4  C   UNL A   1      32.974  22.875  24.641  1.00  0.00     0.334 C 
ATOM      5  O   UNL A   1      32.228  22.013  24.195  1.00  0.00    -0.249 OA
BRANCH   4   6
ATOM      6  C   UNL A   1      32.665  24.398  24.703  1.00  0.00     0.163 C 
ATOM      7  C   UNL A   1      32.281  27.857  27.292  1.00  0.00     0.257 C 
ATOM      8  O   UNL A   1      31.403  27.828  28.152  1.00  0.00    -0.269 OA
ATOM      9  N   UNL A   1      32.428  26.813  26.371  1.00  0.00    -0.338 N 
ATOM     10  C   UNL A   1      31.210  26.108  26.001  1.00  0.00     0.123 C 
ATOM     11  C   UNL A   1      33.644  26.549  25.608  1.00  0.00     0.123 C 
ATOM     12  C   UNL A   1      31.409  24.661  25.573  1.00  0.00     0.064 C 
ATOM     13  C   UNL A   1      33.872  25.057  25.410  1.00  0.00     0.064 C 
BRANCH   7  14
ATOM     14  C   UNL A   1      33.156  29.018  27.199  1.00  0.00     0.081 A 
ATOM     15  C   UNL A   1      31.570  31.023  26.501  1.00  0.00     0.088 C 
ATOM     16  C   UNL A   1      32.819  30.326  26.876  1.00  0.00     0.113 A 
ATOM     17  O   UNL A   1      33.904  31.140  27.015  1.00  0.00    -0.469 OA
ATOM     18  C   UNL A   1      34.923  30.381  27.486  1.00  0.00     0.196 A 
ATOM     19  C   UNL A   1      34.518  29.076  27.626  1.00  0.00     0.056 A 
ENDBRANCH   7  14
BRANCH   6  20
ATOM     20  N   UNL A   1      32.545  24.941  23.327  1.00  0.00    -0.255 N 
ATOM     21  C   UNL A   1      31.456  25.495  22.699  1.00  0.00     0.110 A 
ATOM     22  N   UNL A   1      33.654  25.041  22.556  1.00  0.00    -0.180 NA
ATOM     23  C   UNL A   1      31.886  25.953  21.474  1.00  0.00     0.042 A 
ATOM     24  C   UNL A   1      33.240  25.604  21.422  1.00  0.00     0.135 A 
ENDBRANCH   6  20
ENDBRANCH   4   6
ENDBRANCH   3   4
ENDBRANCH   2   3
ENDBRANCH   1   2
BRANCH   1  25
ATOM     25  O   UNL A   1      36.857  21.929  25.619  1.00  0.00    -0.458 OA
BRANCH  25  26
ATOM     26  C   UNL A   1      38.158  21.597  25.778  1.00  0.00     0.338 C 
ATOM     27  O   UNL A   1      38.734  20.603  25.376  1.00  0.00    -0.246 OA
BRANCH  26  28
ATOM     28  C   UNL A   1      38.863  22.717  26.411  1.00  0.00     0.060 A 
ATOM     29  C   UNL A   1      38.414  24.002  26.126  1.00  0.00     0.016 A 
ATOM     30  C   UNL A   1      40.025  22.526  27.155  1.00  0.00     0.016 A 
ATOM     31  C   UNL A   1      39.156  25.108  26.518  1.00  0.00     0.010 A 
ATOM     32  C   UNL A   1      40.739  23.644  27.610  1.00  0.00     0.010 A 
ATOM     33  C   UNL A   1      40.327  24.946  27.268  1.00  0.00    -0.014 A 
BRANCH  33  34
ATOM     34  C   UNL A   1      41.138  26.142  27.618  1.00  0.00     0.031 A 
ATOM     35  C   UNL A   1      40.548  27.214  28.493  1.00  0.00     0.074 A 
ATOM     36  C   UNL A   1      42.422  26.242  27.220  1.00  0.00     0.049 A 
ATOM     37  N   UNL A   1      41.023  28.398  28.789  1.00  0.00    -0.248 NA
ATOM     38  C   UNL A   1      39.253  26.913  29.124  1.00  0.00     0.031 C 
ATOM     39  C   UNL A   1      43.153  25.235  26.451  1.00  0.00     0.029 A 
ATOM     40  N   UNL A   1      43.346  27.239  27.424  1.00  0.00    -0.354 N 
ATOM     41  C   UNL A   1      40.062  29.003  29.588  1.00  0.00     0.074 A 
ATOM     42  C   UNL A   1      38.982  28.052  29.746  1.00  0.00     0.031 C 
ATOM     43  C   UNL A   1      44.418  25.647  26.276  1.00  0.00     0.029 A 
ATOM     44  C   UNL A   1      44.564  26.985  26.840  1.00  0.00     0.049 A 
ATOM     45  H   UNL A   1      43.155  28.056  27.939  1.00  0.00     0.167 HD
ATOM     46  C   UNL A   1      40.078  30.242  30.132  1.00  0.00     0.037 A 
ATOM     47  C   UNL A   1      45.660  27.761  26.729  1.00  0.00     0.037 A 
ATOM     48  C   UNL A   1      41.176  31.166  30.018  1.00  0.00     0.049 A 
ATOM     49  C   UNL A   1      45.631  29.156  27.295  1.00  0.00     0.074 A 
ATOM     50  C   UNL A   1      41.279  32.452  30.517  1.00  0.00     0.029 A 
ATOM     51  N   UNL A   1      42.373  30.890  29.374  1.00  0.00    -0.354 N 
ATOM     52  N   UNL A   1      44.683  29.754  27.974  1.00  0.00    -0.248 NA
ATOM     53  C   UNL A   1      46.814  29.993  27.053  1.00  0.00     0.031 C 
ATOM     54  C   UNL A   1      42.526  32.966  30.149  1.00  0.00     0.029 A 
ATOM     55  C   UNL A   1      43.215  31.986  29.455  1.00  0.00     0.049 A 
ATOM     56  H   UNL A   1      42.591  30.040  28.926  1.00  0.00     0.167 HD
ATOM     57  C   UNL A   1      45.157  31.028  28.249  1.00  0.00     0.074 A 
ATOM     58  C   UNL A   1      46.488  31.111  27.685  1.00  0.00     0.031 C 
ATOM     59  C   UNL A   1      44.542  32.044  28.900  1.00  0.00     0.037 A 
BRANCH  46  60
ATOM     60  C   UNL A   1      38.852  30.697  30.865  1.00  0.00     0.064 A 
ATOM     61  C   UNL A   1      38.733  30.586  32.256  1.00  0.00     0.173 A 
ATOM     62  C   UNL A   1      37.800  31.300  30.158  1.00  0.00     0.173 A 
ATOM     63  F   UNL A   1      39.704  30.002  32.973  1.00  0.00    -0.203 F 
ATOM     64  C   UNL A   1      37.597  31.052  32.914  1.00  0.00     0.198 A 
ATOM     65  C   UNL A   1      36.676  31.786  30.821  1.00  0.00     0.198 A 
ATOM     66  F   UNL A   1      37.868  31.431  28.825  1.00  0.00    -0.203 F 
ATOM     67  F   UNL A   1      37.487  30.909  34.242  1.00  0.00    -0.200 F 
ATOM     68  C   UNL A   1      36.574  31.658  32.198  1.00  0.00     0.200 A 
ATOM     69  F   UNL A   1      35.695  32.379  30.128  1.00  0.00    -0.200 F 
ATOM     70  F   UNL A   1      35.487  32.114  32.834  1.00  0.00    -0.200 F 
ENDBRANCH  46  60
BRANCH  47  71
ATOM     71  C   UNL A   1      46.856  27.267  25.996  1.00  0.00     0.064 A 
ATOM     72  C   UNL A   1      47.868  26.558  26.657  1.00  0.00     0.173 A 
ATOM     73  C   UNL A   1      47.027  27.521  24.626  1.00  0.00     0.173 A 
ATOM     74  F   UNL A   1      47.767  26.318  27.973  1.00  0.00    -0.203 F 
ATOM     75  C   UNL A   1      49.012  26.139  25.981  1.00  0.00     0.198 A 
ATOM     76  C   UNL A   1      48.154  27.072  23.945  1.00  0.00     0.198 A 
ATOM     77  F   UNL A   1      46.092  28.203  23.949  1.00  0.00    -0.203 F 
ATOM     78  F   UNL A   1      49.990  25.511  26.649  1.00  0.00    -0.200 F 
ATOM     79  C   UNL A   1      49.151  26.390  24.623  1.00  0.00     0.200 A 
ATOM     80  F   UNL A   1      48.278  27.308  22.631  1.00  0.00    -0.200 F 
ATOM     81  F   UNL A   1      50.252  25.986  23.974  1.00  0.00    -0.200 F 
ENDBRANCH  47  71
BRANCH  59  82
ATOM     82  C   UNL A   1      45.312  33.320  29.066  1.00  0.00     0.064 A 
ATOM     83  C   UNL A   1      45.215  34.359  28.130  1.00  0.00     0.173 A 
ATOM     84  C   UNL A   1      46.123  33.519  30.193  1.00  0.00     0.173 A 
ATOM     85  F   UNL A   1      44.464  34.208  27.029  1.00  0.00    -0.203 F 
ATOM     86  C   UNL A   1      45.919  35.547  28.308  1.00  0.00     0.198 A 
ATOM     87  C   UNL A   1      46.807  34.717  30.378  1.00  0.00     0.198 A 
ATOM     88  F   UNL A   1      46.243  32.555  31.118  1.00  0.00    -0.203 F 
ATOM     89  F   UNL A   1      45.845  36.512  27.381  1.00  0.00    -0.200 F 
ATOM     90  C   UNL A   1      46.709  35.727  29.433  1.00  0.00     0.200 A 
ATOM     91  F   UNL A   1      47.561  34.893  31.472  1.00  0.00    -0.200 F 
ATOM     92  F   UNL A   1      47.382  36.873  29.605  1.00  0.00    -0.200 F 
ENDBRANCH  59  82
ENDBRANCH  33  34
ENDBRANCH  26  28
ENDBRANCH  25  26
ENDBRANCH   1  25
TORSDOF 13
ENDMDL
