MODEL 1
REMARK VINA RESULT:     -13.1      0.000      0.000
REMARK SMILES CC(C)Oc1ccc(-c2ccc(/C(=C\c3ccc(S(C)(=O)=O)cc3)C(=O)OCCOC(=O)c3ccc(-c4c5nc(c(-c6c(F)c(F)c(F)c(F)c6F)c6ccc([nH]6)c(-c6c(F)c(F)c(F)c(F)c6F)c6nc(c(-c7c(F)c(F)c(F)c(F)c7F)c7ccc4[nH]7)C=C6)C=C5)cc3)cc2)cc1
REMARK SMILES IDX 28 1 27 2 25 3 26 4 13 5 14 6 12 7 9 8 10 9 97 10 11 11
REMARK SMILES IDX 96 12 8 13 5 14 6 15 99 16 7 17 98 18 4 19 2 20 1 21 3 22
REMARK SMILES IDX 15 23 16 24 24 25 17 26 23 27 18 28 19 29 20 30 21 31 22 32
REMARK SMILES IDX 29 33 30 34 31 35 32 36 33 37 34 38 95 39 35 40 94 41 36 42
REMARK SMILES IDX 37 43 38 44 88 45 39 46 93 47 87 48 89 49 40 50 92 51 86 52
REMARK SMILES IDX 85 53 41 55 73 56 53 57 72 58 54 59 57 60 71 61 90 62 55 63
REMARK SMILES IDX 56 64 70 66 91 67 58 68 42 69 43 70 51 71 44 72 45 73 49 74
REMARK SMILES IDX 52 75 46 76 47 77 50 78 48 79 74 80 75 81 83 82 76 83 77 84
REMARK SMILES IDX 81 85 84 86 78 87 79 88 82 89 80 90 59 91 60 92 68 93 61 94
REMARK SMILES IDX 62 95 66 96 69 97 63 98 64 99 67 100 65 101
REMARK H PARENT 89 54 57 65
REMARK Flexibility Score: inf
ROOT
ATOM      1  C   UNL A   1      31.561  28.077  24.994  1.00  0.00     0.275 C 
ENDROOT
BRANCH   1   2
ATOM      2  O   UNL A   1      32.691  27.211  24.756  1.00  0.00    -0.458 OA
BRANCH   2   3
ATOM      3  C   UNL A   1      32.709  26.501  23.590  1.00  0.00     0.338 C 
ATOM      4  O   UNL A   1      32.524  26.993  22.486  1.00  0.00    -0.246 OA
BRANCH   3   5
ATOM      5  C   UNL A   1      33.012  25.025  23.828  1.00  0.00     0.067 C 
ATOM      6  C   UNL A   1      31.899  24.238  23.770  1.00  0.00     0.024 C 
BRANCH   5   7
ATOM      7  C   UNL A   1      34.438  24.578  24.150  1.00  0.00    -0.011 A 
ATOM      8  C   UNL A   1      36.820  23.153  24.960  1.00  0.00    -0.018 A 
ATOM      9  C   UNL A   1      36.350  23.086  23.659  1.00  0.00     0.009 A 
ATOM     10  C   UNL A   1      36.212  24.094  25.795  1.00  0.00     0.009 A 
ATOM     11  C   UNL A   1      35.227  23.828  23.265  1.00  0.00     0.009 A 
ATOM     12  C   UNL A   1      35.035  24.776  25.406  1.00  0.00     0.009 A 
BRANCH   8  13
ATOM     13  C   UNL A   1      37.875  22.240  25.417  1.00  0.00    -0.018 A 
ATOM     14  C   UNL A   1      39.928  20.473  26.242  1.00  0.00     0.119 A 
ATOM     15  C   UNL A   1      39.898  21.797  26.686  1.00  0.00     0.047 A 
ATOM     16  C   UNL A   1      38.929  20.026  25.394  1.00  0.00     0.047 A 
ATOM     17  C   UNL A   1      38.887  22.675  26.274  1.00  0.00     0.012 A 
ATOM     18  C   UNL A   1      37.931  20.910  24.966  1.00  0.00     0.012 A 
BRANCH  14  19
ATOM     19  O   UNL A   1      40.906  19.692  26.781  1.00  0.00    -0.491 OA
BRANCH  19  20
ATOM     20  C   UNL A   1      42.047  19.306  26.002  1.00  0.00     0.167 C 
ATOM     21  C   UNL A   1      43.067  20.417  25.819  1.00  0.00     0.052 C 
ATOM     22  C   UNL A   1      42.680  17.985  26.427  1.00  0.00     0.052 C 
ENDBRANCH  19  20
ENDBRANCH  14  19
ENDBRANCH   8  13
ENDBRANCH   5   7
BRANCH   6  23
ATOM     23  C   UNL A   1      31.798  22.782  23.939  1.00  0.00    -0.025 A 
ATOM     24  C   UNL A   1      31.933  21.973  22.802  1.00  0.00     0.009 A 
ATOM     25  C   UNL A   1      31.787  22.201  25.217  1.00  0.00     0.009 A 
ATOM     26  C   UNL A   1      32.219  20.616  22.943  1.00  0.00     0.021 A 
ATOM     27  C   UNL A   1      32.090  20.842  25.364  1.00  0.00     0.021 A 
ATOM     28  C   UNL A   1      32.348  20.070  24.226  1.00  0.00     0.067 A 
BRANCH  28  29
ATOM     29  S   UNL A   1      33.091  18.461  24.393  1.00  0.00     0.175 S 
ATOM     30  C   UNL A   1      32.838  17.704  22.815  1.00  0.00     0.163 C 
ATOM     31  O   UNL A   1      34.516  18.669  24.571  1.00  0.00    -0.224 OA
ATOM     32  O   UNL A   1      32.324  17.723  25.378  1.00  0.00    -0.224 OA
ENDBRANCH  28  29
ENDBRANCH   6  23
ENDBRANCH   3   5
ENDBRANCH   2   3
ENDBRANCH   1   2
BRANCH   1  33
ATOM     33  C   UNL A   1      31.996  29.545  25.033  1.00  0.00     0.275 C 
BRANCH  33  34
ATOM     34  O   UNL A   1      33.209  29.699  25.793  1.00  0.00    -0.458 OA
BRANCH  34  35
ATOM     35  C   UNL A   1      33.227  30.772  26.622  1.00  0.00     0.338 C 
ATOM     36  O   UNL A   1      32.340  31.584  26.800  1.00  0.00    -0.246 OA
BRANCH  35  37
ATOM     37  C   UNL A   1      34.425  30.694  27.476  1.00  0.00     0.060 A 
ATOM     38  C   UNL A   1      34.756  29.429  27.944  1.00  0.00     0.016 A 
ATOM     39  C   UNL A   1      35.210  31.798  27.823  1.00  0.00     0.016 A 
ATOM     40  C   UNL A   1      35.900  29.259  28.711  1.00  0.00     0.010 A 
ATOM     41  C   UNL A   1      36.356  31.618  28.621  1.00  0.00     0.010 A 
ATOM     42  C   UNL A   1      36.723  30.335  29.053  1.00  0.00    -0.014 A 
BRANCH  42  43
ATOM     43  C   UNL A   1      37.924  30.063  29.888  1.00  0.00     0.031 A 
ATOM     44  C   UNL A   1      39.056  29.252  29.329  1.00  0.00     0.074 A 
ATOM     45  C   UNL A   1      38.075  30.661  31.086  1.00  0.00     0.049 A 
ATOM     46  N   UNL A   1      40.174  28.874  29.898  1.00  0.00    -0.248 NA
ATOM     47  C   UNL A   1      38.922  28.830  27.928  1.00  0.00     0.031 C 
ATOM     48  C   UNL A   1      37.118  31.587  31.688  1.00  0.00     0.029 A 
ATOM     49  N   UNL A   1      39.102  30.603  31.998  1.00  0.00    -0.354 N 
ATOM     50  C   UNL A   1      40.871  28.164  28.932  1.00  0.00     0.074 A 
ATOM     51  C   UNL A   1      40.051  28.163  27.739  1.00  0.00     0.031 C 
ATOM     52  C   UNL A   1      37.606  32.016  32.865  1.00  0.00     0.029 A 
ATOM     53  C   UNL A   1      38.876  31.344  33.134  1.00  0.00     0.049 A 
ATOM     54  H   UNL A   1      39.923  30.079  31.852  1.00  0.00     0.167 HD
ATOM     55  C   UNL A   1      42.084  27.567  29.032  1.00  0.00     0.037 A 
ATOM     56  C   UNL A   1      39.589  31.434  34.276  1.00  0.00     0.037 A 
ATOM     57  C   UNL A   1      42.900  27.570  30.222  1.00  0.00     0.049 A 
ATOM     58  C   UNL A   1      40.867  30.642  34.415  1.00  0.00     0.074 A 
ATOM     59  C   UNL A   1      44.140  26.987  30.422  1.00  0.00     0.029 A 
ATOM     60  N   UNL A   1      42.571  28.212  31.409  1.00  0.00    -0.354 N 
ATOM     61  N   UNL A   1      41.486  29.901  33.528  1.00  0.00    -0.248 NA
ATOM     62  C   UNL A   1      41.534  30.679  35.726  1.00  0.00     0.031 C 
ATOM     63  C   UNL A   1      44.546  27.246  31.735  1.00  0.00     0.029 A 
ATOM     64  C   UNL A   1      43.581  28.031  32.343  1.00  0.00     0.049 A 
ATOM     65  H   UNL A   1      41.742  28.719  31.565  1.00  0.00     0.167 HD
ATOM     66  C   UNL A   1      42.619  29.407  34.163  1.00  0.00     0.074 A 
ATOM     67  C   UNL A   1      42.615  29.946  35.506  1.00  0.00     0.031 C 
ATOM     68  C   UNL A   1      43.572  28.573  33.679  1.00  0.00     0.037 A 
BRANCH  55  69
ATOM     69  C   UNL A   1      42.593  26.824  27.830  1.00  0.00     0.064 A 
ATOM     70  C   UNL A   1      42.271  25.478  27.591  1.00  0.00     0.173 A 
ATOM     71  C   UNL A   1      43.391  27.483  26.883  1.00  0.00     0.173 A 
ATOM     72  F   UNL A   1      41.536  24.789  28.475  1.00  0.00    -0.203 F 
ATOM     73  C   UNL A   1      42.746  24.818  26.460  1.00  0.00     0.198 A 
ATOM     74  C   UNL A   1      43.840  26.827  25.741  1.00  0.00     0.198 A 
ATOM     75  F   UNL A   1      43.726  28.769  27.060  1.00  0.00    -0.203 F 
ATOM     76  F   UNL A   1      42.462  23.521  26.277  1.00  0.00    -0.200 F 
ATOM     77  C   UNL A   1      43.524  25.494  25.533  1.00  0.00     0.200 A 
ATOM     78  F   UNL A   1      44.583  27.487  24.840  1.00  0.00    -0.200 F 
ATOM     79  F   UNL A   1      43.976  24.858  24.444  1.00  0.00    -0.200 F 
ENDBRANCH  55  69
BRANCH  56  80
ATOM     80  C   UNL A   1      39.071  32.229  35.427  1.00  0.00     0.064 A 
ATOM     81  C   UNL A   1      39.374  33.589  35.579  1.00  0.00     0.173 A 
ATOM     82  C   UNL A   1      38.317  31.617  36.442  1.00  0.00     0.173 A 
ATOM     83  F   UNL A   1      40.126  34.215  34.662  1.00  0.00    -0.203 F 
ATOM     84  C   UNL A   1      38.964  34.298  36.709  1.00  0.00     0.198 A 
ATOM     85  C   UNL A   1      37.877  32.335  37.551  1.00  0.00     0.198 A 
ATOM     86  F   UNL A   1      38.013  30.313  36.363  1.00  0.00    -0.203 F 
ATOM     87  F   UNL A   1      39.328  35.579  36.862  1.00  0.00    -0.200 F 
ATOM     88  C   UNL A   1      38.211  33.672  37.690  1.00  0.00     0.200 A 
ATOM     89  F   UNL A   1      37.142  31.726  38.492  1.00  0.00    -0.200 F 
ATOM     90  F   UNL A   1      37.823  34.352  38.778  1.00  0.00    -0.200 F 
ENDBRANCH  56  80
BRANCH  68  91
ATOM     91  C   UNL A   1      44.703  28.203  34.598  1.00  0.00     0.064 A 
ATOM     92  C   UNL A   1      44.656  27.042  35.387  1.00  0.00     0.173 A 
ATOM     93  C   UNL A   1      45.865  28.988  34.660  1.00  0.00     0.173 A 
ATOM     94  F   UNL A   1      43.563  26.264  35.378  1.00  0.00    -0.203 F 
ATOM     95  C   UNL A   1      45.720  26.694  36.216  1.00  0.00     0.198 A 
ATOM     96  C   UNL A   1      46.939  28.620  35.468  1.00  0.00     0.198 A 
ATOM     97  F   UNL A   1      45.968  30.104  33.923  1.00  0.00    -0.203 F 
ATOM     98  F   UNL A   1      45.634  25.604  36.991  1.00  0.00    -0.200 F 
ATOM     99  C   UNL A   1      46.863  27.478  36.249  1.00  0.00     0.200 A 
ATOM    100  F   UNL A   1      48.050  29.370  35.486  1.00  0.00    -0.200 F 
ATOM    101  F   UNL A   1      47.891  27.133  37.037  1.00  0.00    -0.200 F 
ENDBRANCH  68  91
ENDBRANCH  42  43
ENDBRANCH  35  37
ENDBRANCH  34  35
ENDBRANCH  33  34
ENDBRANCH   1  33
TORSDOF 17
ENDMDL
MODEL 2
REMARK VINA RESULT:     -12.7      0.594      2.022
REMARK SMILES CC(C)Oc1ccc(-c2ccc(/C(=C\c3ccc(S(C)(=O)=O)cc3)C(=O)OCCOC(=O)c3ccc(-c4c5nc(c(-c6c(F)c(F)c(F)c(F)c6F)c6ccc([nH]6)c(-c6c(F)c(F)c(F)c(F)c6F)c6nc(c(-c7c(F)c(F)c(F)c(F)c7F)c7ccc4[nH]7)C=C6)C=C5)cc3)cc2)cc1
REMARK SMILES IDX 28 1 27 2 25 3 26 4 13 5 14 6 12 7 9 8 10 9 97 10 11 11
REMARK SMILES IDX 96 12 8 13 5 14 6 15 99 16 7 17 98 18 4 19 2 20 1 21 3 22
REMARK SMILES IDX 15 23 16 24 24 25 17 26 23 27 18 28 19 29 20 30 21 31 22 32
REMARK SMILES IDX 29 33 30 34 31 35 32 36 33 37 34 38 95 39 35 40 94 41 36 42
REMARK SMILES IDX 37 43 38 44 88 45 39 46 93 47 87 48 89 49 40 50 92 51 86 52
REMARK SMILES IDX 85 53 41 55 73 56 53 57 72 58 54 59 57 60 71 61 90 62 55 63
REMARK SMILES IDX 56 64 70 66 91 67 58 68 42 69 43 70 51 71 44 72 45 73 49 74
REMARK SMILES IDX 52 75 46 76 47 77 50 78 48 79 74 80 75 81 83 82 76 83 77 84
REMARK SMILES IDX 81 85 84 86 78 87 79 88 82 89 80 90 59 91 60 92 68 93 61 94
REMARK SMILES IDX 62 95 66 96 69 97 63 98 64 99 67 100 65 101
REMARK H PARENT 89 54 57 65
REMARK Flexibility Score: inf
ROOT
ATOM      1  C   UNL A   1      32.406  27.383  25.979  1.00  0.00     0.275 C 
ENDROOT
BRANCH   1   2
ATOM      2  O   UNL A   1      33.489  27.139  25.057  1.00  0.00    -0.458 OA
BRANCH   2   3
ATOM      3  C   UNL A   1      33.199  26.469  23.903  1.00  0.00     0.338 C 
ATOM      4  O   UNL A   1      32.841  27.013  22.869  1.00  0.00    -0.246 OA
BRANCH   3   5
ATOM      5  C   UNL A   1      33.397  24.965  24.054  1.00  0.00     0.067 C 
ATOM      6  C   UNL A   1      32.225  24.269  24.031  1.00  0.00     0.024 C 
BRANCH   5   7
ATOM      7  C   UNL A   1      34.800  24.395  24.264  1.00  0.00    -0.011 A 
ATOM      8  C   UNL A   1      37.106  22.759  24.870  1.00  0.00    -0.018 A 
ATOM      9  C   UNL A   1      36.546  22.770  23.604  1.00  0.00     0.009 A 
ATOM     10  C   UNL A   1      36.636  23.719  25.770  1.00  0.00     0.009 A 
ATOM     11  C   UNL A   1      35.463  23.611  23.308  1.00  0.00     0.009 A 
ATOM     12  C   UNL A   1      35.495  24.505  25.480  1.00  0.00     0.009 A 
BRANCH   8  13
ATOM     13  C   UNL A   1      38.111  21.750  25.230  1.00  0.00    -0.018 A 
ATOM     14  C   UNL A   1      40.033  19.811  25.982  1.00  0.00     0.119 A 
ATOM     15  C   UNL A   1      38.940  19.468  25.184  1.00  0.00     0.047 A 
ATOM     16  C   UNL A   1      40.173  21.125  26.399  1.00  0.00     0.047 A 
ATOM     17  C   UNL A   1      37.985  20.423  24.815  1.00  0.00     0.012 A 
ATOM     18  C   UNL A   1      39.206  22.074  26.049  1.00  0.00     0.012 A 
BRANCH  14  19
ATOM     19  O   UNL A   1      40.942  18.820  26.199  1.00  0.00    -0.491 OA
BRANCH  19  20
ATOM     20  C   UNL A   1      42.280  19.130  26.611  1.00  0.00     0.167 C 
ATOM     21  C   UNL A   1      42.858  18.140  27.608  1.00  0.00     0.052 C 
ATOM     22  C   UNL A   1      43.236  19.441  25.463  1.00  0.00     0.052 C 
ENDBRANCH  19  20
ENDBRANCH  14  19
ENDBRANCH   8  13
ENDBRANCH   5   7
BRANCH   6  23
ATOM     23  C   UNL A   1      32.019  22.818  24.138  1.00  0.00    -0.025 A 
ATOM     24  C   UNL A   1      32.102  22.048  22.969  1.00  0.00     0.009 A 
ATOM     25  C   UNL A   1      31.960  22.187  25.391  1.00  0.00     0.009 A 
ATOM     26  C   UNL A   1      32.290  20.669  23.055  1.00  0.00     0.021 A 
ATOM     27  C   UNL A   1      32.164  20.804  25.482  1.00  0.00     0.021 A 
ATOM     28  C   UNL A   1      32.373  20.063  24.314  1.00  0.00     0.067 A 
BRANCH  28  29
ATOM     29  S   UNL A   1      32.998  18.400  24.417  1.00  0.00     0.175 S 
ATOM     30  C   UNL A   1      32.660  17.714  22.822  1.00  0.00     0.163 C 
ATOM     31  O   UNL A   1      34.438  18.498  24.571  1.00  0.00    -0.224 OA
ATOM     32  O   UNL A   1      32.197  17.689  25.394  1.00  0.00    -0.224 OA
ENDBRANCH  28  29
ENDBRANCH   6  23
ENDBRANCH   3   5
ENDBRANCH   2   3
ENDBRANCH   1   2
BRANCH   1  33
ATOM     33  C   UNL A   1      32.174  28.886  26.165  1.00  0.00     0.275 C 
BRANCH  33  34
ATOM     34  O   UNL A   1      33.418  29.608  26.089  1.00  0.00    -0.458 OA
BRANCH  34  35
ATOM     35  C   UNL A   1      33.485  30.706  26.881  1.00  0.00     0.338 C 
ATOM     36  O   UNL A   1      32.612  31.527  27.084  1.00  0.00    -0.246 OA
BRANCH  35  37
ATOM     37  C   UNL A   1      34.731  30.650  27.666  1.00  0.00     0.060 A 
ATOM     38  C   UNL A   1      35.039  29.419  28.230  1.00  0.00     0.016 A 
ATOM     39  C   UNL A   1      35.581  31.744  27.862  1.00  0.00     0.016 A 
ATOM     40  C   UNL A   1      36.222  29.266  28.941  1.00  0.00     0.010 A 
ATOM     41  C   UNL A   1      36.767  31.583  28.605  1.00  0.00     0.010 A 
ATOM     42  C   UNL A   1      37.107  30.329  29.131  1.00  0.00    -0.014 A 
BRANCH  42  43
ATOM     43  C   UNL A   1      38.347  30.079  29.916  1.00  0.00     0.031 A 
ATOM     44  C   UNL A   1      39.450  29.250  29.326  1.00  0.00     0.074 A 
ATOM     45  C   UNL A   1      38.555  30.710  31.088  1.00  0.00     0.049 A 
ATOM     46  N   UNL A   1      40.594  28.886  29.852  1.00  0.00    -0.248 NA
ATOM     47  C   UNL A   1      39.249  28.789  27.946  1.00  0.00     0.031 C 
ATOM     48  C   UNL A   1      37.628  31.654  31.708  1.00  0.00     0.029 A 
ATOM     49  N   UNL A   1      39.624  30.676  31.951  1.00  0.00    -0.354 N 
ATOM     50  C   UNL A   1      41.244  28.147  28.875  1.00  0.00     0.074 A 
ATOM     51  C   UNL A   1      40.368  28.114  27.722  1.00  0.00     0.031 C 
ATOM     52  C   UNL A   1      38.172  32.116  32.847  1.00  0.00     0.029 A 
ATOM     53  C   UNL A   1      39.453  31.449  33.075  1.00  0.00     0.049 A 
ATOM     54  H   UNL A   1      40.437  30.147  31.781  1.00  0.00     0.167 HD
ATOM     55  C   UNL A   1      42.459  27.552  28.934  1.00  0.00     0.037 A 
ATOM     56  C   UNL A   1      40.220  31.570  34.178  1.00  0.00     0.037 A 
ATOM     57  C   UNL A   1      43.332  27.587  30.083  1.00  0.00     0.049 A 
ATOM     58  C   UNL A   1      41.502  30.780  34.279  1.00  0.00     0.074 A 
ATOM     59  C   UNL A   1      44.579  27.007  30.240  1.00  0.00     0.029 A 
ATOM     60  N   UNL A   1      43.060  28.262  31.265  1.00  0.00    -0.354 N 
ATOM     61  N   UNL A   1      42.078  30.013  33.385  1.00  0.00    -0.248 NA
ATOM     62  C   UNL A   1      42.231  30.853  35.556  1.00  0.00     0.031 C 
ATOM     63  C   UNL A   1      45.047  27.302  31.525  1.00  0.00     0.029 A 
ATOM     64  C   UNL A   1      44.113  28.106  32.156  1.00  0.00     0.049 A 
ATOM     65  H   UNL A   1      42.240  28.776  31.447  1.00  0.00     0.167 HD
ATOM     66  C   UNL A   1      43.240  29.535  33.979  1.00  0.00     0.074 A 
ATOM     67  C   UNL A   1      43.300  30.112  35.305  1.00  0.00     0.031 C 
ATOM     68  C   UNL A   1      44.168  28.685  33.474  1.00  0.00     0.037 A 
BRANCH  55  69
ATOM     69  C   UNL A   1      42.910  26.773  27.731  1.00  0.00     0.064 A 
ATOM     70  C   UNL A   1      43.705  27.344  26.725  1.00  0.00     0.173 A 
ATOM     71  C   UNL A   1      42.564  25.420  27.601  1.00  0.00     0.173 A 
ATOM     72  F   UNL A   1      44.043  28.641  26.780  1.00  0.00    -0.203 F 
ATOM     73  C   UNL A   1      44.120  26.594  25.627  1.00  0.00     0.198 A 
ATOM     74  C   UNL A   1      43.004  24.667  26.516  1.00  0.00     0.198 A 
ATOM     75  F   UNL A   1      41.809  24.823  28.534  1.00  0.00    -0.203 F 
ATOM     76  F   UNL A   1      44.842  27.174  24.657  1.00  0.00    -0.200 F 
ATOM     77  C   UNL A   1      43.775  25.256  25.526  1.00  0.00     0.200 A 
ATOM     78  F   UNL A   1      42.678  23.369  26.427  1.00  0.00    -0.200 F 
ATOM     79  F   UNL A   1      44.178  24.535  24.471  1.00  0.00    -0.200 F 
ENDBRANCH  55  69
BRANCH  56  80
ATOM     80  C   UNL A   1      39.758  32.398  35.330  1.00  0.00     0.064 A 
ATOM     81  C   UNL A   1      38.900  31.883  36.312  1.00  0.00     0.173 A 
ATOM     82  C   UNL A   1      40.112  33.754  35.428  1.00  0.00     0.173 A 
ATOM     83  F   UNL A   1      38.495  30.606  36.245  1.00  0.00    -0.203 F 
ATOM     84  C   UNL A   1      38.398  32.694  37.330  1.00  0.00     0.198 A 
ATOM     85  C   UNL A   1      39.640  34.553  36.467  1.00  0.00     0.198 A 
ATOM     86  F   UNL A   1      40.913  34.310  34.507  1.00  0.00    -0.203 F 
ATOM     87  F   UNL A   1      37.524  32.193  38.214  1.00  0.00    -0.200 F 
ATOM     88  C   UNL A   1      38.774  34.026  37.410  1.00  0.00     0.200 A 
ATOM     89  F   UNL A   1      40.013  35.838  36.543  1.00  0.00    -0.200 F 
ATOM     90  F   UNL A   1      38.286  34.806  38.385  1.00  0.00    -0.200 F 
ENDBRANCH  56  80
BRANCH  68  91
ATOM     91  C   UNL A   1      45.341  28.339  34.349  1.00  0.00     0.064 A 
ATOM     92  C   UNL A   1      46.502  29.128  34.364  1.00  0.00     0.173 A 
ATOM     93  C   UNL A   1      45.290  27.236  35.215  1.00  0.00     0.173 A 
ATOM     94  F   UNL A   1      46.610  30.184  33.544  1.00  0.00    -0.203 F 
ATOM     95  C   UNL A   1      47.573  28.815  35.197  1.00  0.00     0.198 A 
ATOM     96  C   UNL A   1      46.351  26.943  36.069  1.00  0.00     0.198 A 
ATOM     97  F   UNL A   1      44.202  26.451  35.249  1.00  0.00    -0.203 F 
ATOM     98  F   UNL A   1      48.687  29.559  35.162  1.00  0.00    -0.200 F 
ATOM     99  C   UNL A   1      47.493  27.728  36.056  1.00  0.00     0.200 A 
ATOM    100  F   UNL A   1      46.265  25.903  36.910  1.00  0.00    -0.200 F 
ATOM    101  F   UNL A   1      48.520  27.437  36.867  1.00  0.00    -0.200 F 
ENDBRANCH  68  91
ENDBRANCH  42  43
ENDBRANCH  35  37
ENDBRANCH  34  35
ENDBRANCH  33  34
ENDBRANCH   1  33
TORSDOF 17
ENDMDL
MODEL 3
REMARK VINA RESULT:     -12.4      3.776      8.014
REMARK SMILES CC(C)Oc1ccc(-c2ccc(/C(=C\c3ccc(S(C)(=O)=O)cc3)C(=O)OCCOC(=O)c3ccc(-c4c5nc(c(-c6c(F)c(F)c(F)c(F)c6F)c6ccc([nH]6)c(-c6c(F)c(F)c(F)c(F)c6F)c6nc(c(-c7c(F)c(F)c(F)c(F)c7F)c7ccc4[nH]7)C=C6)C=C5)cc3)cc2)cc1
REMARK SMILES IDX 28 1 27 2 25 3 26 4 13 5 14 6 12 7 9 8 10 9 97 10 11 11
REMARK SMILES IDX 96 12 8 13 5 14 6 15 99 16 7 17 98 18 4 19 2 20 1 21 3 22
REMARK SMILES IDX 15 23 16 24 24 25 17 26 23 27 18 28 19 29 20 30 21 31 22 32
REMARK SMILES IDX 29 33 30 34 31 35 32 36 33 37 34 38 95 39 35 40 94 41 36 42
REMARK SMILES IDX 37 43 38 44 88 45 39 46 93 47 87 48 89 49 40 50 92 51 86 52
REMARK SMILES IDX 85 53 41 55 73 56 53 57 72 58 54 59 57 60 71 61 90 62 55 63
REMARK SMILES IDX 56 64 70 66 91 67 58 68 42 69 43 70 51 71 44 72 45 73 49 74
REMARK SMILES IDX 52 75 46 76 47 77 50 78 48 79 74 80 75 81 83 82 76 83 77 84
REMARK SMILES IDX 81 85 84 86 78 87 79 88 82 89 80 90 59 91 60 92 68 93 61 94
REMARK SMILES IDX 62 95 66 96 69 97 63 98 64 99 67 100 65 101
REMARK H PARENT 89 54 57 65
REMARK Flexibility Score: inf
ROOT
ATOM      1  C   UNL A   1      34.674  22.318  25.186  1.00  0.00     0.275 C 
ENDROOT
BRANCH   1   2
ATOM      2  O   UNL A   1      34.144  23.657  25.284  1.00  0.00    -0.458 OA
BRANCH   2   3
ATOM      3  C   UNL A   1      32.900  23.808  25.826  1.00  0.00     0.338 C 
ATOM      4  O   UNL A   1      32.387  23.006  26.593  1.00  0.00    -0.246 OA
BRANCH   3   5
ATOM      5  C   UNL A   1      32.239  25.108  25.379  1.00  0.00     0.067 C 
ATOM      6  C   UNL A   1      31.482  24.960  24.255  1.00  0.00     0.024 C 
BRANCH   5   7
ATOM      7  C   UNL A   1      32.505  26.404  26.144  1.00  0.00    -0.011 A 
ATOM      8  C   UNL A   1      32.759  29.149  27.019  1.00  0.00    -0.018 A 
ATOM      9  C   UNL A   1      31.613  28.416  27.275  1.00  0.00     0.009 A 
ATOM     10  C   UNL A   1      33.850  28.442  26.506  1.00  0.00     0.009 A 
ATOM     11  C   UNL A   1      31.525  27.068  26.897  1.00  0.00     0.009 A 
ATOM     12  C   UNL A   1      33.720  27.106  26.060  1.00  0.00     0.009 A 
BRANCH   8  13
ATOM     13  C   UNL A   1      32.780  30.599  27.245  1.00  0.00    -0.018 A 
ATOM     14  C   UNL A   1      32.868  33.402  27.643  1.00  0.00     0.119 A 
ATOM     15  C   UNL A   1      31.754  32.793  27.061  1.00  0.00     0.047 A 
ATOM     16  C   UNL A   1      33.937  32.612  28.036  1.00  0.00     0.047 A 
ATOM     17  C   UNL A   1      31.711  31.408  26.858  1.00  0.00     0.012 A 
ATOM     18  C   UNL A   1      33.901  31.231  27.812  1.00  0.00     0.012 A 
BRANCH  14  19
ATOM     19  O   UNL A   1      32.758  34.740  27.873  1.00  0.00    -0.491 OA
BRANCH  19  20
ATOM     20  C   UNL A   1      33.598  35.389  28.837  1.00  0.00     0.167 C 
ATOM     21  C   UNL A   1      33.998  36.803  28.448  1.00  0.00     0.052 C 
ATOM     22  C   UNL A   1      33.097  35.291  30.275  1.00  0.00     0.052 C 
ENDBRANCH  19  20
ENDBRANCH  14  19
ENDBRANCH   8  13
ENDBRANCH   5   7
BRANCH   6  23
ATOM     23  C   UNL A   1      30.697  25.976  23.540  1.00  0.00    -0.025 A 
ATOM     24  C   UNL A   1      29.312  26.015  23.756  1.00  0.00     0.009 A 
ATOM     25  C   UNL A   1      31.327  27.013  22.835  1.00  0.00     0.009 A 
ATOM     26  C   UNL A   1      28.586  27.156  23.417  1.00  0.00     0.021 A 
ATOM     27  C   UNL A   1      30.605  28.167  22.507  1.00  0.00     0.021 A 
ATOM     28  C   UNL A   1      29.249  28.247  22.842  1.00  0.00     0.067 A 
BRANCH  28  29
ATOM     29  S   UNL A   1      28.409  29.815  22.782  1.00  0.00     0.175 S 
ATOM     30  C   UNL A   1      29.469  30.906  23.685  1.00  0.00     0.163 C 
ATOM     31  O   UNL A   1      28.401  30.238  21.394  1.00  0.00    -0.224 OA
ATOM     32  O   UNL A   1      27.168  29.677  23.519  1.00  0.00    -0.224 OA
ENDBRANCH  28  29
ENDBRANCH   6  23
ENDBRANCH   3   5
ENDBRANCH   2   3
ENDBRANCH   1   2
BRANCH   1  33
ATOM     33  C   UNL A   1      35.927  22.161  26.052  1.00  0.00     0.275 C 
BRANCH  33  34
ATOM     34  O   UNL A   1      37.118  22.369  25.270  1.00  0.00    -0.458 OA
BRANCH  34  35
ATOM     35  C   UNL A   1      38.238  21.798  25.779  1.00  0.00     0.338 C 
ATOM     36  O   UNL A   1      38.613  20.650  25.638  1.00  0.00    -0.246 OA
BRANCH  35  37
ATOM     37  C   UNL A   1      39.084  22.852  26.366  1.00  0.00     0.060 A 
ATOM     38  C   UNL A   1      38.839  24.145  25.924  1.00  0.00     0.016 A 
ATOM     39  C   UNL A   1      40.088  22.612  27.311  1.00  0.00     0.016 A 
ATOM     40  C   UNL A   1      39.555  25.203  26.466  1.00  0.00     0.010 A 
ATOM     41  C   UNL A   1      40.825  23.690  27.836  1.00  0.00     0.010 A 
ATOM     42  C   UNL A   1      40.544  25.003  27.432  1.00  0.00    -0.014 A 
BRANCH  42  43
ATOM     43  C   UNL A   1      41.272  26.194  27.949  1.00  0.00     0.031 A 
ATOM     44  C   UNL A   1      42.705  26.419  27.565  1.00  0.00     0.074 A 
ATOM     45  C   UNL A   1      40.618  27.151  28.636  1.00  0.00     0.049 A 
ATOM     46  N   UNL A   1      43.527  27.371  27.929  1.00  0.00    -0.248 NA
ATOM     47  C   UNL A   1      43.283  25.455  26.619  1.00  0.00     0.031 C 
ATOM     48  C   UNL A   1      39.193  27.128  28.956  1.00  0.00     0.029 A 
ATOM     49  N   UNL A   1      41.060  28.341  29.162  1.00  0.00    -0.354 N 
ATOM     50  C   UNL A   1      44.720  27.117  27.269  1.00  0.00     0.074 A 
ATOM     51  C   UNL A   1      44.515  25.921  26.479  1.00  0.00     0.031 C 
ATOM     52  C   UNL A   1      38.875  28.255  29.616  1.00  0.00     0.029 A 
ATOM     53  C   UNL A   1      40.086  29.048  29.828  1.00  0.00     0.049 A 
ATOM     54  H   UNL A   1      41.988  28.659  29.071  1.00  0.00     0.167 HD
ATOM     55  C   UNL A   1      45.879  27.818  27.318  1.00  0.00     0.037 A 
ATOM     56  C   UNL A   1      40.170  30.178  30.560  1.00  0.00     0.037 A 
ATOM     57  C   UNL A   1      46.081  29.011  28.104  1.00  0.00     0.049 A 
ATOM     58  C   UNL A   1      41.508  30.860  30.716  1.00  0.00     0.074 A 
ATOM     59  C   UNL A   1      47.222  29.786  28.222  1.00  0.00     0.029 A 
ATOM     60  N   UNL A   1      45.108  29.619  28.886  1.00  0.00    -0.354 N 
ATOM     61  N   UNL A   1      42.658  30.571  30.157  1.00  0.00    -0.248 NA
ATOM     62  C   UNL A   1      41.565  32.014  31.628  1.00  0.00     0.031 C 
ATOM     63  C   UNL A   1      46.952  30.841  29.100  1.00  0.00     0.029 A 
ATOM     64  C   UNL A   1      45.628  30.754  29.494  1.00  0.00     0.049 A 
ATOM     65  H   UNL A   1      44.186  29.294  28.995  1.00  0.00     0.167 HD
ATOM     66  C   UNL A   1      43.563  31.515  30.628  1.00  0.00     0.074 A 
ATOM     67  C   UNL A   1      42.826  32.399  31.505  1.00  0.00     0.031 C 
ATOM     68  C   UNL A   1      44.888  31.632  30.365  1.00  0.00     0.037 A 
BRANCH  55  69
ATOM     69  C   UNL A   1      47.041  27.292  26.523  1.00  0.00     0.064 A 
ATOM     70  C   UNL A   1      47.314  27.731  25.218  1.00  0.00     0.173 A 
ATOM     71  C   UNL A   1      47.915  26.356  27.095  1.00  0.00     0.173 A 
ATOM     72  F   UNL A   1      46.498  28.603  24.609  1.00  0.00    -0.203 F 
ATOM     73  C   UNL A   1      48.408  27.236  24.510  1.00  0.00     0.198 A 
ATOM     74  C   UNL A   1      49.022  25.885  26.394  1.00  0.00     0.198 A 
ATOM     75  F   UNL A   1      47.703  25.905  28.340  1.00  0.00    -0.203 F 
ATOM     76  F   UNL A   1      48.622  27.637  23.249  1.00  0.00    -0.200 F 
ATOM     77  C   UNL A   1      49.263  26.319  25.100  1.00  0.00     0.200 A 
ATOM     78  F   UNL A   1      49.855  25.007  26.972  1.00  0.00    -0.200 F 
ATOM     79  F   UNL A   1      50.317  25.848  24.419  1.00  0.00    -0.200 F 
ENDBRANCH  55  69
BRANCH  56  80
ATOM     80  C   UNL A   1      38.976  30.694  31.289  1.00  0.00     0.064 A 
ATOM     81  C   UNL A   1      38.037  31.529  30.667  1.00  0.00     0.173 A 
ATOM     82  C   UNL A   1      38.792  30.418  32.654  1.00  0.00     0.173 A 
ATOM     83  F   UNL A   1      38.186  31.861  29.377  1.00  0.00    -0.203 F 
ATOM     84  C   UNL A   1      36.977  32.083  31.385  1.00  0.00     0.198 A 
ATOM     85  C   UNL A   1      37.712  30.941  33.360  1.00  0.00     0.198 A 
ATOM     86  F   UNL A   1      39.669  29.642  33.309  1.00  0.00    -0.203 F 
ATOM     87  F   UNL A   1      36.135  32.934  30.783  1.00  0.00    -0.200 F 
ATOM     88  C   UNL A   1      36.812  31.784  32.729  1.00  0.00     0.200 A 
ATOM     89  F   UNL A   1      37.554  30.642  34.657  1.00  0.00    -0.200 F 
ATOM     90  F   UNL A   1      35.797  32.322  33.420  1.00  0.00    -0.200 F 
ENDBRANCH  56  80
BRANCH  68  91
ATOM     91  C   UNL A   1      45.628  32.767  31.017  1.00  0.00     0.064 A 
ATOM     92  C   UNL A   1      45.692  34.037  30.424  1.00  0.00     0.173 A 
ATOM     93  C   UNL A   1      46.240  32.599  32.269  1.00  0.00     0.173 A 
ATOM     94  F   UNL A   1      45.138  34.248  29.220  1.00  0.00    -0.203 F 
ATOM     95  C   UNL A   1      46.357  35.089  31.049  1.00  0.00     0.198 A 
ATOM     96  C   UNL A   1      46.878  33.662  32.905  1.00  0.00     0.198 A 
ATOM     97  F   UNL A   1      46.203  31.409  32.887  1.00  0.00    -0.203 F 
ATOM     98  F   UNL A   1      46.441  36.281  30.442  1.00  0.00    -0.200 F 
ATOM     99  C   UNL A   1      46.942  34.904  32.293  1.00  0.00     0.200 A 
ATOM    100  F   UNL A   1      47.428  33.485  34.115  1.00  0.00    -0.200 F 
ATOM    101  F   UNL A   1      47.569  35.921  32.898  1.00  0.00    -0.200 F 
ENDBRANCH  68  91
ENDBRANCH  42  43
ENDBRANCH  35  37
ENDBRANCH  34  35
ENDBRANCH  33  34
ENDBRANCH   1  33
TORSDOF 17
ENDMDL
