MODEL 1
REMARK VINA RESULT:     -11.7      0.000      0.000
REMARK SMILES CCC[C@]1(C(=O)OCCOC(=O)c2ccc(-c3c4nc(c(-c5c(F)c(F)c(F)c(F)c5F)c5ccc([nH]5)c(-c5c(F)c(F)c(F)c(F)c5F)c5nc(c(-c6c(F)c(F)c(F)c(F)c6F)c6ccc3[nH]6)C=C5)C=C4)cc2)CCCN(C(=O)N[C@H]2CCOC2)C1
REMARK SMILES IDX 8 1 7 2 5 3 6 4 4 5 76 6 88 7 77 8 79 9 78 10 3 11 2 12 1 13
REMARK SMILES IDX 80 14 81 15 82 16 83 18 84 19 87 20 85 21 86 22 9 23 10 24
REMARK SMILES IDX 11 25 12 26 13 27 14 28 75 29 15 30 74 31 16 32 17 33 18 34
REMARK SMILES IDX 68 35 19 36 73 37 67 38 69 39 20 40 72 41 66 42 65 43 21 45
REMARK SMILES IDX 53 46 33 47 52 48 34 49 37 50 51 51 70 52 35 53 36 54 50 56
REMARK SMILES IDX 71 57 38 58 22 59 23 60 31 61 24 62 25 63 29 64 32 65 26 66
REMARK SMILES IDX 27 67 30 68 28 69 54 70 55 71 63 72 56 73 57 74 61 75 64 76
REMARK SMILES IDX 58 77 59 78 62 79 60 80 39 81 40 82 48 83 41 84 42 85 46 86
REMARK SMILES IDX 49 87 43 88 44 89 47 90 45 91
REMARK H PARENT 82 17 69 44 37 55
REMARK Flexibility Score: inf
ROOT
ATOM      1  C   UNL A   1      31.415  29.072  25.053  1.00  0.00     0.274 C 
ENDROOT
BRANCH   1   2
ATOM      2  O   UNL A   1      31.670  27.666  25.244  1.00  0.00    -0.462 OA
BRANCH   2   3
ATOM      3  C   UNL A   1      32.802  27.113  24.725  1.00  0.00     0.314 C 
ATOM      4  O   UNL A   1      33.655  27.760  24.136  1.00  0.00    -0.252 OA
BRANCH   3   5
ATOM      5  C   UNL A   1      32.860  25.591  24.985  1.00  0.00     0.086 C 
ATOM      6  C   UNL A   1      34.372  25.183  25.115  1.00  0.00     0.022 C 
ATOM      7  C   UNL A   1      32.167  25.276  26.328  1.00  0.00     0.140 C 
ATOM      8  C   UNL A   1      34.609  23.786  25.676  1.00  0.00     0.023 C 
ATOM      9  N   UNL A   1      32.390  23.860  26.690  1.00  0.00    -0.324 N 
ATOM     10  C   UNL A   1      33.785  23.558  26.935  1.00  0.00     0.121 C 
BRANCH   5  11
ATOM     11  C   UNL A   1      32.223  24.782  23.813  1.00  0.00     0.020 C 
BRANCH  11  12
ATOM     12  C   UNL A   1      31.465  25.468  22.658  1.00  0.00    -0.002 C 
ATOM     13  C   UNL A   1      32.190  25.758  21.358  1.00  0.00     0.004 C 
ENDBRANCH  11  12
ENDBRANCH   5  11
BRANCH   9  14
ATOM     14  C   UNL A   1      31.325  23.017  26.658  1.00  0.00     0.317 C 
ATOM     15  O   UNL A   1      30.291  23.271  27.286  1.00  0.00    -0.249 OA
ATOM     16  N   UNL A   1      31.243  21.900  25.928  1.00  0.00    -0.333 N 
ATOM     17  H   UNL A   1      30.310  21.585  25.949  1.00  0.00     0.165 HD
BRANCH  16  18
ATOM     18  C   UNL A   1      32.022  20.972  25.109  1.00  0.00     0.112 C 
ATOM     19  C   UNL A   1      32.779  21.498  23.912  1.00  0.00     0.056 C 
ATOM     20  C   UNL A   1      32.986  20.082  25.870  1.00  0.00     0.185 C 
ATOM     21  C   UNL A   1      34.193  20.976  24.077  1.00  0.00     0.162 C 
ATOM     22  O   UNL A   1      34.207  20.007  25.128  1.00  0.00    -0.379 OA
ENDBRANCH  16  18
ENDBRANCH   9  14
ENDBRANCH   3   5
ENDBRANCH   2   3
ENDBRANCH   1   2
BRANCH   1  23
ATOM     23  C   UNL A   1      31.770  29.776  26.360  1.00  0.00     0.275 C 
BRANCH  23  24
ATOM     24  O   UNL A   1      32.983  30.513  26.128  1.00  0.00    -0.458 OA
BRANCH  24  25
ATOM     25  C   UNL A   1      33.279  31.498  27.000  1.00  0.00     0.338 C 
ATOM     26  O   UNL A   1      32.586  32.465  27.294  1.00  0.00    -0.246 OA
BRANCH  25  27
ATOM     27  C   UNL A   1      34.590  31.210  27.616  1.00  0.00     0.060 A 
ATOM     28  C   UNL A   1      34.906  29.902  27.972  1.00  0.00     0.016 A 
ATOM     29  C   UNL A   1      35.477  32.237  27.930  1.00  0.00     0.016 A 
ATOM     30  C   UNL A   1      36.038  29.629  28.738  1.00  0.00     0.010 A 
ATOM     31  C   UNL A   1      36.681  31.940  28.584  1.00  0.00     0.010 A 
ATOM     32  C   UNL A   1      36.963  30.636  29.033  1.00  0.00    -0.014 A 
BRANCH  32  33
ATOM     33  C   UNL A   1      38.191  30.335  29.832  1.00  0.00     0.031 A 
ATOM     34  C   UNL A   1      39.278  29.466  29.250  1.00  0.00     0.074 A 
ATOM     35  C   UNL A   1      38.364  30.839  31.072  1.00  0.00     0.049 A 
ATOM     36  N   UNL A   1      40.290  28.886  29.846  1.00  0.00    -0.248 NA
ATOM     37  C   UNL A   1      39.205  29.204  27.805  1.00  0.00     0.031 C 
ATOM     38  C   UNL A   1      37.453  31.756  31.757  1.00  0.00     0.029 A 
ATOM     39  N   UNL A   1      39.381  30.651  31.982  1.00  0.00    -0.354 N 
ATOM     40  C   UNL A   1      40.925  28.131  28.868  1.00  0.00     0.074 A 
ATOM     41  C   UNL A   1      40.192  28.335  27.637  1.00  0.00     0.031 C 
ATOM     42  C   UNL A   1      37.966  32.084  32.952  1.00  0.00     0.029 A 
ATOM     43  C   UNL A   1      39.186  31.313  33.170  1.00  0.00     0.049 A 
ATOM     44  H   UNL A   1      40.172  30.095  31.798  1.00  0.00     0.167 HD
ATOM     45  C   UNL A   1      42.015  27.334  28.988  1.00  0.00     0.037 A 
ATOM     46  C   UNL A   1      39.869  31.268  34.330  1.00  0.00     0.037 A 
ATOM     47  C   UNL A   1      42.790  27.190  30.194  1.00  0.00     0.049 A 
ATOM     48  C   UNL A   1      41.053  30.353  34.456  1.00  0.00     0.074 A 
ATOM     49  C   UNL A   1      43.919  26.417  30.407  1.00  0.00     0.029 A 
ATOM     50  N   UNL A   1      42.528  27.850  31.385  1.00  0.00    -0.354 N 
ATOM     51  N   UNL A   1      41.590  29.568  33.553  1.00  0.00    -0.248 NA
ATOM     52  C   UNL A   1      41.707  30.291  35.771  1.00  0.00     0.031 C 
ATOM     53  C   UNL A   1      44.321  26.585  31.738  1.00  0.00     0.029 A 
ATOM     54  C   UNL A   1      43.466  27.493  32.341  1.00  0.00     0.049 A 
ATOM     55  H   UNL A   1      41.785  28.479  31.530  1.00  0.00     0.167 HD
ATOM     56  C   UNL A   1      42.645  28.926  34.187  1.00  0.00     0.074 A 
ATOM     57  C   UNL A   1      42.685  29.428  35.546  1.00  0.00     0.031 C 
ATOM     58  C   UNL A   1      43.496  27.997  33.690  1.00  0.00     0.037 A 
BRANCH  45  59
ATOM     59  C   UNL A   1      42.405  26.512  27.796  1.00  0.00     0.064 A 
ATOM     60  C   UNL A   1      43.380  26.937  26.882  1.00  0.00     0.173 A 
ATOM     61  C   UNL A   1      41.801  25.264  27.578  1.00  0.00     0.173 A 
ATOM     62  F   UNL A   1      43.977  28.128  27.035  1.00  0.00    -0.203 F 
ATOM     63  C   UNL A   1      43.713  26.156  25.777  1.00  0.00     0.198 A 
ATOM     64  C   UNL A   1      42.155  24.473  26.489  1.00  0.00     0.198 A 
ATOM     65  F   UNL A   1      40.866  24.809  28.427  1.00  0.00    -0.203 F 
ATOM     66  F   UNL A   1      44.609  26.604  24.887  1.00  0.00    -0.200 F 
ATOM     67  C   UNL A   1      43.104  24.923  25.584  1.00  0.00     0.200 A 
ATOM     68  F   UNL A   1      41.574  23.278  26.312  1.00  0.00    -0.200 F 
ATOM     69  F   UNL A   1      43.426  24.173  24.521  1.00  0.00    -0.200 F 
ENDBRANCH  45  59
BRANCH  46  70
ATOM     70  C   UNL A   1      39.402  32.074  35.489  1.00  0.00     0.064 A 
ATOM     71  C   UNL A   1      38.523  31.534  36.437  1.00  0.00     0.173 A 
ATOM     72  C   UNL A   1      39.838  33.393  35.680  1.00  0.00     0.173 A 
ATOM     73  F   UNL A   1      38.052  30.287  36.280  1.00  0.00    -0.203 F 
ATOM     74  C   UNL A   1      38.099  32.284  37.533  1.00  0.00     0.198 A 
ATOM     75  C   UNL A   1      39.438  34.131  36.792  1.00  0.00     0.198 A 
ATOM     76  F   UNL A   1      40.675  33.959  34.798  1.00  0.00    -0.203 F 
ATOM     77  F   UNL A   1      37.231  31.756  38.407  1.00  0.00    -0.200 F 
ATOM     78  C   UNL A   1      38.566  33.576  37.715  1.00  0.00     0.200 A 
ATOM     79  F   UNL A   1      39.903  35.375  36.970  1.00  0.00    -0.200 F 
ATOM     80  F   UNL A   1      38.170  34.292  38.777  1.00  0.00    -0.200 F 
ENDBRANCH  46  70
BRANCH  58  81
ATOM     81  C   UNL A   1      44.559  27.479  34.611  1.00  0.00     0.064 A 
ATOM     82  C   UNL A   1      44.366  26.316  35.371  1.00  0.00     0.173 A 
ATOM     83  C   UNL A   1      45.797  28.132  34.708  1.00  0.00     0.173 A 
ATOM     84  F   UNL A   1      43.193  25.667  35.324  1.00  0.00    -0.203 F 
ATOM     85  C   UNL A   1      45.367  25.839  36.212  1.00  0.00     0.198 A 
ATOM     86  C   UNL A   1      46.803  27.639  35.532  1.00  0.00     0.198 A 
ATOM     87  F   UNL A   1      46.031  29.246  33.998  1.00  0.00    -0.203 F 
ATOM     88  F   UNL A   1      45.147  24.749  36.961  1.00  0.00    -0.200 F 
ATOM     89  C   UNL A   1      46.586  26.497  36.288  1.00  0.00     0.200 A 
ATOM     90  F   UNL A   1      47.983  28.270  35.598  1.00  0.00    -0.200 F 
ATOM     91  F   UNL A   1      47.550  26.032  37.096  1.00  0.00    -0.200 F 
ENDBRANCH  58  81
ENDBRANCH  32  33
ENDBRANCH  25  27
ENDBRANCH  24  25
ENDBRANCH  23  24
ENDBRANCH   1  23
TORSDOF 15
ENDMDL
MODEL 2
REMARK VINA RESULT:     -11.6      4.247      9.677
REMARK SMILES CCC[C@]1(C(=O)OCCOC(=O)c2ccc(-c3c4nc(c(-c5c(F)c(F)c(F)c(F)c5F)c5ccc([nH]5)c(-c5c(F)c(F)c(F)c(F)c5F)c5nc(c(-c6c(F)c(F)c(F)c(F)c6F)c6ccc3[nH]6)C=C5)C=C4)cc2)CCCN(C(=O)N[C@H]2CCOC2)C1
REMARK SMILES IDX 8 1 7 2 5 3 6 4 4 5 76 6 88 7 77 8 79 9 78 10 3 11 2 12 1 13
REMARK SMILES IDX 80 14 81 15 82 16 83 18 84 19 87 20 85 21 86 22 9 23 10 24
REMARK SMILES IDX 11 25 12 26 13 27 14 28 75 29 15 30 74 31 16 32 17 33 18 34
REMARK SMILES IDX 68 35 19 36 73 37 67 38 69 39 20 40 72 41 66 42 65 43 21 45
REMARK SMILES IDX 53 46 33 47 52 48 34 49 37 50 51 51 70 52 35 53 36 54 50 56
REMARK SMILES IDX 71 57 38 58 22 59 23 60 31 61 24 62 25 63 29 64 32 65 26 66
REMARK SMILES IDX 27 67 30 68 28 69 54 70 55 71 63 72 56 73 57 74 61 75 64 76
REMARK SMILES IDX 58 77 59 78 62 79 60 80 39 81 40 82 48 83 41 84 42 85 46 86
REMARK SMILES IDX 49 87 43 88 44 89 47 90 45 91
REMARK H PARENT 82 17 69 44 37 55
REMARK Flexibility Score: inf
ROOT
ATOM      1  C   UNL A   1      35.116  21.110  25.022  1.00  0.00     0.274 C 
ENDROOT
BRANCH   1   2
ATOM      2  O   UNL A   1      34.826  22.487  24.707  1.00  0.00    -0.462 OA
BRANCH   2   3
ATOM      3  C   UNL A   1      34.121  23.244  25.595  1.00  0.00     0.314 C 
ATOM      4  O   UNL A   1      34.047  22.985  26.787  1.00  0.00    -0.252 OA
BRANCH   3   5
ATOM      5  C   UNL A   1      33.450  24.451  24.902  1.00  0.00     0.086 C 
ATOM      6  C   UNL A   1      33.651  25.707  25.825  1.00  0.00     0.022 C 
ATOM      7  C   UNL A   1      34.161  24.729  23.561  1.00  0.00     0.140 C 
ATOM      8  C   UNL A   1      33.328  27.041  25.164  1.00  0.00     0.023 C 
ATOM      9  N   UNL A   1      33.668  25.998  22.983  1.00  0.00    -0.324 N 
ATOM     10  C   UNL A   1      33.995  27.148  23.799  1.00  0.00     0.121 C 
BRANCH   5  11
ATOM     11  C   UNL A   1      31.920  24.220  24.698  1.00  0.00     0.020 C 
BRANCH  11  12
ATOM     12  C   UNL A   1      30.914  24.304  25.864  1.00  0.00    -0.002 C 
ATOM     13  C   UNL A   1      30.494  23.035  26.580  1.00  0.00     0.004 C 
ENDBRANCH  11  12
ENDBRANCH   5  11
BRANCH   9  14
ATOM     14  C   UNL A   1      32.914  25.936  21.855  1.00  0.00     0.317 C 
ATOM     15  O   UNL A   1      33.278  25.269  20.880  1.00  0.00    -0.249 OA
ATOM     16  N   UNL A   1      31.714  26.505  21.692  1.00  0.00    -0.333 N 
ATOM     17  H   UNL A   1      31.316  26.155  20.862  1.00  0.00     0.165 HD
BRANCH  16  18
ATOM     18  C   UNL A   1      30.774  27.453  22.288  1.00  0.00     0.112 C 
ATOM     19  C   UNL A   1      30.049  27.077  23.558  1.00  0.00     0.056 C 
ATOM     20  C   UNL A   1      31.308  28.857  22.498  1.00  0.00     0.185 C 
ATOM     21  C   UNL A   1      30.278  28.239  24.504  1.00  0.00     0.162 C 
ATOM     22  O   UNL A   1      30.853  29.324  23.771  1.00  0.00    -0.379 OA
ENDBRANCH  16  18
ENDBRANCH   9  14
ENDBRANCH   3   5
ENDBRANCH   2   3
ENDBRANCH   1   2
BRANCH   1  23
ATOM     23  C   UNL A   1      36.608  20.898  24.783  1.00  0.00     0.275 C 
BRANCH  23  24
ATOM     24  O   UNL A   1      37.310  21.763  25.693  1.00  0.00    -0.458 OA
BRANCH  24  25
ATOM     25  C   UNL A   1      38.597  21.459  25.959  1.00  0.00     0.338 C 
ATOM     26  O   UNL A   1      39.167  20.394  25.753  1.00  0.00    -0.246 OA
BRANCH  25  27
ATOM     27  C   UNL A   1      39.264  22.655  26.511  1.00  0.00     0.060 A 
ATOM     28  C   UNL A   1      38.795  23.920  26.166  1.00  0.00     0.016 A 
ATOM     29  C   UNL A   1      40.409  22.540  27.295  1.00  0.00     0.016 A 
ATOM     30  C   UNL A   1      39.523  25.061  26.499  1.00  0.00     0.010 A 
ATOM     31  C   UNL A   1      41.065  23.697  27.741  1.00  0.00     0.010 A 
ATOM     32  C   UNL A   1      40.654  24.976  27.318  1.00  0.00    -0.014 A 
BRANCH  32  33
ATOM     33  C   UNL A   1      41.418  26.205  27.696  1.00  0.00     0.031 A 
ATOM     34  C   UNL A   1      40.765  27.271  28.540  1.00  0.00     0.074 A 
ATOM     35  C   UNL A   1      42.700  26.382  27.311  1.00  0.00     0.049 A 
ATOM     36  N   UNL A   1      41.149  28.502  28.771  1.00  0.00    -0.248 NA
ATOM     37  C   UNL A   1      39.502  26.905  29.198  1.00  0.00     0.031 C 
ATOM     38  C   UNL A   1      43.508  25.422  26.559  1.00  0.00     0.029 A 
ATOM     39  N   UNL A   1      43.555  27.444  27.507  1.00  0.00    -0.354 N 
ATOM     40  C   UNL A   1      40.141  29.078  29.533  1.00  0.00     0.074 A 
ATOM     41  C   UNL A   1      39.133  28.059  29.736  1.00  0.00     0.031 C 
ATOM     42  C   UNL A   1      44.744  25.913  26.395  1.00  0.00     0.029 A 
ATOM     43  C   UNL A   1      44.789  27.270  26.929  1.00  0.00     0.049 A 
ATOM     44  H   UNL A   1      43.306  28.250  28.014  1.00  0.00     0.167 HD
ATOM     45  C   UNL A   1      40.060  30.343  30.013  1.00  0.00     0.037 A 
ATOM     46  C   UNL A   1      45.824  28.119  26.783  1.00  0.00     0.037 A 
ATOM     47  C   UNL A   1      41.096  31.334  29.877  1.00  0.00     0.049 A 
ATOM     48  C   UNL A   1      45.703  29.528  27.289  1.00  0.00     0.074 A 
ATOM     49  C   UNL A   1      41.110  32.638  30.343  1.00  0.00     0.029 A 
ATOM     50  N   UNL A   1      42.312  31.124  29.245  1.00  0.00    -0.354 N 
ATOM     51  N   UNL A   1      44.706  30.094  27.925  1.00  0.00    -0.248 NA
ATOM     52  C   UNL A   1      46.837  30.426  27.029  1.00  0.00     0.031 C 
ATOM     53  C   UNL A   1      42.323  33.227  29.964  1.00  0.00     0.029 A 
ATOM     54  C   UNL A   1      43.079  32.276  29.297  1.00  0.00     0.049 A 
ATOM     55  H   UNL A   1      42.590  30.279  28.821  1.00  0.00     0.167 HD
ATOM     56  C   UNL A   1      45.094  31.408  28.146  1.00  0.00     0.074 A 
ATOM     57  C   UNL A   1      46.425  31.551  27.594  1.00  0.00     0.031 C 
ATOM     58  C   UNL A   1      44.402  32.408  28.744  1.00  0.00     0.037 A 
BRANCH  45  59
ATOM     59  C   UNL A   1      38.781  30.746  30.687  1.00  0.00     0.064 A 
ATOM     60  C   UNL A   1      37.666  31.196  29.966  1.00  0.00     0.173 A 
ATOM     61  C   UNL A   1      38.669  30.658  32.083  1.00  0.00     0.173 A 
ATOM     62  F   UNL A   1      37.726  31.312  28.631  1.00  0.00    -0.203 F 
ATOM     63  C   UNL A   1      36.496  31.574  30.622  1.00  0.00     0.198 A 
ATOM     64  C   UNL A   1      37.490  31.011  32.733  1.00  0.00     0.198 A 
ATOM     65  F   UNL A   1      39.706  30.227  32.819  1.00  0.00    -0.203 F 
ATOM     66  F   UNL A   1      35.460  32.052  29.919  1.00  0.00    -0.200 F 
ATOM     67  C   UNL A   1      36.407  31.477  32.004  1.00  0.00     0.200 A 
ATOM     68  F   UNL A   1      37.404  30.904  34.067  1.00  0.00    -0.200 F 
ATOM     69  F   UNL A   1      35.281  31.840  32.633  1.00  0.00    -0.200 F 
ENDBRANCH  45  59
BRANCH  46  70
ATOM     70  C   UNL A   1      47.047  27.670  26.064  1.00  0.00     0.064 A 
ATOM     71  C   UNL A   1      48.151  27.166  26.763  1.00  0.00     0.173 A 
ATOM     72  C   UNL A   1      47.126  27.721  24.665  1.00  0.00     0.173 A 
ATOM     73  F   UNL A   1      48.135  27.129  28.104  1.00  0.00    -0.203 F 
ATOM     74  C   UNL A   1      49.290  26.729  26.088  1.00  0.00     0.198 A 
ATOM     75  C   UNL A   1      48.252  27.255  23.990  1.00  0.00     0.198 A 
ATOM     76  F   UNL A   1      46.098  28.200  23.950  1.00  0.00    -0.203 F 
ATOM     77  F   UNL A   1      50.347  26.283  26.781  1.00  0.00    -0.200 F 
ATOM     78  C   UNL A   1      49.334  26.763  24.702  1.00  0.00     0.200 A 
ATOM     79  F   UNL A   1      48.285  27.278  22.651  1.00  0.00    -0.200 F 
ATOM     80  F   UNL A   1      50.423  26.328  24.053  1.00  0.00    -0.200 F 
ENDBRANCH  46  70
BRANCH  58  81
ATOM     81  C   UNL A   1      45.082  33.740  28.854  1.00  0.00     0.064 A 
ATOM     82  C   UNL A   1      44.915  34.730  27.876  1.00  0.00     0.173 A 
ATOM     83  C   UNL A   1      45.881  34.041  29.967  1.00  0.00     0.173 A 
ATOM     84  F   UNL A   1      44.174  34.482  26.785  1.00  0.00    -0.203 F 
ATOM     85  C   UNL A   1      45.541  35.967  27.997  1.00  0.00     0.198 A 
ATOM     86  C   UNL A   1      46.486  35.287  30.097  1.00  0.00     0.198 A 
ATOM     87  F   UNL A   1      46.068  33.128  30.932  1.00  0.00    -0.203 F 
ATOM     88  F   UNL A   1      45.402  36.885  27.031  1.00  0.00    -0.200 F 
ATOM     89  C   UNL A   1      46.321  36.247  29.110  1.00  0.00     0.200 A 
ATOM     90  F   UNL A   1      47.232  35.559  31.177  1.00  0.00    -0.200 F 
ATOM     91  F   UNL A   1      46.920  37.440  29.227  1.00  0.00    -0.200 F 
ENDBRANCH  58  81
ENDBRANCH  32  33
ENDBRANCH  25  27
ENDBRANCH  24  25
ENDBRANCH  23  24
ENDBRANCH   1  23
TORSDOF 15
ENDMDL
MODEL 3
REMARK VINA RESULT:     -11.4      5.235      9.317
REMARK SMILES CCC[C@]1(C(=O)OCCOC(=O)c2ccc(-c3c4nc(c(-c5c(F)c(F)c(F)c(F)c5F)c5ccc([nH]5)c(-c5c(F)c(F)c(F)c(F)c5F)c5nc(c(-c6c(F)c(F)c(F)c(F)c6F)c6ccc3[nH]6)C=C5)C=C4)cc2)CCCN(C(=O)N[C@H]2CCOC2)C1
REMARK SMILES IDX 8 1 7 2 5 3 6 4 4 5 76 6 88 7 77 8 79 9 78 10 3 11 2 12 1 13
REMARK SMILES IDX 80 14 81 15 82 16 83 18 84 19 87 20 85 21 86 22 9 23 10 24
REMARK SMILES IDX 11 25 12 26 13 27 14 28 75 29 15 30 74 31 16 32 17 33 18 34
REMARK SMILES IDX 68 35 19 36 73 37 67 38 69 39 20 40 72 41 66 42 65 43 21 45
REMARK SMILES IDX 53 46 33 47 52 48 34 49 37 50 51 51 70 52 35 53 36 54 50 56
REMARK SMILES IDX 71 57 38 58 22 59 23 60 31 61 24 62 25 63 29 64 32 65 26 66
REMARK SMILES IDX 27 67 30 68 28 69 54 70 55 71 63 72 56 73 57 74 61 75 64 76
REMARK SMILES IDX 58 77 59 78 62 79 60 80 39 81 40 82 48 83 41 84 42 85 46 86
REMARK SMILES IDX 49 87 43 88 44 89 47 90 45 91
REMARK H PARENT 82 17 69 44 37 55
REMARK Flexibility Score: inf
ROOT
ATOM      1  C   UNL A   1      41.891  20.412  26.126  1.00  0.00     0.274 C 
ENDROOT
BRANCH   1   2
ATOM      2  O   UNL A   1      42.511  21.496  25.405  1.00  0.00    -0.462 OA
BRANCH   2   3
ATOM      3  C   UNL A   1      43.870  21.600  25.389  1.00  0.00     0.314 C 
ATOM      4  O   UNL A   1      44.607  20.700  25.017  1.00  0.00    -0.252 OA
BRANCH   3   5
ATOM      5  C   UNL A   1      44.337  22.987  25.887  1.00  0.00     0.086 C 
ATOM      6  C   UNL A   1      45.659  22.780  26.712  1.00  0.00     0.022 C 
ATOM      7  C   UNL A   1      44.670  23.880  24.674  1.00  0.00     0.140 C 
ATOM      8  C   UNL A   1      46.426  24.060  27.018  1.00  0.00     0.023 C 
ATOM      9  N   UNL A   1      45.309  25.133  25.131  1.00  0.00    -0.324 N 
ATOM     10  C   UNL A   1      46.591  24.908  25.764  1.00  0.00     0.121 C 
BRANCH   5  11
ATOM     11  C   UNL A   1      43.272  23.655  26.811  1.00  0.00     0.020 C 
BRANCH  11  12
ATOM     12  C   UNL A   1      43.342  23.559  28.349  1.00  0.00    -0.002 C 
ATOM     13  C   UNL A   1      42.276  22.782  29.098  1.00  0.00     0.004 C 
ENDBRANCH  11  12
ENDBRANCH   5  11
BRANCH   9  14
ATOM     14  C   UNL A   1      44.610  26.291  25.001  1.00  0.00     0.317 C 
ATOM     15  O   UNL A   1      43.374  26.293  25.002  1.00  0.00    -0.249 OA
ATOM     16  N   UNL A   1      45.144  27.514  24.927  1.00  0.00    -0.333 N 
ATOM     17  H   UNL A   1      44.420  28.174  25.022  1.00  0.00     0.165 HD
BRANCH  16  18
ATOM     18  C   UNL A   1      46.404  28.237  24.758  1.00  0.00     0.112 C 
ATOM     19  C   UNL A   1      47.356  28.347  25.925  1.00  0.00     0.056 C 
ATOM     20  C   UNL A   1      47.238  27.823  23.560  1.00  0.00     0.185 C 
ATOM     21  C   UNL A   1      48.698  27.889  25.386  1.00  0.00     0.162 C 
ATOM     22  O   UNL A   1      48.610  27.779  23.964  1.00  0.00    -0.379 OA
ENDBRANCH  16  18
ENDBRANCH   9  14
ENDBRANCH   3   5
ENDBRANCH   2   3
ENDBRANCH   1   2
BRANCH   1  23
ATOM     23  C   UNL A   1      40.503  20.886  26.546  1.00  0.00     0.275 C 
BRANCH  23  24
ATOM     24  O   UNL A   1      40.376  22.255  26.121  1.00  0.00    -0.458 OA
BRANCH  24  25
ATOM     25  C   UNL A   1      39.185  22.853  26.327  1.00  0.00     0.338 C 
ATOM     26  O   UNL A   1      38.071  22.383  26.124  1.00  0.00    -0.246 OA
BRANCH  25  27
ATOM     27  C   UNL A   1      39.419  24.192  26.902  1.00  0.00     0.060 A 
ATOM     28  C   UNL A   1      40.004  25.182  26.117  1.00  0.00     0.016 A 
ATOM     29  C   UNL A   1      39.149  24.455  28.244  1.00  0.00     0.016 A 
ATOM     30  C   UNL A   1      40.427  26.382  26.686  1.00  0.00     0.010 A 
ATOM     31  C   UNL A   1      39.454  25.714  28.780  1.00  0.00     0.010 A 
ATOM     32  C   UNL A   1      40.134  26.685  28.020  1.00  0.00    -0.014 A 
BRANCH  32  33
ATOM     33  C   UNL A   1      40.564  27.985  28.620  1.00  0.00     0.031 A 
ATOM     34  C   UNL A   1      42.014  28.213  28.970  1.00  0.00     0.074 A 
ATOM     35  C   UNL A   1      39.683  28.981  28.847  1.00  0.00     0.049 A 
ATOM     36  N   UNL A   1      42.555  29.147  29.711  1.00  0.00    -0.248 NA
ATOM     37  C   UNL A   1      42.980  27.249  28.423  1.00  0.00     0.031 C 
ATOM     38  C   UNL A   1      38.261  28.960  28.501  1.00  0.00     0.029 A 
ATOM     39  N   UNL A   1      39.858  30.219  29.425  1.00  0.00    -0.354 N 
ATOM     40  C   UNL A   1      43.908  28.840  29.782  1.00  0.00     0.074 A 
ATOM     41  C   UNL A   1      44.108  27.638  29.000  1.00  0.00     0.031 C 
ATOM     42  C   UNL A   1      37.706  30.136  28.830  1.00  0.00     0.029 A 
ATOM     43  C   UNL A   1      38.701  30.953  29.515  1.00  0.00     0.049 A 
ATOM     44  H   UNL A   1      40.731  30.546  29.744  1.00  0.00     0.167 HD
ATOM     45  C   UNL A   1      44.891  29.494  30.447  1.00  0.00     0.037 A 
ATOM     46  C   UNL A   1      38.442  32.124  30.129  1.00  0.00     0.037 A 
ATOM     47  C   UNL A   1      44.708  30.731  31.162  1.00  0.00     0.049 A 
ATOM     48  C   UNL A   1      39.535  32.818  30.890  1.00  0.00     0.074 A 
ATOM     49  C   UNL A   1      45.648  31.476  31.854  1.00  0.00     0.029 A 
ATOM     50  N   UNL A   1      43.506  31.415  31.260  1.00  0.00    -0.354 N 
ATOM     51  N   UNL A   1      40.791  32.470  31.033  1.00  0.00    -0.248 NA
ATOM     52  C   UNL A   1      39.168  34.050  31.602  1.00  0.00     0.031 C 
ATOM     53  C   UNL A   1      45.007  32.596  32.397  1.00  0.00     0.029 A 
ATOM     54  C   UNL A   1      43.677  32.568  32.011  1.00  0.00     0.049 A 
ATOM     55  H   UNL A   1      42.656  31.126  30.856  1.00  0.00     0.167 HD
ATOM     56  C   UNL A   1      41.364  33.440  31.844  1.00  0.00     0.074 A 
ATOM     57  C   UNL A   1      40.324  34.402  32.145  1.00  0.00     0.031 C 
ATOM     58  C   UNL A   1      42.636  33.518  32.305  1.00  0.00     0.037 A 
BRANCH  45  59
ATOM     59  C   UNL A   1      46.249  28.857  30.476  1.00  0.00     0.064 A 
ATOM     60  C   UNL A   1      46.583  27.850  31.394  1.00  0.00     0.173 A 
ATOM     61  C   UNL A   1      47.227  29.251  29.550  1.00  0.00     0.173 A 
ATOM     62  F   UNL A   1      45.690  27.448  32.309  1.00  0.00    -0.203 F 
ATOM     63  C   UNL A   1      47.857  27.286  31.403  1.00  0.00     0.198 A 
ATOM     64  C   UNL A   1      48.490  28.666  29.543  1.00  0.00     0.198 A 
ATOM     65  F   UNL A   1      46.956  30.206  28.646  1.00  0.00    -0.203 F 
ATOM     66  F   UNL A   1      48.172  26.363  32.322  1.00  0.00    -0.200 F 
ATOM     67  C   UNL A   1      48.807  27.690  30.475  1.00  0.00     0.200 A 
ATOM     68  F   UNL A   1      49.402  29.051  28.639  1.00  0.00    -0.200 F 
ATOM     69  F   UNL A   1      50.032  27.145  30.486  1.00  0.00    -0.200 F 
ENDBRANCH  45  59
BRANCH  46  70
ATOM     70  C   UNL A   1      37.063  32.679  30.100  1.00  0.00     0.064 A 
ATOM     71  C   UNL A   1      36.165  32.436  31.148  1.00  0.00     0.173 A 
ATOM     72  C   UNL A   1      36.622  33.477  29.034  1.00  0.00     0.173 A 
ATOM     73  F   UNL A   1      36.529  31.651  32.174  1.00  0.00    -0.203 F 
ATOM     74  C   UNL A   1      34.877  32.970  31.129  1.00  0.00     0.198 A 
ATOM     75  C   UNL A   1      35.347  34.036  29.032  1.00  0.00     0.198 A 
ATOM     76  F   UNL A   1      37.441  33.735  28.004  1.00  0.00    -0.203 F 
ATOM     77  F   UNL A   1      34.025  32.694  32.126  1.00  0.00    -0.200 F 
ATOM     78  C   UNL A   1      34.474  33.779  30.077  1.00  0.00     0.200 A 
ATOM     79  F   UNL A   1      34.967  34.827  28.019  1.00  0.00    -0.200 F 
ATOM     80  F   UNL A   1      33.242  34.305  30.067  1.00  0.00    -0.200 F 
ENDBRANCH  46  70
BRANCH  58  81
ATOM     81  C   UNL A   1      42.981  34.697  33.165  1.00  0.00     0.064 A 
ATOM     82  C   UNL A   1      42.942  34.619  34.564  1.00  0.00     0.173 A 
ATOM     83  C   UNL A   1      43.388  35.907  32.583  1.00  0.00     0.173 A 
ATOM     84  F   UNL A   1      42.542  33.488  35.166  1.00  0.00    -0.203 F 
ATOM     85  C   UNL A   1      43.278  35.717  35.350  1.00  0.00     0.198 A 
ATOM     86  C   UNL A   1      43.746  36.995  33.372  1.00  0.00     0.198 A 
ATOM     87  F   UNL A   1      43.446  36.030  31.249  1.00  0.00    -0.203 F 
ATOM     88  F   UNL A   1      43.194  35.634  36.686  1.00  0.00    -0.200 F 
ATOM     89  C   UNL A   1      43.685  36.902  34.755  1.00  0.00     0.200 A 
ATOM     90  F   UNL A   1      44.149  38.136  32.796  1.00  0.00    -0.200 F 
ATOM     91  F   UNL A   1      44.012  37.957  35.514  1.00  0.00    -0.200 F 
ENDBRANCH  58  81
ENDBRANCH  32  33
ENDBRANCH  25  27
ENDBRANCH  24  25
ENDBRANCH  23  24
ENDBRANCH   1  23
TORSDOF 15
ENDMDL
