MODEL 1
REMARK VINA RESULT:     -10.6      0.000      0.000
REMARK SMILES CN(C)C(=O)Cc1nc(C[N@H+](C)CC(=O)OCCOC(=O)c2ccc(-c3c4nc(c(-c5c(F)c(F)c(F)c(F)c5F)c5ccc([nH]5)c(-c5c(F)c(F)c(F)c(F)c5F)c5nc(c(-c6c(F)c(F)c(F)c(F)c6F)c6ccc3[nH]6)C=C5)C=C4)cc2)cs1
REMARK SMILES IDX 16 1 14 2 15 3 13 4 11 5 12 6 10 8 9 9 85 10 8 11 86 12 7 13
REMARK SMILES IDX 6 14 4 15 5 16 2 17 1 18 3 19 17 20 18 21 19 22 20 23 21 24
REMARK SMILES IDX 22 25 23 26 84 27 24 28 83 29 25 30 26 31 27 32 77 33 28 34
REMARK SMILES IDX 82 35 76 36 78 37 29 38 81 39 75 40 74 41 30 43 62 44 42 45
REMARK SMILES IDX 61 46 43 47 46 48 60 49 79 50 44 51 45 52 59 54 80 55 47 56
REMARK SMILES IDX 31 57 32 58 40 59 33 60 34 61 38 62 41 63 35 64 36 65 39 66
REMARK SMILES IDX 37 67 63 68 64 69 72 70 65 71 66 72 70 73 73 74 67 75 68 76
REMARK SMILES IDX 71 77 69 78 48 79 49 80 57 81 50 82 51 83 55 84 58 85 52 86
REMARK SMILES IDX 53 87 56 88 54 89
REMARK H PARENT 11 7 78 42 46 53
REMARK Flexibility Score: inf
ROOT
ATOM      1  O   UNL A   1      32.858  27.769  26.915  1.00  0.00    -0.458 OA
ENDROOT
BRANCH   1   2
ATOM      2  C   UNL A   1      33.023  26.762  26.019  1.00  0.00     0.361 C 
ATOM      3  O   UNL A   1      34.000  26.642  25.282  1.00  0.00    -0.245 OA
BRANCH   2   4
ATOM      4  C   UNL A   1      31.884  25.741  26.010  1.00  0.00     0.386 C 
BRANCH   4   5
ATOM      5  N   UNL A   1      31.573  25.233  24.671  1.00  0.00    -0.323 N 
ATOM      6  C   UNL A   1      32.004  23.870  24.439  1.00  0.00     0.333 C 
ATOM      7  H   UNL A   1      32.176  25.786  24.061  1.00  0.00     0.348 HD
BRANCH   5   8
ATOM      8  C   UNL A   1      30.244  25.573  24.155  1.00  0.00     0.320 C 
BRANCH   8   9
ATOM      9  C   UNL A   1      30.292  26.919  23.475  1.00  0.00     0.106 A 
ATOM     10  C   UNL A   1      31.379  27.489  22.835  1.00  0.00     0.096 A 
ATOM     11  N   UNL A   1      29.166  27.742  23.521  1.00  0.00    -0.240 NA
ATOM     12  S   UNL A   1      31.043  29.106  22.404  1.00  0.00    -0.126 S 
ATOM     13  C   UNL A   1      29.492  28.963  23.137  1.00  0.00     0.102 A 
BRANCH  13  14
ATOM     14  C   UNL A   1      28.592  30.151  23.237  1.00  0.00     0.167 C 
BRANCH  14  15
ATOM     15  C   UNL A   1      28.342  30.764  21.859  1.00  0.00     0.228 C 
ATOM     16  O   UNL A   1      28.009  30.048  20.907  1.00  0.00    -0.274 OA
ATOM     17  N   UNL A   1      28.375  32.153  21.723  1.00  0.00    -0.348 N 
ATOM     18  C   UNL A   1      28.767  33.070  22.782  1.00  0.00     0.146 C 
ATOM     19  C   UNL A   1      27.804  32.748  20.522  1.00  0.00     0.146 C 
ENDBRANCH  14  15
ENDBRANCH  13  14
ENDBRANCH   8   9
ENDBRANCH   5   8
ENDBRANCH   4   5
ENDBRANCH   2   4
ENDBRANCH   1   2
BRANCH   1  20
ATOM     20  C   UNL A   1      31.670  28.567  26.780  1.00  0.00     0.274 C 
BRANCH  20  21
ATOM     21  C   UNL A   1      31.982  29.969  26.245  1.00  0.00     0.275 C 
BRANCH  21  22
ATOM     22  O   UNL A   1      33.386  30.285  26.324  1.00  0.00    -0.458 OA
BRANCH  22  23
ATOM     23  C   UNL A   1      33.668  31.260  27.214  1.00  0.00     0.338 C 
ATOM     24  O   UNL A   1      33.031  32.270  27.435  1.00  0.00    -0.246 OA
BRANCH  23  25
ATOM     25  C   UNL A   1      34.897  31.001  27.953  1.00  0.00     0.060 A 
ATOM     26  C   UNL A   1      35.920  31.950  27.954  1.00  0.00     0.016 A 
ATOM     27  C   UNL A   1      35.101  29.717  28.457  1.00  0.00     0.016 A 
ATOM     28  C   UNL A   1      37.164  31.610  28.479  1.00  0.00     0.010 A 
ATOM     29  C   UNL A   1      36.337  29.381  28.995  1.00  0.00     0.010 A 
ATOM     30  C   UNL A   1      37.373  30.328  29.010  1.00  0.00    -0.014 A 
BRANCH  30  31
ATOM     31  C   UNL A   1      38.623  30.005  29.726  1.00  0.00     0.031 A 
ATOM     32  C   UNL A   1      39.604  29.016  29.183  1.00  0.00     0.074 A 
ATOM     33  C   UNL A   1      38.797  30.565  30.935  1.00  0.00     0.049 A 
ATOM     34  N   UNL A   1      40.680  28.532  29.750  1.00  0.00    -0.248 NA
ATOM     35  C   UNL A   1      39.342  28.490  27.836  1.00  0.00     0.031 C 
ATOM     36  C   UNL A   1      37.874  31.519  31.556  1.00  0.00     0.029 A 
ATOM     37  N   UNL A   1      39.783  30.393  31.867  1.00  0.00    -0.354 N 
ATOM     38  C   UNL A   1      41.218  27.637  28.839  1.00  0.00     0.074 A 
ATOM     39  C   UNL A   1      40.346  27.635  27.682  1.00  0.00     0.031 C 
ATOM     40  C   UNL A   1      38.329  31.836  32.775  1.00  0.00     0.029 A 
ATOM     41  C   UNL A   1      39.555  31.087  33.028  1.00  0.00     0.049 A 
ATOM     42  H   UNL A   1      40.577  29.830  31.720  1.00  0.00     0.167 HD
ATOM     43  C   UNL A   1      42.341  26.889  28.969  1.00  0.00     0.037 A 
ATOM     44  C   UNL A   1      40.245  31.097  34.181  1.00  0.00     0.037 A 
ATOM     45  C   UNL A   1      43.202  26.912  30.123  1.00  0.00     0.049 A 
ATOM     46  C   UNL A   1      41.486  30.268  34.292  1.00  0.00     0.074 A 
ATOM     47  C   UNL A   1      44.392  26.235  30.330  1.00  0.00     0.029 A 
ATOM     48  N   UNL A   1      42.960  27.652  31.273  1.00  0.00    -0.354 N 
ATOM     49  N   UNL A   1      42.009  29.449  33.411  1.00  0.00    -0.248 NA
ATOM     50  C   UNL A   1      42.234  30.364  35.550  1.00  0.00     0.031 C 
ATOM     51  C   UNL A   1      44.855  26.544  31.615  1.00  0.00     0.029 A 
ATOM     52  C   UNL A   1      43.970  27.436  32.199  1.00  0.00     0.049 A 
ATOM     53  H   UNL A   1      42.186  28.245  31.411  1.00  0.00     0.167 HD
ATOM     54  C   UNL A   1      43.152  28.938  34.001  1.00  0.00     0.074 A 
ATOM     55  C   UNL A   1      43.254  29.548  35.313  1.00  0.00     0.031 C 
ATOM     56  C   UNL A   1      44.039  28.044  33.502  1.00  0.00     0.037 A 
BRANCH  43  57
ATOM     57  C   UNL A   1      42.705  25.974  27.840  1.00  0.00     0.064 A 
ATOM     58  C   UNL A   1      42.130  24.702  27.713  1.00  0.00     0.173 A 
ATOM     59  C   UNL A   1      43.588  26.400  26.836  1.00  0.00     0.173 A 
ATOM     60  F   UNL A   1      41.287  24.247  28.652  1.00  0.00    -0.203 F 
ATOM     61  C   UNL A   1      42.431  23.885  26.625  1.00  0.00     0.198 A 
ATOM     62  C   UNL A   1      43.875  25.588  25.741  1.00  0.00     0.198 A 
ATOM     63  F   UNL A   1      44.163  27.609  26.911  1.00  0.00    -0.203 F 
ATOM     64  F   UNL A   1      41.884  22.665  26.533  1.00  0.00    -0.200 F 
ATOM     65  C   UNL A   1      43.297  24.331  25.637  1.00  0.00     0.200 A 
ATOM     66  F   UNL A   1      44.706  26.023  24.785  1.00  0.00    -0.200 F 
ATOM     67  F   UNL A   1      43.578  23.549  24.586  1.00  0.00    -0.200 F 
ENDBRANCH  43  57
BRANCH  44  68
ATOM     68  C   UNL A   1      39.760  31.938  35.299  1.00  0.00     0.064 A 
ATOM     69  C   UNL A   1      40.181  33.266  35.428  1.00  0.00     0.173 A 
ATOM     70  C   UNL A   1      38.804  31.456  36.204  1.00  0.00     0.173 A 
ATOM     71  F   UNL A   1      41.101  33.761  34.588  1.00  0.00    -0.203 F 
ATOM     72  C   UNL A   1      39.659  34.087  36.424  1.00  0.00     0.198 A 
ATOM     73  C   UNL A   1      38.270  32.283  37.189  1.00  0.00     0.198 A 
ATOM     74  F   UNL A   1      38.363  30.192  36.106  1.00  0.00    -0.203 F 
ATOM     75  F   UNL A   1      40.083  35.353  36.536  1.00  0.00    -0.200 F 
ATOM     76  C   UNL A   1      38.699  33.598  37.298  1.00  0.00     0.200 A 
ATOM     77  F   UNL A   1      37.331  31.813  38.020  1.00  0.00    -0.200 F 
ATOM     78  F   UNL A   1      38.183  34.395  38.243  1.00  0.00    -0.200 F 
ENDBRANCH  44  68
BRANCH  56  79
ATOM     79  C   UNL A   1      45.192  27.682  34.383  1.00  0.00     0.064 A 
ATOM     80  C   UNL A   1      46.383  28.422  34.357  1.00  0.00     0.173 A 
ATOM     81  C   UNL A   1      45.103  26.595  35.264  1.00  0.00     0.173 A 
ATOM     82  F   UNL A   1      46.517  29.457  33.515  1.00  0.00    -0.203 F 
ATOM     83  C   UNL A   1      47.454  28.072  35.173  1.00  0.00     0.198 A 
ATOM     84  C   UNL A   1      46.170  26.259  36.089  1.00  0.00     0.198 A 
ATOM     85  F   UNL A   1      43.981  25.861  35.319  1.00  0.00    -0.203 F 
ATOM     86  F   UNL A   1      48.598  28.766  35.108  1.00  0.00    -0.200 F 
ATOM     87  C   UNL A   1      47.347  26.994  36.040  1.00  0.00     0.200 A 
ATOM     88  F   UNL A   1      46.066  25.220  36.928  1.00  0.00    -0.200 F 
ATOM     89  F   UNL A   1      48.381  26.655  36.820  1.00  0.00    -0.200 F 
ENDBRANCH  56  79
ENDBRANCH  30  31
ENDBRANCH  23  25
ENDBRANCH  22  23
ENDBRANCH  21  22
ENDBRANCH  20  21
ENDBRANCH   1  20
TORSDOF 16
ENDMDL
MODEL 2
REMARK VINA RESULT:     -10.3      6.591     10.230
REMARK SMILES CN(C)C(=O)Cc1nc(C[N@H+](C)CC(=O)OCCOC(=O)c2ccc(-c3c4nc(c(-c5c(F)c(F)c(F)c(F)c5F)c5ccc([nH]5)c(-c5c(F)c(F)c(F)c(F)c5F)c5nc(c(-c6c(F)c(F)c(F)c(F)c6F)c6ccc3[nH]6)C=C5)C=C4)cc2)cs1
REMARK SMILES IDX 16 1 14 2 15 3 13 4 11 5 12 6 10 8 9 9 85 10 8 11 86 12 7 13
REMARK SMILES IDX 6 14 4 15 5 16 2 17 1 18 3 19 17 20 18 21 19 22 20 23 21 24
REMARK SMILES IDX 22 25 23 26 84 27 24 28 83 29 25 30 26 31 27 32 77 33 28 34
REMARK SMILES IDX 82 35 76 36 78 37 29 38 81 39 75 40 74 41 30 43 62 44 42 45
REMARK SMILES IDX 61 46 43 47 46 48 60 49 79 50 44 51 45 52 59 54 80 55 47 56
REMARK SMILES IDX 31 57 32 58 40 59 33 60 34 61 38 62 41 63 35 64 36 65 39 66
REMARK SMILES IDX 37 67 63 68 64 69 72 70 65 71 66 72 70 73 73 74 67 75 68 76
REMARK SMILES IDX 71 77 69 78 48 79 49 80 57 81 50 82 51 83 55 84 58 85 52 86
REMARK SMILES IDX 53 87 56 88 54 89
REMARK H PARENT 11 7 78 42 46 53
REMARK Flexibility Score: inf
ROOT
ATOM      1  O   UNL A   1      41.191  19.913  25.948  1.00  0.00    -0.458 OA
ENDROOT
BRANCH   1   2
ATOM      2  C   UNL A   1      41.099  21.254  26.140  1.00  0.00     0.361 C 
ATOM      3  O   UNL A   1      41.756  22.091  25.524  1.00  0.00    -0.245 OA
BRANCH   2   4
ATOM      4  C   UNL A   1      40.067  21.664  27.192  1.00  0.00     0.386 C 
BRANCH   4   5
ATOM      5  N   UNL A   1      38.992  22.502  26.652  1.00  0.00    -0.323 N 
ATOM      6  C   UNL A   1      39.334  23.905  26.536  1.00  0.00     0.333 C 
ATOM      7  H   UNL A   1      38.285  22.484  27.387  1.00  0.00     0.348 HD
BRANCH   5   8
ATOM      8  C   UNL A   1      38.252  21.937  25.520  1.00  0.00     0.320 C 
BRANCH   8   9
ATOM      9  C   UNL A   1      36.775  22.187  25.704  1.00  0.00     0.106 A 
ATOM     10  C   UNL A   1      36.175  23.370  26.099  1.00  0.00     0.096 A 
ATOM     11  N   UNL A   1      35.882  21.129  25.528  1.00  0.00    -0.240 NA
ATOM     12  S   UNL A   1      34.508  23.133  26.383  1.00  0.00    -0.126 S 
ATOM     13  C   UNL A   1      34.698  21.463  26.008  1.00  0.00     0.102 A 
BRANCH  13  14
ATOM     14  C   UNL A   1      33.550  20.520  26.163  1.00  0.00     0.167 C 
BRANCH  14  15
ATOM     15  C   UNL A   1      32.959  20.151  24.802  1.00  0.00     0.228 C 
ATOM     16  O   UNL A   1      32.891  20.994  23.900  1.00  0.00    -0.274 OA
ATOM     17  N   UNL A   1      32.616  18.820  24.556  1.00  0.00    -0.348 N 
ATOM     18  C   UNL A   1      32.653  17.767  25.557  1.00  0.00     0.146 C 
ATOM     19  C   UNL A   1      32.390  18.405  23.178  1.00  0.00     0.146 C 
ENDBRANCH  14  15
ENDBRANCH  13  14
ENDBRANCH   8   9
ENDBRANCH   5   8
ENDBRANCH   4   5
ENDBRANCH   2   4
ENDBRANCH   1   2
BRANCH   1  20
ATOM     20  C   UNL A   1      42.192  19.217  26.710  1.00  0.00     0.274 C 
BRANCH  20  21
ATOM     21  C   UNL A   1      43.175  18.465  25.808  1.00  0.00     0.275 C 
BRANCH  21  22
ATOM     22  O   UNL A   1      43.440  19.170  24.578  1.00  0.00    -0.458 OA
BRANCH  22  23
ATOM     23  C   UNL A   1      44.711  19.613  24.476  1.00  0.00     0.338 C 
ATOM     24  O   UNL A   1      45.693  18.979  24.150  1.00  0.00    -0.246 OA
BRANCH  23  25
ATOM     25  C   UNL A   1      44.837  21.024  24.818  1.00  0.00     0.060 A 
ATOM     26  C   UNL A   1      44.774  21.990  23.812  1.00  0.00     0.016 A 
ATOM     27  C   UNL A   1      45.235  21.353  26.113  1.00  0.00     0.016 A 
ATOM     28  C   UNL A   1      45.106  23.308  24.113  1.00  0.00     0.010 A 
ATOM     29  C   UNL A   1      45.552  22.671  26.418  1.00  0.00     0.010 A 
ATOM     30  C   UNL A   1      45.486  23.654  25.418  1.00  0.00    -0.014 A 
BRANCH  30  31
ATOM     31  C   UNL A   1      45.671  25.069  25.798  1.00  0.00     0.031 A 
ATOM     32  C   UNL A   1      47.017  25.718  25.769  1.00  0.00     0.074 A 
ATOM     33  C   UNL A   1      44.593  25.723  26.265  1.00  0.00     0.049 A 
ATOM     34  N   UNL A   1      47.364  26.907  26.192  1.00  0.00    -0.248 NA
ATOM     35  C   UNL A   1      48.124  24.931  25.206  1.00  0.00     0.031 C 
ATOM     36  C   UNL A   1      43.246  25.156  26.356  1.00  0.00     0.029 A 
ATOM     37  N   UNL A   1      44.464  26.985  26.776  1.00  0.00    -0.354 N 
ATOM     38  C   UNL A   1      48.726  27.011  25.959  1.00  0.00     0.074 A 
ATOM     39  C   UNL A   1      49.149  25.759  25.365  1.00  0.00     0.031 C 
ATOM     40  C   UNL A   1      42.427  26.062  26.908  1.00  0.00     0.029 A 
ATOM     41  C   UNL A   1      43.200  27.256  27.232  1.00  0.00     0.049 A 
ATOM     42  H   UNL A   1      45.203  27.634  26.811  1.00  0.00     0.167 HD
ATOM     43  C   UNL A   1      49.539  28.062  26.221  1.00  0.00     0.037 A 
ATOM     44  C   UNL A   1      42.722  28.338  27.867  1.00  0.00     0.037 A 
ATOM     45  C   UNL A   1      49.098  29.304  26.803  1.00  0.00     0.049 A 
ATOM     46  C   UNL A   1      43.642  29.488  28.136  1.00  0.00     0.074 A 
ATOM     47  C   UNL A   1      49.832  30.450  27.058  1.00  0.00     0.029 A 
ATOM     48  N   UNL A   1      47.801  29.560  27.225  1.00  0.00    -0.354 N 
ATOM     49  N   UNL A   1      44.923  29.592  27.880  1.00  0.00    -0.248 NA
ATOM     50  C   UNL A   1      43.053  30.670  28.776  1.00  0.00     0.031 C 
ATOM     51  C   UNL A   1      48.985  31.389  27.660  1.00  0.00     0.029 A 
ATOM     52  C   UNL A   1      47.716  30.839  27.754  1.00  0.00     0.049 A 
ATOM     53  H   UNL A   1      47.050  28.926  27.159  1.00  0.00     0.167 HD
ATOM     54  C   UNL A   1      45.297  30.852  28.319  1.00  0.00     0.074 A 
ATOM     55  C   UNL A   1      44.101  31.481  28.847  1.00  0.00     0.031 C 
ATOM     56  C   UNL A   1      46.519  31.435  28.286  1.00  0.00     0.037 A 
BRANCH  43  57
ATOM     57  C   UNL A   1      50.994  27.920  25.893  1.00  0.00     0.064 A 
ATOM     58  C   UNL A   1      51.926  27.504  26.854  1.00  0.00     0.173 A 
ATOM     59  C   UNL A   1      51.451  28.135  24.583  1.00  0.00     0.173 A 
ATOM     60  F   UNL A   1      51.539  27.293  28.120  1.00  0.00    -0.203 F 
ATOM     61  C   UNL A   1      53.265  27.315  26.518  1.00  0.00     0.198 A 
ATOM     62  C   UNL A   1      52.787  27.930  24.247  1.00  0.00     0.198 A 
ATOM     63  F   UNL A   1      50.598  28.531  23.627  1.00  0.00    -0.203 F 
ATOM     64  F   UNL A   1      54.142  26.936  27.458  1.00  0.00    -0.200 F 
ATOM     65  C   UNL A   1      53.693  27.522  25.215  1.00  0.00     0.200 A 
ATOM     66  F   UNL A   1      53.197  28.124  22.987  1.00  0.00    -0.200 F 
ATOM     67  F   UNL A   1      54.980  27.331  24.892  1.00  0.00    -0.200 F 
ENDBRANCH  43  57
BRANCH  44  68
ATOM     68  C   UNL A   1      41.297  28.362  28.269  1.00  0.00     0.064 A 
ATOM     69  C   UNL A   1      40.904  27.909  29.533  1.00  0.00     0.173 A 
ATOM     70  C   UNL A   1      40.319  28.917  27.431  1.00  0.00     0.173 A 
ATOM     71  F   UNL A   1      41.808  27.364  30.359  1.00  0.00    -0.203 F 
ATOM     72  C   UNL A   1      39.579  28.012  29.949  1.00  0.00     0.198 A 
ATOM     73  C   UNL A   1      38.998  29.036  27.855  1.00  0.00     0.198 A 
ATOM     74  F   UNL A   1      40.657  29.375  26.216  1.00  0.00    -0.203 F 
ATOM     75  F   UNL A   1      39.222  27.564  31.159  1.00  0.00    -0.200 F 
ATOM     76  C   UNL A   1      38.629  28.583  29.113  1.00  0.00     0.200 A 
ATOM     77  F   UNL A   1      38.087  29.602  27.052  1.00  0.00    -0.200 F 
ATOM     78  F   UNL A   1      37.359  28.700  29.522  1.00  0.00    -0.200 F 
ENDBRANCH  44  68
BRANCH  56  79
ATOM     79  C   UNL A   1      46.611  32.823  28.836  1.00  0.00     0.064 A 
ATOM     80  C   UNL A   1      46.926  33.049  30.183  1.00  0.00     0.173 A 
ATOM     81  C   UNL A   1      46.392  33.933  28.009  1.00  0.00     0.173 A 
ATOM     82  F   UNL A   1      47.124  32.014  31.013  1.00  0.00    -0.203 F 
ATOM     83  C   UNL A   1      47.000  34.343  30.688  1.00  0.00     0.198 A 
ATOM     84  C   UNL A   1      46.483  35.225  28.513  1.00  0.00     0.198 A 
ATOM     85  F   UNL A   1      46.087  33.761  26.713  1.00  0.00    -0.203 F 
ATOM     86  F   UNL A   1      47.264  34.540  31.987  1.00  0.00    -0.200 F 
ATOM     87  C   UNL A   1      46.781  35.430  29.853  1.00  0.00     0.200 A 
ATOM     88  F   UNL A   1      46.273  36.275  27.707  1.00  0.00    -0.200 F 
ATOM     89  F   UNL A   1      46.847  36.675  30.343  1.00  0.00    -0.200 F 
ENDBRANCH  56  79
ENDBRANCH  30  31
ENDBRANCH  23  25
ENDBRANCH  22  23
ENDBRANCH  21  22
ENDBRANCH  20  21
ENDBRANCH   1  20
TORSDOF 16
ENDMDL
MODEL 3
REMARK VINA RESULT:     -10.2      2.247      4.482
REMARK SMILES CN(C)C(=O)Cc1nc(C[N@H+](C)CC(=O)OCCOC(=O)c2ccc(-c3c4nc(c(-c5c(F)c(F)c(F)c(F)c5F)c5ccc([nH]5)c(-c5c(F)c(F)c(F)c(F)c5F)c5nc(c(-c6c(F)c(F)c(F)c(F)c6F)c6ccc3[nH]6)C=C5)C=C4)cc2)cs1
REMARK SMILES IDX 16 1 14 2 15 3 13 4 11 5 12 6 10 8 9 9 85 10 8 11 86 12 7 13
REMARK SMILES IDX 6 14 4 15 5 16 2 17 1 18 3 19 17 20 18 21 19 22 20 23 21 24
REMARK SMILES IDX 22 25 23 26 84 27 24 28 83 29 25 30 26 31 27 32 77 33 28 34
REMARK SMILES IDX 82 35 76 36 78 37 29 38 81 39 75 40 74 41 30 43 62 44 42 45
REMARK SMILES IDX 61 46 43 47 46 48 60 49 79 50 44 51 45 52 59 54 80 55 47 56
REMARK SMILES IDX 31 57 32 58 40 59 33 60 34 61 38 62 41 63 35 64 36 65 39 66
REMARK SMILES IDX 37 67 63 68 64 69 72 70 65 71 66 72 70 73 73 74 67 75 68 76
REMARK SMILES IDX 71 77 69 78 48 79 49 80 57 81 50 82 51 83 55 84 58 85 52 86
REMARK SMILES IDX 53 87 56 88 54 89
REMARK H PARENT 11 7 78 42 46 53
REMARK Flexibility Score: inf
ROOT
ATOM      1  O   UNL A   1      32.087  30.457  27.251  1.00  0.00    -0.458 OA
ENDROOT
BRANCH   1   2
ATOM      2  C   UNL A   1      32.294  29.225  26.719  1.00  0.00     0.361 C 
ATOM      3  O   UNL A   1      31.871  28.178  27.207  1.00  0.00    -0.245 OA
BRANCH   2   4
ATOM      4  C   UNL A   1      33.093  29.234  25.416  1.00  0.00     0.386 C 
BRANCH   4   5
ATOM      5  N   UNL A   1      32.610  28.258  24.434  1.00  0.00    -0.323 N 
ATOM      6  C   UNL A   1      31.533  28.744  23.595  1.00  0.00     0.333 C 
ATOM      7  H   UNL A   1      32.166  27.542  25.009  1.00  0.00     0.348 HD
BRANCH   5   8
ATOM      8  C   UNL A   1      33.645  27.482  23.746  1.00  0.00     0.320 C 
BRANCH   8   9
ATOM      9  C   UNL A   1      33.683  26.079  24.304  1.00  0.00     0.106 A 
ATOM     10  C   UNL A   1      33.808  25.717  25.634  1.00  0.00     0.096 A 
ATOM     11  N   UNL A   1      33.653  24.998  23.422  1.00  0.00    -0.240 NA
ATOM     12  S   UNL A   1      34.023  24.030  25.780  1.00  0.00    -0.126 S 
ATOM     13  C   UNL A   1      33.983  23.893  24.063  1.00  0.00     0.102 A 
BRANCH  13  14
ATOM     14  C   UNL A   1      34.239  22.576  23.406  1.00  0.00     0.167 C 
BRANCH  14  15
ATOM     15  C   UNL A   1      33.373  21.479  24.026  1.00  0.00     0.228 C 
ATOM     16  O   UNL A   1      32.153  21.459  23.829  1.00  0.00    -0.274 OA
ATOM     17  N   UNL A   1      33.997  20.435  24.712  1.00  0.00    -0.348 N 
ATOM     18  C   UNL A   1      35.421  20.382  25.001  1.00  0.00     0.146 C 
ATOM     19  C   UNL A   1      33.227  19.231  24.995  1.00  0.00     0.146 C 
ENDBRANCH  14  15
ENDBRANCH  13  14
ENDBRANCH   8   9
ENDBRANCH   5   8
ENDBRANCH   4   5
ENDBRANCH   2   4
ENDBRANCH   1   2
BRANCH   1  20
ATOM     20  C   UNL A   1      31.699  31.498  26.339  1.00  0.00     0.274 C 
BRANCH  20  21
ATOM     21  C   UNL A   1      31.742  32.880  26.999  1.00  0.00     0.275 C 
BRANCH  21  22
ATOM     22  O   UNL A   1      33.079  33.419  27.055  1.00  0.00    -0.458 OA
BRANCH  22  23
ATOM     23  C   UNL A   1      33.349  34.064  28.210  1.00  0.00     0.338 C 
ATOM     24  O   UNL A   1      32.744  34.995  28.699  1.00  0.00    -0.246 OA
BRANCH  23  25
ATOM     25  C   UNL A   1      34.522  33.523  28.886  1.00  0.00     0.060 A 
ATOM     26  C   UNL A   1      35.768  34.124  28.702  1.00  0.00     0.016 A 
ATOM     27  C   UNL A   1      34.401  32.290  29.524  1.00  0.00     0.016 A 
ATOM     28  C   UNL A   1      36.910  33.483  29.175  1.00  0.00     0.010 A 
ATOM     29  C   UNL A   1      35.538  31.655  30.009  1.00  0.00     0.010 A 
ATOM     30  C   UNL A   1      36.797  32.252  29.839  1.00  0.00    -0.014 A 
BRANCH  30  31
ATOM     31  C   UNL A   1      37.969  31.643  30.498  1.00  0.00     0.031 A 
ATOM     32  C   UNL A   1      38.804  30.610  29.814  1.00  0.00     0.074 A 
ATOM     33  C   UNL A   1      38.196  31.986  31.778  1.00  0.00     0.049 A 
ATOM     34  N   UNL A   1      39.783  29.891  30.302  1.00  0.00    -0.248 NA
ATOM     35  C   UNL A   1      38.498  30.334  28.403  1.00  0.00     0.031 C 
ATOM     36  C   UNL A   1      37.411  32.964  32.535  1.00  0.00     0.029 A 
ATOM     37  N   UNL A   1      39.125  31.532  32.674  1.00  0.00    -0.354 N 
ATOM     38  C   UNL A   1      40.204  29.070  29.268  1.00  0.00     0.074 A 
ATOM     39  C   UNL A   1      39.368  29.370  28.124  1.00  0.00     0.031 C 
ATOM     40  C   UNL A   1      37.881  33.026  33.788  1.00  0.00     0.029 A 
ATOM     41  C   UNL A   1      38.976  32.073  33.926  1.00  0.00     0.049 A 
ATOM     42  H   UNL A   1      39.830  30.885  32.445  1.00  0.00     0.167 HD
ATOM     43  C   UNL A   1      41.201  28.152  29.284  1.00  0.00     0.037 A 
ATOM     44  C   UNL A   1      39.633  31.809  35.067  1.00  0.00     0.037 A 
ATOM     45  C   UNL A   1      42.029  27.875  30.430  1.00  0.00     0.049 A 
ATOM     46  C   UNL A   1      40.735  30.796  35.053  1.00  0.00     0.074 A 
ATOM     47  C   UNL A   1      43.101  27.004  30.533  1.00  0.00     0.029 A 
ATOM     48  N   UNL A   1      41.874  28.464  31.677  1.00  0.00    -0.354 N 
ATOM     49  N   UNL A   1      41.151  30.048  34.060  1.00  0.00    -0.248 NA
ATOM     50  C   UNL A   1      41.461  30.592  36.312  1.00  0.00     0.031 C 
ATOM     51  C   UNL A   1      43.576  27.046  31.850  1.00  0.00     0.029 A 
ATOM     52  C   UNL A   1      42.819  27.965  32.560  1.00  0.00     0.049 A 
ATOM     53  H   UNL A   1      41.193  29.139  31.902  1.00  0.00     0.167 HD
ATOM     54  C   UNL A   1      42.193  29.289  34.567  1.00  0.00     0.074 A 
ATOM     55  C   UNL A   1      42.353  29.676  35.956  1.00  0.00     0.031 C 
ATOM     56  C   UNL A   1      42.948  28.356  33.940  1.00  0.00     0.037 A 
BRANCH  43  57
ATOM     57  C   UNL A   1      41.451  27.370  28.032  1.00  0.00     0.064 A 
ATOM     58  C   UNL A   1      42.356  27.814  27.058  1.00  0.00     0.173 A 
ATOM     59  C   UNL A   1      40.829  26.127  27.834  1.00  0.00     0.173 A 
ATOM     60  F   UNL A   1      42.969  28.998  27.198  1.00  0.00    -0.203 F 
ATOM     61  C   UNL A   1      42.626  27.045  25.927  1.00  0.00     0.198 A 
ATOM     62  C   UNL A   1      41.113  25.354  26.711  1.00  0.00     0.198 A 
ATOM     63  F   UNL A   1      39.957  25.658  28.738  1.00  0.00    -0.203 F 
ATOM     64  F   UNL A   1      43.481  27.498  25.000  1.00  0.00    -0.200 F 
ATOM     65  C   UNL A   1      42.010  25.814  25.758  1.00  0.00     0.200 A 
ATOM     66  F   UNL A   1      40.521  24.162  26.553  1.00  0.00    -0.200 F 
ATOM     67  F   UNL A   1      42.277  25.071  24.675  1.00  0.00    -0.200 F 
ENDBRANCH  43  57
BRANCH  44  68
ATOM     68  C   UNL A   1      39.253  32.538  36.298  1.00  0.00     0.064 A 
ATOM     69  C   UNL A   1      38.364  31.971  37.219  1.00  0.00     0.173 A 
ATOM     70  C   UNL A   1      39.836  33.773  36.616  1.00  0.00     0.173 A 
ATOM     71  F   UNL A   1      37.778  30.797  36.946  1.00  0.00    -0.203 F 
ATOM     72  C   UNL A   1      38.073  32.614  38.419  1.00  0.00     0.198 A 
ATOM     73  C   UNL A   1      39.558  34.406  37.825  1.00  0.00     0.198 A 
ATOM     74  F   UNL A   1      40.704  34.344  35.767  1.00  0.00    -0.203 F 
ATOM     75  F   UNL A   1      37.212  32.058  39.282  1.00  0.00    -0.200 F 
ATOM     76  C   UNL A   1      38.676  33.826  38.725  1.00  0.00     0.200 A 
ATOM     77  F   UNL A   1      40.155  35.567  38.124  1.00  0.00    -0.200 F 
ATOM     78  F   UNL A   1      38.410  34.432  39.889  1.00  0.00    -0.200 F 
ENDBRANCH  44  68
BRANCH  56  79
ATOM     79  C   UNL A   1      44.014  27.700  34.757  1.00  0.00     0.064 A 
ATOM     80  C   UNL A   1      43.773  26.494  35.430  1.00  0.00     0.173 A 
ATOM     81  C   UNL A   1      45.288  28.276  34.862  1.00  0.00     0.173 A 
ATOM     82  F   UNL A   1      42.562  25.919  35.372  1.00  0.00    -0.203 F 
ATOM     83  C   UNL A   1      44.768  25.896  36.197  1.00  0.00     0.198 A 
ATOM     84  C   UNL A   1      46.285  27.667  35.616  1.00  0.00     0.198 A 
ATOM     85  F   UNL A   1      45.561  29.431  34.235  1.00  0.00    -0.203 F 
ATOM     86  F   UNL A   1      44.508  24.764  36.864  1.00  0.00    -0.200 F 
ATOM     87  C   UNL A   1      46.023  26.481  36.287  1.00  0.00     0.200 A 
ATOM     88  F   UNL A   1      47.498  28.230  35.702  1.00  0.00    -0.200 F 
ATOM     89  F   UNL A   1      46.978  25.906  37.030  1.00  0.00    -0.200 F 
ENDBRANCH  56  79
ENDBRANCH  30  31
ENDBRANCH  23  25
ENDBRANCH  22  23
ENDBRANCH  21  22
ENDBRANCH  20  21
ENDBRANCH   1  20
TORSDOF 16
ENDMDL
