MODEL 1
REMARK VINA RESULT:     -12.2      0.000      0.000
REMARK SMILES CC[NH+]1CCN(c2ccc(NC(=O)C3CCCC3)c(C(=O)OCCOC(=O)c3ccc(-c4c5nc(c(-c6c(F)c(F)c(F)c(F)c6F)c6ccc([nH]6)c(-c6c(F)c(F)c(F)c(F)c6F)c6nc(c(-c7c(F)c(F)c(F)c(F)c7F)c7ccc4[nH]7)C=C6)C=C5)cc3)c2)CC1
REMARK SMILES IDX 23 1 22 2 20 3 21 4 19 5 7 6 8 7 91 8 9 9 10 10 6 11 3 12
REMARK SMILES IDX 4 13 93 14 5 16 92 17 2 18 1 19 11 20 12 21 13 23 14 24
REMARK SMILES IDX 15 25 18 26 16 27 17 28 24 29 25 30 26 31 27 32 28 33 29 34
REMARK SMILES IDX 90 35 30 36 89 37 31 38 32 39 33 40 83 41 34 42 88 43 82 44
REMARK SMILES IDX 84 45 35 46 87 47 81 48 80 49 36 51 68 52 48 53 67 54 49 55
REMARK SMILES IDX 52 56 66 57 85 58 50 59 51 60 65 62 86 63 53 64 37 65 38 66
REMARK SMILES IDX 46 67 39 68 40 69 44 70 47 71 41 72 42 73 45 74 43 75 69 76
REMARK SMILES IDX 70 77 78 78 71 79 72 80 76 81 79 82 73 83 74 84 77 85 75 86
REMARK SMILES IDX 54 87 55 88 63 89 56 90 57 91 61 92 64 93 58 94 59 95 62 96
REMARK SMILES IDX 60 97
REMARK H PARENT 3 15 11 22 84 50 52 61
REMARK Flexibility Score: inf
ROOT
ATOM      1  C   UNL A   1      31.786  28.643  26.768  1.00  0.00     0.275 C 
ENDROOT
BRANCH   1   2
ATOM      2  O   UNL A   1      32.096  27.401  26.103  1.00  0.00    -0.458 OA
BRANCH   2   3
ATOM      3  C   UNL A   1      31.252  26.349  26.287  1.00  0.00     0.340 C 
ATOM      4  O   UNL A   1      30.298  26.313  27.038  1.00  0.00    -0.246 OA
BRANCH   3   5
ATOM      5  C   UNL A   1      31.600  25.243  25.343  1.00  0.00     0.085 A 
ATOM      6  C   UNL A   1      33.293  23.652  24.562  1.00  0.00     0.038 A 
ATOM      7  C   UNL A   1      32.492  23.399  23.464  1.00  0.00     0.028 A 
ATOM      8  C   UNL A   1      32.831  24.573  25.505  1.00  0.00     0.043 A 
ATOM      9  C   UNL A   1      31.251  24.005  23.338  1.00  0.00     0.029 A 
ATOM     10  C   UNL A   1      30.755  24.909  24.260  1.00  0.00     0.055 A 
BRANCH   6  11
ATOM     11  N   UNL A   1      34.527  23.063  24.682  1.00  0.00    -0.360 N 
ATOM     12  N   UNL A   1      37.058  21.608  24.676  1.00  0.00    -0.332 N 
ATOM     13  C   UNL A   1      35.793  21.028  25.196  1.00  0.00     0.283 C 
ATOM     14  C   UNL A   1      36.724  22.653  23.675  1.00  0.00     0.283 C 
ATOM     15  H   UNL A   1      37.602  20.866  24.234  1.00  0.00     0.348 HD
ATOM     16  C   UNL A   1      34.767  22.057  25.720  1.00  0.00     0.178 C 
ATOM     17  C   UNL A   1      35.715  23.726  24.143  1.00  0.00     0.178 C 
BRANCH  12  18
ATOM     18  C   UNL A   1      37.909  22.145  25.746  1.00  0.00     0.258 C 
ATOM     19  C   UNL A   1      39.233  21.395  25.827  1.00  0.00     0.071 C 
ENDBRANCH  12  18
ENDBRANCH   6  11
BRANCH  10  20
ATOM     20  N   UNL A   1      29.456  25.448  24.140  1.00  0.00    -0.325 N 
ATOM     21  C   UNL A   1      28.909  26.646  23.788  1.00  0.00     0.227 C 
ATOM     22  H   UNL A   1      28.764  24.786  24.370  1.00  0.00     0.169 HD
ATOM     23  O   UNL A   1      27.677  26.636  23.640  1.00  0.00    -0.274 OA
BRANCH  21  24
ATOM     24  C   UNL A   1      29.632  27.990  23.574  1.00  0.00     0.079 C 
ATOM     25  C   UNL A   1      30.906  27.983  22.730  1.00  0.00     0.013 C 
ATOM     26  C   UNL A   1      28.754  29.137  23.083  1.00  0.00     0.013 C 
ATOM     27  C   UNL A   1      30.950  29.296  21.966  1.00  0.00     0.001 C 
ATOM     28  C   UNL A   1      29.575  29.942  22.075  1.00  0.00     0.001 C 
ENDBRANCH  21  24
ENDBRANCH  10  20
ENDBRANCH   3   5
ENDBRANCH   2   3
ENDBRANCH   1   2
BRANCH   1  29
ATOM     29  C   UNL A   1      31.986  29.842  25.835  1.00  0.00     0.275 C 
BRANCH  29  30
ATOM     30  O   UNL A   1      33.311  30.387  25.974  1.00  0.00    -0.458 OA
BRANCH  30  31
ATOM     31  C   UNL A   1      33.438  31.363  26.902  1.00  0.00     0.338 C 
ATOM     32  O   UNL A   1      32.612  32.211  27.199  1.00  0.00    -0.246 OA
BRANCH  31  33
ATOM     33  C   UNL A   1      34.669  31.141  27.681  1.00  0.00     0.060 A 
ATOM     34  C   UNL A   1      34.862  29.853  28.170  1.00  0.00     0.016 A 
ATOM     35  C   UNL A   1      35.612  32.140  27.950  1.00  0.00     0.016 A 
ATOM     36  C   UNL A   1      36.017  29.548  28.878  1.00  0.00     0.010 A 
ATOM     37  C   UNL A   1      36.761  31.832  28.701  1.00  0.00     0.010 A 
ATOM     38  C   UNL A   1      36.975  30.523  29.158  1.00  0.00    -0.014 A 
BRANCH  38  39
ATOM     39  C   UNL A   1      38.122  30.118  30.007  1.00  0.00     0.031 A 
ATOM     40  C   UNL A   1      39.199  29.251  29.424  1.00  0.00     0.074 A 
ATOM     41  C   UNL A   1      38.304  30.664  31.224  1.00  0.00     0.049 A 
ATOM     42  N   UNL A   1      40.292  28.794  29.980  1.00  0.00    -0.248 NA
ATOM     43  C   UNL A   1      39.035  28.877  28.012  1.00  0.00     0.031 C 
ATOM     44  C   UNL A   1      37.430  31.660  31.836  1.00  0.00     0.029 A 
ATOM     45  N   UNL A   1      39.305  30.481  32.147  1.00  0.00    -0.354 N 
ATOM     46  C   UNL A   1      40.940  28.066  28.993  1.00  0.00     0.074 A 
ATOM     47  C   UNL A   1      40.122  28.150  27.801  1.00  0.00     0.031 C 
ATOM     48  C   UNL A   1      37.930  32.001  33.035  1.00  0.00     0.029 A 
ATOM     49  C   UNL A   1      39.127  31.206  33.301  1.00  0.00     0.049 A 
ATOM     50  H   UNL A   1      40.077  29.888  31.997  1.00  0.00     0.167 HD
ATOM     51  C   UNL A   1      42.104  27.378  29.080  1.00  0.00     0.037 A 
ATOM     52  C   UNL A   1      39.828  31.201  34.452  1.00  0.00     0.037 A 
ATOM     53  C   UNL A   1      42.908  27.282  30.271  1.00  0.00     0.049 A 
ATOM     54  C   UNL A   1      41.040  30.312  34.572  1.00  0.00     0.074 A 
ATOM     55  C   UNL A   1      44.067  26.553  30.473  1.00  0.00     0.029 A 
ATOM     56  N   UNL A   1      42.630  27.928  31.467  1.00  0.00    -0.354 N 
ATOM     57  N   UNL A   1      41.614  29.561  33.663  1.00  0.00    -0.248 NA
ATOM     58  C   UNL A   1      41.698  30.258  35.888  1.00  0.00     0.031 C 
ATOM     59  C   UNL A   1      44.456  26.711  31.808  1.00  0.00     0.029 A 
ATOM     60  C   UNL A   1      43.579  27.591  32.420  1.00  0.00     0.049 A 
ATOM     61  H   UNL A   1      41.871  28.538  31.617  1.00  0.00     0.167 HD
ATOM     62  C   UNL A   1      42.703  28.966  34.285  1.00  0.00     0.074 A 
ATOM     63  C   UNL A   1      42.726  29.458  35.646  1.00  0.00     0.031 C 
ATOM     64  C   UNL A   1      43.600  28.086  33.773  1.00  0.00     0.037 A 
BRANCH  51  65
ATOM     65  C   UNL A   1      42.525  26.601  27.868  1.00  0.00     0.064 A 
ATOM     66  C   UNL A   1      43.417  27.122  26.920  1.00  0.00     0.173 A 
ATOM     67  C   UNL A   1      42.016  25.311  27.654  1.00  0.00     0.173 A 
ATOM     68  F   UNL A   1      43.916  28.359  27.068  1.00  0.00    -0.203 F 
ATOM     69  C   UNL A   1      43.757  26.391  25.783  1.00  0.00     0.198 A 
ATOM     70  C   UNL A   1      42.382  24.572  26.533  1.00  0.00     0.198 A 
ATOM     71  F   UNL A   1      41.161  24.767  28.533  1.00  0.00    -0.203 F 
ATOM     72  F   UNL A   1      44.564  26.930  24.858  1.00  0.00    -0.200 F 
ATOM     73  C   UNL A   1      43.243  25.116  25.593  1.00  0.00     0.200 A 
ATOM     74  F   UNL A   1      41.893  23.336  26.358  1.00  0.00    -0.200 F 
ATOM     75  F   UNL A   1      43.570  24.417  24.498  1.00  0.00    -0.200 F 
ENDBRANCH  51  65
BRANCH  52  76
ATOM     76  C   UNL A   1      39.361  32.004  35.615  1.00  0.00     0.064 A 
ATOM     77  C   UNL A   1      38.477  31.475  36.567  1.00  0.00     0.173 A 
ATOM     78  C   UNL A   1      39.750  33.344  35.766  1.00  0.00     0.173 A 
ATOM     79  F   UNL A   1      38.040  30.213  36.448  1.00  0.00    -0.203 F 
ATOM     80  C   UNL A   1      37.987  32.262  37.610  1.00  0.00     0.198 A 
ATOM     81  C   UNL A   1      39.288  34.119  36.827  1.00  0.00     0.198 A 
ATOM     82  F   UNL A   1      40.575  33.910  34.872  1.00  0.00    -0.203 F 
ATOM     83  F   UNL A   1      37.092  31.752  38.467  1.00  0.00    -0.200 F 
ATOM     84  C   UNL A   1      38.398  33.579  37.743  1.00  0.00     0.200 A 
ATOM     85  F   UNL A   1      39.690  35.390  36.952  1.00  0.00    -0.200 F 
ATOM     86  F   UNL A   1      37.920  34.336  38.741  1.00  0.00    -0.200 F 
ENDBRANCH  52  76
BRANCH  64  87
ATOM     87  C   UNL A   1      44.707  27.617  34.675  1.00  0.00     0.064 A 
ATOM     88  C   UNL A   1      45.911  28.326  34.800  1.00  0.00     0.173 A 
ATOM     89  C   UNL A   1      44.542  26.467  35.465  1.00  0.00     0.173 A 
ATOM     90  F   UNL A   1      46.129  29.423  34.059  1.00  0.00    -0.203 F 
ATOM     91  C   UNL A   1      46.915  27.890  35.661  1.00  0.00     0.198 A 
ATOM     92  C   UNL A   1      45.533  26.053  36.349  1.00  0.00     0.198 A 
ATOM     93  F   UNL A   1      43.408  25.754  35.392  1.00  0.00    -0.203 F 
ATOM     94  F   UNL A   1      48.075  28.558  35.729  1.00  0.00    -0.200 F 
ATOM     95  C   UNL A   1      46.722  26.760  36.441  1.00  0.00     0.200 A 
ATOM     96  F   UNL A   1      45.337  24.970  37.115  1.00  0.00    -0.200 F 
ATOM     97  F   UNL A   1      47.685  26.348  37.280  1.00  0.00    -0.200 F 
ENDBRANCH  64  87
ENDBRANCH  38  39
ENDBRANCH  31  33
ENDBRANCH  30  31
ENDBRANCH  29  30
ENDBRANCH   1  29
TORSDOF 15
ENDMDL
MODEL 2
REMARK VINA RESULT:     -12.0      2.928      7.689
REMARK SMILES CC[NH+]1CCN(c2ccc(NC(=O)C3CCCC3)c(C(=O)OCCOC(=O)c3ccc(-c4c5nc(c(-c6c(F)c(F)c(F)c(F)c6F)c6ccc([nH]6)c(-c6c(F)c(F)c(F)c(F)c6F)c6nc(c(-c7c(F)c(F)c(F)c(F)c7F)c7ccc4[nH]7)C=C6)C=C5)cc3)c2)CC1
REMARK SMILES IDX 23 1 22 2 20 3 21 4 19 5 7 6 8 7 91 8 9 9 10 10 6 11 3 12
REMARK SMILES IDX 4 13 93 14 5 16 92 17 2 18 1 19 11 20 12 21 13 23 14 24
REMARK SMILES IDX 15 25 18 26 16 27 17 28 24 29 25 30 26 31 27 32 28 33 29 34
REMARK SMILES IDX 90 35 30 36 89 37 31 38 32 39 33 40 83 41 34 42 88 43 82 44
REMARK SMILES IDX 84 45 35 46 87 47 81 48 80 49 36 51 68 52 48 53 67 54 49 55
REMARK SMILES IDX 52 56 66 57 85 58 50 59 51 60 65 62 86 63 53 64 37 65 38 66
REMARK SMILES IDX 46 67 39 68 40 69 44 70 47 71 41 72 42 73 45 74 43 75 69 76
REMARK SMILES IDX 70 77 78 78 71 79 72 80 76 81 79 82 73 83 74 84 77 85 75 86
REMARK SMILES IDX 54 87 55 88 63 89 56 90 57 91 61 92 64 93 58 94 59 95 62 96
REMARK SMILES IDX 60 97
REMARK H PARENT 3 15 11 22 84 50 52 61
REMARK Flexibility Score: inf
ROOT
ATOM      1  C   UNL A   1      31.909  29.446  26.024  1.00  0.00     0.275 C 
ENDROOT
BRANCH   1   2
ATOM      2  O   UNL A   1      31.395  28.201  25.509  1.00  0.00    -0.458 OA
BRANCH   2   3
ATOM      3  C   UNL A   1      31.463  27.102  26.310  1.00  0.00     0.340 C 
ATOM      4  O   UNL A   1      31.277  27.071  27.509  1.00  0.00    -0.246 OA
BRANCH   3   5
ATOM      5  C   UNL A   1      31.705  25.880  25.482  1.00  0.00     0.085 A 
ATOM      6  C   UNL A   1      33.329  24.252  24.631  1.00  0.00     0.038 A 
ATOM      7  C   UNL A   1      32.361  23.810  23.747  1.00  0.00     0.028 A 
ATOM      8  C   UNL A   1      32.985  25.286  25.505  1.00  0.00     0.043 A 
ATOM      9  C   UNL A   1      31.083  24.346  23.770  1.00  0.00     0.029 A 
ATOM     10  C   UNL A   1      30.704  25.359  24.632  1.00  0.00     0.055 A 
BRANCH   6  11
ATOM     11  N   UNL A   1      34.598  23.733  24.602  1.00  0.00    -0.360 N 
ATOM     12  N   UNL A   1      37.394  22.920  24.384  1.00  0.00    -0.332 N 
ATOM     13  C   UNL A   1      36.468  22.953  23.222  1.00  0.00     0.283 C 
ATOM     14  C   UNL A   1      36.910  23.887  25.403  1.00  0.00     0.283 C 
ATOM     15  H   UNL A   1      38.327  23.188  24.068  1.00  0.00     0.348 HD
ATOM     16  C   UNL A   1      34.976  22.764  23.569  1.00  0.00     0.178 C 
ATOM     17  C   UNL A   1      35.427  23.740  25.808  1.00  0.00     0.178 C 
BRANCH  12  18
ATOM     18  C   UNL A   1      37.535  21.572  24.950  1.00  0.00     0.258 C 
ATOM     19  C   UNL A   1      38.825  21.442  25.751  1.00  0.00     0.071 C 
ENDBRANCH  12  18
ENDBRANCH   6  11
BRANCH  10  20
ATOM     20  N   UNL A   1      29.373  25.827  24.680  1.00  0.00    -0.325 N 
ATOM     21  C   UNL A   1      28.605  26.703  23.973  1.00  0.00     0.227 C 
ATOM     22  H   UNL A   1      28.867  25.412  25.417  1.00  0.00     0.169 HD
ATOM     23  O   UNL A   1      27.396  26.683  24.253  1.00  0.00    -0.274 OA
BRANCH  21  24
ATOM     24  C   UNL A   1      29.062  27.710  22.900  1.00  0.00     0.079 C 
ATOM     25  C   UNL A   1      28.730  29.184  23.126  1.00  0.00     0.013 C 
ATOM     26  C   UNL A   1      30.531  27.620  22.498  1.00  0.00     0.013 C 
ATOM     27  C   UNL A   1      29.878  30.000  22.554  1.00  0.00     0.001 C 
ATOM     28  C   UNL A   1      31.037  29.047  22.293  1.00  0.00     0.001 C 
ENDBRANCH  21  24
ENDBRANCH  10  20
ENDBRANCH   3   5
ENDBRANCH   2   3
ENDBRANCH   1   2
BRANCH   1  29
ATOM     29  C   UNL A   1      33.425  29.551  25.825  1.00  0.00     0.275 C 
BRANCH  29  30
ATOM     30  O   UNL A   1      34.128  29.195  27.030  1.00  0.00    -0.458 OA
BRANCH  30  31
ATOM     31  C   UNL A   1      34.687  30.232  27.697  1.00  0.00     0.338 C 
ATOM     32  O   UNL A   1      34.145  31.273  28.031  1.00  0.00    -0.246 OA
BRANCH  31  33
ATOM     33  C   UNL A   1      36.030  29.846  28.165  1.00  0.00     0.060 A 
ATOM     34  C   UNL A   1      37.067  30.006  27.252  1.00  0.00     0.016 A 
ATOM     35  C   UNL A   1      36.294  29.332  29.439  1.00  0.00     0.016 A 
ATOM     36  C   UNL A   1      38.370  29.708  27.626  1.00  0.00     0.010 A 
ATOM     37  C   UNL A   1      37.613  28.996  29.798  1.00  0.00     0.010 A 
ATOM     38  C   UNL A   1      38.663  29.197  28.890  1.00  0.00    -0.014 A 
BRANCH  38  39
ATOM     39  C   UNL A   1      40.072  28.815  29.155  1.00  0.00     0.031 A 
ATOM     40  C   UNL A   1      40.918  29.689  30.033  1.00  0.00     0.074 A 
ATOM     41  C   UNL A   1      40.542  27.613  28.774  1.00  0.00     0.049 A 
ATOM     42  N   UNL A   1      42.164  29.537  30.406  1.00  0.00    -0.248 NA
ATOM     43  C   UNL A   1      40.259  30.878  30.592  1.00  0.00     0.031 C 
ATOM     44  C   UNL A   1      39.768  26.592  28.074  1.00  0.00     0.029 A 
ATOM     45  N   UNL A   1      41.776  27.036  28.955  1.00  0.00    -0.354 N 
ATOM     46  C   UNL A   1      42.443  30.617  31.231  1.00  0.00     0.074 A 
ATOM     47  C   UNL A   1      41.235  31.411  31.311  1.00  0.00     0.031 C 
ATOM     48  C   UNL A   1      40.544  25.512  27.882  1.00  0.00     0.029 A 
ATOM     49  C   UNL A   1      41.885  25.787  28.392  1.00  0.00     0.049 A 
ATOM     50  H   UNL A   1      42.511  27.473  29.442  1.00  0.00     0.167 HD
ATOM     51  C   UNL A   1      43.608  30.924  31.851  1.00  0.00     0.037 A 
ATOM     52  C   UNL A   1      42.954  24.974  28.271  1.00  0.00     0.037 A 
ATOM     53  C   UNL A   1      44.813  30.143  31.757  1.00  0.00     0.049 A 
ATOM     54  C   UNL A   1      44.279  25.408  28.846  1.00  0.00     0.074 A 
ATOM     55  C   UNL A   1      46.060  30.410  32.296  1.00  0.00     0.029 A 
ATOM     56  N   UNL A   1      44.926  28.942  31.070  1.00  0.00    -0.354 N 
ATOM     57  N   UNL A   1      44.565  26.468  29.563  1.00  0.00    -0.248 NA
ATOM     58  C   UNL A   1      45.435  24.537  28.584  1.00  0.00     0.031 C 
ATOM     59  C   UNL A   1      46.941  29.404  31.884  1.00  0.00     0.029 A 
ATOM     60  C   UNL A   1      46.228  28.473  31.146  1.00  0.00     0.049 A 
ATOM     61  H   UNL A   1      44.189  28.490  30.599  1.00  0.00     0.167 HD
ATOM     62  C   UNL A   1      45.921  26.382  29.852  1.00  0.00     0.074 A 
ATOM     63  C   UNL A   1      46.399  25.155  29.252  1.00  0.00     0.031 C 
ATOM     64  C   UNL A   1      46.699  27.248  30.549  1.00  0.00     0.037 A 
BRANCH  51  65
ATOM     65  C   UNL A   1      43.650  32.214  32.615  1.00  0.00     0.064 A 
ATOM     66  C   UNL A   1      43.966  33.435  32.002  1.00  0.00     0.173 A 
ATOM     67  C   UNL A   1      43.376  32.221  33.992  1.00  0.00     0.173 A 
ATOM     68  F   UNL A   1      44.257  33.480  30.693  1.00  0.00    -0.203 F 
ATOM     69  C   UNL A   1      44.039  34.610  32.748  1.00  0.00     0.198 A 
ATOM     70  C   UNL A   1      43.419  33.401  34.727  1.00  0.00     0.198 A 
ATOM     71  F   UNL A   1      43.067  31.079  34.624  1.00  0.00    -0.203 F 
ATOM     72  F   UNL A   1      44.401  35.757  32.155  1.00  0.00    -0.200 F 
ATOM     73  C   UNL A   1      43.761  34.593  34.107  1.00  0.00     0.200 A 
ATOM     74  F   UNL A   1      43.139  33.383  36.037  1.00  0.00    -0.200 F 
ATOM     75  F   UNL A   1      43.834  35.724  34.822  1.00  0.00    -0.200 F 
ENDBRANCH  51  65
BRANCH  52  76
ATOM     76  C   UNL A   1      42.842  23.701  27.508  1.00  0.00     0.064 A 
ATOM     77  C   UNL A   1      43.206  23.619  26.156  1.00  0.00     0.173 A 
ATOM     78  C   UNL A   1      42.312  22.547  28.108  1.00  0.00     0.173 A 
ATOM     79  F   UNL A   1      43.679  24.702  25.522  1.00  0.00    -0.203 F 
ATOM     80  C   UNL A   1      43.026  22.440  25.431  1.00  0.00     0.198 A 
ATOM     81  C   UNL A   1      42.165  21.361  27.393  1.00  0.00     0.198 A 
ATOM     82  F   UNL A   1      41.925  22.574  29.391  1.00  0.00    -0.203 F 
ATOM     83  F   UNL A   1      43.318  22.409  24.124  1.00  0.00    -0.200 F 
ATOM     84  C   UNL A   1      42.512  21.312  26.052  1.00  0.00     0.200 A 
ATOM     85  F   UNL A   1      41.670  20.273  27.998  1.00  0.00    -0.200 F 
ATOM     86  F   UNL A   1      42.331  20.182  25.352  1.00  0.00    -0.200 F 
ENDBRANCH  52  76
BRANCH  64  87
ATOM     87  C   UNL A   1      48.148  26.889  30.733  1.00  0.00     0.064 A 
ATOM     88  C   UNL A   1      48.573  26.027  31.755  1.00  0.00     0.173 A 
ATOM     89  C   UNL A   1      49.119  27.374  29.842  1.00  0.00     0.173 A 
ATOM     90  F   UNL A   1      47.690  25.545  32.643  1.00  0.00    -0.203 F 
ATOM     91  C   UNL A   1      49.916  25.685  31.893  1.00  0.00     0.198 A 
ATOM     92  C   UNL A   1      50.455  27.003  29.962  1.00  0.00     0.198 A 
ATOM     93  F   UNL A   1      48.768  28.196  28.842  1.00  0.00    -0.203 F 
ATOM     94  F   UNL A   1      50.304  24.897  32.906  1.00  0.00    -0.200 F 
ATOM     95  C   UNL A   1      50.854  26.165  30.992  1.00  0.00     0.200 A 
ATOM     96  F   UNL A   1      51.357  27.457  29.080  1.00  0.00    -0.200 F 
ATOM     97  F   UNL A   1      52.144  25.825  31.118  1.00  0.00    -0.200 F 
ENDBRANCH  64  87
ENDBRANCH  38  39
ENDBRANCH  31  33
ENDBRANCH  30  31
ENDBRANCH  29  30
ENDBRANCH   1  29
TORSDOF 15
ENDMDL
MODEL 3
REMARK VINA RESULT:     -11.9      1.292      7.421
REMARK SMILES CC[NH+]1CCN(c2ccc(NC(=O)C3CCCC3)c(C(=O)OCCOC(=O)c3ccc(-c4c5nc(c(-c6c(F)c(F)c(F)c(F)c6F)c6ccc([nH]6)c(-c6c(F)c(F)c(F)c(F)c6F)c6nc(c(-c7c(F)c(F)c(F)c(F)c7F)c7ccc4[nH]7)C=C6)C=C5)cc3)c2)CC1
REMARK SMILES IDX 23 1 22 2 20 3 21 4 19 5 7 6 8 7 91 8 9 9 10 10 6 11 3 12
REMARK SMILES IDX 4 13 93 14 5 16 92 17 2 18 1 19 11 20 12 21 13 23 14 24
REMARK SMILES IDX 15 25 18 26 16 27 17 28 24 29 25 30 26 31 27 32 28 33 29 34
REMARK SMILES IDX 90 35 30 36 89 37 31 38 32 39 33 40 83 41 34 42 88 43 82 44
REMARK SMILES IDX 84 45 35 46 87 47 81 48 80 49 36 51 68 52 48 53 67 54 49 55
REMARK SMILES IDX 52 56 66 57 85 58 50 59 51 60 65 62 86 63 53 64 37 65 38 66
REMARK SMILES IDX 46 67 39 68 40 69 44 70 47 71 41 72 42 73 45 74 43 75 69 76
REMARK SMILES IDX 70 77 78 78 71 79 72 80 76 81 79 82 73 83 74 84 77 85 75 86
REMARK SMILES IDX 54 87 55 88 63 89 56 90 57 91 61 92 64 93 58 94 59 95 62 96
REMARK SMILES IDX 60 97
REMARK H PARENT 3 15 11 22 84 50 52 61
REMARK Flexibility Score: inf
ROOT
ATOM      1  C   UNL A   1      31.889  28.493  27.596  1.00  0.00     0.275 C 
ENDROOT
BRANCH   1   2
ATOM      2  O   UNL A   1      32.467  27.492  26.733  1.00  0.00    -0.458 OA
BRANCH   2   3
ATOM      3  C   UNL A   1      31.697  26.424  26.389  1.00  0.00     0.340 C 
ATOM      4  O   UNL A   1      30.611  26.139  26.852  1.00  0.00    -0.246 OA
BRANCH   3   5
ATOM      5  C   UNL A   1      32.334  25.676  25.262  1.00  0.00     0.085 A 
ATOM      6  C   UNL A   1      33.280  23.561  24.461  1.00  0.00     0.038 A 
ATOM      7  C   UNL A   1      33.792  24.247  23.376  1.00  0.00     0.028 A 
ATOM      8  C   UNL A   1      32.541  24.286  25.398  1.00  0.00     0.043 A 
ATOM      9  C   UNL A   1      33.531  25.598  23.205  1.00  0.00     0.029 A 
ATOM     10  C   UNL A   1      32.790  26.344  24.103  1.00  0.00     0.055 A 
BRANCH   6  11
ATOM     11  N   UNL A   1      33.547  22.227  24.639  1.00  0.00    -0.360 N 
ATOM     12  N   UNL A   1      34.230  19.473  25.332  1.00  0.00    -0.332 N 
ATOM     13  C   UNL A   1      35.251  20.503  25.008  1.00  0.00     0.283 C 
ATOM     14  C   UNL A   1      33.012  20.158  25.840  1.00  0.00     0.283 C 
ATOM     15  H   UNL A   1      34.605  18.854  26.052  1.00  0.00     0.348 HD
ATOM     16  C   UNL A   1      34.766  21.637  24.079  1.00  0.00     0.178 C 
ATOM     17  C   UNL A   1      32.464  21.292  24.946  1.00  0.00     0.178 C 
BRANCH  12  18
ATOM     18  C   UNL A   1      33.920  18.612  24.184  1.00  0.00     0.258 C 
ATOM     19  C   UNL A   1      34.643  17.275  24.287  1.00  0.00     0.071 C 
ENDBRANCH  12  18
ENDBRANCH   6  11
BRANCH  10  20
ATOM     20  N   UNL A   1      32.480  27.699  23.858  1.00  0.00    -0.325 N 
ATOM     21  C   UNL A   1      31.380  28.411  23.486  1.00  0.00     0.227 C 
ATOM     22  H   UNL A   1      33.263  28.281  23.991  1.00  0.00     0.169 HD
ATOM     23  O   UNL A   1      31.504  29.644  23.561  1.00  0.00    -0.274 OA
BRANCH  21  24
ATOM     24  C   UNL A   1      30.031  27.871  22.973  1.00  0.00     0.079 C 
ATOM     25  C   UNL A   1      29.304  26.844  23.841  1.00  0.00     0.013 C 
ATOM     26  C   UNL A   1      29.014  28.930  22.556  1.00  0.00     0.013 C 
ATOM     27  C   UNL A   1      27.812  27.090  23.681  1.00  0.00     0.001 C 
ATOM     28  C   UNL A   1      27.637  28.444  23.007  1.00  0.00     0.001 C 
ENDBRANCH  21  24
ENDBRANCH  10  20
ENDBRANCH   3   5
ENDBRANCH   2   3
ENDBRANCH   1   2
BRANCH   1  29
ATOM     29  C   UNL A   1      31.900  29.875  26.934  1.00  0.00     0.275 C 
BRANCH  29  30
ATOM     30  O   UNL A   1      33.245  30.293  26.634  1.00  0.00    -0.458 OA
BRANCH  30  31
ATOM     31  C   UNL A   1      33.653  31.417  27.265  1.00  0.00     0.338 C 
ATOM     32  O   UNL A   1      33.003  32.432  27.460  1.00  0.00    -0.246 OA
BRANCH  31  33
ATOM     33  C   UNL A   1      34.967  31.180  27.889  1.00  0.00     0.060 A 
ATOM     34  C   UNL A   1      35.182  29.904  28.400  1.00  0.00     0.016 A 
ATOM     35  C   UNL A   1      35.966  32.153  27.997  1.00  0.00     0.016 A 
ATOM     36  C   UNL A   1      36.408  29.583  28.966  1.00  0.00     0.010 A 
ATOM     37  C   UNL A   1      37.193  31.831  28.606  1.00  0.00     0.010 A 
ATOM     38  C   UNL A   1      37.423  30.533  29.083  1.00  0.00    -0.014 A 
BRANCH  38  39
ATOM     39  C   UNL A   1      38.657  30.117  29.794  1.00  0.00     0.031 A 
ATOM     40  C   UNL A   1      38.894  30.592  31.197  1.00  0.00     0.074 A 
ATOM     41  C   UNL A   1      39.470  29.180  29.272  1.00  0.00     0.049 A 
ATOM     42  N   UNL A   1      39.892  30.340  32.005  1.00  0.00    -0.248 NA
ATOM     43  C   UNL A   1      37.844  31.441  31.779  1.00  0.00     0.031 C 
ATOM     44  C   UNL A   1      39.257  28.502  27.997  1.00  0.00     0.029 A 
ATOM     45  N   UNL A   1      40.619  28.614  29.768  1.00  0.00    -0.354 N 
ATOM     46  C   UNL A   1      39.601  31.009  33.184  1.00  0.00     0.074 A 
ATOM     47  C   UNL A   1      38.327  31.671  32.990  1.00  0.00     0.031 C 
ATOM     48  C   UNL A   1      40.244  27.610  27.807  1.00  0.00     0.029 A 
ATOM     49  C   UNL A   1      41.190  27.696  28.919  1.00  0.00     0.049 A 
ATOM     50  H   UNL A   1      40.998  28.842  30.647  1.00  0.00     0.167 HD
ATOM     51  C   UNL A   1      40.337  31.076  34.319  1.00  0.00     0.037 A 
ATOM     52  C   UNL A   1      42.358  27.030  29.010  1.00  0.00     0.037 A 
ATOM     53  C   UNL A   1      41.611  30.431  34.505  1.00  0.00     0.049 A 
ATOM     54  C   UNL A   1      43.230  27.236  30.223  1.00  0.00     0.074 A 
ATOM     55  C   UNL A   1      42.461  30.497  35.595  1.00  0.00     0.029 A 
ATOM     56  N   UNL A   1      42.224  29.608  33.572  1.00  0.00    -0.354 N 
ATOM     57  N   UNL A   1      42.992  27.930  31.309  1.00  0.00    -0.248 NA
ATOM     58  C   UNL A   1      44.545  26.575  30.216  1.00  0.00     0.031 C 
ATOM     59  C   UNL A   1      43.615  29.763  35.296  1.00  0.00     0.029 A 
ATOM     60  C   UNL A   1      43.455  29.184  34.048  1.00  0.00     0.049 A 
ATOM     61  H   UNL A   1      41.841  29.360  32.699  1.00  0.00     0.167 HD
ATOM     62  C   UNL A   1      44.109  27.774  32.119  1.00  0.00     0.074 A 
ATOM     63  C   UNL A   1      45.020  26.902  31.409  1.00  0.00     0.031 C 
ATOM     64  C   UNL A   1      44.358  28.312  33.339  1.00  0.00     0.037 A 
BRANCH  51  65
ATOM     65  C   UNL A   1      39.815  31.956  35.417  1.00  0.00     0.064 A 
ATOM     66  C   UNL A   1      38.877  31.501  36.356  1.00  0.00     0.173 A 
ATOM     67  C   UNL A   1      40.260  33.283  35.521  1.00  0.00     0.173 A 
ATOM     68  F   UNL A   1      38.404  30.247  36.287  1.00  0.00    -0.203 F 
ATOM     69  C   UNL A   1      38.380  32.355  37.338  1.00  0.00     0.198 A 
ATOM     70  C   UNL A   1      39.784  34.123  36.523  1.00  0.00     0.198 A 
ATOM     71  F   UNL A   1      41.157  33.764  34.648  1.00  0.00    -0.203 F 
ATOM     72  F   UNL A   1      37.440  31.919  38.189  1.00  0.00    -0.200 F 
ATOM     73  C   UNL A   1      38.837  33.662  37.423  1.00  0.00     0.200 A 
ATOM     74  F   UNL A   1      40.236  35.382  36.609  1.00  0.00    -0.200 F 
ATOM     75  F   UNL A   1      38.355  34.482  38.367  1.00  0.00    -0.200 F 
ENDBRANCH  51  65
BRANCH  52  76
ATOM     76  C   UNL A   1      42.814  26.163  27.888  1.00  0.00     0.064 A 
ATOM     77  C   UNL A   1      42.494  24.799  27.836  1.00  0.00     0.173 A 
ATOM     78  C   UNL A   1      43.632  26.677  26.869  1.00  0.00     0.173 A 
ATOM     79  F   UNL A   1      41.750  24.247  28.806  1.00  0.00    -0.203 F 
ATOM     80  C   UNL A   1      42.989  23.981  26.821  1.00  0.00     0.198 A 
ATOM     81  C   UNL A   1      44.098  25.867  25.837  1.00  0.00     0.198 A 
ATOM     82  F   UNL A   1      43.989  27.969  26.881  1.00  0.00    -0.203 F 
ATOM     83  F   UNL A   1      42.723  22.668  26.832  1.00  0.00    -0.200 F 
ATOM     84  C   UNL A   1      43.785  24.517  25.819  1.00  0.00     0.200 A 
ATOM     85  F   UNL A   1      44.864  26.390  24.871  1.00  0.00    -0.200 F 
ATOM     86  F   UNL A   1      44.267  23.728  24.849  1.00  0.00    -0.200 F 
ENDBRANCH  52  76
BRANCH  64  87
ATOM     87  C   UNL A   1      45.655  27.951  34.008  1.00  0.00     0.064 A 
ATOM     88  C   UNL A   1      45.775  26.817  34.826  1.00  0.00     0.173 A 
ATOM     89  C   UNL A   1      46.807  28.722  33.788  1.00  0.00     0.173 A 
ATOM     90  F   UNL A   1      44.703  26.052  35.082  1.00  0.00    -0.203 F 
ATOM     91  C   UNL A   1      46.992  26.483  35.416  1.00  0.00     0.198 A 
ATOM     92  C   UNL A   1      48.029  28.367  34.351  1.00  0.00     0.198 A 
ATOM     93  F   UNL A   1      46.752  29.813  33.009  1.00  0.00    -0.203 F 
ATOM     94  F   UNL A   1      47.072  25.421  36.230  1.00  0.00    -0.200 F 
ATOM     95  C   UNL A   1      48.119  27.253  35.171  1.00  0.00     0.200 A 
ATOM     96  F   UNL A   1      49.121  29.103  34.100  1.00  0.00    -0.200 F 
ATOM     97  F   UNL A   1      49.293  26.923  35.729  1.00  0.00    -0.200 F 
ENDBRANCH  64  87
ENDBRANCH  38  39
ENDBRANCH  31  33
ENDBRANCH  30  31
ENDBRANCH  29  30
ENDBRANCH   1  29
TORSDOF 15
ENDMDL
