MODEL 1
REMARK VINA RESULT:     -11.8      0.000      0.000
REMARK SMILES COc1cccc(NC(=O)c2nccnc2C(=O)OCCOC(=O)c2ccc(-c3c4nc(c(-c5c(F)c(F)c(F)c(F)c5F)c5ccc([nH]5)c(-c5c(F)c(F)c(F)c(F)c5F)c5nc(c(-c6c(F)c(F)c(F)c(F)c6F)c6ccc3[nH]6)C=C5)C=C4)cc2)c1
REMARK SMILES IDX 20 1 19 2 17 3 18 4 16 5 11 6 12 7 13 8 15 9 14 10 9 11 8 12
REMARK SMILES IDX 10 14 7 15 3 16 4 17 88 18 5 19 6 20 2 21 1 22 21 23 22 24
REMARK SMILES IDX 23 25 24 26 25 27 26 28 87 29 27 30 86 31 28 32 29 33 30 34
REMARK SMILES IDX 80 35 31 36 85 37 79 38 81 39 32 40 84 41 78 42 77 43 33 45
REMARK SMILES IDX 65 46 45 47 64 48 46 49 49 50 63 51 82 52 47 53 48 54 62 56
REMARK SMILES IDX 83 57 50 58 34 59 35 60 43 61 36 62 37 63 41 64 44 65 38 66
REMARK SMILES IDX 39 67 42 68 40 69 66 70 67 71 75 72 68 73 69 74 73 75 76 76
REMARK SMILES IDX 70 77 71 78 74 79 72 80 51 81 52 82 60 83 53 84 54 85 58 86
REMARK SMILES IDX 61 87 55 88 56 89 59 90 57 91
REMARK H PARENT 8 13 81 44 49 55
REMARK Flexibility Score: inf
ROOT
ATOM      1  C   UNL A   1      31.403  30.086  25.348  1.00  0.00     0.275 C 
ENDROOT
BRANCH   1   2
ATOM      2  O   UNL A   1      31.437  28.862  26.109  1.00  0.00    -0.457 OA
BRANCH   2   3
ATOM      3  C   UNL A   1      32.367  27.950  25.737  1.00  0.00     0.359 C 
ATOM      4  O   UNL A   1      33.579  28.109  25.803  1.00  0.00    -0.244 OA
BRANCH   3   5
ATOM      5  C   UNL A   1      31.757  26.648  25.348  1.00  0.00     0.179 A 
ATOM      6  C   UNL A   1      31.694  26.144  24.059  1.00  0.00     0.161 A 
ATOM      7  N   UNL A   1      31.165  24.904  23.793  1.00  0.00    -0.247 NA
ATOM      8  C   UNL A   1      30.653  24.228  24.843  1.00  0.00     0.132 A 
ATOM      9  N   UNL A   1      31.235  25.940  26.407  1.00  0.00    -0.245 NA
ATOM     10  C   UNL A   1      30.681  24.739  26.124  1.00  0.00     0.132 A 
BRANCH   6  11
ATOM     11  C   UNL A   1      32.259  26.847  22.887  1.00  0.00     0.276 C 
ATOM     12  N   UNL A   1      31.520  27.763  22.160  1.00  0.00    -0.320 N 
ATOM     13  H   UNL A   1      31.938  28.024  21.308  1.00  0.00     0.170 HD
ATOM     14  O   UNL A   1      33.380  26.523  22.487  1.00  0.00    -0.267 OA
BRANCH  12  15
ATOM     15  C   UNL A   1      30.281  28.396  22.404  1.00  0.00     0.045 A 
ATOM     16  C   UNL A   1      28.951  30.421  22.125  1.00  0.00     0.120 A 
ATOM     17  C   UNL A   1      27.856  29.774  22.697  1.00  0.00     0.046 A 
ATOM     18  C   UNL A   1      30.159  29.731  21.983  1.00  0.00     0.072 A 
ATOM     19  C   UNL A   1      27.979  28.469  23.165  1.00  0.00     0.006 A 
ATOM     20  C   UNL A   1      29.196  27.795  23.042  1.00  0.00     0.026 A 
BRANCH  16  21
ATOM     21  O   UNL A   1      28.708  31.712  21.743  1.00  0.00    -0.497 OA
ATOM     22  C   UNL A   1      28.778  32.710  22.751  1.00  0.00     0.278 C 
ENDBRANCH  16  21
ENDBRANCH  12  15
ENDBRANCH   6  11
ENDBRANCH   3   5
ENDBRANCH   2   3
ENDBRANCH   1   2
BRANCH   1  23
ATOM     23  C   UNL A   1      31.539  31.308  26.258  1.00  0.00     0.275 C 
BRANCH  23  24
ATOM     24  O   UNL A   1      32.570  31.123  27.247  1.00  0.00    -0.458 OA
BRANCH  24  25
ATOM     25  C   UNL A   1      33.386  32.190  27.417  1.00  0.00     0.338 C 
ATOM     26  O   UNL A   1      33.110  33.368  27.260  1.00  0.00    -0.246 OA
BRANCH  25  27
ATOM     27  C   UNL A   1      34.668  31.757  27.991  1.00  0.00     0.060 A 
ATOM     28  C   UNL A   1      34.756  30.428  28.408  1.00  0.00     0.016 A 
ATOM     29  C   UNL A   1      35.735  32.635  28.193  1.00  0.00     0.016 A 
ATOM     30  C   UNL A   1      35.904  29.969  29.041  1.00  0.00     0.010 A 
ATOM     31  C   UNL A   1      36.894  32.171  28.830  1.00  0.00     0.010 A 
ATOM     32  C   UNL A   1      36.980  30.837  29.267  1.00  0.00    -0.014 A 
BRANCH  32  33
ATOM     33  C   UNL A   1      38.166  30.330  29.999  1.00  0.00     0.031 A 
ATOM     34  C   UNL A   1      38.406  30.735  31.424  1.00  0.00     0.074 A 
ATOM     35  C   UNL A   1      38.986  29.445  29.402  1.00  0.00     0.049 A 
ATOM     36  N   UNL A   1      39.378  30.389  32.231  1.00  0.00    -0.248 NA
ATOM     37  C   UNL A   1      37.420  31.646  32.025  1.00  0.00     0.031 C 
ATOM     38  C   UNL A   1      38.831  28.945  28.037  1.00  0.00     0.029 A 
ATOM     39  N   UNL A   1      40.101  28.799  29.873  1.00  0.00    -0.354 N 
ATOM     40  C   UNL A   1      39.131  31.050  33.427  1.00  0.00     0.074 A 
ATOM     41  C   UNL A   1      37.927  31.832  33.236  1.00  0.00     0.031 C 
ATOM     42  C   UNL A   1      39.805  28.054  27.785  1.00  0.00     0.029 A 
ATOM     43  C   UNL A   1      40.674  27.953  28.956  1.00  0.00     0.049 A 
ATOM     44  H   UNL A   1      40.456  28.929  30.782  1.00  0.00     0.167 HD
ATOM     45  C   UNL A   1      39.843  31.005  34.579  1.00  0.00     0.037 A 
ATOM     46  C   UNL A   1      41.782  27.196  29.043  1.00  0.00     0.037 A 
ATOM     47  C   UNL A   1      41.031  30.215  34.772  1.00  0.00     0.049 A 
ATOM     48  C   UNL A   1      42.577  27.199  30.319  1.00  0.00     0.074 A 
ATOM     49  C   UNL A   1      41.812  30.093  35.909  1.00  0.00     0.029 A 
ATOM     50  N   UNL A   1      41.610  29.408  33.803  1.00  0.00    -0.354 N 
ATOM     51  N   UNL A   1      42.338  27.829  31.442  1.00  0.00    -0.248 NA
ATOM     52  C   UNL A   1      43.802  26.386  30.337  1.00  0.00     0.031 C 
ATOM     53  C   UNL A   1      42.885  29.243  35.615  1.00  0.00     0.029 A 
ATOM     54  C   UNL A   1      42.750  28.803  34.309  1.00  0.00     0.049 A 
ATOM     55  H   UNL A   1      41.263  29.285  32.890  1.00  0.00     0.167 HD
ATOM     56  C   UNL A   1      43.372  27.487  32.301  1.00  0.00     0.074 A 
ATOM     57  C   UNL A   1      44.229  26.570  31.578  1.00  0.00     0.031 C 
ATOM     58  C   UNL A   1      43.596  27.900  33.573  1.00  0.00     0.037 A 
BRANCH  45  59
ATOM     59  C   UNL A   1      39.369  31.859  35.718  1.00  0.00     0.064 A 
ATOM     60  C   UNL A   1      38.402  31.407  36.626  1.00  0.00     0.173 A 
ATOM     61  C   UNL A   1      39.919  33.133  35.922  1.00  0.00     0.173 A 
ATOM     62  F   UNL A   1      37.836  30.201  36.465  1.00  0.00    -0.203 F 
ATOM     63  C   UNL A   1      37.986  32.209  37.686  1.00  0.00     0.198 A 
ATOM     64  C   UNL A   1      39.519  33.922  36.997  1.00  0.00     0.198 A 
ATOM     65  F   UNL A   1      40.851  33.610  35.084  1.00  0.00    -0.203 F 
ATOM     66  F   UNL A   1      37.031  31.773  38.520  1.00  0.00    -0.200 F 
ATOM     67  C   UNL A   1      38.550  33.463  37.875  1.00  0.00     0.200 A 
ATOM     68  F   UNL A   1      40.071  35.130  37.182  1.00  0.00    -0.200 F 
ATOM     69  F   UNL A   1      38.152  34.231  38.898  1.00  0.00    -0.200 F 
ENDBRANCH  45  59
BRANCH  46  70
ATOM     70  C   UNL A   1      42.215  26.383  27.878  1.00  0.00     0.064 A 
ATOM     71  C   UNL A   1      43.171  26.865  26.974  1.00  0.00     0.173 A 
ATOM     72  C   UNL A   1      41.679  25.108  27.645  1.00  0.00     0.173 A 
ATOM     73  F   UNL A   1      43.691  28.090  27.141  1.00  0.00    -0.203 F 
ATOM     74  C   UNL A   1      43.565  26.107  25.874  1.00  0.00     0.198 A 
ATOM     75  C   UNL A   1      42.094  24.340  26.559  1.00  0.00     0.198 A 
ATOM     76  F   UNL A   1      40.758  24.604  28.480  1.00  0.00    -0.203 F 
ATOM     77  F   UNL A   1      44.450  26.608  25.001  1.00  0.00    -0.200 F 
ATOM     78  C   UNL A   1      43.032  24.843  25.671  1.00  0.00     0.200 A 
ATOM     79  F   UNL A   1      41.583  23.115  26.374  1.00  0.00    -0.200 F 
ATOM     80  F   UNL A   1      43.414  24.114  24.614  1.00  0.00    -0.200 F 
ENDBRANCH  46  70
BRANCH  58  81
ATOM     81  C   UNL A   1      44.812  27.354  34.262  1.00  0.00     0.064 A 
ATOM     82  C   UNL A   1      44.769  26.146  34.974  1.00  0.00     0.173 A 
ATOM     83  C   UNL A   1      46.036  28.036  34.196  1.00  0.00     0.173 A 
ATOM     84  F   UNL A   1      43.616  25.467  35.079  1.00  0.00    -0.203 F 
ATOM     85  C   UNL A   1      45.901  25.653  35.616  1.00  0.00     0.198 A 
ATOM     86  C   UNL A   1      47.173  27.527  34.818  1.00  0.00     0.198 A 
ATOM     87  F   UNL A   1      46.130  29.194  33.524  1.00  0.00    -0.203 F 
ATOM     88  F   UNL A   1      45.825  24.522  36.331  1.00  0.00    -0.200 F 
ATOM     89  C   UNL A   1      47.103  26.341  35.535  1.00  0.00     0.200 A 
ATOM     90  F   UNL A   1      48.335  28.188  34.731  1.00  0.00    -0.200 F 
ATOM     91  F   UNL A   1      48.192  25.866  36.154  1.00  0.00    -0.200 F 
ENDBRANCH  58  81
ENDBRANCH  32  33
ENDBRANCH  25  27
ENDBRANCH  24  25
ENDBRANCH  23  24
ENDBRANCH   1  23
TORSDOF 14
ENDMDL
MODEL 2
REMARK VINA RESULT:     -11.8      5.250     10.540
REMARK SMILES COc1cccc(NC(=O)c2nccnc2C(=O)OCCOC(=O)c2ccc(-c3c4nc(c(-c5c(F)c(F)c(F)c(F)c5F)c5ccc([nH]5)c(-c5c(F)c(F)c(F)c(F)c5F)c5nc(c(-c6c(F)c(F)c(F)c(F)c6F)c6ccc3[nH]6)C=C5)C=C4)cc2)c1
REMARK SMILES IDX 20 1 19 2 17 3 18 4 16 5 11 6 12 7 13 8 15 9 14 10 9 11 8 12
REMARK SMILES IDX 10 14 7 15 3 16 4 17 88 18 5 19 6 20 2 21 1 22 21 23 22 24
REMARK SMILES IDX 23 25 24 26 25 27 26 28 87 29 27 30 86 31 28 32 29 33 30 34
REMARK SMILES IDX 80 35 31 36 85 37 79 38 81 39 32 40 84 41 78 42 77 43 33 45
REMARK SMILES IDX 65 46 45 47 64 48 46 49 49 50 63 51 82 52 47 53 48 54 62 56
REMARK SMILES IDX 83 57 50 58 34 59 35 60 43 61 36 62 37 63 41 64 44 65 38 66
REMARK SMILES IDX 39 67 42 68 40 69 66 70 67 71 75 72 68 73 69 74 73 75 76 76
REMARK SMILES IDX 70 77 71 78 74 79 72 80 51 81 52 82 60 83 53 84 54 85 58 86
REMARK SMILES IDX 61 87 55 88 56 89 59 90 57 91
REMARK H PARENT 8 13 81 44 49 55
REMARK Flexibility Score: inf
ROOT
ATOM      1  C   UNL A   1      36.623  20.244  24.984  1.00  0.00     0.275 C 
ENDROOT
BRANCH   1   2
ATOM      2  O   UNL A   1      36.367  21.461  24.255  1.00  0.00    -0.457 OA
BRANCH   2   3
ATOM      3  C   UNL A   1      35.692  22.429  24.921  1.00  0.00     0.359 C 
ATOM      4  O   UNL A   1      36.103  23.026  25.907  1.00  0.00    -0.244 OA
BRANCH   3   5
ATOM      5  C   UNL A   1      34.418  22.798  24.243  1.00  0.00     0.179 A 
ATOM      6  C   UNL A   1      33.151  22.414  24.651  1.00  0.00     0.161 A 
ATOM      7  N   UNL A   1      32.020  22.847  24.002  1.00  0.00    -0.247 NA
ATOM      8  C   UNL A   1      32.209  23.615  22.908  1.00  0.00     0.132 A 
ATOM      9  N   UNL A   1      34.589  23.587  23.128  1.00  0.00    -0.245 NA
ATOM     10  C   UNL A   1      33.470  23.972  22.475  1.00  0.00     0.132 A 
BRANCH   6  11
ATOM     11  C   UNL A   1      32.904  21.589  25.854  1.00  0.00     0.276 C 
ATOM     12  N   UNL A   1      32.677  20.227  25.768  1.00  0.00    -0.320 N 
ATOM     13  H   UNL A   1      32.350  19.826  26.605  1.00  0.00     0.170 HD
ATOM     14  O   UNL A   1      32.788  22.152  26.944  1.00  0.00    -0.267 OA
BRANCH  12  15
ATOM     15  C   UNL A   1      32.824  19.299  24.713  1.00  0.00     0.045 A 
ATOM     16  C   UNL A   1      33.750  17.155  24.014  1.00  0.00     0.120 A 
ATOM     17  C   UNL A   1      33.125  17.295  22.775  1.00  0.00     0.046 A 
ATOM     18  C   UNL A   1      33.599  18.157  24.977  1.00  0.00     0.072 A 
ATOM     19  C   UNL A   1      32.398  18.445  22.482  1.00  0.00     0.006 A 
ATOM     20  C   UNL A   1      32.271  19.454  23.441  1.00  0.00     0.026 A 
BRANCH  16  21
ATOM     21  O   UNL A   1      34.464  15.997  24.158  1.00  0.00    -0.497 OA
ATOM     22  C   UNL A   1      35.275  15.878  25.319  1.00  0.00     0.278 C 
ENDBRANCH  16  21
ENDBRANCH  12  15
ENDBRANCH   6  11
ENDBRANCH   3   5
ENDBRANCH   2   3
ENDBRANCH   1   2
BRANCH   1  23
ATOM     23  C   UNL A   1      38.125  20.004  25.147  1.00  0.00     0.275 C 
BRANCH  23  24
ATOM     24  O   UNL A   1      38.813  21.197  25.569  1.00  0.00    -0.458 OA
BRANCH  24  25
ATOM     25  C   UNL A   1      39.748  20.999  26.528  1.00  0.00     0.338 C 
ATOM     26  O   UNL A   1      40.217  19.936  26.901  1.00  0.00    -0.246 OA
BRANCH  25  27
ATOM     27  C   UNL A   1      40.275  22.291  26.991  1.00  0.00     0.060 A 
ATOM     28  C   UNL A   1      39.810  23.433  26.337  1.00  0.00     0.016 A 
ATOM     29  C   UNL A   1      41.255  22.391  27.981  1.00  0.00     0.016 A 
ATOM     30  C   UNL A   1      40.329  24.681  26.657  1.00  0.00     0.010 A 
ATOM     31  C   UNL A   1      41.776  23.651  28.306  1.00  0.00     0.010 A 
ATOM     32  C   UNL A   1      41.323  24.802  27.637  1.00  0.00    -0.014 A 
BRANCH  32  33
ATOM     33  C   UNL A   1      41.898  26.142  27.912  1.00  0.00     0.031 A 
ATOM     34  C   UNL A   1      43.245  26.514  27.367  1.00  0.00     0.074 A 
ATOM     35  C   UNL A   1      41.169  27.049  28.589  1.00  0.00     0.049 A 
ATOM     36  N   UNL A   1      43.908  27.637  27.491  1.00  0.00    -0.248 NA
ATOM     37  C   UNL A   1      43.941  25.489  26.574  1.00  0.00     0.031 C 
ATOM     38  C   UNL A   1      39.830  26.819  29.129  1.00  0.00     0.029 A 
ATOM     39  N   UNL A   1      41.447  28.351  28.922  1.00  0.00    -0.354 N 
ATOM     40  C   UNL A   1      45.101  27.450  26.807  1.00  0.00     0.074 A 
ATOM     41  C   UNL A   1      45.082  26.099  26.284  1.00  0.00     0.031 C 
ATOM     42  C   UNL A   1      39.394  27.948  29.712  1.00  0.00     0.029 A 
ATOM     43  C   UNL A   1      40.438  28.965  29.621  1.00  0.00     0.049 A 
ATOM     44  H   UNL A   1      42.289  28.801  28.683  1.00  0.00     0.167 HD
ATOM     45  C   UNL A   1      46.118  28.327  26.630  1.00  0.00     0.037 A 
ATOM     46  C   UNL A   1      40.369  30.204  30.143  1.00  0.00     0.037 A 
ATOM     47  C   UNL A   1      46.130  29.675  27.137  1.00  0.00     0.049 A 
ATOM     48  C   UNL A   1      41.531  31.142  29.968  1.00  0.00     0.074 A 
ATOM     49  C   UNL A   1      47.110  30.643  26.995  1.00  0.00     0.029 A 
ATOM     50  N   UNL A   1      45.110  30.247  27.884  1.00  0.00    -0.354 N 
ATOM     51  N   UNL A   1      42.656  30.955  29.323  1.00  0.00    -0.248 NA
ATOM     52  C   UNL A   1      41.414  32.465  30.600  1.00  0.00     0.031 C 
ATOM     53  C   UNL A   1      46.700  31.788  27.689  1.00  0.00     0.029 A 
ATOM     54  C   UNL A   1      45.447  31.547  28.227  1.00  0.00     0.049 A 
ATOM     55  H   UNL A   1      44.272  29.796  28.133  1.00  0.00     0.167 HD
ATOM     56  C   UNL A   1      43.377  32.132  29.463  1.00  0.00     0.074 A 
ATOM     57  C   UNL A   1      42.551  33.039  30.233  1.00  0.00     0.031 C 
ATOM     58  C   UNL A   1      44.616  32.433  29.002  1.00  0.00     0.037 A 
BRANCH  45  59
ATOM     59  C   UNL A   1      47.322  27.846  25.874  1.00  0.00     0.064 A 
ATOM     60  C   UNL A   1      47.345  27.802  24.474  1.00  0.00     0.173 A 
ATOM     61  C   UNL A   1      48.481  27.458  26.564  1.00  0.00     0.173 A 
ATOM     62  F   UNL A   1      46.257  28.151  23.769  1.00  0.00    -0.203 F 
ATOM     63  C   UNL A   1      48.477  27.367  23.790  1.00  0.00     0.198 A 
ATOM     64  C   UNL A   1      49.619  27.047  25.877  1.00  0.00     0.198 A 
ATOM     65  F   UNL A   1      48.511  27.486  27.905  1.00  0.00    -0.203 F 
ATOM     66  F   UNL A   1      48.465  27.296  22.452  1.00  0.00    -0.200 F 
ATOM     67  C   UNL A   1      49.616  26.997  24.492  1.00  0.00     0.200 A 
ATOM     68  F   UNL A   1      50.721  26.697  26.557  1.00  0.00    -0.200 F 
ATOM     69  F   UNL A   1      50.707  26.583  23.832  1.00  0.00    -0.200 F 
ENDBRANCH  45  59
BRANCH  46  70
ATOM     70  C   UNL A   1      39.160  30.622  30.897  1.00  0.00     0.064 A 
ATOM     71  C   UNL A   1      38.095  31.269  30.257  1.00  0.00     0.173 A 
ATOM     72  C   UNL A   1      39.048  30.384  32.275  1.00  0.00     0.173 A 
ATOM     73  F   UNL A   1      38.169  31.542  28.945  1.00  0.00    -0.203 F 
ATOM     74  C   UNL A   1      36.968  31.674  30.969  1.00  0.00     0.198 A 
ATOM     75  C   UNL A   1      37.910  30.766  32.980  1.00  0.00     0.198 A 
ATOM     76  F   UNL A   1      40.043  29.772  32.933  1.00  0.00    -0.203 F 
ATOM     77  F   UNL A   1      35.982  32.328  30.341  1.00  0.00    -0.200 F 
ATOM     78  C   UNL A   1      36.873  31.416  32.329  1.00  0.00     0.200 A 
ATOM     79  F   UNL A   1      37.819  30.505  34.292  1.00  0.00    -0.200 F 
ATOM     80  F   UNL A   1      35.788  31.802  33.012  1.00  0.00    -0.200 F 
ENDBRANCH  46  70
BRANCH  58  81
ATOM     81  C   UNL A   1      45.144  33.803  29.312  1.00  0.00     0.064 A 
ATOM     82  C   UNL A   1      44.896  34.892  28.462  1.00  0.00     0.173 A 
ATOM     83  C   UNL A   1      45.891  34.033  30.476  1.00  0.00     0.173 A 
ATOM     84  F   UNL A   1      44.202  34.717  27.327  1.00  0.00    -0.203 F 
ATOM     85  C   UNL A   1      45.398  36.156  28.755  1.00  0.00     0.198 A 
ATOM     86  C   UNL A   1      46.369  35.304  30.780  1.00  0.00     0.198 A 
ATOM     87  F   UNL A   1      46.152  33.026  31.323  1.00  0.00    -0.203 F 
ATOM     88  F   UNL A   1      45.190  37.172  27.905  1.00  0.00    -0.200 F 
ATOM     89  C   UNL A   1      46.130  36.363  29.915  1.00  0.00     0.200 A 
ATOM     90  F   UNL A   1      47.068  35.505  31.905  1.00  0.00    -0.200 F 
ATOM     91  F   UNL A   1      46.614  37.582  30.196  1.00  0.00    -0.200 F 
ENDBRANCH  58  81
ENDBRANCH  32  33
ENDBRANCH  25  27
ENDBRANCH  24  25
ENDBRANCH  23  24
ENDBRANCH   1  23
TORSDOF 14
ENDMDL
MODEL 3
REMARK VINA RESULT:     -11.7      0.487      2.024
REMARK SMILES COc1cccc(NC(=O)c2nccnc2C(=O)OCCOC(=O)c2ccc(-c3c4nc(c(-c5c(F)c(F)c(F)c(F)c5F)c5ccc([nH]5)c(-c5c(F)c(F)c(F)c(F)c5F)c5nc(c(-c6c(F)c(F)c(F)c(F)c6F)c6ccc3[nH]6)C=C5)C=C4)cc2)c1
REMARK SMILES IDX 20 1 19 2 17 3 18 4 16 5 11 6 12 7 13 8 15 9 14 10 9 11 8 12
REMARK SMILES IDX 10 14 7 15 3 16 4 17 88 18 5 19 6 20 2 21 1 22 21 23 22 24
REMARK SMILES IDX 23 25 24 26 25 27 26 28 87 29 27 30 86 31 28 32 29 33 30 34
REMARK SMILES IDX 80 35 31 36 85 37 79 38 81 39 32 40 84 41 78 42 77 43 33 45
REMARK SMILES IDX 65 46 45 47 64 48 46 49 49 50 63 51 82 52 47 53 48 54 62 56
REMARK SMILES IDX 83 57 50 58 34 59 35 60 43 61 36 62 37 63 41 64 44 65 38 66
REMARK SMILES IDX 39 67 42 68 40 69 66 70 67 71 75 72 68 73 69 74 73 75 76 76
REMARK SMILES IDX 70 77 71 78 74 79 72 80 51 81 52 82 60 83 53 84 54 85 58 86
REMARK SMILES IDX 61 87 55 88 56 89 59 90 57 91
REMARK H PARENT 8 13 81 44 49 55
REMARK Flexibility Score: inf
ROOT
ATOM      1  C   UNL A   1      31.413  29.567  25.443  1.00  0.00     0.275 C 
ENDROOT
BRANCH   1   2
ATOM      2  O   UNL A   1      31.413  28.231  25.984  1.00  0.00    -0.457 OA
BRANCH   2   3
ATOM      3  C   UNL A   1      32.373  27.395  25.516  1.00  0.00     0.359 C 
ATOM      4  O   UNL A   1      33.570  27.492  25.751  1.00  0.00    -0.244 OA
BRANCH   3   5
ATOM      5  C   UNL A   1      31.800  26.240  24.772  1.00  0.00     0.179 A 
ATOM      6  C   UNL A   1      31.718  26.134  23.392  1.00  0.00     0.161 A 
ATOM      7  N   UNL A   1      31.228  25.005  22.781  1.00  0.00    -0.247 NA
ATOM      8  C   UNL A   1      30.772  24.029  23.594  1.00  0.00     0.132 A 
ATOM      9  N   UNL A   1      31.335  25.229  25.583  1.00  0.00    -0.245 NA
ATOM     10  C   UNL A   1      30.818  24.142  24.968  1.00  0.00     0.132 A 
BRANCH   6  11
ATOM     11  C   UNL A   1      32.223  27.175  22.470  1.00  0.00     0.276 C 
ATOM     12  N   UNL A   1      31.404  28.180  21.988  1.00  0.00    -0.320 N 
ATOM     13  H   UNL A   1      31.802  28.697  21.251  1.00  0.00     0.170 HD
ATOM     14  O   UNL A   1      33.373  27.074  22.037  1.00  0.00    -0.267 OA
BRANCH  12  15
ATOM     15  C   UNL A   1      30.107  28.609  22.347  1.00  0.00     0.045 A 
ATOM     16  C   UNL A   1      28.473  30.417  22.260  1.00  0.00     0.120 A 
ATOM     17  C   UNL A   1      27.533  29.590  22.874  1.00  0.00     0.046 A 
ATOM     18  C   UNL A   1      29.756  29.924  22.000  1.00  0.00     0.072 A 
ATOM     19  C   UNL A   1      27.884  28.303  23.270  1.00  0.00     0.006 A 
ATOM     20  C   UNL A   1      29.175  27.826  23.030  1.00  0.00     0.026 A 
BRANCH  16  21
ATOM     21  O   UNL A   1      28.012  31.668  21.957  1.00  0.00    -0.497 OA
ATOM     22  C   UNL A   1      28.692  32.768  22.545  1.00  0.00     0.278 C 
ENDBRANCH  16  21
ENDBRANCH  12  15
ENDBRANCH   6  11
ENDBRANCH   3   5
ENDBRANCH   2   3
ENDBRANCH   1   2
BRANCH   1  23
ATOM     23  C   UNL A   1      31.820  30.593  26.503  1.00  0.00     0.275 C 
BRANCH  23  24
ATOM     24  O   UNL A   1      33.219  30.924  26.414  1.00  0.00    -0.458 OA
BRANCH  24  25
ATOM     25  C   UNL A   1      33.632  31.866  27.294  1.00  0.00     0.338 C 
ATOM     26  O   UNL A   1      33.010  32.840  27.686  1.00  0.00    -0.246 OA
BRANCH  25  27
ATOM     27  C   UNL A   1      34.928  31.481  27.872  1.00  0.00     0.060 A 
ATOM     28  C   UNL A   1      35.054  30.164  28.317  1.00  0.00     0.016 A 
ATOM     29  C   UNL A   1      35.970  32.392  28.051  1.00  0.00     0.016 A 
ATOM     30  C   UNL A   1      36.216  29.751  28.956  1.00  0.00     0.010 A 
ATOM     31  C   UNL A   1      37.144  31.975  28.693  1.00  0.00     0.010 A 
ATOM     32  C   UNL A   1      37.268  30.653  29.159  1.00  0.00    -0.014 A 
BRANCH  32  33
ATOM     33  C   UNL A   1      38.471  30.196  29.897  1.00  0.00     0.031 A 
ATOM     34  C   UNL A   1      38.710  30.646  31.308  1.00  0.00     0.074 A 
ATOM     35  C   UNL A   1      39.307  29.312  29.320  1.00  0.00     0.049 A 
ATOM     36  N   UNL A   1      39.695  30.347  32.118  1.00  0.00    -0.248 NA
ATOM     37  C   UNL A   1      37.707  31.552  31.889  1.00  0.00     0.031 C 
ATOM     38  C   UNL A   1      39.156  28.770  27.971  1.00  0.00     0.029 A 
ATOM     39  N   UNL A   1      40.440  28.706  29.802  1.00  0.00    -0.354 N 
ATOM     40  C   UNL A   1      39.439  31.036  33.296  1.00  0.00     0.074 A 
ATOM     41  C   UNL A   1      38.216  31.785  33.091  1.00  0.00     0.031 C 
ATOM     42  C   UNL A   1      40.148  27.895  27.738  1.00  0.00     0.029 A 
ATOM     43  C   UNL A   1      41.026  27.848  28.905  1.00  0.00     0.049 A 
ATOM     44  H   UNL A   1      40.797  28.871  30.704  1.00  0.00     0.167 HD
ATOM     45  C   UNL A   1      40.159  31.041  34.443  1.00  0.00     0.037 A 
ATOM     46  C   UNL A   1      42.152  27.119  29.007  1.00  0.00     0.037 A 
ATOM     47  C   UNL A   1      41.366  30.284  34.652  1.00  0.00     0.049 A 
ATOM     48  C   UNL A   1      42.955  27.177  30.277  1.00  0.00     0.074 A 
ATOM     49  C   UNL A   1      42.157  30.213  35.786  1.00  0.00     0.029 A 
ATOM     50  N   UNL A   1      41.959  29.464  33.702  1.00  0.00    -0.354 N 
ATOM     51  N   UNL A   1      42.708  27.835  31.383  1.00  0.00    -0.248 NA
ATOM     52  C   UNL A   1      44.199  26.394  30.309  1.00  0.00     0.031 C 
ATOM     53  C   UNL A   1      43.248  29.381  35.509  1.00  0.00     0.029 A 
ATOM     54  C   UNL A   1      43.115  28.900  34.218  1.00  0.00     0.049 A 
ATOM     55  H   UNL A   1      41.608  29.306  32.796  1.00  0.00     0.167 HD
ATOM     56  C   UNL A   1      43.755  27.541  32.244  1.00  0.00     0.074 A 
ATOM     57  C   UNL A   1      44.629  26.624  31.542  1.00  0.00     0.031 C 
ATOM     58  C   UNL A   1      43.978  27.996  33.502  1.00  0.00     0.037 A 
BRANCH  45  59
ATOM     59  C   UNL A   1      39.673  31.916  35.561  1.00  0.00     0.064 A 
ATOM     60  C   UNL A   1      40.135  33.228  35.726  1.00  0.00     0.173 A 
ATOM     61  C   UNL A   1      38.702  31.443  36.457  1.00  0.00     0.173 A 
ATOM     62  F   UNL A   1      41.073  33.722  34.902  1.00  0.00    -0.203 F 
ATOM     63  C   UNL A   1      39.661  34.030  36.761  1.00  0.00     0.198 A 
ATOM     64  C   UNL A   1      38.211  32.255  37.476  1.00  0.00     0.198 A 
ATOM     65  F   UNL A   1      38.224  30.195  36.340  1.00  0.00    -0.203 F 
ATOM     66  F   UNL A   1      40.145  35.269  36.924  1.00  0.00    -0.200 F 
ATOM     67  C   UNL A   1      38.694  33.545  37.630  1.00  0.00     0.200 A 
ATOM     68  F   UNL A   1      37.271  31.787  38.310  1.00  0.00    -0.200 F 
ATOM     69  F   UNL A   1      38.234  34.320  38.623  1.00  0.00    -0.200 F 
ENDBRANCH  45  59
BRANCH  46  70
ATOM     70  C   UNL A   1      42.598  26.283  27.862  1.00  0.00     0.064 A 
ATOM     71  C   UNL A   1      42.134  24.971  27.701  1.00  0.00     0.173 A 
ATOM     72  C   UNL A   1      43.498  26.781  26.909  1.00  0.00     0.173 A 
ATOM     73  F   UNL A   1      41.293  24.443  28.603  1.00  0.00    -0.203 F 
ATOM     74  C   UNL A   1      42.564  24.183  26.635  1.00  0.00     0.198 A 
ATOM     75  C   UNL A   1      43.907  26.002  25.830  1.00  0.00     0.198 A 
ATOM     76  F   UNL A   1      43.973  28.030  27.023  1.00  0.00    -0.203 F 
ATOM     77  F   UNL A   1      42.139  22.917  26.527  1.00  0.00    -0.200 F 
ATOM     78  C   UNL A   1      43.445  24.701  25.697  1.00  0.00     0.200 A 
ATOM     79  F   UNL A   1      44.749  26.510  24.920  1.00  0.00    -0.200 F 
ATOM     80  F   UNL A   1      43.855  23.944  24.671  1.00  0.00    -0.200 F 
ENDBRANCH  46  70
BRANCH  58  81
ATOM     81  C   UNL A   1      45.211  27.499  34.198  1.00  0.00     0.064 A 
ATOM     82  C   UNL A   1      46.423  28.203  34.129  1.00  0.00     0.173 A 
ATOM     83  C   UNL A   1      45.177  26.318  34.953  1.00  0.00     0.173 A 
ATOM     84  F   UNL A   1      46.509  29.328  33.405  1.00  0.00    -0.203 F 
ATOM     85  C   UNL A   1      47.562  27.728  34.772  1.00  0.00     0.198 A 
ATOM     86  C   UNL A   1      46.312  25.860  35.616  1.00  0.00     0.198 A 
ATOM     87  F   UNL A   1      44.041  25.611  35.052  1.00  0.00    -0.203 F 
ATOM     88  F   UNL A   1      48.721  28.391  34.654  1.00  0.00    -0.200 F 
ATOM     89  C   UNL A   1      47.506  26.560  35.518  1.00  0.00     0.200 A 
ATOM     90  F   UNL A   1      46.254  24.736  36.344  1.00  0.00    -0.200 F 
ATOM     91  F   UNL A   1      48.604  26.104  36.136  1.00  0.00    -0.200 F 
ENDBRANCH  58  81
ENDBRANCH  32  33
ENDBRANCH  25  27
ENDBRANCH  24  25
ENDBRANCH  23  24
ENDBRANCH   1  23
TORSDOF 14
ENDMDL
