MODEL 1
REMARK VINA RESULT:     -11.9      0.000      0.000
REMARK SMILES Cc1cnc(NC(=O)NC[C@H]2CC[C@H](C(=O)OCCOC(=O)c3ccc(-c4c5nc(c(-c6c(F)c(F)c(F)c(F)c6F)c6ccc([nH]6)c(-c6c(F)c(F)c(F)c(F)c6F)c6nc(c(-c7c(F)c(F)c(F)c(F)c7F)c7ccc4[nH]7)C=C6)C=C5)cc3)O2)s1
REMARK SMILES IDX 18 1 17 2 15 3 16 4 14 5 11 6 12 7 86 8 13 9 10 10 9 11 6 12
REMARK SMILES IDX 7 13 8 15 5 17 1 18 2 19 3 20 87 21 4 22 19 23 20 24 21 25
REMARK SMILES IDX 22 26 23 27 24 28 85 29 25 30 84 31 26 32 27 33 28 34 78 35
REMARK SMILES IDX 29 36 83 37 77 38 79 39 30 40 82 41 76 42 75 43 31 45 63 46
REMARK SMILES IDX 43 47 62 48 44 49 47 50 61 51 80 52 45 53 46 54 60 56 81 57
REMARK SMILES IDX 48 58 32 59 33 60 41 61 34 62 35 63 39 64 42 65 36 66 37 67
REMARK SMILES IDX 40 68 38 69 64 70 65 71 73 72 66 73 67 74 71 75 74 76 68 77
REMARK SMILES IDX 69 78 72 79 70 80 49 81 50 82 58 83 51 84 52 85 56 86 59 87
REMARK SMILES IDX 53 88 54 89 57 90 55 91
REMARK H PARENT 6 14 9 16 79 44 47 55
REMARK Flexibility Score: inf
ROOT
ATOM      1  C   UNL A   1      31.732  29.547  24.370  1.00  0.00     0.274 C 
ENDROOT
BRANCH   1   2
ATOM      2  O   UNL A   1      30.416  29.033  24.087  1.00  0.00    -0.460 OA
BRANCH   2   3
ATOM      3  C   UNL A   1      30.222  28.495  22.851  1.00  0.00     0.335 C 
ATOM      4  O   UNL A   1      30.055  29.151  21.827  1.00  0.00    -0.249 OA
BRANCH   3   5
ATOM      5  C   UNL A   1      30.233  26.958  22.869  1.00  0.00     0.228 C 
ATOM      6  C   UNL A   1      31.309  25.636  24.460  1.00  0.00     0.138 C 
ATOM      7  C   UNL A   1      32.327  26.014  23.397  1.00  0.00     0.037 C 
ATOM      8  O   UNL A   1      30.147  26.439  24.208  1.00  0.00    -0.361 OA
ATOM      9  C   UNL A   1      31.453  26.326  22.213  1.00  0.00     0.047 C 
BRANCH   6  10
ATOM     10  C   UNL A   1      30.972  24.130  24.472  1.00  0.00     0.149 C 
BRANCH  10  11
ATOM     11  N   UNL A   1      30.295  23.631  25.663  1.00  0.00    -0.335 N 
ATOM     12  N   UNL A   1      31.756  22.617  27.275  1.00  0.00    -0.284 N 
ATOM     13  C   UNL A   1      30.582  23.099  26.853  1.00  0.00     0.321 C 
ATOM     14  H   UNL A   1      31.744  22.285  28.202  1.00  0.00     0.174 HD
ATOM     15  O   UNL A   1      29.618  22.948  27.616  1.00  0.00    -0.248 OA
ATOM     16  H   UNL A   1      29.320  23.713  25.556  1.00  0.00     0.165 HD
BRANCH  12  17
ATOM     17  C   UNL A   1      32.958  22.499  26.662  1.00  0.00     0.190 A 
ATOM     18  C   UNL A   1      35.996  20.748  25.168  1.00  0.00     0.058 C 
ATOM     19  C   UNL A   1      34.924  21.675  25.601  1.00  0.00     0.023 A 
ATOM     20  C   UNL A   1      35.017  22.961  26.096  1.00  0.00     0.128 A 
ATOM     21  S   UNL A   1      33.266  21.229  25.565  1.00  0.00    -0.102 S 
ATOM     22  N   UNL A   1      33.854  23.458  26.651  1.00  0.00    -0.228 NA
ENDBRANCH  12  17
ENDBRANCH  10  11
ENDBRANCH   6  10
ENDBRANCH   3   5
ENDBRANCH   2   3
ENDBRANCH   1   2
BRANCH   1  23
ATOM     23  C   UNL A   1      31.835  30.066  25.807  1.00  0.00     0.275 C 
BRANCH  23  24
ATOM     24  O   UNL A   1      33.204  30.158  26.240  1.00  0.00    -0.458 OA
BRANCH  24  25
ATOM     25  C   UNL A   1      33.498  31.236  27.004  1.00  0.00     0.338 C 
ATOM     26  O   UNL A   1      32.804  32.216  27.206  1.00  0.00    -0.246 OA
BRANCH  25  27
ATOM     27  C   UNL A   1      34.766  30.999  27.709  1.00  0.00     0.060 A 
ATOM     28  C   UNL A   1      34.998  29.722  28.226  1.00  0.00     0.016 A 
ATOM     29  C   UNL A   1      35.687  32.026  27.914  1.00  0.00     0.016 A 
ATOM     30  C   UNL A   1      36.166  29.454  28.932  1.00  0.00     0.010 A 
ATOM     31  C   UNL A   1      36.859  31.758  28.627  1.00  0.00     0.010 A 
ATOM     32  C   UNL A   1      37.105  30.470  29.137  1.00  0.00    -0.014 A 
BRANCH  32  33
ATOM     33  C   UNL A   1      38.345  30.189  29.896  1.00  0.00     0.031 A 
ATOM     34  C   UNL A   1      39.377  29.262  29.325  1.00  0.00     0.074 A 
ATOM     35  C   UNL A   1      38.533  30.758  31.100  1.00  0.00     0.049 A 
ATOM     36  N   UNL A   1      40.450  28.770  29.889  1.00  0.00    -0.248 NA
ATOM     37  C   UNL A   1      39.170  28.826  27.936  1.00  0.00     0.031 C 
ATOM     38  C   UNL A   1      37.620  31.714  31.730  1.00  0.00     0.029 A 
ATOM     39  N   UNL A   1      39.542  30.605  32.016  1.00  0.00    -0.354 N 
ATOM     40  C   UNL A   1      41.029  27.944  28.937  1.00  0.00     0.074 A 
ATOM     41  C   UNL A   1      40.191  27.998  27.759  1.00  0.00     0.031 C 
ATOM     42  C   UNL A   1      38.104  32.048  32.938  1.00  0.00     0.029 A 
ATOM     43  C   UNL A   1      39.325  31.288  33.187  1.00  0.00     0.049 A 
ATOM     44  H   UNL A   1      40.344  30.057  31.850  1.00  0.00     0.167 HD
ATOM     45  C   UNL A   1      42.159  27.205  29.047  1.00  0.00     0.037 A 
ATOM     46  C   UNL A   1      40.009  31.266  34.347  1.00  0.00     0.037 A 
ATOM     47  C   UNL A   1      43.004  27.188  30.212  1.00  0.00     0.049 A 
ATOM     48  C   UNL A   1      41.228  30.391  34.461  1.00  0.00     0.074 A 
ATOM     49  C   UNL A   1      44.200  26.518  30.401  1.00  0.00     0.029 A 
ATOM     50  N   UNL A   1      42.737  27.872  31.390  1.00  0.00    -0.354 N 
ATOM     51  N   UNL A   1      41.776  29.617  33.555  1.00  0.00    -0.248 NA
ATOM     52  C   UNL A   1      41.913  30.373  35.760  1.00  0.00     0.031 C 
ATOM     53  C   UNL A   1      44.631  26.755  31.710  1.00  0.00     0.029 A 
ATOM     54  C   UNL A   1      43.728  27.609  32.323  1.00  0.00     0.049 A 
ATOM     55  H   UNL A   1      41.960  28.457  31.540  1.00  0.00     0.167 HD
ATOM     56  C   UNL A   1      42.874  29.030  34.170  1.00  0.00     0.074 A 
ATOM     57  C   UNL A   1      42.927  29.552  35.519  1.00  0.00     0.031 C 
ATOM     58  C   UNL A   1      43.758  28.136  33.663  1.00  0.00     0.037 A 
BRANCH  45  59
ATOM     59  C   UNL A   1      42.535  26.324  27.894  1.00  0.00     0.064 A 
ATOM     60  C   UNL A   1      41.977  25.050  27.719  1.00  0.00     0.173 A 
ATOM     61  C   UNL A   1      43.428  26.792  26.918  1.00  0.00     0.173 A 
ATOM     62  F   UNL A   1      41.129  24.554  28.632  1.00  0.00    -0.203 F 
ATOM     63  C   UNL A   1      42.311  24.270  26.615  1.00  0.00     0.198 A 
ATOM     64  C   UNL A   1      43.741  26.019  25.804  1.00  0.00     0.198 A 
ATOM     65  F   UNL A   1      43.986  28.006  27.037  1.00  0.00    -0.203 F 
ATOM     66  F   UNL A   1      41.790  23.042  26.482  1.00  0.00    -0.200 F 
ATOM     67  C   UNL A   1      43.185  24.758  25.655  1.00  0.00     0.200 A 
ATOM     68  F   UNL A   1      44.578  26.496  24.871  1.00  0.00    -0.200 F 
ATOM     69  F   UNL A   1      43.496  24.010  24.587  1.00  0.00    -0.200 F 
ENDBRANCH  45  59
BRANCH  46  70
ATOM     70  C   UNL A   1      39.521  32.052  35.510  1.00  0.00     0.064 A 
ATOM     71  C   UNL A   1      39.995  33.347  35.761  1.00  0.00     0.173 A 
ATOM     72  C   UNL A   1      38.579  31.517  36.401  1.00  0.00     0.173 A 
ATOM     73  F   UNL A   1      40.919  33.889  34.955  1.00  0.00    -0.203 F 
ATOM     74  C   UNL A   1      39.553  34.071  36.867  1.00  0.00     0.198 A 
ATOM     75  C   UNL A   1      38.117  32.252  37.489  1.00  0.00     0.198 A 
ATOM     76  F   UNL A   1      38.099  30.279  36.210  1.00  0.00    -0.203 F 
ATOM     77  F   UNL A   1      40.056  35.289  37.111  1.00  0.00    -0.200 F 
ATOM     78  C   UNL A   1      38.610  33.527  37.726  1.00  0.00     0.200 A 
ATOM     79  F   UNL A   1      37.199  31.726  38.311  1.00  0.00    -0.200 F 
ATOM     80  F   UNL A   1      38.185  34.225  38.788  1.00  0.00    -0.200 F 
ENDBRANCH  46  70
BRANCH  58  81
ATOM     81  C   UNL A   1      44.859  27.672  34.568  1.00  0.00     0.064 A 
ATOM     82  C   UNL A   1      44.724  26.514  35.345  1.00  0.00     0.173 A 
ATOM     83  C   UNL A   1      46.078  28.365  34.620  1.00  0.00     0.173 A 
ATOM     84  F   UNL A   1      43.571  25.828  35.341  1.00  0.00    -0.203 F 
ATOM     85  C   UNL A   1      45.766  26.073  36.156  1.00  0.00     0.198 A 
ATOM     86  C   UNL A   1      47.126  27.907  35.411  1.00  0.00     0.198 A 
ATOM     87  F   UNL A   1      46.256  29.476  33.890  1.00  0.00    -0.203 F 
ATOM     88  F   UNL A   1      45.605  24.983  36.919  1.00  0.00    -0.200 F 
ATOM     89  C   UNL A   1      46.969  26.765  36.181  1.00  0.00     0.200 A 
ATOM     90  F   UNL A   1      48.292  28.569  35.427  1.00  0.00    -0.200 F 
ATOM     91  F   UNL A   1      47.975  26.332  36.954  1.00  0.00    -0.200 F 
ENDBRANCH  58  81
ENDBRANCH  32  33
ENDBRANCH  25  27
ENDBRANCH  24  25
ENDBRANCH  23  24
ENDBRANCH   1  23
TORSDOF 14
ENDMDL
MODEL 2
REMARK VINA RESULT:     -11.9      0.307      1.637
REMARK SMILES Cc1cnc(NC(=O)NC[C@H]2CC[C@H](C(=O)OCCOC(=O)c3ccc(-c4c5nc(c(-c6c(F)c(F)c(F)c(F)c6F)c6ccc([nH]6)c(-c6c(F)c(F)c(F)c(F)c6F)c6nc(c(-c7c(F)c(F)c(F)c(F)c7F)c7ccc4[nH]7)C=C6)C=C5)cc3)O2)s1
REMARK SMILES IDX 18 1 17 2 15 3 16 4 14 5 11 6 12 7 86 8 13 9 10 10 9 11 6 12
REMARK SMILES IDX 7 13 8 15 5 17 1 18 2 19 3 20 87 21 4 22 19 23 20 24 21 25
REMARK SMILES IDX 22 26 23 27 24 28 85 29 25 30 84 31 26 32 27 33 28 34 78 35
REMARK SMILES IDX 29 36 83 37 77 38 79 39 30 40 82 41 76 42 75 43 31 45 63 46
REMARK SMILES IDX 43 47 62 48 44 49 47 50 61 51 80 52 45 53 46 54 60 56 81 57
REMARK SMILES IDX 48 58 32 59 33 60 41 61 34 62 35 63 39 64 42 65 36 66 37 67
REMARK SMILES IDX 40 68 38 69 64 70 65 71 73 72 66 73 67 74 71 75 74 76 68 77
REMARK SMILES IDX 69 78 72 79 70 80 49 81 50 82 58 83 51 84 52 85 56 86 59 87
REMARK SMILES IDX 53 88 54 89 57 90 55 91
REMARK H PARENT 6 14 9 16 79 44 47 55
REMARK Flexibility Score: inf
ROOT
ATOM      1  C   UNL A   1      31.273  30.033  24.390  1.00  0.00     0.274 C 
ENDROOT
BRANCH   1   2
ATOM      2  O   UNL A   1      30.113  29.257  24.033  1.00  0.00    -0.460 OA
BRANCH   2   3
ATOM      3  C   UNL A   1      30.115  28.689  22.794  1.00  0.00     0.335 C 
ATOM      4  O   UNL A   1      30.006  29.314  21.744  1.00  0.00    -0.249 OA
BRANCH   3   5
ATOM      5  C   UNL A   1      30.272  27.160  22.848  1.00  0.00     0.228 C 
ATOM      6  C   UNL A   1      31.182  25.959  24.627  1.00  0.00     0.138 C 
ATOM      7  C   UNL A   1      32.325  26.429  23.744  1.00  0.00     0.037 C 
ATOM      8  O   UNL A   1      30.008  26.642  24.164  1.00  0.00    -0.361 OA
ATOM      9  C   UNL A   1      31.641  26.648  22.423  1.00  0.00     0.047 C 
BRANCH   6  10
ATOM     10  C   UNL A   1      30.994  24.427  24.614  1.00  0.00     0.149 C 
BRANCH  10  11
ATOM     11  N   UNL A   1      30.281  23.857  25.751  1.00  0.00    -0.335 N 
ATOM     12  N   UNL A   1      31.661  22.578  27.241  1.00  0.00    -0.284 N 
ATOM     13  C   UNL A   1      30.526  23.184  26.878  1.00  0.00     0.321 C 
ATOM     14  H   UNL A   1      31.623  22.153  28.128  1.00  0.00     0.174 HD
ATOM     15  O   UNL A   1      29.551  23.024  27.626  1.00  0.00    -0.248 OA
ATOM     16  H   UNL A   1      29.314  24.019  25.658  1.00  0.00     0.165 HD
BRANCH  12  17
ATOM     17  C   UNL A   1      32.853  22.439  26.613  1.00  0.00     0.190 A 
ATOM     18  C   UNL A   1      35.799  20.635  25.002  1.00  0.00     0.058 C 
ATOM     19  C   UNL A   1      34.773  21.585  25.494  1.00  0.00     0.023 A 
ATOM     20  C   UNL A   1      34.927  22.837  26.056  1.00  0.00     0.128 A 
ATOM     21  S   UNL A   1      33.097  21.218  25.447  1.00  0.00    -0.102 S 
ATOM     22  N   UNL A   1      33.792  23.355  26.646  1.00  0.00    -0.228 NA
ENDBRANCH  12  17
ENDBRANCH  10  11
ENDBRANCH   6  10
ENDBRANCH   3   5
ENDBRANCH   2   3
ENDBRANCH   1   2
BRANCH   1  23
ATOM     23  C   UNL A   1      31.773  29.679  25.794  1.00  0.00     0.275 C 
BRANCH  23  24
ATOM     24  O   UNL A   1      33.141  30.085  25.987  1.00  0.00    -0.458 OA
BRANCH  24  25
ATOM     25  C   UNL A   1      33.328  31.080  26.885  1.00  0.00     0.338 C 
ATOM     26  O   UNL A   1      32.555  31.976  27.174  1.00  0.00    -0.246 OA
BRANCH  25  27
ATOM     27  C   UNL A   1      34.587  30.850  27.608  1.00  0.00     0.060 A 
ATOM     28  C   UNL A   1      34.800  29.586  28.163  1.00  0.00     0.016 A 
ATOM     29  C   UNL A   1      35.517  31.872  27.791  1.00  0.00     0.016 A 
ATOM     30  C   UNL A   1      35.959  29.326  28.888  1.00  0.00     0.010 A 
ATOM     31  C   UNL A   1      36.680  31.612  28.522  1.00  0.00     0.010 A 
ATOM     32  C   UNL A   1      36.907  30.338  29.071  1.00  0.00    -0.014 A 
BRANCH  32  33
ATOM     33  C   UNL A   1      38.138  30.065  29.849  1.00  0.00     0.031 A 
ATOM     34  C   UNL A   1      39.184  29.145  29.295  1.00  0.00     0.074 A 
ATOM     35  C   UNL A   1      38.303  30.637  31.056  1.00  0.00     0.049 A 
ATOM     36  N   UNL A   1      40.252  28.661  29.875  1.00  0.00    -0.248 NA
ATOM     37  C   UNL A   1      39.001  28.707  27.903  1.00  0.00     0.031 C 
ATOM     38  C   UNL A   1      37.375  31.586  31.671  1.00  0.00     0.029 A 
ATOM     39  N   UNL A   1      39.299  30.490  31.987  1.00  0.00    -0.354 N 
ATOM     40  C   UNL A   1      40.851  27.837  28.932  1.00  0.00     0.074 A 
ATOM     41  C   UNL A   1      40.030  27.885  27.742  1.00  0.00     0.031 C 
ATOM     42  C   UNL A   1      37.838  31.924  32.886  1.00  0.00     0.029 A 
ATOM     43  C   UNL A   1      39.060  31.173  33.154  1.00  0.00     0.049 A 
ATOM     44  H   UNL A   1      40.107  29.948  31.834  1.00  0.00     0.167 HD
ATOM     45  C   UNL A   1      41.984  27.107  29.060  1.00  0.00     0.037 A 
ATOM     46  C   UNL A   1      39.727  31.156  34.324  1.00  0.00     0.037 A 
ATOM     47  C   UNL A   1      42.811  27.095  30.238  1.00  0.00     0.049 A 
ATOM     48  C   UNL A   1      40.950  30.289  34.457  1.00  0.00     0.074 A 
ATOM     49  C   UNL A   1      44.009  26.434  30.445  1.00  0.00     0.029 A 
ATOM     50  N   UNL A   1      42.522  27.778  31.411  1.00  0.00    -0.354 N 
ATOM     51  N   UNL A   1      41.517  29.518  33.561  1.00  0.00    -0.248 NA
ATOM     52  C   UNL A   1      41.615  30.276  35.767  1.00  0.00     0.031 C 
ATOM     53  C   UNL A   1      44.419  26.675  31.761  1.00  0.00     0.029 A 
ATOM     54  C   UNL A   1      43.500  27.523  32.359  1.00  0.00     0.049 A 
ATOM     55  H   UNL A   1      41.739  28.358  31.549  1.00  0.00     0.167 HD
ATOM     56  C   UNL A   1      42.609  28.939  34.192  1.00  0.00     0.074 A 
ATOM     57  C   UNL A   1      42.638  29.462  35.541  1.00  0.00     0.031 C 
ATOM     58  C   UNL A   1      43.506  28.051  33.699  1.00  0.00     0.037 A 
BRANCH  45  59
ATOM     59  C   UNL A   1      42.384  26.227  27.913  1.00  0.00     0.064 A 
ATOM     60  C   UNL A   1      41.811  24.964  27.711  1.00  0.00     0.173 A 
ATOM     61  C   UNL A   1      43.315  26.687  26.970  1.00  0.00     0.173 A 
ATOM     62  F   UNL A   1      40.926  24.475  28.593  1.00  0.00    -0.203 F 
ATOM     63  C   UNL A   1      42.169  24.186  26.613  1.00  0.00     0.198 A 
ATOM     64  C   UNL A   1      43.652  25.917  25.861  1.00  0.00     0.198 A 
ATOM     65  F   UNL A   1      43.888  27.892  27.116  1.00  0.00    -0.203 F 
ATOM     66  F   UNL A   1      41.633  22.967  26.454  1.00  0.00    -0.200 F 
ATOM     67  C   UNL A   1      43.081  24.666  25.685  1.00  0.00     0.200 A 
ATOM     68  F   UNL A   1      44.526  26.387  24.960  1.00  0.00    -0.200 F 
ATOM     69  F   UNL A   1      43.415  23.921  24.622  1.00  0.00    -0.200 F 
ENDBRANCH  45  59
BRANCH  46  70
ATOM     70  C   UNL A   1      39.216  31.939  35.479  1.00  0.00     0.064 A 
ATOM     71  C   UNL A   1      38.369  31.357  36.433  1.00  0.00     0.173 A 
ATOM     72  C   UNL A   1      39.553  33.291  35.643  1.00  0.00     0.173 A 
ATOM     73  F   UNL A   1      37.994  30.078  36.302  1.00  0.00    -0.203 F 
ATOM     74  C   UNL A   1      37.871  32.102  37.500  1.00  0.00     0.198 A 
ATOM     75  C   UNL A   1      39.078  34.027  36.726  1.00  0.00     0.198 A 
ATOM     76  F   UNL A   1      40.354  33.897  34.754  1.00  0.00    -0.203 F 
ATOM     77  F   UNL A   1      37.027  31.536  38.373  1.00  0.00    -0.200 F 
ATOM     78  C   UNL A   1      38.231  33.434  37.650  1.00  0.00     0.200 A 
ATOM     79  F   UNL A   1      39.436  35.310  36.871  1.00  0.00    -0.200 F 
ATOM     80  F   UNL A   1      37.753  34.149  38.677  1.00  0.00    -0.200 F 
ENDBRANCH  46  70
BRANCH  58  81
ATOM     81  C   UNL A   1      44.597  27.595  34.621  1.00  0.00     0.064 A 
ATOM     82  C   UNL A   1      45.793  28.315  34.745  1.00  0.00     0.173 A 
ATOM     83  C   UNL A   1      44.423  26.458  35.424  1.00  0.00     0.173 A 
ATOM     84  F   UNL A   1      46.011  29.399  33.986  1.00  0.00    -0.203 F 
ATOM     85  C   UNL A   1      46.785  27.903  35.631  1.00  0.00     0.198 A 
ATOM     86  C   UNL A   1      45.405  26.065  36.326  1.00  0.00     0.198 A 
ATOM     87  F   UNL A   1      43.293  25.740  35.344  1.00  0.00    -0.203 F 
ATOM     88  F   UNL A   1      47.936  28.584  35.710  1.00  0.00    -0.200 F 
ATOM     89  C   UNL A   1      46.586  26.784  36.427  1.00  0.00     0.200 A 
ATOM     90  F   UNL A   1      45.209  24.990  37.103  1.00  0.00    -0.200 F 
ATOM     91  F   UNL A   1      47.538  26.396  37.287  1.00  0.00    -0.200 F 
ENDBRANCH  58  81
ENDBRANCH  32  33
ENDBRANCH  25  27
ENDBRANCH  24  25
ENDBRANCH  23  24
ENDBRANCH   1  23
TORSDOF 14
ENDMDL
MODEL 3
REMARK VINA RESULT:     -11.8      1.698      2.859
REMARK SMILES Cc1cnc(NC(=O)NC[C@H]2CC[C@H](C(=O)OCCOC(=O)c3ccc(-c4c5nc(c(-c6c(F)c(F)c(F)c(F)c6F)c6ccc([nH]6)c(-c6c(F)c(F)c(F)c(F)c6F)c6nc(c(-c7c(F)c(F)c(F)c(F)c7F)c7ccc4[nH]7)C=C6)C=C5)cc3)O2)s1
REMARK SMILES IDX 18 1 17 2 15 3 16 4 14 5 11 6 12 7 86 8 13 9 10 10 9 11 6 12
REMARK SMILES IDX 7 13 8 15 5 17 1 18 2 19 3 20 87 21 4 22 19 23 20 24 21 25
REMARK SMILES IDX 22 26 23 27 24 28 85 29 25 30 84 31 26 32 27 33 28 34 78 35
REMARK SMILES IDX 29 36 83 37 77 38 79 39 30 40 82 41 76 42 75 43 31 45 63 46
REMARK SMILES IDX 43 47 62 48 44 49 47 50 61 51 80 52 45 53 46 54 60 56 81 57
REMARK SMILES IDX 48 58 32 59 33 60 41 61 34 62 35 63 39 64 42 65 36 66 37 67
REMARK SMILES IDX 40 68 38 69 64 70 65 71 73 72 66 73 67 74 71 75 74 76 68 77
REMARK SMILES IDX 69 78 72 79 70 80 49 81 50 82 58 83 51 84 52 85 56 86 59 87
REMARK SMILES IDX 53 88 54 89 57 90 55 91
REMARK H PARENT 6 14 9 16 79 44 47 55
REMARK Flexibility Score: inf
ROOT
ATOM      1  C   UNL A   1      31.810  30.881  26.641  1.00  0.00     0.274 C 
ENDROOT
BRANCH   1   2
ATOM      2  O   UNL A   1      33.039  30.357  27.179  1.00  0.00    -0.460 OA
BRANCH   2   3
ATOM      3  C   UNL A   1      33.427  29.129  26.733  1.00  0.00     0.335 C 
ATOM      4  O   UNL A   1      34.559  28.673  26.854  1.00  0.00    -0.249 OA
BRANCH   3   5
ATOM      5  C   UNL A   1      32.282  28.361  26.052  1.00  0.00     0.228 C 
ATOM      6  C   UNL A   1      31.880  26.074  26.262  1.00  0.00     0.138 C 
ATOM      7  C   UNL A   1      32.913  26.271  25.166  1.00  0.00     0.037 C 
ATOM      8  O   UNL A   1      31.735  27.345  26.911  1.00  0.00    -0.361 OA
ATOM      9  C   UNL A   1      32.662  27.691  24.739  1.00  0.00     0.047 C 
BRANCH   6  10
ATOM     10  C   UNL A   1      30.529  25.543  25.736  1.00  0.00     0.149 C 
BRANCH  10  11
ATOM     11  N   UNL A   1      29.906  24.482  26.518  1.00  0.00    -0.335 N 
ATOM     12  N   UNL A   1      30.948  22.334  26.270  1.00  0.00    -0.284 N 
ATOM     13  C   UNL A   1      30.097  23.199  26.833  1.00  0.00     0.321 C 
ATOM     14  H   UNL A   1      30.933  21.436  26.674  1.00  0.00     0.174 HD
ATOM     15  O   UNL A   1      29.322  22.737  27.681  1.00  0.00    -0.248 OA
ATOM     16  H   UNL A   1      29.087  24.817  26.950  1.00  0.00     0.165 HD
BRANCH  12  17
ATOM     17  C   UNL A   1      31.824  22.464  25.245  1.00  0.00     0.190 A 
ATOM     18  C   UNL A   1      35.171  23.071  23.525  1.00  0.00     0.058 C 
ATOM     19  C   UNL A   1      33.784  22.730  23.919  1.00  0.00     0.023 A 
ATOM     20  C   UNL A   1      32.593  22.989  23.269  1.00  0.00     0.128 A 
ATOM     21  S   UNL A   1      33.430  21.906  25.384  1.00  0.00    -0.102 S 
ATOM     22  N   UNL A   1      31.457  22.770  24.023  1.00  0.00    -0.228 NA
ENDBRANCH  12  17
ENDBRANCH  10  11
ENDBRANCH   6  10
ENDBRANCH   3   5
ENDBRANCH   2   3
ENDBRANCH   1   2
BRANCH   1  23
ATOM     23  C   UNL A   1      31.638  32.365  26.980  1.00  0.00     0.275 C 
BRANCH  23  24
ATOM     24  O   UNL A   1      32.890  33.072  26.910  1.00  0.00    -0.458 OA
BRANCH  24  25
ATOM     25  C   UNL A   1      33.190  33.826  27.994  1.00  0.00     0.338 C 
ATOM     26  O   UNL A   1      32.526  34.720  28.485  1.00  0.00    -0.246 OA
BRANCH  25  27
ATOM     27  C   UNL A   1      34.414  33.306  28.621  1.00  0.00     0.060 A 
ATOM     28  C   UNL A   1      34.282  32.282  29.563  1.00  0.00     0.016 A 
ATOM     29  C   UNL A   1      35.665  33.852  28.336  1.00  0.00     0.016 A 
ATOM     30  C   UNL A   1      35.405  31.779  30.212  1.00  0.00     0.010 A 
ATOM     31  C   UNL A   1      36.793  33.348  28.992  1.00  0.00     0.010 A 
ATOM     32  C   UNL A   1      36.668  32.308  29.930  1.00  0.00    -0.014 A 
BRANCH  32  33
ATOM     33  C   UNL A   1      37.864  31.779  30.626  1.00  0.00     0.031 A 
ATOM     34  C   UNL A   1      38.711  30.732  29.965  1.00  0.00     0.074 A 
ATOM     35  C   UNL A   1      38.175  32.233  31.853  1.00  0.00     0.049 A 
ATOM     36  N   UNL A   1      39.702  30.036  30.461  1.00  0.00    -0.248 NA
ATOM     37  C   UNL A   1      38.398  30.425  28.562  1.00  0.00     0.031 C 
ATOM     38  C   UNL A   1      37.452  33.284  32.570  1.00  0.00     0.029 A 
ATOM     39  N   UNL A   1      39.168  31.857  32.721  1.00  0.00    -0.354 N 
ATOM     40  C   UNL A   1      40.110  29.186  29.442  1.00  0.00     0.074 A 
ATOM     41  C   UNL A   1      39.261  29.452  28.300  1.00  0.00     0.031 C 
ATOM     42  C   UNL A   1      38.016  33.457  33.776  1.00  0.00     0.029 A 
ATOM     43  C   UNL A   1      39.099  32.493  33.937  1.00  0.00     0.049 A 
ATOM     44  H   UNL A   1      39.863  31.197  32.495  1.00  0.00     0.167 HD
ATOM     45  C   UNL A   1      41.103  28.266  29.469  1.00  0.00     0.037 A 
ATOM     46  C   UNL A   1      39.800  32.285  35.068  1.00  0.00     0.037 A 
ATOM     47  C   UNL A   1      41.963  28.036  30.599  1.00  0.00     0.049 A 
ATOM     48  C   UNL A   1      40.859  31.215  35.087  1.00  0.00     0.074 A 
ATOM     49  C   UNL A   1      43.035  27.168  30.706  1.00  0.00     0.029 A 
ATOM     50  N   UNL A   1      41.845  28.680  31.823  1.00  0.00    -0.354 N 
ATOM     51  N   UNL A   1      41.246  30.420  34.119  1.00  0.00    -0.248 NA
ATOM     52  C   UNL A   1      41.565  31.003  36.357  1.00  0.00     0.031 C 
ATOM     53  C   UNL A   1      43.534  27.248  32.010  1.00  0.00     0.029 A 
ATOM     54  C   UNL A   1      42.802  28.199  32.703  1.00  0.00     0.049 A 
ATOM     55  H   UNL A   1      41.181  29.374  32.035  1.00  0.00     0.167 HD
ATOM     56  C   UNL A   1      42.246  29.623  34.659  1.00  0.00     0.074 A 
ATOM     57  C   UNL A   1      42.421  30.043  36.033  1.00  0.00     0.031 C 
ATOM     58  C   UNL A   1      42.955  28.629  34.069  1.00  0.00     0.037 A 
BRANCH  45  59
ATOM     59  C   UNL A   1      41.296  27.409  28.254  1.00  0.00     0.064 A 
ATOM     60  C   UNL A   1      42.220  27.737  27.252  1.00  0.00     0.173 A 
ATOM     61  C   UNL A   1      40.582  26.209  28.123  1.00  0.00     0.173 A 
ATOM     62  F   UNL A   1      42.918  28.880  27.326  1.00  0.00    -0.203 F 
ATOM     63  C   UNL A   1      42.412  26.901  26.156  1.00  0.00     0.198 A 
ATOM     64  C   UNL A   1      40.792  25.363  27.038  1.00  0.00     0.198 A 
ATOM     65  F   UNL A   1      39.688  25.848  29.057  1.00  0.00    -0.203 F 
ATOM     66  F   UNL A   1      43.278  27.247  25.193  1.00  0.00    -0.200 F 
ATOM     67  C   UNL A   1      41.704  25.711  26.053  1.00  0.00     0.200 A 
ATOM     68  F   UNL A   1      40.116  24.210  26.946  1.00  0.00    -0.200 F 
ATOM     69  F   UNL A   1      41.899  24.902  25.003  1.00  0.00    -0.200 F 
ENDBRANCH  45  59
BRANCH  46  70
ATOM     70  C   UNL A   1      39.481  33.066  36.291  1.00  0.00     0.064 A 
ATOM     71  C   UNL A   1      38.495  32.636  37.190  1.00  0.00     0.173 A 
ATOM     72  C   UNL A   1      40.146  34.267  36.578  1.00  0.00     0.173 A 
ATOM     73  F   UNL A   1      37.810  31.510  36.944  1.00  0.00    -0.203 F 
ATOM     74  C   UNL A   1      38.180  33.384  38.323  1.00  0.00     0.198 A 
ATOM     75  C   UNL A   1      39.851  35.000  37.724  1.00  0.00     0.198 A 
ATOM     76  F   UNL A   1      41.092  34.727  35.745  1.00  0.00    -0.203 F 
ATOM     77  F   UNL A   1      37.202  32.976  39.143  1.00  0.00    -0.200 F 
ATOM     78  C   UNL A   1      38.863  34.562  38.593  1.00  0.00     0.200 A 
ATOM     79  F   UNL A   1      40.519  36.132  37.986  1.00  0.00    -0.200 F 
ATOM     80  F   UNL A   1      38.560  35.280  39.683  1.00  0.00    -0.200 F 
ENDBRANCH  46  70
BRANCH  58  81
ATOM     81  C   UNL A   1      43.987  27.934  34.906  1.00  0.00     0.064 A 
ATOM     82  C   UNL A   1      45.290  28.436  35.018  1.00  0.00     0.173 A 
ATOM     83  C   UNL A   1      43.654  26.786  35.640  1.00  0.00     0.173 A 
ATOM     84  F   UNL A   1      45.659  29.521  34.322  1.00  0.00    -0.203 F 
ATOM     85  C   UNL A   1      46.231  27.803  35.826  1.00  0.00     0.198 A 
ATOM     86  C   UNL A   1      44.589  26.172  36.466  1.00  0.00     0.198 A 
ATOM     87  F   UNL A   1      42.418  26.272  35.568  1.00  0.00    -0.203 F 
ATOM     88  F   UNL A   1      47.483  28.277  35.893  1.00  0.00    -0.200 F 
ATOM     89  C   UNL A   1      45.877  26.677  36.556  1.00  0.00     0.200 A 
ATOM     90  F   UNL A   1      44.244  25.091  37.180  1.00  0.00    -0.200 F 
ATOM     91  F   UNL A   1      46.782  26.076  37.342  1.00  0.00    -0.200 F 
ENDBRANCH  58  81
ENDBRANCH  32  33
ENDBRANCH  25  27
ENDBRANCH  24  25
ENDBRANCH  23  24
ENDBRANCH   1  23
TORSDOF 14
ENDMDL
