MODEL 1
REMARK VINA RESULT:     -14.1      0.000      0.000
REMARK SMILES Cc1cc(C(=O)OCCOC(=O)c2ccc(-c3c4nc(c(-c5c(F)c(F)c(F)c(F)c5F)c5ccc([nH]5)c(-c5c(F)c(F)c(F)c(F)c5F)c5nc(c(-c6c(F)c(F)c(F)c(F)c6F)c6ccc3[nH]6)C=C5)C=C4)cc2)ccc1NS(=O)(=O)c1c(F)cccc1F
REMARK SMILES IDX 8 1 7 2 5 3 6 4 4 5 1 6 2 7 3 8 78 9 77 10 76 11 79 12 80 14
REMARK SMILES IDX 81 15 82 16 83 17 84 18 89 19 85 20 86 21 88 22 90 23 87 24
REMARK SMILES IDX 9 25 10 26 11 27 12 28 13 29 14 30 75 31 15 32 74 33 16 34
REMARK SMILES IDX 17 35 18 36 68 37 19 38 73 39 67 40 69 41 20 42 72 43 66 44
REMARK SMILES IDX 65 45 21 47 53 48 33 49 52 50 34 51 37 52 51 53 70 54 35 55
REMARK SMILES IDX 36 56 50 58 71 59 38 60 22 61 23 62 31 63 24 64 25 65 29 66
REMARK SMILES IDX 32 67 26 68 27 69 30 70 28 71 54 72 55 73 63 74 56 75 57 76
REMARK SMILES IDX 61 77 64 78 58 79 59 80 62 81 60 82 39 83 40 84 48 85 41 86
REMARK SMILES IDX 42 87 46 88 49 89 43 90 44 91 47 92 45 93
REMARK H PARENT 79 13 69 46 37 57
REMARK Flexibility Score: inf
ROOT
ATOM      1  C   UNL A   1      37.371  23.146  25.209  1.00  0.00     0.275 C 
ENDROOT
BRANCH   1   2
ATOM      2  O   UNL A   1      36.363  23.863  24.479  1.00  0.00    -0.458 OA
BRANCH   2   3
ATOM      3  C   UNL A   1      35.865  23.109  23.458  1.00  0.00     0.338 C 
ATOM      4  O   UNL A   1      36.422  22.965  22.375  1.00  0.00    -0.246 OA
BRANCH   3   5
ATOM      5  C   UNL A   1      34.554  22.454  23.726  1.00  0.00     0.060 A 
ATOM      6  C   UNL A   1      32.793  19.580  25.451  1.00  0.00     0.046 C 
ATOM      7  C   UNL A   1      33.080  20.961  24.925  1.00  0.00    -0.026 A 
ATOM      8  C   UNL A   1      34.375  21.321  24.523  1.00  0.00     0.021 A 
ATOM      9  C   UNL A   1      32.042  21.872  24.685  1.00  0.00     0.052 A 
ATOM     10  C   UNL A   1      32.142  22.742  23.613  1.00  0.00     0.028 A 
ATOM     11  C   UNL A   1      33.418  23.055  23.155  1.00  0.00     0.018 A 
BRANCH   9  12
ATOM     12  N   UNL A   1      31.068  22.047  25.713  1.00  0.00    -0.279 N 
ATOM     13  H   UNL A   1      30.283  21.451  25.714  1.00  0.00     0.180 HD
BRANCH  12  14
ATOM     14  S   UNL A   1      31.177  23.217  26.936  1.00  0.00     0.267 S 
ATOM     15  O   UNL A   1      29.831  23.330  27.460  1.00  0.00    -0.201 OA
ATOM     16  O   UNL A   1      32.273  22.789  27.781  1.00  0.00    -0.201 OA
BRANCH  14  17
ATOM     17  C   UNL A   1      31.622  24.797  26.295  1.00  0.00     0.158 A 
ATOM     18  C   UNL A   1      32.980  25.104  26.238  1.00  0.00     0.146 A 
ATOM     19  C   UNL A   1      30.706  25.801  26.020  1.00  0.00     0.146 A 
ATOM     20  F   UNL A   1      33.911  24.149  26.353  1.00  0.00    -0.205 F 
ATOM     21  C   UNL A   1      33.417  26.417  26.058  1.00  0.00     0.041 A 
ATOM     22  C   UNL A   1      31.130  27.129  25.881  1.00  0.00     0.041 A 
ATOM     23  F   UNL A   1      29.394  25.549  25.950  1.00  0.00    -0.205 F 
ATOM     24  C   UNL A   1      32.488  27.443  25.931  1.00  0.00     0.006 A 
ENDBRANCH  14  17
ENDBRANCH  12  14
ENDBRANCH   9  12
ENDBRANCH   3   5
ENDBRANCH   2   3
ENDBRANCH   1   2
BRANCH   1  25
ATOM     25  C   UNL A   1      37.810  23.759  26.553  1.00  0.00     0.275 C 
BRANCH  25  26
ATOM     26  O   UNL A   1      39.121  23.496  27.120  1.00  0.00    -0.458 OA
BRANCH  26  27
ATOM     27  C   UNL A   1      40.265  24.212  26.977  1.00  0.00     0.338 C 
ATOM     28  O   UNL A   1      41.253  23.769  26.441  1.00  0.00    -0.246 OA
BRANCH  27  29
ATOM     29  C   UNL A   1      40.238  25.586  27.502  1.00  0.00     0.060 A 
ATOM     30  C   UNL A   1      40.450  26.647  26.607  1.00  0.00     0.016 A 
ATOM     31  C   UNL A   1      39.856  25.806  28.819  1.00  0.00     0.016 A 
ATOM     32  C   UNL A   1      40.174  27.947  27.004  1.00  0.00     0.010 A 
ATOM     33  C   UNL A   1      39.433  27.059  29.166  1.00  0.00     0.010 A 
ATOM     34  C   UNL A   1      39.650  28.128  28.281  1.00  0.00    -0.014 A 
BRANCH  34  35
ATOM     35  C   UNL A   1      39.668  29.405  28.963  1.00  0.00     0.031 A 
ATOM     36  C   UNL A   1      38.603  30.392  28.769  1.00  0.00     0.074 A 
ATOM     37  C   UNL A   1      40.654  29.412  29.887  1.00  0.00     0.049 A 
ATOM     38  N   UNL A   1      38.732  31.652  28.981  1.00  0.00    -0.248 NA
ATOM     39  C   UNL A   1      37.286  30.050  28.243  1.00  0.00     0.031 C 
ATOM     40  C   UNL A   1      40.915  30.258  31.030  1.00  0.00     0.029 A 
ATOM     41  N   UNL A   1      41.778  28.559  29.839  1.00  0.00    -0.354 N 
ATOM     42  C   UNL A   1      37.460  32.199  28.985  1.00  0.00     0.074 A 
ATOM     43  C   UNL A   1      36.639  31.219  28.325  1.00  0.00     0.031 C 
ATOM     44  C   UNL A   1      42.220  30.131  31.354  1.00  0.00     0.029 A 
ATOM     45  C   UNL A   1      42.850  29.298  30.329  1.00  0.00     0.049 A 
ATOM     46  H   UNL A   1      41.799  27.627  29.523  1.00  0.00     0.167 HD
ATOM     47  C   UNL A   1      37.240  33.308  29.752  1.00  0.00     0.037 A 
ATOM     48  C   UNL A   1      43.783  29.708  29.419  1.00  0.00     0.037 A 
ATOM     49  C   UNL A   1      38.504  33.682  30.390  1.00  0.00     0.049 A 
ATOM     50  C   UNL A   1      43.712  31.206  29.283  1.00  0.00     0.074 A 
ATOM     51  C   UNL A   1      39.031  33.351  31.628  1.00  0.00     0.029 A 
ATOM     52  N   UNL A   1      39.566  34.105  29.600  1.00  0.00    -0.354 N 
ATOM     53  N   UNL A   1      42.604  31.903  29.323  1.00  0.00    -0.248 NA
ATOM     54  C   UNL A   1      44.913  32.028  29.244  1.00  0.00     0.031 C 
ATOM     55  C   UNL A   1      40.443  33.479  31.537  1.00  0.00     0.029 A 
ATOM     56  C   UNL A   1      40.766  33.887  30.252  1.00  0.00     0.049 A 
ATOM     57  H   UNL A   1      39.477  34.502  28.704  1.00  0.00     0.167 HD
ATOM     58  C   UNL A   1      42.929  33.230  29.422  1.00  0.00     0.074 A 
ATOM     59  C   UNL A   1      44.382  33.256  29.345  1.00  0.00     0.031 C 
ATOM     60  C   UNL A   1      42.024  34.235  29.617  1.00  0.00     0.037 A 
BRANCH  47  61
ATOM     61  C   UNL A   1      35.906  33.875  30.215  1.00  0.00     0.064 A 
ATOM     62  C   UNL A   1      35.024  34.457  29.269  1.00  0.00     0.173 A 
ATOM     63  C   UNL A   1      35.438  33.921  31.542  1.00  0.00     0.173 A 
ATOM     64  F   UNL A   1      35.287  34.429  27.956  1.00  0.00    -0.203 F 
ATOM     65  C   UNL A   1      33.829  35.090  29.629  1.00  0.00     0.198 A 
ATOM     66  C   UNL A   1      34.247  34.568  31.905  1.00  0.00     0.198 A 
ATOM     67  F   UNL A   1      36.084  33.314  32.540  1.00  0.00    -0.203 F 
ATOM     68  F   UNL A   1      33.055  35.638  28.682  1.00  0.00    -0.200 F 
ATOM     69  C   UNL A   1      33.447  35.159  30.950  1.00  0.00     0.200 A 
ATOM     70  F   UNL A   1      33.880  34.607  33.195  1.00  0.00    -0.200 F 
ATOM     71  F   UNL A   1      32.309  35.774  31.299  1.00  0.00    -0.200 F 
ENDBRANCH  47  61
BRANCH  48  72
ATOM     72  C   UNL A   1      44.044  28.721  28.313  1.00  0.00     0.064 A 
ATOM     73  C   UNL A   1      44.564  27.448  28.657  1.00  0.00     0.173 A 
ATOM     74  C   UNL A   1      43.567  28.861  27.004  1.00  0.00     0.173 A 
ATOM     75  F   UNL A   1      45.053  27.237  29.891  1.00  0.00    -0.203 F 
ATOM     76  C   UNL A   1      44.500  26.356  27.790  1.00  0.00     0.198 A 
ATOM     77  C   UNL A   1      43.532  27.768  26.122  1.00  0.00     0.198 A 
ATOM     78  F   UNL A   1      43.056  30.027  26.586  1.00  0.00    -0.203 F 
ATOM     79  F   UNL A   1      44.887  25.143  28.212  1.00  0.00    -0.200 F 
ATOM     80  C   UNL A   1      43.972  26.514  26.524  1.00  0.00     0.200 A 
ATOM     81  F   UNL A   1      42.982  27.906  24.905  1.00  0.00    -0.200 F 
ATOM     82  F   UNL A   1      43.836  25.457  25.712  1.00  0.00    -0.200 F 
ENDBRANCH  48  72
BRANCH  60  83
ATOM     83  C   UNL A   1      42.298  35.685  29.316  1.00  0.00     0.064 A 
ATOM     84  C   UNL A   1      43.137  36.484  30.110  1.00  0.00     0.173 A 
ATOM     85  C   UNL A   1      41.861  36.275  28.105  1.00  0.00     0.173 A 
ATOM     86  F   UNL A   1      43.746  35.995  31.199  1.00  0.00    -0.203 F 
ATOM     87  C   UNL A   1      43.431  37.804  29.776  1.00  0.00     0.198 A 
ATOM     88  C   UNL A   1      42.230  37.563  27.732  1.00  0.00     0.198 A 
ATOM     89  F   UNL A   1      41.096  35.609  27.228  1.00  0.00    -0.203 F 
ATOM     90  F   UNL A   1      44.174  38.544  30.609  1.00  0.00    -0.200 F 
ATOM     91  C   UNL A   1      42.989  38.338  28.581  1.00  0.00     0.200 A 
ATOM     92  F   UNL A   1      41.862  38.037  26.533  1.00  0.00    -0.200 F 
ATOM     93  F   UNL A   1      43.318  39.590  28.239  1.00  0.00    -0.200 F 
ENDBRANCH  60  83
ENDBRANCH  34  35
ENDBRANCH  27  29
ENDBRANCH  26  27
ENDBRANCH  25  26
ENDBRANCH   1  25
TORSDOF 14
ENDMDL
MODEL 2
REMARK VINA RESULT:     -14.0      4.007     10.179
REMARK SMILES Cc1cc(C(=O)OCCOC(=O)c2ccc(-c3c4nc(c(-c5c(F)c(F)c(F)c(F)c5F)c5ccc([nH]5)c(-c5c(F)c(F)c(F)c(F)c5F)c5nc(c(-c6c(F)c(F)c(F)c(F)c6F)c6ccc3[nH]6)C=C5)C=C4)cc2)ccc1NS(=O)(=O)c1c(F)cccc1F
REMARK SMILES IDX 8 1 7 2 5 3 6 4 4 5 1 6 2 7 3 8 78 9 77 10 76 11 79 12 80 14
REMARK SMILES IDX 81 15 82 16 83 17 84 18 89 19 85 20 86 21 88 22 90 23 87 24
REMARK SMILES IDX 9 25 10 26 11 27 12 28 13 29 14 30 75 31 15 32 74 33 16 34
REMARK SMILES IDX 17 35 18 36 68 37 19 38 73 39 67 40 69 41 20 42 72 43 66 44
REMARK SMILES IDX 65 45 21 47 53 48 33 49 52 50 34 51 37 52 51 53 70 54 35 55
REMARK SMILES IDX 36 56 50 58 71 59 38 60 22 61 23 62 31 63 24 64 25 65 29 66
REMARK SMILES IDX 32 67 26 68 27 69 30 70 28 71 54 72 55 73 63 74 56 75 57 76
REMARK SMILES IDX 61 77 64 78 58 79 59 80 62 81 60 82 39 83 40 84 48 85 41 86
REMARK SMILES IDX 42 87 46 88 49 89 43 90 44 91 47 92 45 93
REMARK H PARENT 79 13 69 46 37 57
REMARK Flexibility Score: inf
ROOT
ATOM      1  C   UNL A   1      32.424  30.118  27.168  1.00  0.00     0.275 C 
ENDROOT
BRANCH   1   2
ATOM      2  O   UNL A   1      31.898  29.088  26.315  1.00  0.00    -0.458 OA
BRANCH   2   3
ATOM      3  C   UNL A   1      31.646  27.948  27.018  1.00  0.00     0.338 C 
ATOM      4  O   UNL A   1      31.074  27.922  28.102  1.00  0.00    -0.246 OA
BRANCH   3   5
ATOM      5  C   UNL A   1      32.128  26.687  26.389  1.00  0.00     0.060 A 
ATOM      6  C   UNL A   1      34.651  25.143  24.024  1.00  0.00     0.046 C 
ATOM      7  C   UNL A   1      33.746  25.330  25.213  1.00  0.00    -0.026 A 
ATOM      8  C   UNL A   1      33.219  26.593  25.521  1.00  0.00     0.021 A 
ATOM      9  C   UNL A   1      33.290  24.231  25.953  1.00  0.00     0.052 A 
ATOM     10  C   UNL A   1      32.013  24.260  26.487  1.00  0.00     0.028 A 
ATOM     11  C   UNL A   1      31.445  25.507  26.732  1.00  0.00     0.018 A 
BRANCH   9  12
ATOM     12  N   UNL A   1      34.256  23.260  26.355  1.00  0.00    -0.279 N 
ATOM     13  H   UNL A   1      34.869  23.495  27.089  1.00  0.00     0.180 HD
BRANCH  12  14
ATOM     14  S   UNL A   1      34.414  21.728  25.646  1.00  0.00     0.267 S 
ATOM     15  O   UNL A   1      33.951  20.803  26.661  1.00  0.00    -0.201 OA
ATOM     16  O   UNL A   1      33.746  21.826  24.365  1.00  0.00    -0.201 OA
BRANCH  14  17
ATOM     17  C   UNL A   1      36.098  21.330  25.308  1.00  0.00     0.158 A 
ATOM     18  C   UNL A   1      36.381  20.020  24.932  1.00  0.00     0.146 A 
ATOM     19  C   UNL A   1      37.156  22.187  25.565  1.00  0.00     0.146 A 
ATOM     20  F   UNL A   1      35.410  19.188  24.534  1.00  0.00    -0.205 F 
ATOM     21  C   UNL A   1      37.686  19.527  24.956  1.00  0.00     0.041 A 
ATOM     22  C   UNL A   1      38.466  21.694  25.636  1.00  0.00     0.041 A 
ATOM     23  F   UNL A   1      36.958  23.485  25.824  1.00  0.00    -0.205 F 
ATOM     24  C   UNL A   1      38.729  20.353  25.360  1.00  0.00     0.006 A 
ENDBRANCH  14  17
ENDBRANCH  12  14
ENDBRANCH   9  12
ENDBRANCH   3   5
ENDBRANCH   2   3
ENDBRANCH   1   2
BRANCH   1  25
ATOM     25  C   UNL A   1      33.880  30.549  26.902  1.00  0.00     0.275 C 
BRANCH  25  26
ATOM     26  O   UNL A   1      34.966  30.151  27.780  1.00  0.00    -0.458 OA
BRANCH  26  27
ATOM     27  C   UNL A   1      36.108  30.821  28.073  1.00  0.00     0.338 C 
ATOM     28  O   UNL A   1      36.164  32.026  28.135  1.00  0.00    -0.246 OA
BRANCH  27  29
ATOM     29  C   UNL A   1      37.295  29.992  28.334  1.00  0.00     0.060 A 
ATOM     30  C   UNL A   1      37.296  29.164  29.469  1.00  0.00     0.016 A 
ATOM     31  C   UNL A   1      38.308  29.932  27.386  1.00  0.00     0.016 A 
ATOM     32  C   UNL A   1      38.268  28.185  29.605  1.00  0.00     0.010 A 
ATOM     33  C   UNL A   1      39.172  28.873  27.433  1.00  0.00     0.010 A 
ATOM     34  C   UNL A   1      39.185  28.046  28.568  1.00  0.00    -0.014 A 
BRANCH  34  35
ATOM     35  C   UNL A   1      40.448  27.356  28.724  1.00  0.00     0.031 A 
ATOM     36  C   UNL A   1      40.582  25.927  28.431  1.00  0.00     0.074 A 
ATOM     37  C   UNL A   1      41.430  28.254  28.964  1.00  0.00     0.049 A 
ATOM     38  N   UNL A   1      41.497  25.168  28.915  1.00  0.00    -0.248 NA
ATOM     39  C   UNL A   1      39.636  25.192  27.598  1.00  0.00     0.031 C 
ATOM     40  C   UNL A   1      42.871  28.172  28.882  1.00  0.00     0.029 A 
ATOM     41  N   UNL A   1      41.198  29.546  29.485  1.00  0.00    -0.354 N 
ATOM     42  C   UNL A   1      41.482  23.991  28.185  1.00  0.00     0.074 A 
ATOM     43  C   UNL A   1      40.197  23.978  27.539  1.00  0.00     0.031 C 
ATOM     44  C   UNL A   1      43.389  29.171  29.627  1.00  0.00     0.029 A 
ATOM     45  C   UNL A   1      42.279  29.832  30.313  1.00  0.00     0.049 A 
ATOM     46  H   UNL A   1      40.427  30.128  29.299  1.00  0.00     0.167 HD
ATOM     47  C   UNL A   1      42.655  23.302  28.053  1.00  0.00     0.037 A 
ATOM     48  C   UNL A   1      42.043  29.822  31.659  1.00  0.00     0.037 A 
ATOM     49  C   UNL A   1      43.693  24.016  28.799  1.00  0.00     0.049 A 
ATOM     50  C   UNL A   1      42.770  28.656  32.277  1.00  0.00     0.074 A 
ATOM     51  C   UNL A   1      44.608  24.974  28.394  1.00  0.00     0.029 A 
ATOM     52  N   UNL A   1      43.591  24.115  30.181  1.00  0.00    -0.354 N 
ATOM     53  N   UNL A   1      42.911  27.484  31.710  1.00  0.00    -0.248 NA
ATOM     54  C   UNL A   1      43.518  28.793  33.519  1.00  0.00     0.031 C 
ATOM     55  C   UNL A   1      44.975  25.725  29.543  1.00  0.00     0.029 A 
ATOM     56  C   UNL A   1      44.288  25.220  30.636  1.00  0.00     0.049 A 
ATOM     57  H   UNL A   1      43.095  23.488  30.755  1.00  0.00     0.167 HD
ATOM     58  C   UNL A   1      43.827  26.762  32.428  1.00  0.00     0.074 A 
ATOM     59  C   UNL A   1      44.157  27.615  33.559  1.00  0.00     0.031 C 
ATOM     60  C   UNL A   1      44.316  25.543  32.051  1.00  0.00     0.037 A 
BRANCH  47  61
ATOM     61  C   UNL A   1      42.993  22.219  27.039  1.00  0.00     0.064 A 
ATOM     62  C   UNL A   1      42.279  20.994  27.055  1.00  0.00     0.173 A 
ATOM     63  C   UNL A   1      44.005  22.283  26.061  1.00  0.00     0.173 A 
ATOM     64  F   UNL A   1      41.238  20.801  27.875  1.00  0.00    -0.203 F 
ATOM     65  C   UNL A   1      42.599  19.914  26.225  1.00  0.00     0.198 A 
ATOM     66  C   UNL A   1      44.334  21.194  25.239  1.00  0.00     0.198 A 
ATOM     67  F   UNL A   1      44.691  23.403  25.827  1.00  0.00    -0.203 F 
ATOM     68  F   UNL A   1      41.893  18.777  26.311  1.00  0.00    -0.200 F 
ATOM     69  C   UNL A   1      43.637  20.008  25.326  1.00  0.00     0.200 A 
ATOM     70  F   UNL A   1      45.336  21.312  24.354  1.00  0.00    -0.200 F 
ATOM     71  F   UNL A   1      43.954  18.971  24.538  1.00  0.00    -0.200 F 
ENDBRANCH  47  61
BRANCH  48  72
ATOM     72  C   UNL A   1      40.685  30.339  32.053  1.00  0.00     0.064 A 
ATOM     73  C   UNL A   1      39.686  29.399  32.409  1.00  0.00     0.173 A 
ATOM     74  C   UNL A   1      40.409  31.679  32.351  1.00  0.00     0.173 A 
ATOM     75  F   UNL A   1      39.870  28.095  32.145  1.00  0.00    -0.203 F 
ATOM     76  C   UNL A   1      38.543  29.760  33.125  1.00  0.00     0.198 A 
ATOM     77  C   UNL A   1      39.243  32.044  33.044  1.00  0.00     0.198 A 
ATOM     78  F   UNL A   1      41.294  32.640  32.052  1.00  0.00    -0.203 F 
ATOM     79  F   UNL A   1      37.694  28.813  33.550  1.00  0.00    -0.200 F 
ATOM     80  C   UNL A   1      38.327  31.084  33.452  1.00  0.00     0.200 A 
ATOM     81  F   UNL A   1      39.049  33.323  33.401  1.00  0.00    -0.200 F 
ATOM     82  F   UNL A   1      37.273  31.431  34.204  1.00  0.00    -0.200 F 
ENDBRANCH  48  72
BRANCH  60  83
ATOM     83  C   UNL A   1      44.977  24.573  32.995  1.00  0.00     0.064 A 
ATOM     84  C   UNL A   1      44.379  23.365  33.389  1.00  0.00     0.173 A 
ATOM     85  C   UNL A   1      46.324  24.748  33.396  1.00  0.00     0.173 A 
ATOM     86  F   UNL A   1      43.167  23.004  32.946  1.00  0.00    -0.203 F 
ATOM     87  C   UNL A   1      45.037  22.450  34.208  1.00  0.00     0.198 A 
ATOM     88  C   UNL A   1      47.006  23.790  34.139  1.00  0.00     0.198 A 
ATOM     89  F   UNL A   1      47.033  25.831  33.047  1.00  0.00    -0.203 F 
ATOM     90  F   UNL A   1      44.392  21.350  34.617  1.00  0.00    -0.200 F 
ATOM     91  C   UNL A   1      46.354  22.656  34.571  1.00  0.00     0.200 A 
ATOM     92  F   UNL A   1      48.306  23.966  34.413  1.00  0.00    -0.200 F 
ATOM     93  F   UNL A   1      46.998  21.749  35.315  1.00  0.00    -0.200 F 
ENDBRANCH  60  83
ENDBRANCH  34  35
ENDBRANCH  27  29
ENDBRANCH  26  27
ENDBRANCH  25  26
ENDBRANCH   1  25
TORSDOF 14
ENDMDL
MODEL 3
REMARK VINA RESULT:     -14.0      4.039      9.970
REMARK SMILES Cc1cc(C(=O)OCCOC(=O)c2ccc(-c3c4nc(c(-c5c(F)c(F)c(F)c(F)c5F)c5ccc([nH]5)c(-c5c(F)c(F)c(F)c(F)c5F)c5nc(c(-c6c(F)c(F)c(F)c(F)c6F)c6ccc3[nH]6)C=C5)C=C4)cc2)ccc1NS(=O)(=O)c1c(F)cccc1F
REMARK SMILES IDX 8 1 7 2 5 3 6 4 4 5 1 6 2 7 3 8 78 9 77 10 76 11 79 12 80 14
REMARK SMILES IDX 81 15 82 16 83 17 84 18 89 19 85 20 86 21 88 22 90 23 87 24
REMARK SMILES IDX 9 25 10 26 11 27 12 28 13 29 14 30 75 31 15 32 74 33 16 34
REMARK SMILES IDX 17 35 18 36 68 37 19 38 73 39 67 40 69 41 20 42 72 43 66 44
REMARK SMILES IDX 65 45 21 47 53 48 33 49 52 50 34 51 37 52 51 53 70 54 35 55
REMARK SMILES IDX 36 56 50 58 71 59 38 60 22 61 23 62 31 63 24 64 25 65 29 66
REMARK SMILES IDX 32 67 26 68 27 69 30 70 28 71 54 72 55 73 63 74 56 75 57 76
REMARK SMILES IDX 61 77 64 78 58 79 59 80 62 81 60 82 39 83 40 84 48 85 41 86
REMARK SMILES IDX 42 87 46 88 49 89 43 90 44 91 47 92 45 93
REMARK H PARENT 79 13 69 46 37 57
REMARK Flexibility Score: inf
ROOT
ATOM      1  C   UNL A   1      32.360  29.792  27.098  1.00  0.00     0.275 C 
ENDROOT
BRANCH   1   2
ATOM      2  O   UNL A   1      32.087  28.749  26.149  1.00  0.00    -0.458 OA
BRANCH   2   3
ATOM      3  C   UNL A   1      31.755  27.586  26.779  1.00  0.00     0.338 C 
ATOM      4  O   UNL A   1      30.855  27.485  27.606  1.00  0.00    -0.246 OA
BRANCH   3   5
ATOM      5  C   UNL A   1      32.578  26.400  26.411  1.00  0.00     0.060 A 
ATOM      6  C   UNL A   1      32.736  22.618  26.306  1.00  0.00     0.046 C 
ATOM      7  C   UNL A   1      32.907  24.060  25.906  1.00  0.00    -0.026 A 
ATOM      8  C   UNL A   1      32.166  25.071  26.536  1.00  0.00     0.021 A 
ATOM      9  C   UNL A   1      33.908  24.445  25.005  1.00  0.00     0.052 A 
ATOM     10  C   UNL A   1      34.541  25.663  25.179  1.00  0.00     0.028 A 
ATOM     11  C   UNL A   1      33.848  26.657  25.865  1.00  0.00     0.018 A 
BRANCH   9  12
ATOM     12  N   UNL A   1      34.032  23.693  23.798  1.00  0.00    -0.279 N 
ATOM     13  H   UNL A   1      34.845  23.151  23.672  1.00  0.00     0.180 HD
BRANCH  12  14
ATOM     14  S   UNL A   1      32.868  23.676  22.566  1.00  0.00     0.267 S 
ATOM     15  O   UNL A   1      33.627  23.800  21.338  1.00  0.00    -0.201 OA
ATOM     16  O   UNL A   1      32.051  22.507  22.824  1.00  0.00    -0.201 OA
BRANCH  14  17
ATOM     17  C   UNL A   1      31.793  25.070  22.657  1.00  0.00     0.158 A 
ATOM     18  C   UNL A   1      32.328  26.311  22.321  1.00  0.00     0.146 A 
ATOM     19  C   UNL A   1      30.522  25.026  23.207  1.00  0.00     0.146 A 
ATOM     20  F   UNL A   1      33.488  26.409  21.658  1.00  0.00    -0.205 F 
ATOM     21  C   UNL A   1      31.675  27.497  22.661  1.00  0.00     0.041 A 
ATOM     22  C   UNL A   1      29.875  26.208  23.594  1.00  0.00     0.041 A 
ATOM     23  F   UNL A   1      29.906  23.863  23.451  1.00  0.00    -0.205 F 
ATOM     24  C   UNL A   1      30.467  27.446  23.348  1.00  0.00     0.006 A 
ENDBRANCH  14  17
ENDBRANCH  12  14
ENDBRANCH   9  12
ENDBRANCH   3   5
ENDBRANCH   2   3
ENDBRANCH   1   2
BRANCH   1  25
ATOM     25  C   UNL A   1      33.706  30.525  26.941  1.00  0.00     0.275 C 
BRANCH  25  26
ATOM     26  O   UNL A   1      34.924  30.024  27.555  1.00  0.00    -0.458 OA
BRANCH  26  27
ATOM     27  C   UNL A   1      36.033  30.713  27.924  1.00  0.00     0.338 C 
ATOM     28  O   UNL A   1      36.050  31.916  28.039  1.00  0.00    -0.246 OA
BRANCH  27  29
ATOM     29  C   UNL A   1      37.232  29.907  28.200  1.00  0.00     0.060 A 
ATOM     30  C   UNL A   1      37.240  29.091  29.343  1.00  0.00     0.016 A 
ATOM     31  C   UNL A   1      38.251  29.856  27.258  1.00  0.00     0.016 A 
ATOM     32  C   UNL A   1      38.229  28.130  29.495  1.00  0.00     0.010 A 
ATOM     33  C   UNL A   1      39.133  28.812  27.320  1.00  0.00     0.010 A 
ATOM     34  C   UNL A   1      39.154  27.997  28.463  1.00  0.00    -0.014 A 
BRANCH  34  35
ATOM     35  C   UNL A   1      40.428  27.330  28.634  1.00  0.00     0.031 A 
ATOM     36  C   UNL A   1      40.591  25.904  28.345  1.00  0.00     0.074 A 
ATOM     37  C   UNL A   1      41.390  28.246  28.881  1.00  0.00     0.049 A 
ATOM     38  N   UNL A   1      41.515  25.162  28.840  1.00  0.00    -0.248 NA
ATOM     39  C   UNL A   1      39.666  25.150  27.505  1.00  0.00     0.031 C 
ATOM     40  C   UNL A   1      42.833  28.190  28.812  1.00  0.00     0.029 A 
ATOM     41  N   UNL A   1      41.130  29.535  29.396  1.00  0.00    -0.354 N 
ATOM     42  C   UNL A   1      41.528  23.984  28.113  1.00  0.00     0.074 A 
ATOM     43  C   UNL A   1      40.250  23.946  27.455  1.00  0.00     0.031 C 
ATOM     44  C   UNL A   1      43.326  29.201  29.561  1.00  0.00     0.029 A 
ATOM     45  C   UNL A   1      42.198  29.842  30.234  1.00  0.00     0.049 A 
ATOM     46  H   UNL A   1      40.351  30.103  29.201  1.00  0.00     0.167 HD
ATOM     47  C   UNL A   1      42.715  23.316  27.993  1.00  0.00     0.037 A 
ATOM     48  C   UNL A   1      41.949  29.832  31.578  1.00  0.00     0.037 A 
ATOM     49  C   UNL A   1      43.732  24.050  28.748  1.00  0.00     0.049 A 
ATOM     50  C   UNL A   1      42.691  28.681  32.206  1.00  0.00     0.074 A 
ATOM     51  C   UNL A   1      44.633  25.024  28.350  1.00  0.00     0.029 A 
ATOM     52  N   UNL A   1      43.615  24.151  30.129  1.00  0.00    -0.354 N 
ATOM     53  N   UNL A   1      42.858  27.511  31.642  1.00  0.00    -0.248 NA
ATOM     54  C   UNL A   1      43.425  28.834  33.454  1.00  0.00     0.031 C 
ATOM     55  C   UNL A   1      44.976  25.784  29.500  1.00  0.00     0.029 A 
ATOM     56  C   UNL A   1      44.287  25.269  30.588  1.00  0.00     0.049 A 
ATOM     57  H   UNL A   1      43.125  23.516  30.699  1.00  0.00     0.167 HD
ATOM     58  C   UNL A   1      43.781  26.806  32.371  1.00  0.00     0.074 A 
ATOM     59  C   UNL A   1      44.084  27.668  33.504  1.00  0.00     0.031 C 
ATOM     60  C   UNL A   1      44.295  25.596  32.002  1.00  0.00     0.037 A 
BRANCH  47  61
ATOM     61  C   UNL A   1      43.082  22.237  26.986  1.00  0.00     0.064 A 
ATOM     62  C   UNL A   1      42.440  20.974  27.043  1.00  0.00     0.173 A 
ATOM     63  C   UNL A   1      44.057  22.342  25.975  1.00  0.00     0.173 A 
ATOM     64  F   UNL A   1      41.438  20.736  27.899  1.00  0.00    -0.203 F 
ATOM     65  C   UNL A   1      42.795  19.900  26.220  1.00  0.00     0.198 A 
ATOM     66  C   UNL A   1      44.422  21.260  25.158  1.00  0.00     0.198 A 
ATOM     67  F   UNL A   1      44.670  23.495  25.702  1.00  0.00    -0.203 F 
ATOM     68  F   UNL A   1      42.159  18.726  26.345  1.00  0.00    -0.200 F 
ATOM     69  C   UNL A   1      43.798  20.038  25.286  1.00  0.00     0.200 A 
ATOM     70  F   UNL A   1      45.387  21.420  24.240  1.00  0.00    -0.200 F 
ATOM     71  F   UNL A   1      44.148  19.008  24.504  1.00  0.00    -0.200 F 
ENDBRANCH  47  61
BRANCH  48  72
ATOM     72  C   UNL A   1      40.578  30.325  31.957  1.00  0.00     0.064 A 
ATOM     73  C   UNL A   1      39.606  29.371  32.349  1.00  0.00     0.173 A 
ATOM     74  C   UNL A   1      40.266  31.667  32.209  1.00  0.00     0.173 A 
ATOM     75  F   UNL A   1      39.825  28.063  32.129  1.00  0.00    -0.203 F 
ATOM     76  C   UNL A   1      38.454  29.725  33.055  1.00  0.00     0.198 A 
ATOM     77  C   UNL A   1      39.092  32.023  32.893  1.00  0.00     0.198 A 
ATOM     78  F   UNL A   1      41.124  32.640  31.875  1.00  0.00    -0.203 F 
ATOM     79  F   UNL A   1      37.632  28.770  33.515  1.00  0.00    -0.200 F 
ATOM     80  C   UNL A   1      38.203  31.052  33.337  1.00  0.00     0.200 A 
ATOM     81  F   UNL A   1      38.863  33.308  33.206  1.00  0.00    -0.200 F 
ATOM     82  F   UNL A   1      37.141  31.396  34.079  1.00  0.00    -0.200 F 
ENDBRANCH  48  72
BRANCH  60  83
ATOM     83  C   UNL A   1      44.965  24.640  32.955  1.00  0.00     0.064 A 
ATOM     84  C   UNL A   1      44.353  23.460  33.407  1.00  0.00     0.173 A 
ATOM     85  C   UNL A   1      46.329  24.795  33.305  1.00  0.00     0.173 A 
ATOM     86  F   UNL A   1      43.119  23.115  33.015  1.00  0.00    -0.203 F 
ATOM     87  C   UNL A   1      45.017  22.556  34.233  1.00  0.00     0.198 A 
ATOM     88  C   UNL A   1      47.013  23.845  34.057  1.00  0.00     0.198 A 
ATOM     89  F   UNL A   1      47.050  25.849  32.899  1.00  0.00    -0.203 F 
ATOM     90  F   UNL A   1      44.360  21.485  34.698  1.00  0.00    -0.200 F 
ATOM     91  C   UNL A   1      46.349  22.741  34.546  1.00  0.00     0.200 A 
ATOM     92  F   UNL A   1      48.325  23.998  34.282  1.00  0.00    -0.200 F 
ATOM     93  F   UNL A   1      46.997  21.842  35.297  1.00  0.00    -0.200 F 
ENDBRANCH  60  83
ENDBRANCH  34  35
ENDBRANCH  27  29
ENDBRANCH  26  27
ENDBRANCH  25  26
ENDBRANCH   1  25
TORSDOF 14
ENDMDL
