MODEL 1
REMARK VINA RESULT:     -12.9      0.000      0.000
REMARK SMILES O=C(OCCOC(=O)[C@H]1CCC(=O)N(C[C@@H]2COc3ccccc32)C1)c1ccc(-c2c3nc(c(-c4c(F)c(F)c(F)c(F)c4F)c4ccc([nH]4)c(-c4c(F)c(F)c(F)c(F)c4F)c4nc(c(-c5c(F)c(F)c(F)c(F)c5F)c5ccc2[nH]5)C=C4)C=C3)cc1
REMARK SMILES IDX 4 1 3 2 2 3 1 4 26 5 27 6 88 7 28 8 87 9 29 10 30 11 31 12
REMARK SMILES IDX 81 13 32 14 86 15 80 16 82 17 33 18 85 19 79 20 78 21 34 23
REMARK SMILES IDX 66 24 46 25 65 26 47 27 50 28 64 29 83 30 48 31 49 32 63 34
REMARK SMILES IDX 84 35 51 36 35 37 36 38 44 39 37 40 38 41 42 42 45 43 39 44
REMARK SMILES IDX 40 45 43 46 41 47 67 48 68 49 76 50 69 51 70 52 74 53 77 54
REMARK SMILES IDX 71 55 72 56 75 57 73 58 52 59 53 60 61 61 54 62 55 63 59 64
REMARK SMILES IDX 62 65 56 66 57 67 60 68 58 69 5 70 6 71 7 72 8 73 9 74 10 75
REMARK SMILES IDX 25 76 11 77 14 78 12 79 13 80 15 81 16 82 17 83 24 84 18 85
REMARK SMILES IDX 19 86 23 87 20 88 22 89 21 90
REMARK H PARENT 82 22 50 33
REMARK Flexibility Score: inf
ROOT
ATOM      1  C   UNL A   1      33.452  30.680  27.315  1.00  0.00     0.275 C 
ENDROOT
BRANCH   1   2
ATOM      2  O   UNL A   1      33.019  32.038  27.269  1.00  0.00    -0.458 OA
BRANCH   2   3
ATOM      3  C   UNL A   1      33.431  33.032  28.084  1.00  0.00     0.338 C 
ATOM      4  O   UNL A   1      32.798  34.088  28.061  1.00  0.00    -0.246 OA
BRANCH   3   5
ATOM      5  C   UNL A   1      34.657  32.972  28.962  1.00  0.00     0.060 A 
ATOM      6  C   UNL A   1      34.784  32.386  30.234  1.00  0.00     0.016 A 
ATOM      7  C   UNL A   1      35.839  33.337  28.306  1.00  0.00     0.016 A 
ATOM      8  C   UNL A   1      36.026  32.002  30.745  1.00  0.00     0.010 A 
ATOM      9  C   UNL A   1      37.058  32.841  28.755  1.00  0.00     0.010 A 
ATOM     10  C   UNL A   1      37.156  32.117  29.957  1.00  0.00    -0.014 A 
BRANCH  10  11
ATOM     11  C   UNL A   1      38.457  31.554  30.355  1.00  0.00     0.031 A 
ATOM     12  C   UNL A   1      38.952  31.910  31.723  1.00  0.00     0.074 A 
ATOM     13  C   UNL A   1      39.116  30.637  29.604  1.00  0.00     0.049 A 
ATOM     14  N   UNL A   1      39.836  31.295  32.466  1.00  0.00    -0.248 NA
ATOM     15  C   UNL A   1      38.232  32.993  32.417  1.00  0.00     0.031 C 
ATOM     16  C   UNL A   1      38.217  29.293  28.475  1.00  0.00     0.029 A 
ATOM     17  N   UNL A   1      40.818  30.020  29.845  1.00  0.00    -0.354 N 
ATOM     18  C   UNL A   1      39.704  31.863  33.723  1.00  0.00     0.074 A 
ATOM     19  C   UNL A   1      38.760  32.949  33.622  1.00  0.00     0.031 C 
ATOM     20  C   UNL A   1      39.476  27.916  28.157  1.00  0.00     0.029 A 
ATOM     21  C   UNL A   1      41.144  28.429  29.029  1.00  0.00     0.049 A 
ATOM     22  H   UNL A   1      41.497  30.504  30.368  1.00  0.00     0.167 HD
ATOM     23  C   UNL A   1      40.238  31.470  34.897  1.00  0.00     0.037 A 
ATOM     24  C   UNL A   1      42.154  27.555  29.085  1.00  0.00     0.037 A 
ATOM     25  C   UNL A   1      41.219  30.437  35.040  1.00  0.00     0.049 A 
ATOM     26  C   UNL A   1      42.815  27.432  30.399  1.00  0.00     0.074 A 
ATOM     27  C   UNL A   1      41.910  30.102  36.187  1.00  0.00     0.029 A 
ATOM     28  N   UNL A   1      41.677  29.601  34.023  1.00  0.00    -0.354 N 
ATOM     29  N   UNL A   1      42.528  28.067  31.509  1.00  0.00    -0.248 NA
ATOM     30  C   UNL A   1      43.794  26.354  30.530  1.00  0.00     0.031 C 
ATOM     31  C   UNL A   1      42.854  29.134  35.852  1.00  0.00     0.029 A 
ATOM     32  C   UNL A   1      42.685  28.783  34.521  1.00  0.00     0.049 A 
ATOM     33  H   UNL A   1      41.340  29.590  33.098  1.00  0.00     0.167 HD
ATOM     34  C   UNL A   1      43.274  27.447  32.488  1.00  0.00     0.074 A 
ATOM     35  C   UNL A   1      43.964  26.341  31.843  1.00  0.00     0.031 C 
ATOM     36  C   UNL A   1      43.389  27.751  33.802  1.00  0.00     0.037 A 
BRANCH  23  37
ATOM     37  C   UNL A   1      39.800  32.255  36.100  1.00  0.00     0.064 A 
ATOM     38  C   UNL A   1      38.664  31.898  36.849  1.00  0.00     0.173 A 
ATOM     39  C   UNL A   1      40.457  33.448  36.426  1.00  0.00     0.173 A 
ATOM     40  F   UNL A   1      37.965  30.796  36.534  1.00  0.00    -0.203 F 
ATOM     41  C   UNL A   1      38.182  32.732  37.855  1.00  0.00     0.198 A 
ATOM     42  C   UNL A   1      39.994  34.258  37.457  1.00  0.00     0.198 A 
ATOM     43  F   UNL A   1      41.525  33.845  35.719  1.00  0.00    -0.203 F 
ATOM     44  F   UNL A   1      37.043  32.425  38.491  1.00  0.00    -0.200 F 
ATOM     45  C   UNL A   1      38.851  33.908  38.161  1.00  0.00     0.200 A 
ATOM     46  F   UNL A   1      40.637  35.398  37.746  1.00  0.00    -0.200 F 
ATOM     47  F   UNL A   1      38.377  34.721  39.115  1.00  0.00    -0.200 F 
ENDBRANCH  23  37
BRANCH  24  48
ATOM     48  C   UNL A   1      42.345  26.670  27.915  1.00  0.00     0.064 A 
ATOM     49  C   UNL A   1      41.733  25.421  27.766  1.00  0.00     0.173 A 
ATOM     50  C   UNL A   1      43.196  27.096  26.875  1.00  0.00     0.173 A 
ATOM     51  F   UNL A   1      40.888  24.972  28.703  1.00  0.00    -0.203 F 
ATOM     52  C   UNL A   1      42.000  24.615  26.655  1.00  0.00     0.198 A 
ATOM     53  C   UNL A   1      43.443  26.302  25.757  1.00  0.00     0.198 A 
ATOM     54  F   UNL A   1      43.800  28.293  26.945  1.00  0.00    -0.203 F 
ATOM     55  F   UNL A   1      41.434  23.404  26.562  1.00  0.00    -0.200 F 
ATOM     56  C   UNL A   1      42.856  25.053  25.657  1.00  0.00     0.200 A 
ATOM     57  F   UNL A   1      44.253  26.745  24.785  1.00  0.00    -0.200 F 
ATOM     58  F   UNL A   1      43.120  24.270  24.601  1.00  0.00    -0.200 F 
ENDBRANCH  24  48
BRANCH  36  59
ATOM     59  C   UNL A   1      44.372  26.917  34.568  1.00  0.00     0.064 A 
ATOM     60  C   UNL A   1      45.721  27.296  34.654  1.00  0.00     0.173 A 
ATOM     61  C   UNL A   1      43.969  25.740  35.211  1.00  0.00     0.173 A 
ATOM     62  F   UNL A   1      46.150  28.414  34.047  1.00  0.00    -0.203 F 
ATOM     63  C   UNL A   1      46.646  26.486  35.297  1.00  0.00     0.198 A 
ATOM     64  C   UNL A   1      44.889  24.963  35.904  1.00  0.00     0.198 A 
ATOM     65  F   UNL A   1      42.687  25.346  35.171  1.00  0.00    -0.203 F 
ATOM     66  F   UNL A   1      47.945  26.815  35.278  1.00  0.00    -0.200 F 
ATOM     67  C   UNL A   1      46.229  25.325  35.928  1.00  0.00     0.200 A 
ATOM     68  F   UNL A   1      44.482  23.854  36.538  1.00  0.00    -0.200 F 
ATOM     69  F   UNL A   1      47.123  24.544  36.548  1.00  0.00    -0.200 F 
ENDBRANCH  36  59
ENDBRANCH  10  11
ENDBRANCH   3   5
ENDBRANCH   2   3
ENDBRANCH   1   2
BRANCH   1  70
ATOM     70  C   UNL A   1      32.976  29.839  26.113  1.00  0.00     0.274 C 
BRANCH  70  71
ATOM     71  O   UNL A   1      31.620  29.324  26.223  1.00  0.00    -0.462 OA
BRANCH  71  72
ATOM     72  C   UNL A   1      31.465  27.966  26.315  1.00  0.00     0.310 C 
ATOM     73  O   UNL A   1      31.656  27.334  27.347  1.00  0.00    -0.252 OA
BRANCH  72  74
ATOM     74  C   UNL A   1      31.163  27.273  24.974  1.00  0.00     0.119 C 
ATOM     75  C   UNL A   1      30.549  28.152  23.916  1.00  0.00     0.027 C 
ATOM     76  C   UNL A   1      32.468  26.774  24.418  1.00  0.00     0.134 C 
ATOM     77  C   UNL A   1      30.356  27.486  22.566  1.00  0.00     0.101 C 
ATOM     78  N   UNL A   1      32.430  26.236  23.061  1.00  0.00    -0.341 N 
ATOM     79  C   UNL A   1      31.487  26.602  22.114  1.00  0.00     0.222 C 
ATOM     80  O   UNL A   1      31.516  26.211  20.946  1.00  0.00    -0.275 OA
BRANCH  78  81
ATOM     81  C   UNL A   1      33.629  25.539  22.589  1.00  0.00     0.131 C 
BRANCH  81  82
ATOM     82  C   UNL A   1      33.523  24.018  22.656  1.00  0.00     0.080 C 
ATOM     83  C   UNL A   1      32.210  23.481  23.339  1.00  0.00     0.239 C 
ATOM     84  C   UNL A   1      34.552  23.314  23.460  1.00  0.00     0.002 A 
ATOM     85  O   UNL A   1      32.336  22.136  23.887  1.00  0.00    -0.493 OA
ATOM     86  C   UNL A   1      33.667  22.037  24.229  1.00  0.00     0.122 A 
ATOM     87  C   UNL A   1      36.349  23.193  23.442  1.00  0.00     0.008 A 
ATOM     88  C   UNL A   1      34.348  20.620  24.994  1.00  0.00     0.047 A 
ATOM     89  C   UNL A   1      37.166  21.475  24.328  1.00  0.00     0.001 A 
ATOM     90  C   UNL A   1      36.057  20.291  25.074  1.00  0.00     0.004 A 
ENDBRANCH  81  82
ENDBRANCH  78  81
ENDBRANCH  72  74
ENDBRANCH  71  72
ENDBRANCH  70  71
ENDBRANCH   1  70
TORSDOF 13
ENDMDL
MODEL 2
REMARK VINA RESULT:     -12.9      0.994      2.129
REMARK SMILES O=C(OCCOC(=O)[C@H]1CCC(=O)N(C[C@@H]2COc3ccccc32)C1)c1ccc(-c2c3nc(c(-c4c(F)c(F)c(F)c(F)c4F)c4ccc([nH]4)c(-c4c(F)c(F)c(F)c(F)c4F)c4nc(c(-c5c(F)c(F)c(F)c(F)c5F)c5ccc2[nH]5)C=C4)C=C3)cc1
REMARK SMILES IDX 4 1 3 2 2 3 1 4 26 5 27 6 88 7 28 8 87 9 29 10 30 11 31 12
REMARK SMILES IDX 81 13 32 14 86 15 80 16 82 17 33 18 85 19 79 20 78 21 34 23
REMARK SMILES IDX 66 24 46 25 65 26 47 27 50 28 64 29 83 30 48 31 49 32 63 34
REMARK SMILES IDX 84 35 51 36 35 37 36 38 44 39 37 40 38 41 42 42 45 43 39 44
REMARK SMILES IDX 40 45 43 46 41 47 67 48 68 49 76 50 69 51 70 52 74 53 77 54
REMARK SMILES IDX 71 55 72 56 75 57 73 58 52 59 53 60 61 61 54 62 55 63 59 64
REMARK SMILES IDX 62 65 56 66 57 67 60 68 58 69 5 70 6 71 7 72 8 73 9 74 10 75
REMARK SMILES IDX 25 76 11 77 14 78 12 79 13 80 15 81 16 82 17 83 24 84 18 85
REMARK SMILES IDX 19 86 23 87 20 88 22 89 21 90
REMARK H PARENT 82 22 50 33
REMARK Flexibility Score: inf
ROOT
ATOM      1  C   UNL A   1      32.345  33.089  26.863  1.00  0.00     0.275 C 
ENDROOT
BRANCH   1   2
ATOM      2  O   UNL A   1      32.349  33.820  28.088  1.00  0.00    -0.458 OA
BRANCH   2   3
ATOM      3  C   UNL A   1      33.381  33.918  28.952  1.00  0.00     0.338 C 
ATOM      4  O   UNL A   1      33.237  34.651  29.931  1.00  0.00    -0.246 OA
BRANCH   3   5
ATOM      5  C   UNL A   1      34.725  33.258  28.765  1.00  0.00     0.060 A 
ATOM      6  C   UNL A   1      35.931  33.851  28.355  1.00  0.00     0.016 A 
ATOM      7  C   UNL A   1      34.798  31.966  29.298  1.00  0.00     0.016 A 
ATOM      8  C   UNL A   1      37.171  33.271  28.639  1.00  0.00     0.010 A 
ATOM      9  C   UNL A   1      36.027  31.451  29.695  1.00  0.00     0.010 A 
ATOM     10  C   UNL A   1      37.228  32.129  29.416  1.00  0.00    -0.014 A 
BRANCH  10  11
ATOM     11  C   UNL A   1      38.499  31.577  29.916  1.00  0.00     0.031 A 
ATOM     12  C   UNL A   1      38.876  31.929  31.322  1.00  0.00     0.074 A 
ATOM     13  C   UNL A   1      39.227  30.672  29.217  1.00  0.00     0.049 A 
ATOM     14  N   UNL A   1      39.703  31.320  32.131  1.00  0.00    -0.248 NA
ATOM     15  C   UNL A   1      38.089  33.000  31.961  1.00  0.00     0.031 C 
ATOM     16  C   UNL A   1      38.439  29.326  28.010  1.00  0.00     0.029 A 
ATOM     17  N   UNL A   1      40.911  30.072  29.593  1.00  0.00    -0.354 N 
ATOM     18  C   UNL A   1      39.462  31.878  33.376  1.00  0.00     0.074 A 
ATOM     19  C   UNL A   1      38.517  32.954  33.205  1.00  0.00     0.031 C 
ATOM     20  C   UNL A   1      39.736  27.965  27.788  1.00  0.00     0.029 A 
ATOM     21  C   UNL A   1      41.320  28.490  28.798  1.00  0.00     0.049 A 
ATOM     22  H   UNL A   1      41.539  30.560  30.172  1.00  0.00     0.167 HD
ATOM     23  C   UNL A   1      39.903  31.483  34.589  1.00  0.00     0.037 A 
ATOM     24  C   UNL A   1      42.332  27.627  28.931  1.00  0.00     0.037 A 
ATOM     25  C   UNL A   1      40.881  30.460  34.806  1.00  0.00     0.049 A 
ATOM     26  C   UNL A   1      42.885  27.502  30.294  1.00  0.00     0.074 A 
ATOM     27  C   UNL A   1      41.479  30.125  36.003  1.00  0.00     0.029 A 
ATOM     28  N   UNL A   1      41.430  29.635  33.824  1.00  0.00    -0.354 N 
ATOM     29  N   UNL A   1      42.501  28.127  31.380  1.00  0.00    -0.248 NA
ATOM     30  C   UNL A   1      43.862  26.435  30.499  1.00  0.00     0.031 C 
ATOM     31  C   UNL A   1      42.458  29.170  35.741  1.00  0.00     0.029 A 
ATOM     32  C   UNL A   1      42.403  28.826  34.399  1.00  0.00     0.049 A 
ATOM     33  H   UNL A   1      41.170  29.627  32.875  1.00  0.00     0.167 HD
ATOM     34  C   UNL A   1      43.171  27.509  32.414  1.00  0.00     0.074 A 
ATOM     35  C   UNL A   1      43.924  26.415  31.821  1.00  0.00     0.031 C 
ATOM     36  C   UNL A   1      43.175  27.806  33.735  1.00  0.00     0.037 A 
BRANCH  23  37
ATOM     37  C   UNL A   1      39.358  32.255  35.756  1.00  0.00     0.064 A 
ATOM     38  C   UNL A   1      39.899  33.494  36.146  1.00  0.00     0.173 A 
ATOM     39  C   UNL A   1      38.366  31.684  36.563  1.00  0.00     0.173 A 
ATOM     40  F   UNL A   1      40.895  34.050  35.439  1.00  0.00    -0.203 F 
ATOM     41  C   UNL A   1      39.489  34.109  37.326  1.00  0.00     0.198 A 
ATOM     42  C   UNL A   1      37.934  32.322  37.720  1.00  0.00     0.198 A 
ATOM     43  F   UNL A   1      37.845  30.490  36.247  1.00  0.00    -0.203 F 
ATOM     44  F   UNL A   1      40.085  35.240  37.733  1.00  0.00    -0.200 F 
ATOM     45  C   UNL A   1      38.504  33.526  38.109  1.00  0.00     0.200 A 
ATOM     46  F   UNL A   1      36.987  31.753  38.479  1.00  0.00    -0.200 F 
ATOM     47  F   UNL A   1      38.124  34.108  39.254  1.00  0.00    -0.200 F 
ENDBRANCH  23  37
BRANCH  24  48
ATOM     48  C   UNL A   1      42.629  26.751  27.775  1.00  0.00     0.064 A 
ATOM     49  C   UNL A   1      42.061  25.488  27.581  1.00  0.00     0.173 A 
ATOM     50  C   UNL A   1      43.540  27.203  26.799  1.00  0.00     0.173 A 
ATOM     51  F   UNL A   1      41.164  25.013  28.455  1.00  0.00    -0.203 F 
ATOM     52  C   UNL A   1      42.427  24.694  26.491  1.00  0.00     0.198 A 
ATOM     53  C   UNL A   1      43.886  26.420  25.701  1.00  0.00     0.198 A 
ATOM     54  F   UNL A   1      44.106  28.415  26.915  1.00  0.00    -0.203 F 
ATOM     55  F   UNL A   1      41.901  23.468  26.355  1.00  0.00    -0.200 F 
ATOM     56  C   UNL A   1      43.340  25.157  25.556  1.00  0.00     0.200 A 
ATOM     57  F   UNL A   1      44.751  26.887  24.789  1.00  0.00    -0.200 F 
ATOM     58  F   UNL A   1      43.698  24.385  24.520  1.00  0.00    -0.200 F 
ENDBRANCH  24  48
BRANCH  36  59
ATOM     59  C   UNL A   1      44.101  26.978  34.574  1.00  0.00     0.064 A 
ATOM     60  C   UNL A   1      43.682  25.749  35.106  1.00  0.00     0.173 A 
ATOM     61  C   UNL A   1      45.404  27.413  34.850  1.00  0.00     0.173 A 
ATOM     62  F   UNL A   1      42.439  25.297  34.871  1.00  0.00    -0.203 F 
ATOM     63  C   UNL A   1      44.511  25.019  35.946  1.00  0.00     0.198 A 
ATOM     64  C   UNL A   1      46.251  26.649  35.643  1.00  0.00     0.198 A 
ATOM     65  F   UNL A   1      45.854  28.573  34.349  1.00  0.00    -0.203 F 
ATOM     66  F   UNL A   1      44.053  23.901  36.525  1.00  0.00    -0.200 F 
ATOM     67  C   UNL A   1      45.797  25.465  36.207  1.00  0.00     0.200 A 
ATOM     68  F   UNL A   1      47.503  27.066  35.874  1.00  0.00    -0.200 F 
ATOM     69  F   UNL A   1      46.597  24.760  37.018  1.00  0.00    -0.200 F 
ENDBRANCH  36  59
ENDBRANCH  10  11
ENDBRANCH   3   5
ENDBRANCH   2   3
ENDBRANCH   1   2
BRANCH   1  70
ATOM     70  C   UNL A   1      31.406  31.867  26.875  1.00  0.00     0.274 C 
BRANCH  70  71
ATOM     71  O   UNL A   1      31.585  30.944  25.765  1.00  0.00    -0.462 OA
BRANCH  71  72
ATOM     72  C   UNL A   1      32.345  29.826  25.989  1.00  0.00     0.310 C 
ATOM     73  O   UNL A   1      33.447  29.857  26.522  1.00  0.00    -0.252 OA
BRANCH  72  74
ATOM     74  C   UNL A   1      31.758  28.535  25.393  1.00  0.00     0.119 C 
ATOM     75  C   UNL A   1      30.768  28.730  24.274  1.00  0.00     0.027 C 
ATOM     76  C   UNL A   1      32.900  27.738  24.825  1.00  0.00     0.134 C 
ATOM     77  C   UNL A   1      30.280  27.449  23.622  1.00  0.00     0.101 C 
ATOM     78  N   UNL A   1      32.542  26.551  24.054  1.00  0.00    -0.341 N 
ATOM     79  C   UNL A   1      31.332  26.397  23.396  1.00  0.00     0.222 C 
ATOM     80  O   UNL A   1      31.075  25.432  22.675  1.00  0.00    -0.275 OA
BRANCH  78  81
ATOM     81  C   UNL A   1      33.631  25.640  23.692  1.00  0.00     0.131 C 
BRANCH  81  82
ATOM     82  C   UNL A   1      33.862  24.524  24.705  1.00  0.00     0.080 C 
ATOM     83  C   UNL A   1      35.327  24.449  25.277  1.00  0.00     0.239 C 
ATOM     84  C   UNL A   1      33.694  23.133  24.215  1.00  0.00     0.002 A 
ATOM     85  O   UNL A   1      35.699  23.134  25.783  1.00  0.00    -0.493 OA
ATOM     86  C   UNL A   1      34.954  22.259  25.022  1.00  0.00     0.122 A 
ATOM     87  C   UNL A   1      32.365  22.179  23.461  1.00  0.00     0.008 A 
ATOM     88  C   UNL A   1      35.067  20.523  25.189  1.00  0.00     0.047 A 
ATOM     89  C   UNL A   1      32.481  20.097  23.691  1.00  0.00     0.001 A 
ATOM     90  C   UNL A   1      33.885  19.411  24.556  1.00  0.00     0.004 A 
ENDBRANCH  81  82
ENDBRANCH  78  81
ENDBRANCH  72  74
ENDBRANCH  71  72
ENDBRANCH  70  71
ENDBRANCH   1  70
TORSDOF 13
ENDMDL
MODEL 3
REMARK VINA RESULT:     -12.8      0.714      1.538
REMARK SMILES O=C(OCCOC(=O)[C@H]1CCC(=O)N(C[C@@H]2COc3ccccc32)C1)c1ccc(-c2c3nc(c(-c4c(F)c(F)c(F)c(F)c4F)c4ccc([nH]4)c(-c4c(F)c(F)c(F)c(F)c4F)c4nc(c(-c5c(F)c(F)c(F)c(F)c5F)c5ccc2[nH]5)C=C4)C=C3)cc1
REMARK SMILES IDX 4 1 3 2 2 3 1 4 26 5 27 6 88 7 28 8 87 9 29 10 30 11 31 12
REMARK SMILES IDX 81 13 32 14 86 15 80 16 82 17 33 18 85 19 79 20 78 21 34 23
REMARK SMILES IDX 66 24 46 25 65 26 47 27 50 28 64 29 83 30 48 31 49 32 63 34
REMARK SMILES IDX 84 35 51 36 35 37 36 38 44 39 37 40 38 41 42 42 45 43 39 44
REMARK SMILES IDX 40 45 43 46 41 47 67 48 68 49 76 50 69 51 70 52 74 53 77 54
REMARK SMILES IDX 71 55 72 56 75 57 73 58 52 59 53 60 61 61 54 62 55 63 59 64
REMARK SMILES IDX 62 65 56 66 57 67 60 68 58 69 5 70 6 71 7 72 8 73 9 74 10 75
REMARK SMILES IDX 25 76 11 77 14 78 12 79 13 80 15 81 16 82 17 83 24 84 18 85
REMARK SMILES IDX 19 86 23 87 20 88 22 89 21 90
REMARK H PARENT 82 22 50 33
REMARK Flexibility Score: inf
ROOT
ATOM      1  C   UNL A   1      33.427  31.200  27.340  1.00  0.00     0.275 C 
ENDROOT
BRANCH   1   2
ATOM      2  O   UNL A   1      33.138  32.596  27.351  1.00  0.00    -0.458 OA
BRANCH   2   3
ATOM      3  C   UNL A   1      33.510  33.479  28.301  1.00  0.00     0.338 C 
ATOM      4  O   UNL A   1      32.885  34.537  28.374  1.00  0.00    -0.246 OA
BRANCH   3   5
ATOM      5  C   UNL A   1      34.688  33.298  29.229  1.00  0.00     0.060 A 
ATOM      6  C   UNL A   1      34.766  32.501  30.383  1.00  0.00     0.016 A 
ATOM      7  C   UNL A   1      35.889  33.806  28.720  1.00  0.00     0.016 A 
ATOM      8  C   UNL A   1      35.992  32.066  30.895  1.00  0.00     0.010 A 
ATOM      9  C   UNL A   1      37.100  33.273  29.149  1.00  0.00     0.010 A 
ATOM     10  C   UNL A   1      37.158  32.351  30.210  1.00  0.00    -0.014 A 
BRANCH  10  11
ATOM     11  C   UNL A   1      38.456  31.763  30.582  1.00  0.00     0.031 A 
ATOM     12  C   UNL A   1      38.965  32.076  31.955  1.00  0.00     0.074 A 
ATOM     13  C   UNL A   1      39.098  30.858  29.802  1.00  0.00     0.049 A 
ATOM     14  N   UNL A   1      39.848  31.431  32.674  1.00  0.00    -0.248 NA
ATOM     15  C   UNL A   1      38.264  33.148  32.684  1.00  0.00     0.031 C 
ATOM     16  C   UNL A   1      38.175  29.556  28.644  1.00  0.00     0.029 A 
ATOM     17  N   UNL A   1      40.795  30.216  30.012  1.00  0.00    -0.354 N 
ATOM     18  C   UNL A   1      39.732  31.967  33.946  1.00  0.00     0.074 A 
ATOM     19  C   UNL A   1      38.800  33.065  33.883  1.00  0.00     0.031 C 
ATOM     20  C   UNL A   1      39.415  28.173  28.279  1.00  0.00     0.029 A 
ATOM     21  C   UNL A   1      41.095  28.644  29.151  1.00  0.00     0.049 A 
ATOM     22  H   UNL A   1      41.483  30.678  30.542  1.00  0.00     0.167 HD
ATOM     23  C   UNL A   1      40.271  31.536  35.106  1.00  0.00     0.037 A 
ATOM     24  C   UNL A   1      42.096  27.757  29.176  1.00  0.00     0.037 A 
ATOM     25  C   UNL A   1      41.241  30.488  35.213  1.00  0.00     0.049 A 
ATOM     26  C   UNL A   1      42.765  27.591  30.480  1.00  0.00     0.074 A 
ATOM     27  C   UNL A   1      41.936  30.114  36.345  1.00  0.00     0.029 A 
ATOM     28  N   UNL A   1      41.681  29.674  34.170  1.00  0.00    -0.354 N 
ATOM     29  N   UNL A   1      42.495  28.199  31.609  1.00  0.00    -0.248 NA
ATOM     30  C   UNL A   1      43.733  26.499  30.574  1.00  0.00     0.031 C 
ATOM     31  C   UNL A   1      42.866  29.146  35.976  1.00  0.00     0.029 A 
ATOM     32  C   UNL A   1      42.684  28.832  34.637  1.00  0.00     0.049 A 
ATOM     33  H   UNL A   1      41.337  29.693  33.248  1.00  0.00     0.167 HD
ATOM     34  C   UNL A   1      43.241  27.544  32.565  1.00  0.00     0.074 A 
ATOM     35  C   UNL A   1      43.913  26.449  31.885  1.00  0.00     0.031 C 
ATOM     36  C   UNL A   1      43.370  27.812  33.886  1.00  0.00     0.037 A 
BRANCH  23  37
ATOM     37  C   UNL A   1      39.851  32.293  36.333  1.00  0.00     0.064 A 
ATOM     38  C   UNL A   1      38.652  32.007  37.011  1.00  0.00     0.173 A 
ATOM     39  C   UNL A   1      40.601  33.398  36.756  1.00  0.00     0.173 A 
ATOM     40  F   UNL A   1      37.869  30.996  36.602  1.00  0.00    -0.203 F 
ATOM     41  C   UNL A   1      38.204  32.828  38.042  1.00  0.00     0.198 A 
ATOM     42  C   UNL A   1      40.167  34.192  37.811  1.00  0.00     0.198 A 
ATOM     43  F   UNL A   1      41.734  33.728  36.118  1.00  0.00    -0.203 F 
ATOM     44  F   UNL A   1      37.012  32.598  38.611  1.00  0.00    -0.200 F 
ATOM     45  C   UNL A   1      38.964  33.916  38.444  1.00  0.00     0.200 A 
ATOM     46  F   UNL A   1      40.899  35.248  38.194  1.00  0.00    -0.200 F 
ATOM     47  F   UNL A   1      38.523  34.718  39.423  1.00  0.00    -0.200 F 
ENDBRANCH  23  37
BRANCH  24  48
ATOM     48  C   UNL A   1      42.268  26.901  27.980  1.00  0.00     0.064 A 
ATOM     49  C   UNL A   1      41.635  25.667  27.800  1.00  0.00     0.173 A 
ATOM     50  C   UNL A   1      43.120  27.342  26.948  1.00  0.00     0.173 A 
ATOM     51  F   UNL A   1      40.787  25.205  28.729  1.00  0.00    -0.203 F 
ATOM     52  C   UNL A   1      41.884  24.888  26.667  1.00  0.00     0.198 A 
ATOM     53  C   UNL A   1      43.350  26.576  25.808  1.00  0.00     0.198 A 
ATOM     54  F   UNL A   1      43.744  28.527  27.048  1.00  0.00    -0.203 F 
ATOM     55  F   UNL A   1      41.299  23.689  26.543  1.00  0.00    -0.200 F 
ATOM     56  C   UNL A   1      42.743  25.339  25.676  1.00  0.00     0.200 A 
ATOM     57  F   UNL A   1      44.162  27.032  24.845  1.00  0.00    -0.200 F 
ATOM     58  F   UNL A   1      42.990  24.582  24.598  1.00  0.00    -0.200 F 
ENDBRANCH  24  48
BRANCH  36  59
ATOM     59  C   UNL A   1      44.349  26.947  34.621  1.00  0.00     0.064 A 
ATOM     60  C   UNL A   1      43.945  25.729  35.189  1.00  0.00     0.173 A 
ATOM     61  C   UNL A   1      45.687  27.336  34.763  1.00  0.00     0.173 A 
ATOM     62  F   UNL A   1      42.670  25.321  35.082  1.00  0.00    -0.203 F 
ATOM     63  C   UNL A   1      44.831  24.964  35.935  1.00  0.00     0.198 A 
ATOM     64  C   UNL A   1      46.585  26.537  35.461  1.00  0.00     0.198 A 
ATOM     65  F   UNL A   1      46.123  28.484  34.224  1.00  0.00    -0.203 F 
ATOM     66  F   UNL A   1      44.397  23.858  36.554  1.00  0.00    -0.200 F 
ATOM     67  C   UNL A   1      46.151  25.365  36.064  1.00  0.00     0.200 A 
ATOM     68  F   UNL A   1      47.868  26.910  35.564  1.00  0.00    -0.200 F 
ATOM     69  F   UNL A   1      47.006  24.627  36.785  1.00  0.00    -0.200 F 
ENDBRANCH  36  59
ENDBRANCH  10  11
ENDBRANCH   3   5
ENDBRANCH   2   3
ENDBRANCH   1   2
BRANCH   1  70
ATOM     70  C   UNL A   1      32.343  30.348  26.651  1.00  0.00     0.274 C 
BRANCH  70  71
ATOM     71  O   UNL A   1      32.683  28.944  26.477  1.00  0.00    -0.462 OA
BRANCH  71  72
ATOM     72  C   UNL A   1      31.665  28.032  26.572  1.00  0.00     0.310 C 
ATOM     73  O   UNL A   1      31.127  27.731  27.631  1.00  0.00    -0.252 OA
BRANCH  72  74
ATOM     74  C   UNL A   1      31.341  27.309  25.253  1.00  0.00     0.119 C 
ATOM     75  C   UNL A   1      30.913  28.200  24.116  1.00  0.00     0.027 C 
ATOM     76  C   UNL A   1      32.591  26.604  24.803  1.00  0.00     0.134 C 
ATOM     77  C   UNL A   1      30.701  27.488  22.792  1.00  0.00     0.101 C 
ATOM     78  N   UNL A   1      32.550  25.997  23.476  1.00  0.00    -0.341 N 
ATOM     79  C   UNL A   1      31.719  26.433  22.455  1.00  0.00     0.222 C 
ATOM     80  O   UNL A   1      31.756  25.972  21.314  1.00  0.00    -0.275 OA
BRANCH  78  81
ATOM     81  C   UNL A   1      33.662  25.115  23.114  1.00  0.00     0.131 C 
BRANCH  81  82
ATOM     82  C   UNL A   1      34.027  24.107  24.199  1.00  0.00     0.080 C 
ATOM     83  C   UNL A   1      35.551  24.088  24.591  1.00  0.00     0.239 C 
ATOM     84  C   UNL A   1      33.814  22.674  23.876  1.00  0.00     0.002 A 
ATOM     85  O   UNL A   1      35.995  22.830  25.179  1.00  0.00    -0.493 OA
ATOM     86  C   UNL A   1      35.172  21.884  24.608  1.00  0.00     0.122 A 
ATOM     87  C   UNL A   1      32.413  21.652  23.390  1.00  0.00     0.008 A 
ATOM     88  C   UNL A   1      35.322  20.173  24.934  1.00  0.00     0.047 A 
ATOM     89  C   UNL A   1      32.576  19.604  23.814  1.00  0.00     0.001 A 
ATOM     90  C   UNL A   1      34.082  19.006  24.566  1.00  0.00     0.004 A 
ENDBRANCH  81  82
ENDBRANCH  78  81
ENDBRANCH  72  74
ENDBRANCH  71  72
ENDBRANCH  70  71
ENDBRANCH   1  70
TORSDOF 13
ENDMDL
