MODEL 1
REMARK VINA RESULT:     -12.9      0.000      0.000
REMARK SMILES CC1(C)S[C@H](c2ccc(-c3ccccc3)o2)[NH2+][C@H]1C(=O)OCCOC(=O)c1ccc(-c2c3nc(c(-c4c(F)c(F)c(F)c(F)c4F)c4ccc([nH]4)c(-c4c(F)c(F)c(F)c(F)c4F)c4nc(c(-c5c(F)c(F)c(F)c(F)c5F)c5ccc2[nH]5)C=C4)C=C3)cc1
REMARK SMILES IDX 22 1 21 2 19 3 20 4 18 5 1 6 2 7 3 8 4 9 5 10 17 11 6 14
REMARK SMILES IDX 7 15 16 16 8 17 9 18 10 19 11 20 15 21 12 22 14 23 13 24
REMARK SMILES IDX 23 25 24 26 25 27 26 28 27 29 28 30 89 31 29 32 88 33 30 34
REMARK SMILES IDX 31 35 32 36 82 37 33 38 87 39 81 40 83 41 34 42 86 43 80 44
REMARK SMILES IDX 79 45 35 47 67 48 47 49 66 50 48 51 51 52 65 53 84 54 49 55
REMARK SMILES IDX 50 56 64 58 85 59 52 60 36 61 37 62 45 63 38 64 39 65 43 66
REMARK SMILES IDX 46 67 40 68 41 69 44 70 42 71 68 72 69 73 77 74 70 75 71 76
REMARK SMILES IDX 75 77 78 78 72 79 73 80 76 81 74 82 53 83 54 84 62 85 55 86
REMARK SMILES IDX 56 87 60 88 63 89 57 90 58 91 61 92 59 93
REMARK H PARENT 17 12 17 13 83 46 51 57
REMARK Flexibility Score: inf
ROOT
ATOM      1  C   UNL A   1      31.668  28.475  27.062  1.00  0.00     0.274 C 
ENDROOT
BRANCH   1   2
ATOM      2  O   UNL A   1      32.354  27.336  26.501  1.00  0.00    -0.458 OA
BRANCH   2   3
ATOM      3  C   UNL A   1      31.574  26.299  26.102  1.00  0.00     0.366 C 
ATOM      4  O   UNL A   1      30.425  26.124  26.499  1.00  0.00    -0.245 OA
BRANCH   3   5
ATOM      5  C   UNL A   1      32.279  25.311  25.150  1.00  0.00     0.310 C 
ATOM      6  C   UNL A   1      31.536  26.504  22.918  1.00  0.00     0.030 C 
ATOM      7  C   UNL A   1      31.819  25.203  23.673  1.00  0.00     0.079 C 
ATOM      8  C   UNL A   1      30.652  24.226  23.506  1.00  0.00     0.030 C 
ATOM      9  S   UNL A   1      33.284  24.453  22.846  1.00  0.00    -0.078 SA
ATOM     10  C   UNL A   1      34.360  24.570  24.306  1.00  0.00     0.311 C 
ATOM     11  N   UNL A   1      33.746  25.557  25.196  1.00  0.00    -0.316 N 
ATOM     12  H   UNL A   1      33.956  26.501  24.874  1.00  0.00     0.348 HD
ATOM     13  H   UNL A   1      34.106  25.470  26.148  1.00  0.00     0.348 HD
BRANCH  10  14
ATOM     14  C   UNL A   1      34.608  23.201  24.878  1.00  0.00     0.172 A 
ATOM     15  C   UNL A   1      35.242  22.822  26.049  1.00  0.00     0.054 A 
ATOM     16  O   UNL A   1      34.156  22.079  24.222  1.00  0.00    -0.454 OA
ATOM     17  C   UNL A   1      35.153  21.417  26.130  1.00  0.00     0.051 A 
ATOM     18  C   UNL A   1      34.476  21.002  25.005  1.00  0.00     0.134 A 
BRANCH  18  19
ATOM     19  C   UNL A   1      34.046  19.686  24.564  1.00  0.00     0.017 A 
ATOM     20  C   UNL A   1      32.794  19.487  23.973  1.00  0.00     0.012 A 
ATOM     21  C   UNL A   1      34.944  18.609  24.627  1.00  0.00     0.012 A 
ATOM     22  C   UNL A   1      32.455  18.241  23.434  1.00  0.00     0.001 A 
ATOM     23  C   UNL A   1      34.601  17.361  24.101  1.00  0.00     0.001 A 
ATOM     24  C   UNL A   1      33.358  17.180  23.497  1.00  0.00     0.000 A 
ENDBRANCH  18  19
ENDBRANCH  10  14
ENDBRANCH   3   5
ENDBRANCH   2   3
ENDBRANCH   1   2
BRANCH   1  25
ATOM     25  C   UNL A   1      31.780  29.713  26.169  1.00  0.00     0.275 C 
BRANCH  25  26
ATOM     26  O   UNL A   1      33.133  30.199  26.125  1.00  0.00    -0.458 OA
BRANCH  26  27
ATOM     27  C   UNL A   1      33.418  31.208  26.979  1.00  0.00     0.338 C 
ATOM     28  O   UNL A   1      32.724  32.170  27.253  1.00  0.00    -0.246 OA
BRANCH  27  29
ATOM     29  C   UNL A   1      34.698  30.931  27.645  1.00  0.00     0.060 A 
ATOM     30  C   UNL A   1      34.990  29.617  28.018  1.00  0.00     0.016 A 
ATOM     31  C   UNL A   1      35.559  31.972  27.988  1.00  0.00     0.016 A 
ATOM     32  C   UNL A   1      36.142  29.332  28.740  1.00  0.00     0.010 A 
ATOM     33  C   UNL A   1      36.729  31.682  28.697  1.00  0.00     0.010 A 
ATOM     34  C   UNL A   1      37.022  30.362  29.084  1.00  0.00    -0.014 A 
BRANCH  34  35
ATOM     35  C   UNL A   1      38.232  30.057  29.879  1.00  0.00     0.031 A 
ATOM     36  C   UNL A   1      39.287  29.154  29.315  1.00  0.00     0.074 A 
ATOM     37  C   UNL A   1      38.385  30.604  31.098  1.00  0.00     0.049 A 
ATOM     38  N   UNL A   1      40.351  28.659  29.895  1.00  0.00    -0.248 NA
ATOM     39  C   UNL A   1      39.124  28.754  27.909  1.00  0.00     0.031 C 
ATOM     40  C   UNL A   1      37.454  31.542  31.726  1.00  0.00     0.029 A 
ATOM     41  N   UNL A   1      39.377  30.440  32.031  1.00  0.00    -0.354 N 
ATOM     42  C   UNL A   1      40.967  27.866  28.937  1.00  0.00     0.074 A 
ATOM     43  C   UNL A   1      40.158  27.942  27.739  1.00  0.00     0.031 C 
ATOM     44  C   UNL A   1      37.915  31.864  32.946  1.00  0.00     0.029 A 
ATOM     45  C   UNL A   1      39.144  31.117  33.201  1.00  0.00     0.049 A 
ATOM     46  H   UNL A   1      40.180  29.891  31.875  1.00  0.00     0.167 HD
ATOM     47  C   UNL A   1      42.103  27.140  29.055  1.00  0.00     0.037 A 
ATOM     48  C   UNL A   1      39.824  31.103  34.363  1.00  0.00     0.037 A 
ATOM     49  C   UNL A   1      42.912  27.086  30.243  1.00  0.00     0.049 A 
ATOM     50  C   UNL A   1      41.052  30.243  34.485  1.00  0.00     0.074 A 
ATOM     51  C   UNL A   1      44.086  26.384  30.460  1.00  0.00     0.029 A 
ATOM     52  N   UNL A   1      42.630  27.766  31.419  1.00  0.00    -0.354 N 
ATOM     53  N   UNL A   1      41.614  29.472  33.587  1.00  0.00    -0.248 NA
ATOM     54  C   UNL A   1      41.731  30.241  35.788  1.00  0.00     0.031 C 
ATOM     55  C   UNL A   1      44.496  26.614  31.778  1.00  0.00     0.029 A 
ATOM     56  C   UNL A   1      43.598  27.488  32.370  1.00  0.00     0.049 A 
ATOM     57  H   UNL A   1      41.857  28.359  31.557  1.00  0.00     0.167 HD
ATOM     58  C   UNL A   1      42.718  28.905  34.207  1.00  0.00     0.074 A 
ATOM     59  C   UNL A   1      42.755  29.432  35.556  1.00  0.00     0.031 C 
ATOM     60  C   UNL A   1      43.619  28.025  33.706  1.00  0.00     0.037 A 
BRANCH  47  61
ATOM     61  C   UNL A   1      42.519  26.314  27.876  1.00  0.00     0.064 A 
ATOM     62  C   UNL A   1      43.478  26.769  26.957  1.00  0.00     0.173 A 
ATOM     63  C   UNL A   1      41.975  25.036  27.681  1.00  0.00     0.173 A 
ATOM     64  F   UNL A   1      44.015  27.990  27.092  1.00  0.00    -0.203 F 
ATOM     65  C   UNL A   1      43.861  25.979  25.876  1.00  0.00     0.198 A 
ATOM     66  C   UNL A   1      42.377  24.241  26.612  1.00  0.00     0.198 A 
ATOM     67  F   UNL A   1      41.057  24.556  28.533  1.00  0.00    -0.203 F 
ATOM     68  F   UNL A   1      44.750  26.447  24.989  1.00  0.00    -0.200 F 
ATOM     69  C   UNL A   1      43.315  24.715  25.708  1.00  0.00     0.200 A 
ATOM     70  F   UNL A   1      41.856  23.016  26.455  1.00  0.00    -0.200 F 
ATOM     71  F   UNL A   1      43.690  23.955  24.668  1.00  0.00    -0.200 F 
ENDBRANCH  47  61
BRANCH  48  72
ATOM     72  C   UNL A   1      39.337  31.906  35.511  1.00  0.00     0.064 A 
ATOM     73  C   UNL A   1      38.470  31.354  36.461  1.00  0.00     0.173 A 
ATOM     74  C   UNL A   1      39.731  33.242  35.681  1.00  0.00     0.173 A 
ATOM     75  F   UNL A   1      38.049  30.087  36.327  1.00  0.00    -0.203 F 
ATOM     76  C   UNL A   1      38.005  32.110  37.535  1.00  0.00     0.198 A 
ATOM     77  C   UNL A   1      39.286  33.990  36.769  1.00  0.00     0.198 A 
ATOM     78  F   UNL A   1      40.558  33.816  34.796  1.00  0.00    -0.203 F 
ATOM     79  F   UNL A   1      37.146  31.569  38.410  1.00  0.00    -0.200 F 
ATOM     80  C   UNL A   1      38.419  33.425  37.692  1.00  0.00     0.200 A 
ATOM     81  F   UNL A   1      39.695  35.256  36.921  1.00  0.00    -0.200 F 
ATOM     82  F   UNL A   1      37.974  34.150  38.726  1.00  0.00    -0.200 F 
ENDBRANCH  48  72
BRANCH  60  83
ATOM     83  C   UNL A   1      44.733  27.597  34.613  1.00  0.00     0.064 A 
ATOM     84  C   UNL A   1      45.925  28.331  34.704  1.00  0.00     0.173 A 
ATOM     85  C   UNL A   1      44.592  26.464  35.427  1.00  0.00     0.173 A 
ATOM     86  F   UNL A   1      46.112  29.412  33.932  1.00  0.00    -0.203 F 
ATOM     87  C   UNL A   1      46.942  27.934  35.567  1.00  0.00     0.198 A 
ATOM     88  C   UNL A   1      45.602  26.084  36.305  1.00  0.00     0.198 A 
ATOM     89  F   UNL A   1      43.468  25.733  35.378  1.00  0.00    -0.203 F 
ATOM     90  F   UNL A   1      48.088  28.628  35.612  1.00  0.00    -0.200 F 
ATOM     91  C   UNL A   1      46.777  26.815  36.371  1.00  0.00     0.200 A 
ATOM     92  F   UNL A   1      45.438  25.007  37.087  1.00  0.00    -0.200 F 
ATOM     93  F   UNL A   1      47.757  26.438  37.204  1.00  0.00    -0.200 F 
ENDBRANCH  60  83
ENDBRANCH  34  35
ENDBRANCH  27  29
ENDBRANCH  26  27
ENDBRANCH  25  26
ENDBRANCH   1  25
TORSDOF 13
ENDMDL
MODEL 2
REMARK VINA RESULT:     -12.8      0.212      1.605
REMARK SMILES CC1(C)S[C@H](c2ccc(-c3ccccc3)o2)[NH2+][C@H]1C(=O)OCCOC(=O)c1ccc(-c2c3nc(c(-c4c(F)c(F)c(F)c(F)c4F)c4ccc([nH]4)c(-c4c(F)c(F)c(F)c(F)c4F)c4nc(c(-c5c(F)c(F)c(F)c(F)c5F)c5ccc2[nH]5)C=C4)C=C3)cc1
REMARK SMILES IDX 22 1 21 2 19 3 20 4 18 5 1 6 2 7 3 8 4 9 5 10 17 11 6 14
REMARK SMILES IDX 7 15 16 16 8 17 9 18 10 19 11 20 15 21 12 22 14 23 13 24
REMARK SMILES IDX 23 25 24 26 25 27 26 28 27 29 28 30 89 31 29 32 88 33 30 34
REMARK SMILES IDX 31 35 32 36 82 37 33 38 87 39 81 40 83 41 34 42 86 43 80 44
REMARK SMILES IDX 79 45 35 47 67 48 47 49 66 50 48 51 51 52 65 53 84 54 49 55
REMARK SMILES IDX 50 56 64 58 85 59 52 60 36 61 37 62 45 63 38 64 39 65 43 66
REMARK SMILES IDX 46 67 40 68 41 69 44 70 42 71 68 72 69 73 77 74 70 75 71 76
REMARK SMILES IDX 75 77 78 78 72 79 73 80 76 81 74 82 53 83 54 84 62 85 55 86
REMARK SMILES IDX 56 87 60 88 63 89 57 90 58 91 61 92 59 93
REMARK H PARENT 17 12 17 13 83 46 51 57
REMARK Flexibility Score: inf
ROOT
ATOM      1  C   UNL A   1      31.788  28.486  27.141  1.00  0.00     0.274 C 
ENDROOT
BRANCH   1   2
ATOM      2  O   UNL A   1      32.184  27.622  26.055  1.00  0.00    -0.458 OA
BRANCH   2   3
ATOM      3  C   UNL A   1      31.495  26.460  25.926  1.00  0.00     0.366 C 
ATOM      4  O   UNL A   1      30.432  26.237  26.498  1.00  0.00    -0.245 OA
BRANCH   3   5
ATOM      5  C   UNL A   1      32.197  25.405  25.047  1.00  0.00     0.310 C 
ATOM      6  C   UNL A   1      31.603  26.536  22.739  1.00  0.00     0.030 C 
ATOM      7  C   UNL A   1      31.797  25.256  23.556  1.00  0.00     0.079 C 
ATOM      8  C   UNL A   1      30.598  24.323  23.375  1.00  0.00     0.030 C 
ATOM      9  S   UNL A   1      33.263  24.413  22.826  1.00  0.00    -0.078 SA
ATOM     10  C   UNL A   1      34.278  24.546  24.326  1.00  0.00     0.311 C 
ATOM     11  N   UNL A   1      33.670  25.592  25.149  1.00  0.00    -0.316 N 
ATOM     12  H   UNL A   1      33.933  26.513  24.800  1.00  0.00     0.348 HD
ATOM     13  H   UNL A   1      33.984  25.531  26.118  1.00  0.00     0.348 HD
BRANCH  10  14
ATOM     14  C   UNL A   1      34.443  23.192  24.962  1.00  0.00     0.172 A 
ATOM     15  C   UNL A   1      34.862  22.847  26.235  1.00  0.00     0.054 A 
ATOM     16  O   UNL A   1      34.135  22.050  24.259  1.00  0.00    -0.454 OA
ATOM     17  C   UNL A   1      34.784  21.442  26.329  1.00  0.00     0.051 A 
ATOM     18  C   UNL A   1      34.327  20.994  25.109  1.00  0.00     0.134 A 
BRANCH  18  19
ATOM     19  C   UNL A   1      34.006  19.661  24.626  1.00  0.00     0.017 A 
ATOM     20  C   UNL A   1      32.764  19.374  24.049  1.00  0.00     0.012 A 
ATOM     21  C   UNL A   1      34.996  18.667  24.632  1.00  0.00     0.012 A 
ATOM     22  C   UNL A   1      32.526  18.123  23.469  1.00  0.00     0.001 A 
ATOM     23  C   UNL A   1      34.754  17.413  24.065  1.00  0.00     0.001 A 
ATOM     24  C   UNL A   1      33.520  17.145  23.476  1.00  0.00     0.000 A 
ENDBRANCH  18  19
ENDBRANCH  10  14
ENDBRANCH   3   5
ENDBRANCH   2   3
ENDBRANCH   1   2
BRANCH   1  25
ATOM     25  C   UNL A   1      31.765  29.959  26.728  1.00  0.00     0.275 C 
BRANCH  25  26
ATOM     26  O   UNL A   1      33.087  30.430  26.412  1.00  0.00    -0.458 OA
BRANCH  26  27
ATOM     27  C   UNL A   1      33.512  31.496  27.125  1.00  0.00     0.338 C 
ATOM     28  O   UNL A   1      32.934  32.554  27.298  1.00  0.00    -0.246 OA
BRANCH  27  29
ATOM     29  C   UNL A   1      34.782  31.164  27.784  1.00  0.00     0.060 A 
ATOM     30  C   UNL A   1      34.966  29.868  28.273  1.00  0.00     0.016 A 
ATOM     31  C   UNL A   1      35.746  32.146  28.004  1.00  0.00     0.016 A 
ATOM     32  C   UNL A   1      36.111  29.544  28.989  1.00  0.00     0.010 A 
ATOM     33  C   UNL A   1      36.907  31.815  28.709  1.00  0.00     0.010 A 
ATOM     34  C   UNL A   1      37.092  30.514  29.212  1.00  0.00    -0.014 A 
BRANCH  34  35
ATOM     35  C   UNL A   1      38.295  30.172  30.003  1.00  0.00     0.031 A 
ATOM     36  C   UNL A   1      39.326  29.248  29.429  1.00  0.00     0.074 A 
ATOM     37  C   UNL A   1      38.463  30.704  31.226  1.00  0.00     0.049 A 
ATOM     38  N   UNL A   1      40.377  28.721  30.003  1.00  0.00    -0.248 NA
ATOM     39  C   UNL A   1      39.151  28.864  28.020  1.00  0.00     0.031 C 
ATOM     40  C   UNL A   1      37.557  31.660  31.864  1.00  0.00     0.029 A 
ATOM     41  N   UNL A   1      39.452  30.507  32.156  1.00  0.00    -0.354 N 
ATOM     42  C   UNL A   1      40.972  27.921  29.038  1.00  0.00     0.074 A 
ATOM     43  C   UNL A   1      40.164  28.028  27.841  1.00  0.00     0.031 C 
ATOM     44  C   UNL A   1      38.028  31.960  33.085  1.00  0.00     0.029 A 
ATOM     45  C   UNL A   1      39.238  31.179  33.332  1.00  0.00     0.049 A 
ATOM     46  H   UNL A   1      40.241  29.939  31.994  1.00  0.00     0.167 HD
ATOM     47  C   UNL A   1      42.090  27.165  29.147  1.00  0.00     0.037 A 
ATOM     48  C   UNL A   1      39.919  31.138  34.493  1.00  0.00     0.037 A 
ATOM     49  C   UNL A   1      42.899  27.080  30.333  1.00  0.00     0.049 A 
ATOM     50  C   UNL A   1      41.125  30.247  34.606  1.00  0.00     0.074 A 
ATOM     51  C   UNL A   1      44.055  26.347  30.542  1.00  0.00     0.029 A 
ATOM     52  N   UNL A   1      42.636  27.757  31.515  1.00  0.00    -0.354 N 
ATOM     53  N   UNL A   1      41.666  29.470  33.699  1.00  0.00    -0.248 NA
ATOM     54  C   UNL A   1      41.806  30.216  35.908  1.00  0.00     0.031 C 
ATOM     55  C   UNL A   1      44.472  26.555  31.861  1.00  0.00     0.029 A 
ATOM     56  C   UNL A   1      43.598  27.446  32.463  1.00  0.00     0.049 A 
ATOM     57  H   UNL A   1      41.878  28.368  31.660  1.00  0.00     0.167 HD
ATOM     58  C   UNL A   1      42.756  28.869  34.314  1.00  0.00     0.074 A 
ATOM     59  C   UNL A   1      42.809  29.384  35.667  1.00  0.00     0.031 C 
ATOM     60  C   UNL A   1      43.634  27.971  33.803  1.00  0.00     0.037 A 
BRANCH  47  61
ATOM     61  C   UNL A   1      42.483  26.340  27.960  1.00  0.00     0.064 A 
ATOM     62  C   UNL A   1      41.915  25.080  27.715  1.00  0.00     0.173 A 
ATOM     63  C   UNL A   1      43.418  26.831  27.036  1.00  0.00     0.173 A 
ATOM     64  F   UNL A   1      41.029  24.561  28.578  1.00  0.00    -0.203 F 
ATOM     65  C   UNL A   1      42.285  24.336  26.597  1.00  0.00     0.198 A 
ATOM     66  C   UNL A   1      43.767  26.093  25.909  1.00  0.00     0.198 A 
ATOM     67  F   UNL A   1      43.987  28.031  27.225  1.00  0.00    -0.203 F 
ATOM     68  F   UNL A   1      41.758  23.118  26.402  1.00  0.00    -0.200 F 
ATOM     69  C   UNL A   1      43.205  24.845  25.693  1.00  0.00     0.200 A 
ATOM     70  F   UNL A   1      44.650  26.591  25.031  1.00  0.00    -0.200 F 
ATOM     71  F   UNL A   1      43.554  24.128  24.615  1.00  0.00    -0.200 F 
ENDBRANCH  47  61
BRANCH  48  72
ATOM     72  C   UNL A   1      39.454  31.944  35.648  1.00  0.00     0.064 A 
ATOM     73  C   UNL A   1      39.931  33.243  35.861  1.00  0.00     0.173 A 
ATOM     74  C   UNL A   1      38.520  31.431  36.561  1.00  0.00     0.173 A 
ATOM     75  F   UNL A   1      40.841  33.766  35.026  1.00  0.00    -0.203 F 
ATOM     76  C   UNL A   1      39.501  33.997  36.951  1.00  0.00     0.198 A 
ATOM     77  C   UNL A   1      38.072  32.195  37.637  1.00  0.00     0.198 A 
ATOM     78  F   UNL A   1      38.035  30.191  36.402  1.00  0.00    -0.203 F 
ATOM     79  F   UNL A   1      40.002  35.223  37.152  1.00  0.00    -0.200 F 
ATOM     80  C   UNL A   1      38.567  33.475  37.834  1.00  0.00     0.200 A 
ATOM     81  F   UNL A   1      37.163  31.690  38.482  1.00  0.00    -0.200 F 
ATOM     82  F   UNL A   1      38.152  34.202  38.879  1.00  0.00    -0.200 F 
ENDBRANCH  48  72
BRANCH  60  83
ATOM     83  C   UNL A   1      44.739  27.507  34.704  1.00  0.00     0.064 A 
ATOM     84  C   UNL A   1      45.947  28.212  34.802  1.00  0.00     0.173 A 
ATOM     85  C   UNL A   1      44.570  26.369  35.506  1.00  0.00     0.173 A 
ATOM     86  F   UNL A   1      46.159  29.297  34.042  1.00  0.00    -0.203 F 
ATOM     87  C   UNL A   1      46.955  27.782  35.660  1.00  0.00     0.198 A 
ATOM     88  C   UNL A   1      45.572  25.956  36.380  1.00  0.00     0.198 A 
ATOM     89  F   UNL A   1      43.430  25.666  35.450  1.00  0.00    -0.203 F 
ATOM     90  F   UNL A   1      48.117  28.448  35.711  1.00  0.00    -0.200 F 
ATOM     91  C   UNL A   1      46.764  26.659  36.452  1.00  0.00     0.200 A 
ATOM     92  F   UNL A   1      45.383  24.876  37.151  1.00  0.00    -0.200 F 
ATOM     93  F   UNL A   1      47.736  26.249  37.281  1.00  0.00    -0.200 F 
ENDBRANCH  60  83
ENDBRANCH  34  35
ENDBRANCH  27  29
ENDBRANCH  26  27
ENDBRANCH  25  26
ENDBRANCH   1  25
TORSDOF 13
ENDMDL
MODEL 3
REMARK VINA RESULT:     -12.6      2.208      4.654
REMARK SMILES CC1(C)S[C@H](c2ccc(-c3ccccc3)o2)[NH2+][C@H]1C(=O)OCCOC(=O)c1ccc(-c2c3nc(c(-c4c(F)c(F)c(F)c(F)c4F)c4ccc([nH]4)c(-c4c(F)c(F)c(F)c(F)c4F)c4nc(c(-c5c(F)c(F)c(F)c(F)c5F)c5ccc2[nH]5)C=C4)C=C3)cc1
REMARK SMILES IDX 22 1 21 2 19 3 20 4 18 5 1 6 2 7 3 8 4 9 5 10 17 11 6 14
REMARK SMILES IDX 7 15 16 16 8 17 9 18 10 19 11 20 15 21 12 22 14 23 13 24
REMARK SMILES IDX 23 25 24 26 25 27 26 28 27 29 28 30 89 31 29 32 88 33 30 34
REMARK SMILES IDX 31 35 32 36 82 37 33 38 87 39 81 40 83 41 34 42 86 43 80 44
REMARK SMILES IDX 79 45 35 47 67 48 47 49 66 50 48 51 51 52 65 53 84 54 49 55
REMARK SMILES IDX 50 56 64 58 85 59 52 60 36 61 37 62 45 63 38 64 39 65 43 66
REMARK SMILES IDX 46 67 40 68 41 69 44 70 42 71 68 72 69 73 77 74 70 75 71 76
REMARK SMILES IDX 75 77 78 78 72 79 73 80 76 81 74 82 53 83 54 84 62 85 55 86
REMARK SMILES IDX 56 87 60 88 63 89 57 90 58 91 61 92 59 93
REMARK H PARENT 17 12 17 13 83 46 51 57
REMARK Flexibility Score: inf
ROOT
ATOM      1  C   UNL A   1      32.377  29.659  24.955  1.00  0.00     0.274 C 
ENDROOT
BRANCH   1   2
ATOM      2  O   UNL A   1      33.496  28.895  25.454  1.00  0.00    -0.458 OA
BRANCH   2   3
ATOM      3  C   UNL A   1      33.336  27.548  25.491  1.00  0.00     0.366 C 
ATOM      4  O   UNL A   1      33.997  26.807  26.213  1.00  0.00    -0.245 OA
BRANCH   3   5
ATOM      5  C   UNL A   1      32.292  27.010  24.490  1.00  0.00     0.310 C 
ATOM      6  C   UNL A   1      33.842  25.141  23.459  1.00  0.00     0.030 C 
ATOM      7  C   UNL A   1      32.758  26.203  23.251  1.00  0.00     0.079 C 
ATOM      8  C   UNL A   1      33.126  27.115  22.078  1.00  0.00     0.030 C 
ATOM      9  S   UNL A   1      31.238  25.280  22.774  1.00  0.00    -0.078 SA
ATOM     10  C   UNL A   1      30.289  25.780  24.240  1.00  0.00     0.311 C 
ATOM     11  N   UNL A   1      31.265  26.231  25.233  1.00  0.00    -0.316 N 
ATOM     12  H   UNL A   1      31.696  25.430  25.694  1.00  0.00     0.348 HD
ATOM     13  H   UNL A   1      30.822  26.798  25.957  1.00  0.00     0.348 HD
BRANCH  10  14
ATOM     14  C   UNL A   1      29.214  26.759  23.853  1.00  0.00     0.172 A 
ATOM     15  C   UNL A   1      27.837  26.662  23.958  1.00  0.00     0.054 A 
ATOM     16  O   UNL A   1      29.544  27.983  23.318  1.00  0.00    -0.454 OA
ATOM     17  C   UNL A   1      27.301  27.882  23.497  1.00  0.00     0.051 A 
ATOM     18  C   UNL A   1      28.373  28.664  23.126  1.00  0.00     0.134 A 
BRANCH  18  19
ATOM     19  C   UNL A   1      28.450  30.026  22.624  1.00  0.00     0.017 A 
ATOM     20  C   UNL A   1      28.086  30.341  21.310  1.00  0.00     0.012 A 
ATOM     21  C   UNL A   1      28.786  31.068  23.502  1.00  0.00     0.012 A 
ATOM     22  C   UNL A   1      28.038  31.675  20.890  1.00  0.00     0.001 A 
ATOM     23  C   UNL A   1      28.751  32.399  23.079  1.00  0.00     0.001 A 
ATOM     24  C   UNL A   1      28.369  32.702  21.773  1.00  0.00     0.000 A 
ENDBRANCH  18  19
ENDBRANCH  10  14
ENDBRANCH   3   5
ENDBRANCH   2   3
ENDBRANCH   1   2
BRANCH   1  25
ATOM     25  C   UNL A   1      31.797  30.594  26.020  1.00  0.00     0.275 C 
BRANCH  25  26
ATOM     26  O   UNL A   1      32.609  30.596  27.207  1.00  0.00    -0.458 OA
BRANCH  26  27
ATOM     27  C   UNL A   1      33.330  31.721  27.417  1.00  0.00     0.338 C 
ATOM     28  O   UNL A   1      32.985  32.873  27.224  1.00  0.00    -0.246 OA
BRANCH  27  29
ATOM     29  C   UNL A   1      34.614  31.365  28.035  1.00  0.00     0.060 A 
ATOM     30  C   UNL A   1      34.784  30.071  28.533  1.00  0.00     0.016 A 
ATOM     31  C   UNL A   1      35.608  32.326  28.209  1.00  0.00     0.016 A 
ATOM     32  C   UNL A   1      35.945  29.727  29.213  1.00  0.00     0.010 A 
ATOM     33  C   UNL A   1      36.785  31.975  28.877  1.00  0.00     0.010 A 
ATOM     34  C   UNL A   1      36.957  30.676  29.389  1.00  0.00    -0.014 A 
BRANCH  34  35
ATOM     35  C   UNL A   1      38.178  30.314  30.141  1.00  0.00     0.031 A 
ATOM     36  C   UNL A   1      39.182  29.385  29.529  1.00  0.00     0.074 A 
ATOM     37  C   UNL A   1      38.387  30.832  31.365  1.00  0.00     0.049 A 
ATOM     38  N   UNL A   1      40.244  28.841  30.068  1.00  0.00    -0.248 NA
ATOM     39  C   UNL A   1      38.962  29.016  28.122  1.00  0.00     0.031 C 
ATOM     40  C   UNL A   1      37.510  31.791  32.037  1.00  0.00     0.029 A 
ATOM     41  N   UNL A   1      39.401  30.616  32.263  1.00  0.00    -0.354 N 
ATOM     42  C   UNL A   1      40.802  28.045  29.078  1.00  0.00     0.074 A 
ATOM     43  C   UNL A   1      39.961  28.172  27.906  1.00  0.00     0.031 C 
ATOM     44  C   UNL A   1      38.019  32.074  33.247  1.00  0.00     0.029 A 
ATOM     45  C   UNL A   1      39.227  31.278  33.452  1.00  0.00     0.049 A 
ATOM     46  H   UNL A   1      40.178  30.041  32.073  1.00  0.00     0.167 HD
ATOM     47  C   UNL A   1      41.915  27.276  29.147  1.00  0.00     0.037 A 
ATOM     48  C   UNL A   1      39.941  31.219  34.591  1.00  0.00     0.037 A 
ATOM     49  C   UNL A   1      42.757  27.172  30.309  1.00  0.00     0.049 A 
ATOM     50  C   UNL A   1      41.140  30.314  34.661  1.00  0.00     0.074 A 
ATOM     51  C   UNL A   1      43.910  26.425  30.477  1.00  0.00     0.029 A 
ATOM     52  N   UNL A   1      42.535  27.839  31.505  1.00  0.00    -0.354 N 
ATOM     53  N   UNL A   1      41.647  29.540  33.732  1.00  0.00    -0.248 NA
ATOM     54  C   UNL A   1      41.858  30.263  35.942  1.00  0.00     0.031 C 
ATOM     55  C   UNL A   1      44.367  26.615  31.786  1.00  0.00     0.029 A 
ATOM     56  C   UNL A   1      43.521  27.509  32.421  1.00  0.00     0.049 A 
ATOM     57  H   UNL A   1      41.788  28.456  31.677  1.00  0.00     0.167 HD
ATOM     58  C   UNL A   1      42.748  28.923  34.308  1.00  0.00     0.074 A 
ATOM     59  C   UNL A   1      42.845  29.423  35.664  1.00  0.00     0.031 C 
ATOM     60  C   UNL A   1      43.601  28.020  33.765  1.00  0.00     0.037 A 
BRANCH  47  61
ATOM     61  C   UNL A   1      42.265  26.458  27.941  1.00  0.00     0.064 A 
ATOM     62  C   UNL A   1      43.204  26.900  26.997  1.00  0.00     0.173 A 
ATOM     63  C   UNL A   1      41.676  25.200  27.746  1.00  0.00     0.173 A 
ATOM     64  F   UNL A   1      43.782  28.103  27.132  1.00  0.00    -0.203 F 
ATOM     65  C   UNL A   1      43.526  26.117  25.891  1.00  0.00     0.198 A 
ATOM     66  C   UNL A   1      42.017  24.412  26.651  1.00  0.00     0.198 A 
ATOM     67  F   UNL A   1      40.774  24.733  28.623  1.00  0.00    -0.203 F 
ATOM     68  F   UNL A   1      44.397  26.574  24.981  1.00  0.00    -0.200 F 
ATOM     69  C   UNL A   1      42.937  24.873  25.723  1.00  0.00     0.200 A 
ATOM     70  F   UNL A   1      41.454  23.205  26.494  1.00  0.00    -0.200 F 
ATOM     71  F   UNL A   1      43.253  24.119  24.659  1.00  0.00    -0.200 F 
ENDBRANCH  47  61
BRANCH  48  72
ATOM     72  C   UNL A   1      39.518  32.017  35.768  1.00  0.00     0.064 A 
ATOM     73  C   UNL A   1      40.119  33.248  36.057  1.00  0.00     0.173 A 
ATOM     74  C   UNL A   1      38.502  31.567  36.623  1.00  0.00     0.173 A 
ATOM     75  F   UNL A   1      41.111  33.709  35.279  1.00  0.00    -0.203 F 
ATOM     76  C   UNL A   1      39.729  33.995  37.167  1.00  0.00     0.198 A 
ATOM     77  C   UNL A   1      38.094  32.326  37.718  1.00  0.00     0.198 A 
ATOM     78  F   UNL A   1      37.897  30.394  36.389  1.00  0.00    -0.203 F 
ATOM     79  F   UNL A   1      40.347  35.152  37.443  1.00  0.00    -0.200 F 
ATOM     80  C   UNL A   1      38.712  33.537  37.992  1.00  0.00     0.200 A 
ATOM     81  F   UNL A   1      37.106  31.884  38.507  1.00  0.00    -0.200 F 
ATOM     82  F   UNL A   1      38.335  34.258  39.056  1.00  0.00    -0.200 F 
ENDBRANCH  48  72
BRANCH  60  83
ATOM     83  C   UNL A   1      44.726  27.537  34.628  1.00  0.00     0.064 A 
ATOM     84  C   UNL A   1      44.612  26.366  35.392  1.00  0.00     0.173 A 
ATOM     85  C   UNL A   1      45.945  28.230  34.661  1.00  0.00     0.173 A 
ATOM     86  F   UNL A   1      43.460  25.679  35.404  1.00  0.00    -0.203 F 
ATOM     87  C   UNL A   1      45.673  25.917  36.172  1.00  0.00     0.198 A 
ATOM     88  C   UNL A   1      47.012  27.765  35.424  1.00  0.00     0.198 A 
ATOM     89  F   UNL A   1      46.103  29.352  33.944  1.00  0.00    -0.203 F 
ATOM     90  F   UNL A   1      45.530  24.816  36.923  1.00  0.00    -0.200 F 
ATOM     91  C   UNL A   1      46.874  26.613  36.182  1.00  0.00     0.200 A 
ATOM     92  F   UNL A   1      48.174  28.434  35.427  1.00  0.00    -0.200 F 
ATOM     93  F   UNL A   1      47.896  26.175  36.931  1.00  0.00    -0.200 F 
ENDBRANCH  60  83
ENDBRANCH  34  35
ENDBRANCH  27  29
ENDBRANCH  26  27
ENDBRANCH  25  26
ENDBRANCH   1  25
TORSDOF 13
ENDMDL
