MODEL 1
REMARK VINA RESULT:     -14.5      0.000      0.000
REMARK SMILES O=C(OCCOC(=O)[C@H]1Cc2c([nH]c3ccccc23)[C@H](c2c[nH]c3ccccc23)[NH2+]1)c1ccc(-c2c3nc(c(-c4c(F)c(F)c(F)c(F)c4F)c4ccc([nH]4)c(-c4c(F)c(F)c(F)c(F)c4F)c4nc(c(-c5c(F)c(F)c(F)c(F)c5F)c5ccc2[nH]5)C=C4)C=C3)cc1
REMARK SMILES IDX 4 1 3 2 2 3 1 4 31 5 32 6 93 7 33 8 92 9 34 10 35 11 36 12
REMARK SMILES IDX 86 13 37 14 91 15 85 16 87 17 38 18 90 19 84 20 83 21 39 23
REMARK SMILES IDX 71 24 51 25 70 26 52 27 55 28 69 29 88 30 53 31 54 32 68 34
REMARK SMILES IDX 89 35 56 36 40 37 41 38 49 39 42 40 43 41 47 42 50 43 44 44
REMARK SMILES IDX 45 45 48 46 46 47 72 48 73 49 81 50 74 51 75 52 79 53 82 54
REMARK SMILES IDX 76 55 77 56 80 57 78 58 57 59 58 60 66 61 59 62 60 63 64 64
REMARK SMILES IDX 67 65 61 66 62 67 65 68 63 69 5 70 6 71 7 72 8 73 9 74 10 75
REMARK SMILES IDX 30 76 11 77 20 78 12 81 19 82 13 83 14 84 18 85 15 87 17 88
REMARK SMILES IDX 16 89 21 90 22 91 29 92 23 93 24 94 28 95 25 97 27 98 26 99
REMARK H PARENT 87 22 55 33 30 79 30 80 13 86 23 96
REMARK Flexibility Score: inf
ROOT
ATOM      1  C   UNL A   1      41.829  21.172  26.126  1.00  0.00     0.275 C 
ENDROOT
BRANCH   1   2
ATOM      2  O   UNL A   1      41.997  22.330  25.306  1.00  0.00    -0.458 OA
BRANCH   2   3
ATOM      3  C   UNL A   1      42.951  23.283  25.366  1.00  0.00     0.338 C 
ATOM      4  O   UNL A   1      43.855  23.234  24.531  1.00  0.00    -0.246 OA
BRANCH   3   5
ATOM      5  C   UNL A   1      43.061  24.325  26.450  1.00  0.00     0.060 A 
ATOM      6  C   UNL A   1      43.659  25.591  26.384  1.00  0.00     0.016 A 
ATOM      7  C   UNL A   1      42.332  24.036  27.607  1.00  0.00     0.016 A 
ATOM      8  C   UNL A   1      43.367  26.599  27.321  1.00  0.00     0.010 A 
ATOM      9  C   UNL A   1      42.001  25.052  28.502  1.00  0.00     0.010 A 
ATOM     10  C   UNL A   1      42.461  26.370  28.350  1.00  0.00    -0.014 A 
BRANCH  10  11
ATOM     11  C   UNL A   1      42.017  27.424  29.314  1.00  0.00     0.031 A 
ATOM     12  C   UNL A   1      42.593  27.388  30.706  1.00  0.00     0.074 A 
ATOM     13  C   UNL A   1      41.058  28.336  29.029  1.00  0.00     0.049 A 
ATOM     14  N   UNL A   1      42.222  28.028  31.785  1.00  0.00    -0.248 NA
ATOM     15  C   UNL A   1      43.731  26.473  30.918  1.00  0.00     0.031 C 
ATOM     16  C   UNL A   1      40.393  28.524  27.739  1.00  0.00     0.029 A 
ATOM     17  N   UNL A   1      40.424  29.254  29.846  1.00  0.00    -0.354 N 
ATOM     18  C   UNL A   1      43.070  27.573  32.783  1.00  0.00     0.074 A 
ATOM     19  C   UNL A   1      43.857  26.497  32.231  1.00  0.00     0.031 C 
ATOM     20  C   UNL A   1      39.416  29.443  27.866  1.00  0.00     0.029 A 
ATOM     21  C   UNL A   1      39.352  29.884  29.251  1.00  0.00     0.049 A 
ATOM     22  H   UNL A   1      40.711  29.440  30.770  1.00  0.00     0.167 HD
ATOM     23  C   UNL A   1      43.270  28.079  34.019  1.00  0.00     0.037 A 
ATOM     24  C   UNL A   1      38.400  30.686  29.772  1.00  0.00     0.037 A 
ATOM     25  C   UNL A   1      42.558  29.205  34.542  1.00  0.00     0.049 A 
ATOM     26  C   UNL A   1      38.523  31.129  31.206  1.00  0.00     0.074 A 
ATOM     27  C   UNL A   1      42.788  29.902  35.712  1.00  0.00     0.029 A 
ATOM     28  N   UNL A   1      41.476  29.800  33.916  1.00  0.00    -0.354 N 
ATOM     29  N   UNL A   1      39.417  30.787  32.098  1.00  0.00    -0.248 NA
ATOM     30  C   UNL A   1      37.536  32.106  31.691  1.00  0.00     0.031 C 
ATOM     31  C   UNL A   1      41.806  30.889  35.823  1.00  0.00     0.029 A 
ATOM     32  C   UNL A   1      40.995  30.832  34.700  1.00  0.00     0.049 A 
ATOM     33  H   UNL A   1      41.104  29.528  33.046  1.00  0.00     0.167 HD
ATOM     34  C   UNL A   1      39.158  31.570  33.214  1.00  0.00     0.074 A 
ATOM     35  C   UNL A   1      37.996  32.372  32.905  1.00  0.00     0.031 C 
ATOM     36  C   UNL A   1      39.853  31.642  34.374  1.00  0.00     0.037 A 
BRANCH  23  37
ATOM     37  C   UNL A   1      44.364  27.464  34.835  1.00  0.00     0.064 A 
ATOM     38  C   UNL A   1      45.689  27.922  34.735  1.00  0.00     0.173 A 
ATOM     39  C   UNL A   1      44.095  26.406  35.712  1.00  0.00     0.173 A 
ATOM     40  F   UNL A   1      45.997  28.923  33.894  1.00  0.00    -0.203 F 
ATOM     41  C   UNL A   1      46.712  27.311  35.449  1.00  0.00     0.198 A 
ATOM     42  C   UNL A   1      45.119  25.821  36.451  1.00  0.00     0.198 A 
ATOM     43  F   UNL A   1      42.846  25.934  35.841  1.00  0.00    -0.203 F 
ATOM     44  F   UNL A   1      47.979  27.717  35.281  1.00  0.00    -0.200 F 
ATOM     45  C   UNL A   1      46.425  26.265  36.311  1.00  0.00     0.200 A 
ATOM     46  F   UNL A   1      44.842  24.816  37.293  1.00  0.00    -0.200 F 
ATOM     47  F   UNL A   1      47.413  25.677  37.000  1.00  0.00    -0.200 F 
ENDBRANCH  23  37
BRANCH  24  48
ATOM     48  C   UNL A   1      37.210  31.112  28.983  1.00  0.00     0.064 A 
ATOM     49  C   UNL A   1      37.028  32.440  28.572  1.00  0.00     0.173 A 
ATOM     50  C   UNL A   1      36.156  30.215  28.761  1.00  0.00     0.173 A 
ATOM     51  F   UNL A   1      37.982  33.350  28.814  1.00  0.00    -0.203 F 
ATOM     52  C   UNL A   1      35.825  32.860  28.002  1.00  0.00     0.198 A 
ATOM     53  C   UNL A   1      34.962  30.628  28.168  1.00  0.00     0.198 A 
ATOM     54  F   UNL A   1      36.268  28.946  29.181  1.00  0.00    -0.203 F 
ATOM     55  F   UNL A   1      35.645  34.153  27.698  1.00  0.00    -0.200 F 
ATOM     56  C   UNL A   1      34.792  31.954  27.802  1.00  0.00     0.200 A 
ATOM     57  F   UNL A   1      33.962  29.753  27.999  1.00  0.00    -0.200 F 
ATOM     58  F   UNL A   1      33.626  32.367  27.288  1.00  0.00    -0.200 F 
ENDBRANCH  24  48
BRANCH  36  59
ATOM     59  C   UNL A   1      39.432  32.673  35.373  1.00  0.00     0.064 A 
ATOM     60  C   UNL A   1      38.527  32.379  36.401  1.00  0.00     0.173 A 
ATOM     61  C   UNL A   1      40.008  33.953  35.342  1.00  0.00     0.173 A 
ATOM     62  F   UNL A   1      37.933  31.177  36.454  1.00  0.00    -0.203 F 
ATOM     63  C   UNL A   1      38.211  33.332  37.363  1.00  0.00     0.198 A 
ATOM     64  C   UNL A   1      39.716  34.891  36.325  1.00  0.00     0.198 A 
ATOM     65  F   UNL A   1      40.880  34.280  34.376  1.00  0.00    -0.203 F 
ATOM     66  F   UNL A   1      37.318  33.045  38.319  1.00  0.00    -0.200 F 
ATOM     67  C   UNL A   1      38.816  34.581  37.334  1.00  0.00     0.200 A 
ATOM     68  F   UNL A   1      40.315  36.089  36.303  1.00  0.00    -0.200 F 
ATOM     69  F   UNL A   1      38.529  35.489  38.276  1.00  0.00    -0.200 F 
ENDBRANCH  36  59
ENDBRANCH  10  11
ENDBRANCH   3   5
ENDBRANCH   2   3
ENDBRANCH   1   2
BRANCH   1  70
ATOM     70  C   UNL A   1      40.416  21.007  26.703  1.00  0.00     0.274 C 
BRANCH  70  71
ATOM     71  O   UNL A   1      39.334  21.136  25.752  1.00  0.00    -0.458 OA
BRANCH  71  72
ATOM     72  C   UNL A   1      38.498  22.204  25.921  1.00  0.00     0.365 C 
ATOM     73  O   UNL A   1      38.831  23.238  26.501  1.00  0.00    -0.245 OA
BRANCH  72  74
ATOM     74  C   UNL A   1      37.055  21.968  25.415  1.00  0.00     0.298 C 
ATOM     75  C   UNL A   1      36.811  20.507  24.977  1.00  0.00     0.115 C 
ATOM     76  N   UNL A   1      36.073  22.520  26.403  1.00  0.00    -0.323 N 
ATOM     77  C   UNL A   1      35.362  20.139  25.001  1.00  0.00    -0.006 A 
ATOM     78  C   UNL A   1      34.682  22.436  25.930  1.00  0.00     0.264 C 
ATOM     79  H   UNL A   1      36.300  23.500  26.577  1.00  0.00     0.347 HD
ATOM     80  H   UNL A   1      36.143  21.961  27.253  1.00  0.00     0.347 HD
ATOM     81  C   UNL A   1      34.426  21.036  25.471  1.00  0.00     0.083 A 
ATOM     82  C   UNL A   1      34.677  18.915  24.717  1.00  0.00     0.003 A 
ATOM     83  N   UNL A   1      33.217  20.398  25.528  1.00  0.00    -0.353 N 
ATOM     84  C   UNL A   1      33.348  19.093  25.114  1.00  0.00     0.046 A 
ATOM     85  C   UNL A   1      35.053  17.645  24.228  1.00  0.00     0.010 A 
ATOM     86  H   UNL A   1      32.374  20.813  25.823  1.00  0.00     0.166 HD
ATOM     87  C   UNL A   1      32.397  18.064  25.089  1.00  0.00     0.026 A 
ATOM     88  C   UNL A   1      34.118  16.598  24.216  1.00  0.00     0.001 A 
ATOM     89  C   UNL A   1      32.811  16.806  24.650  1.00  0.00     0.002 A 
BRANCH  78  90
ATOM     90  C   UNL A   1      34.308  23.466  24.883  1.00  0.00     0.041 A 
ATOM     91  C   UNL A   1      34.254  23.168  23.526  1.00  0.00     0.093 A 
ATOM     92  C   UNL A   1      33.958  24.866  24.986  1.00  0.00     0.009 A 
ATOM     93  N   UNL A   1      33.980  24.304  22.826  1.00  0.00    -0.361 N 
ATOM     94  C   UNL A   1      33.850  25.364  23.684  1.00  0.00     0.046 A 
ATOM     95  C   UNL A   1      33.768  25.792  26.040  1.00  0.00     0.011 A 
ATOM     96  H   UNL A   1      33.888  24.356  21.847  1.00  0.00     0.166 HD
ATOM     97  C   UNL A   1      33.655  26.719  23.394  1.00  0.00     0.026 A 
ATOM     98  C   UNL A   1      33.608  27.155  25.770  1.00  0.00     0.001 A 
ATOM     99  C   UNL A   1      33.568  27.611  24.462  1.00  0.00     0.002 A 
ENDBRANCH  78  90
ENDBRANCH  72  74
ENDBRANCH  71  72
ENDBRANCH  70  71
ENDBRANCH   1  70
TORSDOF 12
ENDMDL
MODEL 2
REMARK VINA RESULT:     -14.2      5.229     10.448
REMARK SMILES O=C(OCCOC(=O)[C@H]1Cc2c([nH]c3ccccc23)[C@H](c2c[nH]c3ccccc23)[NH2+]1)c1ccc(-c2c3nc(c(-c4c(F)c(F)c(F)c(F)c4F)c4ccc([nH]4)c(-c4c(F)c(F)c(F)c(F)c4F)c4nc(c(-c5c(F)c(F)c(F)c(F)c5F)c5ccc2[nH]5)C=C4)C=C3)cc1
REMARK SMILES IDX 4 1 3 2 2 3 1 4 31 5 32 6 93 7 33 8 92 9 34 10 35 11 36 12
REMARK SMILES IDX 86 13 37 14 91 15 85 16 87 17 38 18 90 19 84 20 83 21 39 23
REMARK SMILES IDX 71 24 51 25 70 26 52 27 55 28 69 29 88 30 53 31 54 32 68 34
REMARK SMILES IDX 89 35 56 36 40 37 41 38 49 39 42 40 43 41 47 42 50 43 44 44
REMARK SMILES IDX 45 45 48 46 46 47 72 48 73 49 81 50 74 51 75 52 79 53 82 54
REMARK SMILES IDX 76 55 77 56 80 57 78 58 57 59 58 60 66 61 59 62 60 63 64 64
REMARK SMILES IDX 67 65 61 66 62 67 65 68 63 69 5 70 6 71 7 72 8 73 9 74 10 75
REMARK SMILES IDX 30 76 11 77 20 78 12 81 19 82 13 83 14 84 18 85 15 87 17 88
REMARK SMILES IDX 16 89 21 90 22 91 29 92 23 93 24 94 28 95 25 97 27 98 26 99
REMARK H PARENT 87 22 55 33 30 79 30 80 13 86 23 96
REMARK Flexibility Score: inf
ROOT
ATOM      1  C   UNL A   1      34.182  33.511  29.436  1.00  0.00     0.275 C 
ENDROOT
BRANCH   1   2
ATOM      2  O   UNL A   1      34.284  32.479  30.419  1.00  0.00    -0.458 OA
BRANCH   2   3
ATOM      3  C   UNL A   1      35.127  32.385  31.468  1.00  0.00     0.338 C 
ATOM      4  O   UNL A   1      34.695  32.713  32.574  1.00  0.00    -0.246 OA
BRANCH   3   5
ATOM      5  C   UNL A   1      36.588  32.027  31.370  1.00  0.00     0.060 A 
ATOM      6  C   UNL A   1      37.394  31.391  32.323  1.00  0.00     0.016 A 
ATOM      7  C   UNL A   1      37.147  32.222  30.104  1.00  0.00     0.016 A 
ATOM      8  C   UNL A   1      38.615  30.783  31.975  1.00  0.00     0.010 A 
ATOM      9  C   UNL A   1      38.328  31.571  29.750  1.00  0.00     0.010 A 
ATOM     10  C   UNL A   1      39.059  30.789  30.659  1.00  0.00    -0.014 A 
BRANCH  10  11
ATOM     11  C   UNL A   1      40.286  30.069  30.194  1.00  0.00     0.031 A 
ATOM     12  C   UNL A   1      41.530  30.885  29.958  1.00  0.00     0.074 A 
ATOM     13  C   UNL A   1      40.301  28.752  29.881  1.00  0.00     0.049 A 
ATOM     14  N   UNL A   1      42.644  30.562  29.352  1.00  0.00    -0.248 NA
ATOM     15  C   UNL A   1      41.501  32.276  30.448  1.00  0.00     0.031 C 
ATOM     16  C   UNL A   1      39.197  27.806  30.049  1.00  0.00     0.029 A 
ATOM     17  N   UNL A   1      41.287  27.983  29.290  1.00  0.00    -0.354 N 
ATOM     18  C   UNL A   1      43.417  31.712  29.383  1.00  0.00     0.074 A 
ATOM     19  C   UNL A   1      42.599  32.775  29.911  1.00  0.00     0.031 C 
ATOM     20  C   UNL A   1      39.541  26.614  29.522  1.00  0.00     0.029 A 
ATOM     21  C   UNL A   1      40.873  26.714  28.943  1.00  0.00     0.049 A 
ATOM     22  H   UNL A   1      42.201  28.311  29.130  1.00  0.00     0.167 HD
ATOM     23  C   UNL A   1      44.733  31.855  29.110  1.00  0.00     0.037 A 
ATOM     24  C   UNL A   1      41.476  25.762  28.203  1.00  0.00     0.037 A 
ATOM     25  C   UNL A   1      45.575  30.783  28.674  1.00  0.00     0.049 A 
ATOM     26  C   UNL A   1      42.896  25.979  27.750  1.00  0.00     0.074 A 
ATOM     27  C   UNL A   1      46.947  30.773  28.523  1.00  0.00     0.029 A 
ATOM     28  N   UNL A   1      45.114  29.526  28.320  1.00  0.00    -0.354 N 
ATOM     29  N   UNL A   1      43.657  27.031  27.908  1.00  0.00    -0.248 NA
ATOM     30  C   UNL A   1      43.556  24.859  27.061  1.00  0.00     0.031 C 
ATOM     31  C   UNL A   1      47.315  29.521  28.024  1.00  0.00     0.029 A 
ATOM     32  C   UNL A   1      46.174  28.741  27.908  1.00  0.00     0.049 A 
ATOM     33  H   UNL A   1      44.174  29.236  28.357  1.00  0.00     0.167 HD
ATOM     34  C   UNL A   1      44.907  26.671  27.424  1.00  0.00     0.074 A 
ATOM     35  C   UNL A   1      44.791  25.320  26.924  1.00  0.00     0.031 C 
ATOM     36  C   UNL A   1      46.054  27.389  27.434  1.00  0.00     0.037 A 
BRANCH  23  37
ATOM     37  C   UNL A   1      45.338  33.198  29.372  1.00  0.00     0.064 A 
ATOM     38  C   UNL A   1      45.831  33.537  30.643  1.00  0.00     0.173 A 
ATOM     39  C   UNL A   1      45.416  34.158  28.356  1.00  0.00     0.173 A 
ATOM     40  F   UNL A   1      45.761  32.654  31.653  1.00  0.00    -0.203 F 
ATOM     41  C   UNL A   1      46.338  34.805  30.899  1.00  0.00     0.198 A 
ATOM     42  C   UNL A   1      45.958  35.415  28.608  1.00  0.00     0.198 A 
ATOM     43  F   UNL A   1      44.959  33.882  27.126  1.00  0.00    -0.203 F 
ATOM     44  F   UNL A   1      46.734  35.129  32.138  1.00  0.00    -0.200 F 
ATOM     45  C   UNL A   1      46.407  35.741  29.880  1.00  0.00     0.200 A 
ATOM     46  F   UNL A   1      46.034  36.318  27.622  1.00  0.00    -0.200 F 
ATOM     47  F   UNL A   1      46.897  36.964  30.127  1.00  0.00    -0.200 F 
ENDBRANCH  23  37
BRANCH  24  48
ATOM     48  C   UNL A   1      40.766  24.519  27.787  1.00  0.00     0.064 A 
ATOM     49  C   UNL A   1      41.166  23.251  28.229  1.00  0.00     0.173 A 
ATOM     50  C   UNL A   1      39.763  24.579  26.808  1.00  0.00     0.173 A 
ATOM     51  F   UNL A   1      42.161  23.139  29.120  1.00  0.00    -0.203 F 
ATOM     52  C   UNL A   1      40.614  22.090  27.685  1.00  0.00     0.198 A 
ATOM     53  C   UNL A   1      39.193  23.419  26.282  1.00  0.00     0.198 A 
ATOM     54  F   UNL A   1      39.383  25.769  26.322  1.00  0.00    -0.203 F 
ATOM     55  F   UNL A   1      41.077  20.890  28.063  1.00  0.00    -0.200 F 
ATOM     56  C   UNL A   1      39.629  22.175  26.710  1.00  0.00     0.200 A 
ATOM     57  F   UNL A   1      38.259  23.508  25.325  1.00  0.00    -0.200 F 
ATOM     58  F   UNL A   1      39.128  21.059  26.163  1.00  0.00    -0.200 F 
ENDBRANCH  24  48
BRANCH  36  59
ATOM     59  C   UNL A   1      47.303  26.711  26.963  1.00  0.00     0.064 A 
ATOM     60  C   UNL A   1      47.777  26.864  25.655  1.00  0.00     0.173 A 
ATOM     61  C   UNL A   1      48.074  25.961  27.865  1.00  0.00     0.173 A 
ATOM     62  F   UNL A   1      47.060  27.551  24.752  1.00  0.00    -0.203 F 
ATOM     63  C   UNL A   1      48.980  26.287  25.263  1.00  0.00     0.198 A 
ATOM     64  C   UNL A   1      49.292  25.414  27.479  1.00  0.00     0.198 A 
ATOM     65  F   UNL A   1      47.659  25.787  29.129  1.00  0.00    -0.203 F 
ATOM     66  F   UNL A   1      49.401  26.416  23.998  1.00  0.00    -0.200 F 
ATOM     67  C   UNL A   1      49.744  25.576  26.178  1.00  0.00     0.200 A 
ATOM     68  F   UNL A   1      50.034  24.743  28.370  1.00  0.00    -0.200 F 
ATOM     69  F   UNL A   1      50.914  25.042  25.805  1.00  0.00    -0.200 F 
ENDBRANCH  36  59
ENDBRANCH  10  11
ENDBRANCH   3   5
ENDBRANCH   2   3
ENDBRANCH   1   2
BRANCH   1  70
ATOM     70  C   UNL A   1      34.228  33.009  27.986  1.00  0.00     0.274 C 
BRANCH  70  71
ATOM     71  O   UNL A   1      33.265  31.985  27.649  1.00  0.00    -0.458 OA
BRANCH  71  72
ATOM     72  C   UNL A   1      33.771  30.760  27.309  1.00  0.00     0.365 C 
ATOM     73  O   UNL A   1      34.911  30.396  27.599  1.00  0.00    -0.245 OA
BRANCH  72  74
ATOM     74  C   UNL A   1      32.827  29.902  26.434  1.00  0.00     0.298 C 
ATOM     75  C   UNL A   1      31.586  30.688  25.955  1.00  0.00     0.115 C 
ATOM     76  N   UNL A   1      33.613  29.215  25.359  1.00  0.00    -0.323 N 
ATOM     77  C   UNL A   1      30.971  30.090  24.729  1.00  0.00    -0.006 A 
ATOM     78  C   UNL A   1      32.796  28.288  24.561  1.00  0.00     0.264 C 
ATOM     79  H   UNL A   1      34.371  28.690  25.796  1.00  0.00     0.347 HD
ATOM     80  H   UNL A   1      33.968  29.934  24.729  1.00  0.00     0.347 HD
ATOM     81  C   UNL A   1      31.570  29.016  24.107  1.00  0.00     0.083 A 
ATOM     82  C   UNL A   1      29.855  30.484  23.924  1.00  0.00     0.003 A 
ATOM     83  N   UNL A   1      30.897  28.770  22.941  1.00  0.00    -0.353 N 
ATOM     84  C   UNL A   1      29.873  29.675  22.784  1.00  0.00     0.046 A 
ATOM     85  C   UNL A   1      28.865  31.487  24.004  1.00  0.00     0.010 A 
ATOM     86  H   UNL A   1      31.114  28.050  22.306  1.00  0.00     0.166 HD
ATOM     87  C   UNL A   1      28.990  29.847  21.710  1.00  0.00     0.026 A 
ATOM     88  C   UNL A   1      27.986  31.686  22.928  1.00  0.00     0.001 A 
ATOM     89  C   UNL A   1      28.056  30.881  21.794  1.00  0.00     0.002 A 
BRANCH  78  90
ATOM     90  C   UNL A   1      32.469  26.980  25.252  1.00  0.00     0.041 A 
ATOM     91  C   UNL A   1      31.253  26.750  25.885  1.00  0.00     0.093 A 
ATOM     92  C   UNL A   1      33.234  25.764  25.431  1.00  0.00     0.009 A 
ATOM     93  N   UNL A   1      31.282  25.529  26.488  1.00  0.00    -0.361 N 
ATOM     94  C   UNL A   1      32.496  24.930  26.275  1.00  0.00     0.046 A 
ATOM     95  C   UNL A   1      34.501  25.289  25.015  1.00  0.00     0.011 A 
ATOM     96  H   UNL A   1      30.540  25.134  27.000  1.00  0.00     0.166 HD
ATOM     97  C   UNL A   1      32.985  23.719  26.779  1.00  0.00     0.026 A 
ATOM     98  C   UNL A   1      35.021  24.100  25.534  1.00  0.00     0.001 A 
ATOM     99  C   UNL A   1      34.276  23.334  26.418  1.00  0.00     0.002 A 
ENDBRANCH  78  90
ENDBRANCH  72  74
ENDBRANCH  71  72
ENDBRANCH  70  71
ENDBRANCH   1  70
TORSDOF 12
ENDMDL
MODEL 3
REMARK VINA RESULT:     -14.1      3.712      8.558
REMARK SMILES O=C(OCCOC(=O)[C@H]1Cc2c([nH]c3ccccc23)[C@H](c2c[nH]c3ccccc23)[NH2+]1)c1ccc(-c2c3nc(c(-c4c(F)c(F)c(F)c(F)c4F)c4ccc([nH]4)c(-c4c(F)c(F)c(F)c(F)c4F)c4nc(c(-c5c(F)c(F)c(F)c(F)c5F)c5ccc2[nH]5)C=C4)C=C3)cc1
REMARK SMILES IDX 4 1 3 2 2 3 1 4 31 5 32 6 93 7 33 8 92 9 34 10 35 11 36 12
REMARK SMILES IDX 86 13 37 14 91 15 85 16 87 17 38 18 90 19 84 20 83 21 39 23
REMARK SMILES IDX 71 24 51 25 70 26 52 27 55 28 69 29 88 30 53 31 54 32 68 34
REMARK SMILES IDX 89 35 56 36 40 37 41 38 49 39 42 40 43 41 47 42 50 43 44 44
REMARK SMILES IDX 45 45 48 46 46 47 72 48 73 49 81 50 74 51 75 52 79 53 82 54
REMARK SMILES IDX 76 55 77 56 80 57 78 58 57 59 58 60 66 61 59 62 60 63 64 64
REMARK SMILES IDX 67 65 61 66 62 67 65 68 63 69 5 70 6 71 7 72 8 73 9 74 10 75
REMARK SMILES IDX 30 76 11 77 20 78 12 81 19 82 13 83 14 84 18 85 15 87 17 88
REMARK SMILES IDX 16 89 21 90 22 91 29 92 23 93 24 94 28 95 25 97 27 98 26 99
REMARK H PARENT 87 22 55 33 30 79 30 80 13 86 23 96
REMARK Flexibility Score: inf
ROOT
ATOM      1  C   UNL A   1      31.404  32.156  26.877  1.00  0.00     0.275 C 
ENDROOT
BRANCH   1   2
ATOM      2  O   UNL A   1      32.506  33.066  26.886  1.00  0.00    -0.458 OA
BRANCH   2   3
ATOM      3  C   UNL A   1      33.353  33.365  27.892  1.00  0.00     0.338 C 
ATOM      4  O   UNL A   1      33.051  34.306  28.627  1.00  0.00    -0.246 OA
BRANCH   3   5
ATOM      5  C   UNL A   1      34.696  32.715  28.110  1.00  0.00     0.060 A 
ATOM      6  C   UNL A   1      35.944  33.331  28.280  1.00  0.00     0.016 A 
ATOM      7  C   UNL A   1      34.643  31.335  28.321  1.00  0.00     0.016 A 
ATOM      8  C   UNL A   1      37.037  32.647  28.844  1.00  0.00     0.010 A 
ATOM      9  C   UNL A   1      35.710  30.676  28.931  1.00  0.00     0.010 A 
ATOM     10  C   UNL A   1      36.909  31.328  29.261  1.00  0.00    -0.014 A 
BRANCH  10  11
ATOM     11  C   UNL A   1      37.989  30.573  29.969  1.00  0.00     0.031 A 
ATOM     12  C   UNL A   1      38.352  31.012  31.364  1.00  0.00     0.074 A 
ATOM     13  C   UNL A   1      38.717  29.592  29.385  1.00  0.00     0.049 A 
ATOM     14  N   UNL A   1      39.380  30.689  32.106  1.00  0.00    -0.248 NA
ATOM     15  C   UNL A   1      37.440  31.981  32.001  1.00  0.00     0.031 C 
ATOM     16  C   UNL A   1      38.507  29.033  28.049  1.00  0.00     0.029 A 
ATOM     17  N   UNL A   1      39.840  28.921  29.834  1.00  0.00    -0.354 N 
ATOM     18  C   UNL A   1      39.232  31.428  33.269  1.00  0.00     0.074 A 
ATOM     19  C   UNL A   1      38.122  32.328  33.077  1.00  0.00     0.031 C 
ATOM     20  C   UNL A   1      39.494  28.159  27.767  1.00  0.00     0.029 A 
ATOM     21  C   UNL A   1      40.430  28.120  28.879  1.00  0.00     0.049 A 
ATOM     22  H   UNL A   1      40.187  29.008  30.751  1.00  0.00     0.167 HD
ATOM     23  C   UNL A   1      39.881  31.292  34.446  1.00  0.00     0.037 A 
ATOM     24  C   UNL A   1      41.612  27.470  28.883  1.00  0.00     0.037 A 
ATOM     25  C   UNL A   1      40.923  30.338  34.674  1.00  0.00     0.049 A 
ATOM     26  C   UNL A   1      42.430  27.449  30.148  1.00  0.00     0.074 A 
ATOM     27  C   UNL A   1      41.538  30.002  35.864  1.00  0.00     0.029 A 
ATOM     28  N   UNL A   1      41.499  29.563  33.682  1.00  0.00    -0.354 N 
ATOM     29  N   UNL A   1      42.200  28.051  31.286  1.00  0.00    -0.248 NA
ATOM     30  C   UNL A   1      43.645  26.618  30.144  1.00  0.00     0.031 C 
ATOM     31  C   UNL A   1      42.529  29.058  35.584  1.00  0.00     0.029 A 
ATOM     32  C   UNL A   1      42.497  28.777  34.226  1.00  0.00     0.049 A 
ATOM     33  H   UNL A   1      41.237  29.570  32.733  1.00  0.00     0.167 HD
ATOM     34  C   UNL A   1      43.182  27.603  32.157  1.00  0.00     0.074 A 
ATOM     35  C   UNL A   1      44.039  26.715  31.405  1.00  0.00     0.031 C 
ATOM     36  C   UNL A   1      43.330  27.878  33.475  1.00  0.00     0.037 A 
BRANCH  23  37
ATOM     37  C   UNL A   1      39.406  32.140  35.584  1.00  0.00     0.064 A 
ATOM     38  C   UNL A   1      39.923  33.430  35.793  1.00  0.00     0.173 A 
ATOM     39  C   UNL A   1      38.441  31.662  36.479  1.00  0.00     0.173 A 
ATOM     40  F   UNL A   1      40.863  33.924  34.970  1.00  0.00    -0.203 F 
ATOM     41  C   UNL A   1      39.524  34.193  36.884  1.00  0.00     0.198 A 
ATOM     42  C   UNL A   1      38.019  32.444  37.550  1.00  0.00     0.198 A 
ATOM     43  F   UNL A   1      37.919  30.437  36.321  1.00  0.00    -0.203 F 
ATOM     44  F   UNL A   1      40.085  35.390  37.103  1.00  0.00    -0.200 F 
ATOM     45  C   UNL A   1      38.567  33.701  37.758  1.00  0.00     0.200 A 
ATOM     46  F   UNL A   1      37.087  31.975  38.391  1.00  0.00    -0.200 F 
ATOM     47  F   UNL A   1      38.183  34.437  38.810  1.00  0.00    -0.200 F 
ENDBRANCH  23  37
BRANCH  24  48
ATOM     48  C   UNL A   1      42.151  26.807  27.662  1.00  0.00     0.064 A 
ATOM     49  C   UNL A   1      41.955  25.443  27.408  1.00  0.00     0.173 A 
ATOM     50  C   UNL A   1      43.009  27.509  26.803  1.00  0.00     0.173 A 
ATOM     51  F   UNL A   1      41.191  24.715  28.236  1.00  0.00    -0.203 F 
ATOM     52  C   UNL A   1      42.621  24.800  26.365  1.00  0.00     0.198 A 
ATOM     53  C   UNL A   1      43.656  26.873  25.743  1.00  0.00     0.198 A 
ATOM     54  F   UNL A   1      43.263  28.805  27.035  1.00  0.00    -0.203 F 
ATOM     55  F   UNL A   1      42.483  23.477  26.199  1.00  0.00    -0.200 F 
ATOM     56  C   UNL A   1      43.473  25.514  25.533  1.00  0.00     0.200 A 
ATOM     57  F   UNL A   1      44.494  27.564  24.959  1.00  0.00    -0.200 F 
ATOM     58  F   UNL A   1      44.140  24.887  24.555  1.00  0.00    -0.200 F 
ENDBRANCH  24  48
BRANCH  36  59
ATOM     59  C   UNL A   1      44.409  27.155  34.218  1.00  0.00     0.064 A 
ATOM     60  C   UNL A   1      45.679  27.714  34.404  1.00  0.00     0.173 A 
ATOM     61  C   UNL A   1      44.135  25.916  34.820  1.00  0.00     0.173 A 
ATOM     62  F   UNL A   1      45.993  28.884  33.826  1.00  0.00    -0.203 F 
ATOM     63  C   UNL A   1      46.640  27.057  35.165  1.00  0.00     0.198 A 
ATOM     64  C   UNL A   1      45.087  25.279  35.608  1.00  0.00     0.198 A 
ATOM     65  F   UNL A   1      42.932  25.342  34.669  1.00  0.00    -0.203 F 
ATOM     66  F   UNL A   1      47.861  27.591  35.304  1.00  0.00    -0.200 F 
ATOM     67  C   UNL A   1      46.339  25.849  35.778  1.00  0.00     0.200 A 
ATOM     68  F   UNL A   1      44.786  24.122  36.212  1.00  0.00    -0.200 F 
ATOM     69  F   UNL A   1      47.259  25.230  36.531  1.00  0.00    -0.200 F 
ENDBRANCH  36  59
ENDBRANCH  10  11
ENDBRANCH   3   5
ENDBRANCH   2   3
ENDBRANCH   1   2
BRANCH   1  70
ATOM     70  C   UNL A   1      31.780  30.711  26.521  1.00  0.00     0.274 C 
BRANCH  70  71
ATOM     71  O   UNL A   1      32.072  29.848  27.644  1.00  0.00    -0.458 OA
BRANCH  71  72
ATOM     72  C   UNL A   1      31.723  28.533  27.509  1.00  0.00     0.365 C 
ATOM     73  O   UNL A   1      31.372  27.826  28.454  1.00  0.00    -0.245 OA
BRANCH  72  74
ATOM     74  C   UNL A   1      31.906  27.970  26.080  1.00  0.00     0.298 C 
ATOM     75  C   UNL A   1      33.167  27.088  25.946  1.00  0.00     0.115 C 
ATOM     76  N   UNL A   1      30.627  27.346  25.611  1.00  0.00    -0.323 N 
ATOM     77  C   UNL A   1      33.080  26.139  24.793  1.00  0.00    -0.006 A 
ATOM     78  C   UNL A   1      30.694  26.895  24.212  1.00  0.00     0.264 C 
ATOM     79  H   UNL A   1      29.878  28.034  25.696  1.00  0.00     0.347 HD
ATOM     80  H   UNL A   1      30.453  26.526  26.191  1.00  0.00     0.347 HD
ATOM     81  C   UNL A   1      31.924  26.060  24.046  1.00  0.00     0.083 A 
ATOM     82  C   UNL A   1      33.971  25.128  24.312  1.00  0.00     0.003 A 
ATOM     83  N   UNL A   1      32.056  25.020  23.167  1.00  0.00    -0.353 N 
ATOM     84  C   UNL A   1      33.277  24.408  23.335  1.00  0.00     0.046 A 
ATOM     85  C   UNL A   1      35.273  24.697  24.645  1.00  0.00     0.010 A 
ATOM     86  H   UNL A   1      31.375  24.748  22.509  1.00  0.00     0.166 HD
ATOM     87  C   UNL A   1      33.795  23.264  22.713  1.00  0.00     0.026 A 
ATOM     88  C   UNL A   1      35.799  23.541  24.047  1.00  0.00     0.001 A 
ATOM     89  C   UNL A   1      35.064  22.831  23.101  1.00  0.00     0.002 A 
BRANCH  78  90
ATOM     90  C   UNL A   1      30.606  28.006  23.185  1.00  0.00     0.041 A 
ATOM     91  C   UNL A   1      31.711  28.454  22.470  1.00  0.00     0.093 A 
ATOM     92  C   UNL A   1      29.496  28.813  22.727  1.00  0.00     0.009 A 
ATOM     93  N   UNL A   1      31.347  29.511  21.693  1.00  0.00    -0.361 N 
ATOM     94  C   UNL A   1      30.017  29.788  21.871  1.00  0.00     0.046 A 
ATOM     95  C   UNL A   1      28.104  28.866  22.979  1.00  0.00     0.011 A 
ATOM     96  H   UNL A   1      31.950  30.004  21.091  1.00  0.00     0.166 HD
ATOM     97  C   UNL A   1      29.252  30.834  21.342  1.00  0.00     0.026 A 
ATOM     98  C   UNL A   1      27.330  29.922  22.489  1.00  0.00     0.001 A 
ATOM     99  C   UNL A   1      27.904  30.901  21.692  1.00  0.00     0.002 A 
ENDBRANCH  78  90
ENDBRANCH  72  74
ENDBRANCH  71  72
ENDBRANCH  70  71
ENDBRANCH   1  70
TORSDOF 12
ENDMDL
