MODEL 1
REMARK VINA RESULT:     -13.4      0.000      0.000
REMARK SMILES O=C(OCCOC(=O)[C@@H](c1ccccc1)N1C(=O)/C(=C\c2ccc(-c3ccc(F)cc3)o2)SC1=S)c1ccc(-c2c3nc(c(-c4c(F)c(F)c(F)c(F)c4F)c4ccc([nH]4)c(-c4c(F)c(F)c(F)c(F)c4F)c4nc(c(-c5c(F)c(F)c(F)c(F)c5F)c5ccc2[nH]5)C=C4)C=C3)cc1
REMARK SMILES IDX 5 1 4 2 3 3 2 4 1 5 36 6 37 7 98 8 38 9 97 10 39 11 40 12
REMARK SMILES IDX 41 13 91 14 42 15 96 16 90 17 92 18 43 19 95 20 89 21 88 22
REMARK SMILES IDX 44 24 76 25 56 26 75 27 57 28 60 29 74 30 93 31 58 32 59 33
REMARK SMILES IDX 73 35 94 36 61 37 45 38 46 39 54 40 47 41 48 42 52 43 55 44
REMARK SMILES IDX 49 45 50 46 53 47 51 48 77 49 78 50 86 51 79 52 80 53 84 54
REMARK SMILES IDX 87 55 81 56 82 57 85 58 83 59 62 60 63 61 71 62 64 63 65 64
REMARK SMILES IDX 69 65 72 66 66 67 67 68 70 69 68 70 6 71 7 72 8 73 9 74
REMARK SMILES IDX 10 75 11 76 15 77 12 78 14 79 13 80 16 81 17 82 34 83 18 84
REMARK SMILES IDX 19 85 33 86 35 87 20 88 21 89 22 90 32 91 23 92 24 93 25 94
REMARK SMILES IDX 26 95 31 96 27 97 30 98 28 99 29 100
REMARK H PARENT 92 23 60 34
REMARK Flexibility Score: inf
ROOT
ATOM      1  C   UNL A   1      46.033  21.628  40.406  1.00  0.00     0.274 C 
ENDROOT
BRANCH   1   2
ATOM      2  C   UNL A   1      45.334  22.953  40.079  1.00  0.00     0.275 C 
BRANCH   2   3
ATOM      3  O   UNL A   1      45.857  23.572  38.894  1.00  0.00    -0.458 OA
BRANCH   3   4
ATOM      4  C   UNL A   1      45.473  23.426  37.611  1.00  0.00     0.338 C 
ATOM      5  O   UNL A   1      45.667  22.349  37.054  1.00  0.00    -0.246 OA
BRANCH   4   6
ATOM      6  C   UNL A   1      44.868  24.511  36.777  1.00  0.00     0.060 A 
ATOM      7  C   UNL A   1      43.500  24.319  35.639  1.00  0.00     0.016 A 
ATOM      8  C   UNL A   1      45.722  26.039  36.957  1.00  0.00     0.016 A 
ATOM      9  C   UNL A   1      42.864  25.584  34.619  1.00  0.00     0.010 A 
ATOM     10  C   UNL A   1      45.211  27.424  35.933  1.00  0.00     0.010 A 
ATOM     11  C   UNL A   1      43.654  27.198  34.658  1.00  0.00    -0.014 A 
BRANCH  11  12
ATOM     12  C   UNL A   1      42.693  28.033  33.681  1.00  0.00     0.031 A 
ATOM     13  C   UNL A   1      41.835  29.119  34.243  1.00  0.00     0.074 A 
ATOM     14  C   UNL A   1      42.743  28.009  32.325  1.00  0.00     0.049 A 
ATOM     15  N   UNL A   1      40.658  29.539  33.869  1.00  0.00    -0.248 NA
ATOM     16  C   UNL A   1      42.378  29.801  35.418  1.00  0.00     0.031 C 
ATOM     17  C   UNL A   1      43.766  27.367  31.507  1.00  0.00     0.029 A 
ATOM     18  N   UNL A   1      41.870  28.514  31.381  1.00  0.00    -0.354 N 
ATOM     19  C   UNL A   1      40.257  30.408  34.873  1.00  0.00     0.074 A 
ATOM     20  C   UNL A   1      41.298  30.411  35.877  1.00  0.00     0.031 C 
ATOM     21  C   UNL A   1      43.410  27.395  30.209  1.00  0.00     0.029 A 
ATOM     22  C   UNL A   1      42.110  28.041  30.105  1.00  0.00     0.049 A 
ATOM     23  H   UNL A   1      41.149  29.147  31.595  1.00  0.00     0.167 HD
ATOM     24  C   UNL A   1      39.135  31.165  34.922  1.00  0.00     0.037 A 
ATOM     25  C   UNL A   1      41.327  28.058  29.006  1.00  0.00     0.037 A 
ATOM     26  C   UNL A   1      38.262  31.334  33.792  1.00  0.00     0.049 A 
ATOM     27  C   UNL A   1      40.019  28.789  29.083  1.00  0.00     0.074 A 
ATOM     28  C   UNL A   1      37.140  32.130  33.675  1.00  0.00     0.029 A 
ATOM     29  N   UNL A   1      38.475  30.751  32.548  1.00  0.00    -0.354 N 
ATOM     30  N   UNL A   1      39.481  29.412  30.102  1.00  0.00    -0.248 NA
ATOM     31  C   UNL A   1      39.226  28.850  27.848  1.00  0.00     0.031 C 
ATOM     32  C   UNL A   1      36.665  32.019  32.363  1.00  0.00     0.029 A 
ATOM     33  C   UNL A   1      37.515  31.185  31.652  1.00  0.00     0.049 A 
ATOM     34  H   UNL A   1      39.202  30.123  32.336  1.00  0.00     0.167 HD
ATOM     35  C   UNL A   1      38.327  30.006  29.617  1.00  0.00     0.074 A 
ATOM     36  C   UNL A   1      38.224  29.633  28.219  1.00  0.00     0.031 C 
ATOM     37  C   UNL A   1      37.453  30.817  30.260  1.00  0.00     0.037 A 
BRANCH  24  38
ATOM     38  C   UNL A   1      38.806  31.834  36.226  1.00  0.00     0.064 A 
ATOM     39  C   UNL A   1      38.042  31.220  37.230  1.00  0.00     0.173 A 
ATOM     40  C   UNL A   1      39.227  33.156  36.449  1.00  0.00     0.173 A 
ATOM     41  F   UNL A   1      37.606  29.960  37.074  1.00  0.00    -0.203 F 
ATOM     42  C   UNL A   1      37.643  31.925  38.362  1.00  0.00     0.198 A 
ATOM     43  C   UNL A   1      38.875  33.839  37.609  1.00  0.00     0.198 A 
ATOM     44  F   UNL A   1      39.971  33.793  35.533  1.00  0.00    -0.203 F 
ATOM     45  F   UNL A   1      36.817  31.351  39.248  1.00  0.00    -0.200 F 
ATOM     46  C   UNL A   1      38.064  33.232  38.554  1.00  0.00     0.200 A 
ATOM     47  F   UNL A   1      39.303  35.095  37.801  1.00  0.00    -0.200 F 
ATOM     48  F   UNL A   1      37.674  33.910  39.641  1.00  0.00    -0.200 F 
ENDBRANCH  24  38
BRANCH  25  49
ATOM     49  C   UNL A   1      41.694  27.322  27.764  1.00  0.00     0.064 A 
ATOM     50  C   UNL A   1      41.314  25.993  27.549  1.00  0.00     0.173 A 
ATOM     51  C   UNL A   1      42.528  27.913  26.805  1.00  0.00     0.173 A 
ATOM     52  F   UNL A   1      40.586  25.351  28.473  1.00  0.00    -0.203 F 
ATOM     53  C   UNL A   1      41.739  25.293  26.416  1.00  0.00     0.198 A 
ATOM     54  C   UNL A   1      42.920  27.231  25.653  1.00  0.00     0.198 A 
ATOM     55  F   UNL A   1      43.016  29.140  27.013  1.00  0.00    -0.203 F 
ATOM     56  F   UNL A   1      41.410  24.004  26.264  1.00  0.00    -0.200 F 
ATOM     57  C   UNL A   1      42.529  25.918  25.461  1.00  0.00     0.200 A 
ATOM     58  F   UNL A   1      43.696  27.842  24.746  1.00  0.00    -0.200 F 
ATOM     59  F   UNL A   1      42.936  25.247  24.375  1.00  0.00    -0.200 F 
ENDBRANCH  25  49
BRANCH  37  60
ATOM     60  C   UNL A   1      36.368  31.436  29.433  1.00  0.00     0.064 A 
ATOM     61  C   UNL A   1      35.301  30.684  28.924  1.00  0.00     0.173 A 
ATOM     62  C   UNL A   1      36.384  32.817  29.185  1.00  0.00     0.173 A 
ATOM     63  F   UNL A   1      35.259  29.357  29.114  1.00  0.00    -0.203 F 
ATOM     64  C   UNL A   1      34.297  31.291  28.177  1.00  0.00     0.198 A 
ATOM     65  C   UNL A   1      35.360  33.426  28.469  1.00  0.00     0.198 A 
ATOM     66  F   UNL A   1      37.387  33.577  29.651  1.00  0.00    -0.203 F 
ATOM     67  F   UNL A   1      33.311  30.549  27.656  1.00  0.00    -0.200 F 
ATOM     68  C   UNL A   1      34.321  32.662  27.961  1.00  0.00     0.200 A 
ATOM     69  F   UNL A   1      35.379  34.752  28.274  1.00  0.00    -0.200 F 
ATOM     70  F   UNL A   1      33.344  33.247  27.254  1.00  0.00    -0.200 F 
ENDBRANCH  37  60
ENDBRANCH  11  12
ENDBRANCH   4   6
ENDBRANCH   3   4
ENDBRANCH   2   3
ENDBRANCH   1   2
BRANCH   1  71
ATOM     71  O   UNL A   1      45.072  20.618  40.777  1.00  0.00    -0.460 OA
BRANCH  71  72
ATOM     72  C   UNL A   1      44.977  20.197  42.064  1.00  0.00     0.334 C 
ATOM     73  O   UNL A   1      44.918  20.976  43.009  1.00  0.00    -0.249 OA
BRANCH  72  74
ATOM     74  C   UNL A   1      45.066  18.654  42.227  1.00  0.00     0.232 C 
BRANCH  74  75
ATOM     75  C   UNL A   1      44.581  17.426  41.133  1.00  0.00    -0.014 A 
ATOM     76  C   UNL A   1      44.588  16.971  39.160  1.00  0.00     0.006 A 
ATOM     77  C   UNL A   1      43.426  16.402  42.128  1.00  0.00     0.006 A 
ATOM     78  C   UNL A   1      43.521  15.679  38.523  1.00  0.00     0.000 A 
ATOM     79  C   UNL A   1      42.454  15.144  41.355  1.00  0.00     0.000 A 
ATOM     80  C   UNL A   1      42.507  14.813  39.632  1.00  0.00     0.000 A 
ENDBRANCH  74  75
BRANCH  74  81
ATOM     81  N   UNL A   1      46.236  18.329  43.156  1.00  0.00    -0.274 N 
ATOM     82  C   UNL A   1      45.979  17.919  44.463  1.00  0.00     0.267 C 
ATOM     83  C   UNL A   1      47.589  18.463  42.888  1.00  0.00     0.149 C 
ATOM     84  O   UNL A   1      44.933  18.047  45.080  1.00  0.00    -0.268 OA
ATOM     85  C   UNL A   1      47.187  17.274  45.048  1.00  0.00     0.084 C 
ATOM     86  S   UNL A   1      48.544  18.062  44.334  1.00  0.00    -0.054 SA
ATOM     87  S   UNL A   1      48.389  18.891  41.490  1.00  0.00    -0.052 S 
ATOM     88  C   UNL A   1      47.334  16.151  45.770  1.00  0.00     0.068 C 
BRANCH  88  89
ATOM     89  C   UNL A   1      46.351  15.132  45.949  1.00  0.00     0.128 A 
ATOM     90  C   UNL A   1      45.936  14.556  47.146  1.00  0.00     0.051 A 
ATOM     91  O   UNL A   1      45.459  14.710  44.985  1.00  0.00    -0.457 OA
ATOM     92  C   UNL A   1      44.775  13.799  46.925  1.00  0.00     0.051 A 
ATOM     93  C   UNL A   1      44.521  13.916  45.586  1.00  0.00     0.134 A 
BRANCH  93  94
ATOM     94  C   UNL A   1      43.466  13.377  44.752  1.00  0.00     0.017 A 
ATOM     95  C   UNL A   1      43.673  12.192  44.040  1.00  0.00     0.015 A 
ATOM     96  C   UNL A   1      42.205  13.994  44.719  1.00  0.00     0.015 A 
ATOM     97  C   UNL A   1      42.631  11.624  43.308  1.00  0.00     0.040 A 
ATOM     98  C   UNL A   1      41.166  13.432  43.977  1.00  0.00     0.040 A 
ATOM     99  C   UNL A   1      41.389  12.249  43.283  1.00  0.00     0.123 A 
ATOM    100  F   UNL A   1      40.389  11.699  42.583  1.00  0.00    -0.207 F 
ENDBRANCH  93  94
ENDBRANCH  88  89
ENDBRANCH  74  81
ENDBRANCH  72  74
ENDBRANCH  71  72
ENDBRANCH   1  71
TORSDOF 15
ENDMDL
MODEL 2
REMARK VINA RESULT:     -13.1     12.536     23.351
REMARK SMILES O=C(OCCOC(=O)[C@@H](c1ccccc1)N1C(=O)/C(=C\c2ccc(-c3ccc(F)cc3)o2)SC1=S)c1ccc(-c2c3nc(c(-c4c(F)c(F)c(F)c(F)c4F)c4ccc([nH]4)c(-c4c(F)c(F)c(F)c(F)c4F)c4nc(c(-c5c(F)c(F)c(F)c(F)c5F)c5ccc2[nH]5)C=C4)C=C3)cc1
REMARK SMILES IDX 5 1 4 2 3 3 2 4 1 5 36 6 37 7 98 8 38 9 97 10 39 11 40 12
REMARK SMILES IDX 41 13 91 14 42 15 96 16 90 17 92 18 43 19 95 20 89 21 88 22
REMARK SMILES IDX 44 24 76 25 56 26 75 27 57 28 60 29 74 30 93 31 58 32 59 33
REMARK SMILES IDX 73 35 94 36 61 37 45 38 46 39 54 40 47 41 48 42 52 43 55 44
REMARK SMILES IDX 49 45 50 46 53 47 51 48 77 49 78 50 86 51 79 52 80 53 84 54
REMARK SMILES IDX 87 55 81 56 82 57 85 58 83 59 62 60 63 61 71 62 64 63 65 64
REMARK SMILES IDX 69 65 72 66 66 67 67 68 70 69 68 70 6 71 7 72 8 73 9 74
REMARK SMILES IDX 10 75 11 76 15 77 12 78 14 79 13 80 16 81 17 82 34 83 18 84
REMARK SMILES IDX 19 85 33 86 35 87 20 88 21 89 22 90 32 91 23 92 24 93 25 94
REMARK SMILES IDX 26 95 31 96 27 97 30 98 28 99 29 100
REMARK H PARENT 92 23 60 34
REMARK Flexibility Score: inf
ROOT
ATOM      1  C   UNL A   1      47.117  40.207  23.500  1.00  0.00     0.274 C 
ENDROOT
BRANCH   1   2
ATOM      2  C   UNL A   1      46.724  40.183  24.982  1.00  0.00     0.275 C 
BRANCH   2   3
ATOM      3  O   UNL A   1      46.031  38.979  25.346  1.00  0.00    -0.458 OA
BRANCH   3   4
ATOM      4  C   UNL A   1      45.692  38.524  26.567  1.00  0.00     0.338 C 
ATOM      5  O   UNL A   1      45.541  39.331  27.481  1.00  0.00    -0.246 OA
BRANCH   4   6
ATOM      6  C   UNL A   1      45.538  37.078  26.922  1.00  0.00     0.060 A 
ATOM      7  C   UNL A   1      44.056  36.099  26.709  1.00  0.00     0.016 A 
ATOM      8  C   UNL A   1      46.983  36.427  27.686  1.00  0.00     0.016 A 
ATOM      9  C   UNL A   1      43.878  34.434  27.204  1.00  0.00     0.010 A 
ATOM     10  C   UNL A   1      46.934  34.736  28.294  1.00  0.00     0.010 A 
ATOM     11  C   UNL A   1      45.255  33.634  28.037  1.00  0.00    -0.014 A 
BRANCH  11  12
ATOM     12  C   UNL A   1      44.692  32.139  28.193  1.00  0.00     0.031 A 
ATOM     13  C   UNL A   1      45.440  31.003  27.579  1.00  0.00     0.074 A 
ATOM     14  C   UNL A   1      43.700  31.761  29.038  1.00  0.00     0.049 A 
ATOM     15  N   UNL A   1      45.002  29.879  27.080  1.00  0.00    -0.248 NA
ATOM     16  C   UNL A   1      46.889  31.182  27.488  1.00  0.00     0.031 C 
ATOM     17  C   UNL A   1      43.080  32.584  30.070  1.00  0.00     0.029 A 
ATOM     18  N   UNL A   1      42.999  30.575  29.132  1.00  0.00    -0.354 N 
ATOM     19  C   UNL A   1      46.107  29.311  26.463  1.00  0.00     0.074 A 
ATOM     20  C   UNL A   1      47.207  30.237  26.619  1.00  0.00     0.031 C 
ATOM     21  C   UNL A   1      42.020  31.946  30.601  1.00  0.00     0.029 A 
ATOM     22  C   UNL A   1      41.869  30.667  29.923  1.00  0.00     0.049 A 
ATOM     23  H   UNL A   1      43.275  29.745  28.681  1.00  0.00     0.167 HD
ATOM     24  C   UNL A   1      46.195  28.103  25.859  1.00  0.00     0.037 A 
ATOM     25  C   UNL A   1      40.801  29.849  30.018  1.00  0.00     0.037 A 
ATOM     26  C   UNL A   1      45.162  27.108  25.956  1.00  0.00     0.049 A 
ATOM     27  C   UNL A   1      40.830  28.558  29.253  1.00  0.00     0.074 A 
ATOM     28  C   UNL A   1      45.150  25.818  25.464  1.00  0.00     0.029 A 
ATOM     29  N   UNL A   1      43.982  27.276  26.673  1.00  0.00    -0.354 N 
ATOM     30  N   UNL A   1      41.755  28.098  28.447  1.00  0.00    -0.248 NA
ATOM     31  C   UNL A   1      39.684  27.659  29.437  1.00  0.00     0.031 C 
ATOM     32  C   UNL A   1      43.958  25.209  25.872  1.00  0.00     0.029 A 
ATOM     33  C   UNL A   1      43.245  26.107  26.651  1.00  0.00     0.049 A 
ATOM     34  H   UNL A   1      43.712  28.106  27.128  1.00  0.00     0.167 HD
ATOM     35  C   UNL A   1      41.344  26.824  28.089  1.00  0.00     0.074 A 
ATOM     36  C   UNL A   1      40.065  26.602  28.735  1.00  0.00     0.031 C 
ATOM     37  C   UNL A   1      41.987  25.907  27.325  1.00  0.00     0.037 A 
BRANCH  24  38
ATOM     38  C   UNL A   1      47.428  27.820  25.049  1.00  0.00     0.064 A 
ATOM     39  C   UNL A   1      47.477  27.959  23.654  1.00  0.00     0.173 A 
ATOM     40  C   UNL A   1      48.582  27.342  25.693  1.00  0.00     0.173 A 
ATOM     41  F   UNL A   1      46.405  28.407  22.980  1.00  0.00    -0.203 F 
ATOM     42  C   UNL A   1      48.595  27.554  22.929  1.00  0.00     0.198 A 
ATOM     43  C   UNL A   1      49.719  26.992  24.971  1.00  0.00     0.198 A 
ATOM     44  F   UNL A   1      48.604  27.199  27.027  1.00  0.00    -0.203 F 
ATOM     45  F   UNL A   1      48.569  27.589  21.590  1.00  0.00    -0.200 F 
ATOM     46  C   UNL A   1      49.717  27.076  23.588  1.00  0.00     0.200 A 
ATOM     47  F   UNL A   1      50.810  26.551  25.613  1.00  0.00    -0.200 F 
ATOM     48  F   UNL A   1      50.789  26.681  22.888  1.00  0.00    -0.200 F 
ENDBRANCH  24  38
BRANCH  25  49
ATOM     49  C   UNL A   1      39.587  30.222  30.797  1.00  0.00     0.064 A 
ATOM     50  C   UNL A   1      39.460  29.930  32.159  1.00  0.00     0.173 A 
ATOM     51  C   UNL A   1      38.477  30.793  30.158  1.00  0.00     0.173 A 
ATOM     52  F   UNL A   1      40.459  29.308  32.802  1.00  0.00    -0.203 F 
ATOM     53  C   UNL A   1      38.279  30.211  32.852  1.00  0.00     0.198 A 
ATOM     54  C   UNL A   1      37.313  31.112  30.856  1.00  0.00     0.198 A 
ATOM     55  F   UNL A   1      38.498  30.988  28.836  1.00  0.00    -0.203 F 
ATOM     56  F   UNL A   1      38.163  29.868  34.142  1.00  0.00    -0.200 F 
ATOM     57  C   UNL A   1      37.212  30.817  32.204  1.00  0.00     0.200 A 
ATOM     58  F   UNL A   1      36.283  31.683  30.214  1.00  0.00    -0.200 F 
ATOM     59  F   UNL A   1      36.081  31.087  32.869  1.00  0.00    -0.200 F 
ENDBRANCH  25  49
BRANCH  37  60
ATOM     60  C   UNL A   1      41.364  24.548  27.231  1.00  0.00     0.064 A 
ATOM     61  C   UNL A   1      40.217  24.308  26.463  1.00  0.00     0.173 A 
ATOM     62  C   UNL A   1      41.958  23.463  27.893  1.00  0.00     0.173 A 
ATOM     63  F   UNL A   1      39.601  25.320  25.835  1.00  0.00    -0.203 F 
ATOM     64  C   UNL A   1      39.675  23.030  26.377  1.00  0.00     0.198 A 
ATOM     65  C   UNL A   1      41.434  22.181  27.776  1.00  0.00     0.198 A 
ATOM     66  F   UNL A   1      43.057  23.645  28.641  1.00  0.00    -0.203 F 
ATOM     67  F   UNL A   1      38.549  22.828  25.679  1.00  0.00    -0.200 F 
ATOM     68  C   UNL A   1      40.290  21.966  27.024  1.00  0.00     0.200 A 
ATOM     69  F   UNL A   1      42.039  21.154  28.389  1.00  0.00    -0.200 F 
ATOM     70  F   UNL A   1      39.774  20.734  26.927  1.00  0.00    -0.200 F 
ENDBRANCH  37  60
ENDBRANCH  11  12
ENDBRANCH   4   6
ENDBRANCH   3   4
ENDBRANCH   2   3
ENDBRANCH   1   2
BRANCH   1  71
ATOM     71  O   UNL A   1      47.475  41.542  23.086  1.00  0.00    -0.460 OA
BRANCH  71  72
ATOM     72  C   UNL A   1      47.372  41.910  21.783  1.00  0.00     0.334 C 
ATOM     73  O   UNL A   1      48.031  41.381  20.895  1.00  0.00    -0.249 OA
BRANCH  72  74
ATOM     74  C   UNL A   1      46.436  43.129  21.548  1.00  0.00     0.232 C 
BRANCH  74  75
ATOM     75  C   UNL A   1      44.751  43.263  21.835  1.00  0.00    -0.014 A 
ATOM     76  C   UNL A   1      43.344  42.845  23.231  1.00  0.00     0.006 A 
ATOM     77  C   UNL A   1      44.063  43.616  20.169  1.00  0.00     0.006 A 
ATOM     78  C   UNL A   1      41.606  42.831  22.792  1.00  0.00     0.000 A 
ATOM     79  C   UNL A   1      42.316  43.586  19.898  1.00  0.00     0.000 A 
ATOM     80  C   UNL A   1      41.156  43.206  21.159  1.00  0.00     0.000 A 
ENDBRANCH  74  75
BRANCH  74  81
ATOM     81  N   UNL A   1      47.262  44.409  21.674  1.00  0.00    -0.274 N 
ATOM     82  C   UNL A   1      47.802  44.991  20.529  1.00  0.00     0.267 C 
ATOM     83  C   UNL A   1      47.630  45.066  22.838  1.00  0.00     0.149 C 
ATOM     84  O   UNL A   1      47.947  44.464  19.436  1.00  0.00    -0.268 OA
ATOM     85  C   UNL A   1      48.200  46.399  20.804  1.00  0.00     0.084 C 
ATOM     86  S   UNL A   1      48.686  46.445  22.457  1.00  0.00    -0.054 SA
ATOM     87  S   UNL A   1      47.225  44.778  24.429  1.00  0.00    -0.052 S 
ATOM     88  C   UNL A   1      48.019  47.528  20.099  1.00  0.00     0.068 C 
BRANCH  88  89
ATOM     89  C   UNL A   1      47.147  47.691  18.981  1.00  0.00     0.128 A 
ATOM     90  C   UNL A   1      47.437  48.295  17.761  1.00  0.00     0.051 A 
ATOM     91  O   UNL A   1      45.932  47.057  18.823  1.00  0.00    -0.457 OA
ATOM     92  C   UNL A   1      46.414  48.013  16.843  1.00  0.00     0.051 A 
ATOM     93  C   UNL A   1      45.508  47.257  17.537  1.00  0.00     0.134 A 
BRANCH  93  94
ATOM     94  C   UNL A   1      44.251  46.655  17.145  1.00  0.00     0.017 A 
ATOM     95  C   UNL A   1      43.128  47.458  16.925  1.00  0.00     0.015 A 
ATOM     96  C   UNL A   1      44.173  45.272  16.904  1.00  0.00     0.015 A 
ATOM     97  C   UNL A   1      41.942  46.890  16.462  1.00  0.00     0.040 A 
ATOM     98  C   UNL A   1      42.982  44.704  16.452  1.00  0.00     0.040 A 
ATOM     99  C   UNL A   1      41.880  45.520  16.231  1.00  0.00     0.123 A 
ATOM    100  F   UNL A   1      40.741  44.979  15.781  1.00  0.00    -0.207 F 
ENDBRANCH  93  94
ENDBRANCH  88  89
ENDBRANCH  74  81
ENDBRANCH  72  74
ENDBRANCH  71  72
ENDBRANCH   1  71
TORSDOF 15
ENDMDL
MODEL 3
REMARK VINA RESULT:     -13.1      5.908      8.344
REMARK SMILES O=C(OCCOC(=O)[C@@H](c1ccccc1)N1C(=O)/C(=C\c2ccc(-c3ccc(F)cc3)o2)SC1=S)c1ccc(-c2c3nc(c(-c4c(F)c(F)c(F)c(F)c4F)c4ccc([nH]4)c(-c4c(F)c(F)c(F)c(F)c4F)c4nc(c(-c5c(F)c(F)c(F)c(F)c5F)c5ccc2[nH]5)C=C4)C=C3)cc1
REMARK SMILES IDX 5 1 4 2 3 3 2 4 1 5 36 6 37 7 98 8 38 9 97 10 39 11 40 12
REMARK SMILES IDX 41 13 91 14 42 15 96 16 90 17 92 18 43 19 95 20 89 21 88 22
REMARK SMILES IDX 44 24 76 25 56 26 75 27 57 28 60 29 74 30 93 31 58 32 59 33
REMARK SMILES IDX 73 35 94 36 61 37 45 38 46 39 54 40 47 41 48 42 52 43 55 44
REMARK SMILES IDX 49 45 50 46 53 47 51 48 77 49 78 50 86 51 79 52 80 53 84 54
REMARK SMILES IDX 87 55 81 56 82 57 85 58 83 59 62 60 63 61 71 62 64 63 65 64
REMARK SMILES IDX 69 65 72 66 66 67 67 68 70 69 68 70 6 71 7 72 8 73 9 74
REMARK SMILES IDX 10 75 11 76 15 77 12 78 14 79 13 80 16 81 17 82 34 83 18 84
REMARK SMILES IDX 19 85 33 86 35 87 20 88 21 89 22 90 32 91 23 92 24 93 25 94
REMARK SMILES IDX 26 95 31 96 27 97 30 98 28 99 29 100
REMARK H PARENT 92 23 60 34
REMARK Flexibility Score: inf
ROOT
ATOM      1  C   UNL A   1      46.986  21.981  35.804  1.00  0.00     0.274 C 
ENDROOT
BRANCH   1   2
ATOM      2  C   UNL A   1      45.578  22.219  36.361  1.00  0.00     0.275 C 
BRANCH   2   3
ATOM      3  O   UNL A   1      45.598  22.847  37.653  1.00  0.00    -0.458 OA
BRANCH   3   4
ATOM      4  C   UNL A   1      45.079  24.027  38.038  1.00  0.00     0.338 C 
ATOM      5  O   UNL A   1      44.991  24.273  39.239  1.00  0.00    -0.246 OA
BRANCH   4   6
ATOM      6  C   UNL A   1      44.538  25.063  37.104  1.00  0.00     0.060 A 
ATOM      7  C   UNL A   1      43.002  24.955  36.193  1.00  0.00     0.016 A 
ATOM      8  C   UNL A   1      45.646  26.417  36.904  1.00  0.00     0.016 A 
ATOM      9  C   UNL A   1      42.432  26.143  35.049  1.00  0.00     0.010 A 
ATOM     10  C   UNL A   1      45.216  27.698  35.720  1.00  0.00     0.010 A 
ATOM     11  C   UNL A   1      43.469  27.570  34.704  1.00  0.00    -0.014 A 
BRANCH  11  12
ATOM     12  C   UNL A   1      42.519  28.407  33.718  1.00  0.00     0.031 A 
ATOM     13  C   UNL A   1      41.688  29.520  34.266  1.00  0.00     0.074 A 
ATOM     14  C   UNL A   1      42.561  28.359  32.362  1.00  0.00     0.049 A 
ATOM     15  N   UNL A   1      40.517  29.958  33.892  1.00  0.00    -0.248 NA
ATOM     16  C   UNL A   1      42.251  30.212  35.426  1.00  0.00     0.031 C 
ATOM     17  C   UNL A   1      43.565  27.682  31.550  1.00  0.00     0.029 A 
ATOM     18  N   UNL A   1      41.693  28.865  31.415  1.00  0.00    -0.354 N 
ATOM     19  C   UNL A   1      40.140  30.853  34.882  1.00  0.00     0.074 A 
ATOM     20  C   UNL A   1      41.187  30.852  35.880  1.00  0.00     0.031 C 
ATOM     21  C   UNL A   1      43.202  27.695  30.254  1.00  0.00     0.029 A 
ATOM     22  C   UNL A   1      41.915  28.365  30.146  1.00  0.00     0.049 A 
ATOM     23  H   UNL A   1      40.985  29.517  31.622  1.00  0.00     0.167 HD
ATOM     24  C   UNL A   1      39.035  31.633  34.924  1.00  0.00     0.037 A 
ATOM     25  C   UNL A   1      41.126  28.379  29.052  1.00  0.00     0.037 A 
ATOM     26  C   UNL A   1      38.158  31.801  33.797  1.00  0.00     0.049 A 
ATOM     27  C   UNL A   1      39.833  29.139  29.123  1.00  0.00     0.074 A 
ATOM     28  C   UNL A   1      37.052  32.618  33.672  1.00  0.00     0.029 A 
ATOM     29  N   UNL A   1      38.351  31.193  32.562  1.00  0.00    -0.354 N 
ATOM     30  N   UNL A   1      39.315  29.790  30.134  1.00  0.00    -0.248 NA
ATOM     31  C   UNL A   1      39.034  29.194  27.892  1.00  0.00     0.031 C 
ATOM     32  C   UNL A   1      36.567  32.494  32.365  1.00  0.00     0.029 A 
ATOM     33  C   UNL A   1      37.395  31.630  31.665  1.00  0.00     0.049 A 
ATOM     34  H   UNL A   1      39.064  30.545  32.357  1.00  0.00     0.167 HD
ATOM     35  C   UNL A   1      38.171  30.400  29.645  1.00  0.00     0.074 A 
ATOM     36  C   UNL A   1      38.051  30.005  28.255  1.00  0.00     0.031 C 
ATOM     37  C   UNL A   1      37.317  31.240  30.279  1.00  0.00     0.037 A 
BRANCH  24  38
ATOM     38  C   UNL A   1      38.727  32.331  36.218  1.00  0.00     0.064 A 
ATOM     39  C   UNL A   1      39.139  33.643  36.498  1.00  0.00     0.173 A 
ATOM     40  C   UNL A   1      38.041  31.637  37.230  1.00  0.00     0.173 A 
ATOM     41  F   UNL A   1      39.801  34.356  35.574  1.00  0.00    -0.203 F 
ATOM     42  C   UNL A   1      38.953  34.201  37.760  1.00  0.00     0.198 A 
ATOM     43  C   UNL A   1      37.806  32.220  38.472  1.00  0.00     0.198 A 
ATOM     44  F   UNL A   1      37.610  30.385  37.020  1.00  0.00    -0.203 F 
ATOM     45  F   UNL A   1      39.460  35.411  38.034  1.00  0.00    -0.200 F 
ATOM     46  C   UNL A   1      38.282  33.492  38.744  1.00  0.00     0.200 A 
ATOM     47  F   UNL A   1      37.138  31.540  39.414  1.00  0.00    -0.200 F 
ATOM     48  F   UNL A   1      38.111  34.029  39.960  1.00  0.00    -0.200 F 
ENDBRANCH  24  38
BRANCH  25  49
ATOM     49  C   UNL A   1      41.469  27.615  27.820  1.00  0.00     0.064 A 
ATOM     50  C   UNL A   1      40.909  26.363  27.543  1.00  0.00     0.173 A 
ATOM     51  C   UNL A   1      42.455  28.084  26.940  1.00  0.00     0.173 A 
ATOM     52  F   UNL A   1      40.023  25.827  28.394  1.00  0.00    -0.203 F 
ATOM     53  C   UNL A   1      41.307  25.623  26.426  1.00  0.00     0.198 A 
ATOM     54  C   UNL A   1      42.825  27.367  25.803  1.00  0.00     0.198 A 
ATOM     55  F   UNL A   1      43.106  29.218  27.216  1.00  0.00    -0.203 F 
ATOM     56  F   UNL A   1      40.798  24.403  26.216  1.00  0.00    -0.200 F 
ATOM     57  C   UNL A   1      42.253  26.133  25.548  1.00  0.00     0.200 A 
ATOM     58  F   UNL A   1      43.751  27.865  24.971  1.00  0.00    -0.200 F 
ATOM     59  F   UNL A   1      42.635  25.424  24.477  1.00  0.00    -0.200 F 
ENDBRANCH  25  49
BRANCH  37  60
ATOM     60  C   UNL A   1      36.240  31.866  29.448  1.00  0.00     0.064 A 
ATOM     61  C   UNL A   1      35.161  31.125  28.949  1.00  0.00     0.173 A 
ATOM     62  C   UNL A   1      36.277  33.245  29.184  1.00  0.00     0.173 A 
ATOM     63  F   UNL A   1      35.098  29.802  29.154  1.00  0.00    -0.203 F 
ATOM     64  C   UNL A   1      34.164  31.740  28.198  1.00  0.00     0.198 A 
ATOM     65  C   UNL A   1      35.261  33.861  28.464  1.00  0.00     0.198 A 
ATOM     66  F   UNL A   1      37.292  33.994  29.641  1.00  0.00    -0.203 F 
ATOM     67  F   UNL A   1      33.166  31.007  27.687  1.00  0.00    -0.200 F 
ATOM     68  C   UNL A   1      34.209  33.109  27.966  1.00  0.00     0.200 A 
ATOM     69  F   UNL A   1      35.299  35.185  28.255  1.00  0.00    -0.200 F 
ATOM     70  F   UNL A   1      33.240  33.700  27.256  1.00  0.00    -0.200 F 
ENDBRANCH  37  60
ENDBRANCH  11  12
ENDBRANCH   4   6
ENDBRANCH   3   4
ENDBRANCH   2   3
ENDBRANCH   1   2
BRANCH   1  71
ATOM     71  O   UNL A   1      47.740  23.211  35.770  1.00  0.00    -0.460 OA
BRANCH  71  72
ATOM     72  C   UNL A   1      48.920  23.314  36.432  1.00  0.00     0.334 C 
ATOM     73  O   UNL A   1      49.040  23.017  37.616  1.00  0.00    -0.249 OA
BRANCH  72  74
ATOM     74  C   UNL A   1      50.061  23.947  35.586  1.00  0.00     0.232 C 
BRANCH  74  75
ATOM     75  C   UNL A   1      51.375  23.174  34.803  1.00  0.00    -0.014 A 
ATOM     76  C   UNL A   1      52.992  23.578  33.651  1.00  0.00     0.006 A 
ATOM     77  C   UNL A   1      50.893  21.402  34.813  1.00  0.00     0.006 A 
ATOM     78  C   UNL A   1      53.811  22.265  32.745  1.00  0.00     0.000 A 
ATOM     79  C   UNL A   1      51.820  20.218  33.882  1.00  0.00     0.000 A 
ATOM     80  C   UNL A   1      53.208  20.646  32.897  1.00  0.00     0.000 A 
ENDBRANCH  74  75
BRANCH  74  81
ATOM     81  N   UNL A   1      49.539  25.236  34.950  1.00  0.00    -0.274 N 
ATOM     82  C   UNL A   1      49.107  25.220  33.626  1.00  0.00     0.267 C 
ATOM     83  C   UNL A   1      49.502  26.501  35.515  1.00  0.00     0.149 C 
ATOM     84  O   UNL A   1      49.345  24.365  32.786  1.00  0.00    -0.268 OA
ATOM     85  C   UNL A   1      48.279  26.424  33.339  1.00  0.00     0.084 C 
ATOM     86  S   UNL A   1      48.910  27.686  34.328  1.00  0.00    -0.054 SA
ATOM     87  S   UNL A   1      49.883  27.023  37.051  1.00  0.00    -0.052 S 
ATOM     88  C   UNL A   1      47.113  26.566  32.685  1.00  0.00     0.068 C 
BRANCH  88  89
ATOM     89  C   UNL A   1      46.228  25.514  32.304  1.00  0.00     0.128 A 
ATOM     90  C   UNL A   1      45.355  24.804  33.123  1.00  0.00     0.051 A 
ATOM     91  O   UNL A   1      45.903  25.181  31.006  1.00  0.00    -0.457 OA
ATOM     92  C   UNL A   1      44.476  24.051  32.328  1.00  0.00     0.051 A 
ATOM     93  C   UNL A   1      44.851  24.306  31.037  1.00  0.00     0.134 A 
BRANCH  93  94
ATOM     94  C   UNL A   1      44.330  23.838  29.770  1.00  0.00     0.017 A 
ATOM     95  C   UNL A   1      45.143  23.846  28.632  1.00  0.00     0.015 A 
ATOM     96  C   UNL A   1      43.035  23.298  29.693  1.00  0.00     0.015 A 
ATOM     97  C   UNL A   1      44.673  23.314  27.433  1.00  0.00     0.040 A 
ATOM     98  C   UNL A   1      42.561  22.777  28.489  1.00  0.00     0.040 A 
ATOM     99  C   UNL A   1      43.388  22.786  27.372  1.00  0.00     0.123 A 
ATOM    100  F   UNL A   1      42.942  22.271  26.219  1.00  0.00    -0.207 F 
ENDBRANCH  93  94
ENDBRANCH  88  89
ENDBRANCH  74  81
ENDBRANCH  72  74
ENDBRANCH  71  72
ENDBRANCH   1  71
TORSDOF 15
ENDMDL
