MODEL 1
REMARK VINA RESULT:     -11.5      0.000      0.000
REMARK SMILES CC[C@H]1CC[C@](Cc2cccnc2)(C(=O)OCCOC(=O)c2ccc(-c3c4nc(c(-c5c(F)c(F)c(F)c(F)c5F)c5ccc([nH]5)c(-c5c(F)c(F)c(F)c(F)c5F)c5nc(c(-c6c(F)c(F)c(F)c(F)c6F)c6ccc3[nH]6)C=C5)C=C4)cc2)C1
REMARK SMILES IDX 17 1 16 2 14 3 15 4 6 5 3 6 4 7 85 8 5 9 2 10 1 11 7 12 8 13
REMARK SMILES IDX 9 14 13 15 10 16 12 17 11 18 18 19 19 20 20 21 21 22 22 23
REMARK SMILES IDX 23 24 84 25 24 26 83 27 25 28 26 29 27 30 77 31 28 32 82 33
REMARK SMILES IDX 76 34 78 35 29 36 81 37 75 38 74 39 30 41 62 42 42 43 61 44
REMARK SMILES IDX 43 45 46 46 60 47 79 48 44 49 45 50 59 52 80 53 47 54 31 55
REMARK SMILES IDX 32 56 40 57 33 58 34 59 38 60 41 61 35 62 36 63 39 64 37 65
REMARK SMILES IDX 63 66 64 67 72 68 65 69 66 70 70 71 73 72 67 73 68 74 71 75
REMARK SMILES IDX 69 76 48 77 49 78 57 79 50 80 51 81 55 82 58 83 52 84 53 85
REMARK SMILES IDX 56 86 54 87
REMARK H PARENT 78 40 46 51
REMARK Flexibility Score: inf
ROOT
ATOM      1  C   UNL A   1      31.090  29.915  24.720  1.00  0.00     0.274 C 
ENDROOT
BRANCH   1   2
ATOM      2  O   UNL A   1      31.830  29.147  23.745  1.00  0.00    -0.462 OA
BRANCH   2   3
ATOM      3  C   UNL A   1      31.107  28.282  22.975  1.00  0.00     0.312 C 
ATOM      4  O   UNL A   1      30.264  28.629  22.159  1.00  0.00    -0.252 OA
BRANCH   3   5
ATOM      5  C   UNL A   1      31.499  26.815  23.256  1.00  0.00     0.072 C 
ATOM      6  C   UNL A   1      33.821  25.988  22.838  1.00  0.00    -0.010 C 
ATOM      7  C   UNL A   1      33.057  26.068  21.520  1.00  0.00     0.005 C 
ATOM      8  C   UNL A   1      32.939  26.779  23.829  1.00  0.00     0.022 C 
ATOM      9  C   UNL A   1      31.586  26.049  21.913  1.00  0.00     0.019 C 
BRANCH   6  10
ATOM     10  C   UNL A   1      34.208  24.584  23.358  1.00  0.00     0.000 C 
ATOM     11  C   UNL A   1      34.533  24.430  24.836  1.00  0.00     0.004 C 
ENDBRANCH   6  10
BRANCH   5  12
ATOM     12  C   UNL A   1      30.415  26.237  24.207  1.00  0.00     0.056 C 
BRANCH  12  13
ATOM     13  C   UNL A   1      30.795  25.039  25.039  1.00  0.00    -0.029 A 
ATOM     14  C   UNL A   1      30.850  23.755  24.494  1.00  0.00     0.007 A 
ATOM     15  C   UNL A   1      31.103  25.167  26.390  1.00  0.00     0.114 A 
ATOM     16  C   UNL A   1      31.141  22.666  25.310  1.00  0.00     0.020 A 
ATOM     17  N   UNL A   1      31.393  24.130  27.207  1.00  0.00    -0.264 NA
ATOM     18  C   UNL A   1      31.393  22.901  26.649  1.00  0.00     0.111 A 
ENDBRANCH  12  13
ENDBRANCH   5  12
ENDBRANCH   3   5
ENDBRANCH   2   3
ENDBRANCH   1   2
BRANCH   1  19
ATOM     19  C   UNL A   1      31.731  29.794  26.099  1.00  0.00     0.275 C 
BRANCH  19  20
ATOM     20  O   UNL A   1      33.056  30.341  26.034  1.00  0.00    -0.458 OA
BRANCH  20  21
ATOM     21  C   UNL A   1      33.362  31.255  26.978  1.00  0.00     0.338 C 
ATOM     22  O   UNL A   1      32.672  32.185  27.366  1.00  0.00    -0.246 OA
BRANCH  21  23
ATOM     23  C   UNL A   1      34.695  30.950  27.526  1.00  0.00     0.060 A 
ATOM     24  C   UNL A   1      35.034  29.629  27.819  1.00  0.00     0.016 A 
ATOM     25  C   UNL A   1      35.569  31.985  27.854  1.00  0.00     0.016 A 
ATOM     26  C   UNL A   1      36.201  29.345  28.521  1.00  0.00     0.010 A 
ATOM     27  C   UNL A   1      36.783  31.690  28.485  1.00  0.00     0.010 A 
ATOM     28  C   UNL A   1      37.087  30.372  28.866  1.00  0.00    -0.014 A 
BRANCH  28  29
ATOM     29  C   UNL A   1      38.272  30.065  29.711  1.00  0.00     0.031 A 
ATOM     30  C   UNL A   1      39.398  29.244  29.145  1.00  0.00     0.074 A 
ATOM     31  C   UNL A   1      38.376  30.566  30.957  1.00  0.00     0.049 A 
ATOM     32  N   UNL A   1      40.467  28.775  29.740  1.00  0.00    -0.248 NA
ATOM     33  C   UNL A   1      39.305  28.895  27.718  1.00  0.00     0.031 C 
ATOM     34  C   UNL A   1      37.384  31.419  31.612  1.00  0.00     0.029 A 
ATOM     35  N   UNL A   1      39.377  30.443  31.888  1.00  0.00    -0.354 N 
ATOM     36  C   UNL A   1      41.135  28.026  28.781  1.00  0.00     0.074 A 
ATOM     37  C   UNL A   1      40.360  28.109  27.562  1.00  0.00     0.031 C 
ATOM     38  C   UNL A   1      37.843  31.775  32.821  1.00  0.00     0.029 A 
ATOM     39  C   UNL A   1      39.129  31.123  33.054  1.00  0.00     0.049 A 
ATOM     40  H   UNL A   1      40.196  29.917  31.733  1.00  0.00     0.167 HD
ATOM     41  C   UNL A   1      42.290  27.330  28.907  1.00  0.00     0.037 A 
ATOM     42  C   UNL A   1      39.844  31.193  34.193  1.00  0.00     0.037 A 
ATOM     43  C   UNL A   1      43.097  27.301  30.098  1.00  0.00     0.049 A 
ATOM     44  C   UNL A   1      41.136  30.434  34.301  1.00  0.00     0.074 A 
ATOM     45  C   UNL A   1      44.286  26.629  30.321  1.00  0.00     0.029 A 
ATOM     46  N   UNL A   1      42.805  27.996  31.262  1.00  0.00    -0.354 N 
ATOM     47  N   UNL A   1      41.727  29.676  33.410  1.00  0.00    -0.248 NA
ATOM     48  C   UNL A   1      41.855  30.530  35.579  1.00  0.00     0.031 C 
ATOM     49  C   UNL A   1      44.703  26.900  31.631  1.00  0.00     0.029 A 
ATOM     50  C   UNL A   1      43.789  27.766  32.210  1.00  0.00     0.049 A 
ATOM     51  H   UNL A   1      42.015  28.569  31.396  1.00  0.00     0.167 HD
ATOM     52  C   UNL A   1      42.880  29.200  34.019  1.00  0.00     0.074 A 
ATOM     53  C   UNL A   1      42.924  29.782  35.344  1.00  0.00     0.031 C 
ATOM     54  C   UNL A   1      43.812  28.347  33.527  1.00  0.00     0.037 A 
BRANCH  41  55
ATOM     55  C   UNL A   1      42.719  26.502  27.734  1.00  0.00     0.064 A 
ATOM     56  C   UNL A   1      42.235  25.204  27.522  1.00  0.00     0.173 A 
ATOM     57  C   UNL A   1      43.634  27.024  26.808  1.00  0.00     0.173 A 
ATOM     58  F   UNL A   1      41.375  24.653  28.392  1.00  0.00    -0.203 F 
ATOM     59  C   UNL A   1      42.676  24.446  26.440  1.00  0.00     0.198 A 
ATOM     60  C   UNL A   1      44.055  26.273  25.714  1.00  0.00     0.198 A 
ATOM     61  F   UNL A   1      44.126  28.262  26.968  1.00  0.00    -0.203 F 
ATOM     62  F   UNL A   1      42.242  23.188  26.283  1.00  0.00    -0.200 F 
ATOM     63  C   UNL A   1      43.582  24.983  25.535  1.00  0.00     0.200 A 
ATOM     64  F   UNL A   1      44.925  26.795  24.839  1.00  0.00    -0.200 F 
ATOM     65  F   UNL A   1      44.008  24.249  24.497  1.00  0.00    -0.200 F 
ENDBRANCH  41  55
BRANCH  42  66
ATOM     66  C   UNL A   1      39.331  31.997  35.331  1.00  0.00     0.064 A 
ATOM     67  C   UNL A   1      38.488  31.429  36.295  1.00  0.00     0.173 A 
ATOM     68  C   UNL A   1      39.690  33.344  35.486  1.00  0.00     0.173 A 
ATOM     69  F   UNL A   1      38.096  30.152  36.173  1.00  0.00    -0.203 F 
ATOM     70  C   UNL A   1      38.018  32.180  37.370  1.00  0.00     0.198 A 
ATOM     71  C   UNL A   1      39.242  34.086  36.576  1.00  0.00     0.198 A 
ATOM     72  F   UNL A   1      40.494  33.932  34.588  1.00  0.00    -0.203 F 
ATOM     73  F   UNL A   1      37.187  31.623  38.262  1.00  0.00    -0.200 F 
ATOM     74  C   UNL A   1      38.403  33.505  37.514  1.00  0.00     0.200 A 
ATOM     75  F   UNL A   1      39.624  35.362  36.718  1.00  0.00    -0.200 F 
ATOM     76  F   UNL A   1      37.960  34.223  38.556  1.00  0.00    -0.200 F 
ENDBRANCH  42  66
BRANCH  54  77
ATOM     77  C   UNL A   1      44.954  27.995  34.431  1.00  0.00     0.064 A 
ATOM     78  C   UNL A   1      44.895  26.881  35.279  1.00  0.00     0.173 A 
ATOM     79  C   UNL A   1      46.127  28.764  34.431  1.00  0.00     0.173 A 
ATOM     80  F   UNL A   1      43.788  26.124  35.324  1.00  0.00    -0.203 F 
ATOM     81  C   UNL A   1      45.961  26.561  36.115  1.00  0.00     0.198 A 
ATOM     82  C   UNL A   1      47.201  28.429  35.252  1.00  0.00     0.198 A 
ATOM     83  F   UNL A   1      46.233  29.837  33.634  1.00  0.00    -0.203 F 
ATOM     84  F   UNL A   1      45.868  25.516  36.949  1.00  0.00    -0.200 F 
ATOM     85  C   UNL A   1      47.114  27.332  36.097  1.00  0.00     0.200 A 
ATOM     86  F   UNL A   1      48.317  29.170  35.231  1.00  0.00    -0.200 F 
ATOM     87  F   UNL A   1      48.140  27.024  36.904  1.00  0.00    -0.200 F 
ENDBRANCH  54  77
ENDBRANCH  28  29
ENDBRANCH  21  23
ENDBRANCH  20  21
ENDBRANCH  19  20
ENDBRANCH   1  19
TORSDOF 14
ENDMDL
MODEL 2
REMARK VINA RESULT:     -11.4      0.243      1.666
REMARK SMILES CC[C@H]1CC[C@](Cc2cccnc2)(C(=O)OCCOC(=O)c2ccc(-c3c4nc(c(-c5c(F)c(F)c(F)c(F)c5F)c5ccc([nH]5)c(-c5c(F)c(F)c(F)c(F)c5F)c5nc(c(-c6c(F)c(F)c(F)c(F)c6F)c6ccc3[nH]6)C=C5)C=C4)cc2)C1
REMARK SMILES IDX 17 1 16 2 14 3 15 4 6 5 3 6 4 7 85 8 5 9 2 10 1 11 7 12 8 13
REMARK SMILES IDX 9 14 13 15 10 16 12 17 11 18 18 19 19 20 20 21 21 22 22 23
REMARK SMILES IDX 23 24 84 25 24 26 83 27 25 28 26 29 27 30 77 31 28 32 82 33
REMARK SMILES IDX 76 34 78 35 29 36 81 37 75 38 74 39 30 41 62 42 42 43 61 44
REMARK SMILES IDX 43 45 46 46 60 47 79 48 44 49 45 50 59 52 80 53 47 54 31 55
REMARK SMILES IDX 32 56 40 57 33 58 34 59 38 60 41 61 35 62 36 63 39 64 37 65
REMARK SMILES IDX 63 66 64 67 72 68 65 69 66 70 70 71 73 72 67 73 68 74 71 75
REMARK SMILES IDX 69 76 48 77 49 78 57 79 50 80 51 81 55 82 58 83 52 84 53 85
REMARK SMILES IDX 56 86 54 87
REMARK H PARENT 78 40 46 51
REMARK Flexibility Score: inf
ROOT
ATOM      1  C   UNL A   1      31.058  29.958  24.693  1.00  0.00     0.274 C 
ENDROOT
BRANCH   1   2
ATOM      2  O   UNL A   1      31.858  29.085  23.864  1.00  0.00    -0.462 OA
BRANCH   2   3
ATOM      3  C   UNL A   1      31.179  28.283  22.992  1.00  0.00     0.312 C 
ATOM      4  O   UNL A   1      30.426  28.699  22.122  1.00  0.00    -0.252 OA
BRANCH   3   5
ATOM      5  C   UNL A   1      31.495  26.792  23.234  1.00  0.00     0.072 C 
ATOM      6  C   UNL A   1      33.747  25.839  22.714  1.00  0.00    -0.010 C 
ATOM      7  C   UNL A   1      32.939  25.986  21.428  1.00  0.00     0.005 C 
ATOM      8  C   UNL A   1      32.950  26.662  23.751  1.00  0.00     0.022 C 
ATOM      9  C   UNL A   1      31.486  26.046  21.877  1.00  0.00     0.019 C 
BRANCH   6  10
ATOM     10  C   UNL A   1      34.070  24.406  23.198  1.00  0.00     0.000 C 
ATOM     11  C   UNL A   1      33.649  23.239  22.317  1.00  0.00     0.004 C 
ENDBRANCH   6  10
BRANCH   5  12
ATOM     12  C   UNL A   1      30.415  26.261  24.218  1.00  0.00     0.056 C 
BRANCH  12  13
ATOM     13  C   UNL A   1      30.774  25.059  25.053  1.00  0.00    -0.029 A 
ATOM     14  C   UNL A   1      30.763  23.767  24.523  1.00  0.00     0.007 A 
ATOM     15  C   UNL A   1      31.128  25.190  26.393  1.00  0.00     0.114 A 
ATOM     16  C   UNL A   1      31.037  22.677  25.343  1.00  0.00     0.020 A 
ATOM     17  N   UNL A   1      31.403  24.152  27.213  1.00  0.00    -0.264 NA
ATOM     18  C   UNL A   1      31.340  22.918  26.672  1.00  0.00     0.111 A 
ENDBRANCH  12  13
ENDBRANCH   5  12
ENDBRANCH   3   5
ENDBRANCH   2   3
ENDBRANCH   1   2
BRANCH   1  19
ATOM     19  C   UNL A   1      31.604  29.997  26.117  1.00  0.00     0.275 C 
BRANCH  19  20
ATOM     20  O   UNL A   1      32.975  30.418  26.067  1.00  0.00    -0.458 OA
BRANCH  20  21
ATOM     21  C   UNL A   1      33.332  31.367  26.956  1.00  0.00     0.338 C 
ATOM     22  O   UNL A   1      32.685  32.345  27.302  1.00  0.00    -0.246 OA
BRANCH  21  23
ATOM     23  C   UNL A   1      34.658  31.036  27.505  1.00  0.00     0.060 A 
ATOM     24  C   UNL A   1      34.978  29.706  27.783  1.00  0.00     0.016 A 
ATOM     25  C   UNL A   1      35.546  32.054  27.849  1.00  0.00     0.016 A 
ATOM     26  C   UNL A   1      36.138  29.397  28.485  1.00  0.00     0.010 A 
ATOM     27  C   UNL A   1      36.753  31.735  28.479  1.00  0.00     0.010 A 
ATOM     28  C   UNL A   1      37.038  30.407  28.845  1.00  0.00    -0.014 A 
BRANCH  28  29
ATOM     29  C   UNL A   1      38.215  30.073  29.689  1.00  0.00     0.031 A 
ATOM     30  C   UNL A   1      39.324  29.230  29.121  1.00  0.00     0.074 A 
ATOM     31  C   UNL A   1      38.329  30.568  30.937  1.00  0.00     0.049 A 
ATOM     32  N   UNL A   1      40.383  28.737  29.716  1.00  0.00    -0.248 NA
ATOM     33  C   UNL A   1      39.225  28.888  27.694  1.00  0.00     0.031 C 
ATOM     34  C   UNL A   1      37.356  31.441  31.593  1.00  0.00     0.029 A 
ATOM     35  N   UNL A   1      39.327  30.422  31.868  1.00  0.00    -0.354 N 
ATOM     36  C   UNL A   1      41.036  27.978  28.754  1.00  0.00     0.074 A 
ATOM     37  C   UNL A   1      40.263  28.079  27.535  1.00  0.00     0.031 C 
ATOM     38  C   UNL A   1      37.821  31.783  32.804  1.00  0.00     0.029 A 
ATOM     39  C   UNL A   1      39.093  31.103  33.035  1.00  0.00     0.049 A 
ATOM     40  H   UNL A   1      40.135  29.879  31.712  1.00  0.00     0.167 HD
ATOM     41  C   UNL A   1      42.175  27.256  28.879  1.00  0.00     0.037 A 
ATOM     42  C   UNL A   1      39.809  31.155  34.175  1.00  0.00     0.037 A 
ATOM     43  C   UNL A   1      42.981  27.207  30.070  1.00  0.00     0.049 A 
ATOM     44  C   UNL A   1      41.085  30.369  34.281  1.00  0.00     0.074 A 
ATOM     45  C   UNL A   1      44.156  26.510  30.292  1.00  0.00     0.029 A 
ATOM     46  N   UNL A   1      42.704  27.905  31.237  1.00  0.00    -0.354 N 
ATOM     47  N   UNL A   1      41.660  29.601  33.388  1.00  0.00    -0.248 NA
ATOM     48  C   UNL A   1      41.805  30.446  35.560  1.00  0.00     0.031 C 
ATOM     49  C   UNL A   1      44.578  26.768  31.602  1.00  0.00     0.029 A 
ATOM     50  C   UNL A   1      43.682  27.651  32.184  1.00  0.00     0.049 A 
ATOM     51  H   UNL A   1      41.926  28.494  31.372  1.00  0.00     0.167 HD
ATOM     52  C   UNL A   1      42.802  29.099  33.996  1.00  0.00     0.074 A 
ATOM     53  C   UNL A   1      42.858  29.676  35.323  1.00  0.00     0.031 C 
ATOM     54  C   UNL A   1      43.716  28.228  33.503  1.00  0.00     0.037 A 
BRANCH  41  55
ATOM     55  C   UNL A   1      42.587  26.424  27.704  1.00  0.00     0.064 A 
ATOM     56  C   UNL A   1      42.061  25.145  27.477  1.00  0.00     0.173 A 
ATOM     57  C   UNL A   1      43.530  26.920  26.791  1.00  0.00     0.173 A 
ATOM     58  F   UNL A   1      41.173  24.618  28.333  1.00  0.00    -0.203 F 
ATOM     59  C   UNL A   1      42.486  24.380  26.393  1.00  0.00     0.198 A 
ATOM     60  C   UNL A   1      43.935  26.163  25.696  1.00  0.00     0.198 A 
ATOM     61  F   UNL A   1      44.063  28.139  26.966  1.00  0.00    -0.203 F 
ATOM     62  F   UNL A   1      42.009  23.140  26.221  1.00  0.00    -0.200 F 
ATOM     63  C   UNL A   1      43.419  24.892  25.502  1.00  0.00     0.200 A 
ATOM     64  F   UNL A   1      44.833  26.661  24.834  1.00  0.00    -0.200 F 
ATOM     65  F   UNL A   1      43.831  24.151  24.462  1.00  0.00    -0.200 F 
ENDBRANCH  41  55
BRANCH  42  66
ATOM     66  C   UNL A   1      39.312  31.966  35.316  1.00  0.00     0.064 A 
ATOM     67  C   UNL A   1      39.631  33.326  35.427  1.00  0.00     0.173 A 
ATOM     68  C   UNL A   1      38.494  31.401  36.305  1.00  0.00     0.173 A 
ATOM     69  F   UNL A   1      40.432  33.903  34.520  1.00  0.00    -0.203 F 
ATOM     70  C   UNL A   1      39.153  34.090  36.489  1.00  0.00     0.198 A 
ATOM     71  C   UNL A   1      37.995  32.172  37.351  1.00  0.00     0.198 A 
ATOM     72  F   UNL A   1      38.164  30.103  36.241  1.00  0.00    -0.203 F 
ATOM     73  F   UNL A   1      39.497  35.381  36.593  1.00  0.00    -0.200 F 
ATOM     74  C   UNL A   1      38.328  33.514  37.446  1.00  0.00     0.200 A 
ATOM     75  F   UNL A   1      37.190  31.615  38.266  1.00  0.00    -0.200 F 
ATOM     76  F   UNL A   1      37.859  34.253  38.460  1.00  0.00    -0.200 F 
ENDBRANCH  42  66
BRANCH  54  77
ATOM     77  C   UNL A   1      44.851  27.849  34.406  1.00  0.00     0.064 A 
ATOM     78  C   UNL A   1      46.032  28.603  34.447  1.00  0.00     0.173 A 
ATOM     79  C   UNL A   1      44.746  26.737  35.255  1.00  0.00     0.173 A 
ATOM     80  F   UNL A   1      46.182  29.666  33.643  1.00  0.00    -0.203 F 
ATOM     81  C   UNL A   1      47.080  28.243  35.289  1.00  0.00     0.198 A 
ATOM     82  C   UNL A   1      45.788  26.393  36.112  1.00  0.00     0.198 A 
ATOM     83  F   UNL A   1      43.634  25.987  35.254  1.00  0.00    -0.203 F 
ATOM     84  F   UNL A   1      48.217  28.953  35.283  1.00  0.00    -0.200 F 
ATOM     85  C   UNL A   1      46.955  27.142  36.123  1.00  0.00     0.200 A 
ATOM     86  F   UNL A   1      45.665  25.333  36.922  1.00  0.00    -0.200 F 
ATOM     87  F   UNL A   1      47.966  26.796  36.933  1.00  0.00    -0.200 F 
ENDBRANCH  54  77
ENDBRANCH  28  29
ENDBRANCH  21  23
ENDBRANCH  20  21
ENDBRANCH  19  20
ENDBRANCH   1  19
TORSDOF 14
ENDMDL
MODEL 3
REMARK VINA RESULT:     -11.4      4.623      9.578
REMARK SMILES CC[C@H]1CC[C@](Cc2cccnc2)(C(=O)OCCOC(=O)c2ccc(-c3c4nc(c(-c5c(F)c(F)c(F)c(F)c5F)c5ccc([nH]5)c(-c5c(F)c(F)c(F)c(F)c5F)c5nc(c(-c6c(F)c(F)c(F)c(F)c6F)c6ccc3[nH]6)C=C5)C=C4)cc2)C1
REMARK SMILES IDX 17 1 16 2 14 3 15 4 6 5 3 6 4 7 85 8 5 9 2 10 1 11 7 12 8 13
REMARK SMILES IDX 9 14 13 15 10 16 12 17 11 18 18 19 19 20 20 21 21 22 22 23
REMARK SMILES IDX 23 24 84 25 24 26 83 27 25 28 26 29 27 30 77 31 28 32 82 33
REMARK SMILES IDX 76 34 78 35 29 36 81 37 75 38 74 39 30 41 62 42 42 43 61 44
REMARK SMILES IDX 43 45 46 46 60 47 79 48 44 49 45 50 59 52 80 53 47 54 31 55
REMARK SMILES IDX 32 56 40 57 33 58 34 59 38 60 41 61 35 62 36 63 39 64 37 65
REMARK SMILES IDX 63 66 64 67 72 68 65 69 66 70 70 71 73 72 67 73 68 74 71 75
REMARK SMILES IDX 69 76 48 77 49 78 57 79 50 80 51 81 55 82 58 83 52 84 53 85
REMARK SMILES IDX 56 86 54 87
REMARK H PARENT 78 40 46 51
REMARK Flexibility Score: inf
ROOT
ATOM      1  C   UNL A   1      36.007  20.139  25.008  1.00  0.00     0.274 C 
ENDROOT
BRANCH   1   2
ATOM      2  O   UNL A   1      34.815  20.719  24.432  1.00  0.00    -0.462 OA
BRANCH   2   3
ATOM      3  C   UNL A   1      33.696  20.715  25.214  1.00  0.00     0.312 C 
ATOM      4  O   UNL A   1      33.161  19.700  25.641  1.00  0.00    -0.252 OA
BRANCH   3   5
ATOM      5  C   UNL A   1      33.204  22.148  25.503  1.00  0.00     0.072 C 
ATOM      6  C   UNL A   1      34.789  24.081  25.560  1.00  0.00    -0.010 C 
ATOM      7  C   UNL A   1      34.880  23.300  26.868  1.00  0.00     0.005 C 
ATOM      8  C   UNL A   1      34.000  23.143  24.620  1.00  0.00     0.022 C 
ATOM      9  C   UNL A   1      33.572  22.526  26.959  1.00  0.00     0.019 C 
BRANCH   6  10
ATOM     10  C   UNL A   1      34.205  25.511  25.619  1.00  0.00     0.000 C 
ATOM     11  C   UNL A   1      33.709  26.138  24.325  1.00  0.00     0.004 C 
ENDBRANCH   6  10
BRANCH   5  12
ATOM     12  C   UNL A   1      31.670  22.153  25.252  1.00  0.00     0.056 C 
BRANCH  12  13
ATOM     13  C   UNL A   1      31.003  23.494  25.084  1.00  0.00    -0.029 A 
ATOM     14  C   UNL A   1      30.692  24.006  23.822  1.00  0.00     0.007 A 
ATOM     15  C   UNL A   1      30.673  24.279  26.184  1.00  0.00     0.114 A 
ATOM     16  C   UNL A   1      30.136  25.276  23.706  1.00  0.00     0.020 A 
ATOM     17  N   UNL A   1      30.129  25.514  26.104  1.00  0.00    -0.264 NA
ATOM     18  C   UNL A   1      29.884  25.988  24.865  1.00  0.00     0.111 A 
ENDBRANCH  12  13
ENDBRANCH   5  12
ENDBRANCH   3   5
ENDBRANCH   2   3
ENDBRANCH   1   2
BRANCH   1  19
ATOM     19  C   UNL A   1      37.243  20.934  24.600  1.00  0.00     0.275 C 
BRANCH  19  20
ATOM     20  O   UNL A   1      37.693  21.688  25.736  1.00  0.00    -0.458 OA
BRANCH  20  21
ATOM     21  C   UNL A   1      38.968  21.469  26.119  1.00  0.00     0.338 C 
ATOM     22  O   UNL A   1      39.606  20.431  26.029  1.00  0.00    -0.246 OA
BRANCH  21  23
ATOM     23  C   UNL A   1      39.526  22.720  26.662  1.00  0.00     0.060 A 
ATOM     24  C   UNL A   1      39.038  23.947  26.212  1.00  0.00     0.016 A 
ATOM     25  C   UNL A   1      40.610  22.678  27.538  1.00  0.00     0.016 A 
ATOM     26  C   UNL A   1      39.686  25.128  26.559  1.00  0.00     0.010 A 
ATOM     27  C   UNL A   1      41.208  23.873  27.954  1.00  0.00     0.010 A 
ATOM     28  C   UNL A   1      40.781  25.105  27.430  1.00  0.00    -0.014 A 
BRANCH  28  29
ATOM     29  C   UNL A   1      41.527  26.362  27.701  1.00  0.00     0.031 A 
ATOM     30  C   UNL A   1      40.899  27.434  28.549  1.00  0.00     0.074 A 
ATOM     31  C   UNL A   1      42.786  26.525  27.248  1.00  0.00     0.049 A 
ATOM     32  N   UNL A   1      41.331  28.641  28.819  1.00  0.00    -0.248 NA
ATOM     33  C   UNL A   1      39.605  27.108  29.169  1.00  0.00     0.031 C 
ATOM     34  C   UNL A   1      43.536  25.547  26.461  1.00  0.00     0.029 A 
ATOM     35  N   UNL A   1      43.662  27.571  27.404  1.00  0.00    -0.354 N 
ATOM     36  C   UNL A   1      40.335  29.236  29.582  1.00  0.00     0.074 A 
ATOM     37  C   UNL A   1      39.281  28.258  29.742  1.00  0.00     0.031 C 
ATOM     38  C   UNL A   1      44.771  26.020  26.236  1.00  0.00     0.029 A 
ATOM     39  C   UNL A   1      44.878  27.361  26.805  1.00  0.00     0.049 A 
ATOM     40  H   UNL A   1      43.438  28.392  27.899  1.00  0.00     0.167 HD
ATOM     41  C   UNL A   1      40.302  30.487  30.100  1.00  0.00     0.037 A 
ATOM     42  C   UNL A   1      45.952  28.168  26.702  1.00  0.00     0.037 A 
ATOM     43  C   UNL A   1      41.377  31.439  29.999  1.00  0.00     0.049 A 
ATOM     44  C   UNL A   1      45.903  29.541  27.308  1.00  0.00     0.074 A 
ATOM     45  C   UNL A   1      41.440  32.729  30.495  1.00  0.00     0.029 A 
ATOM     46  N   UNL A   1      42.590  31.191  29.374  1.00  0.00    -0.354 N 
ATOM     47  N   UNL A   1      44.932  30.119  27.972  1.00  0.00    -0.248 NA
ATOM     48  C   UNL A   1      47.097  30.382  27.139  1.00  0.00     0.031 C 
ATOM     49  C   UNL A   1      42.684  33.270  30.150  1.00  0.00     0.029 A 
ATOM     50  C   UNL A   1      43.408  32.305  29.468  1.00  0.00     0.049 A 
ATOM     51  H   UNL A   1      42.835  30.346  28.929  1.00  0.00     0.167 HD
ATOM     52  C   UNL A   1      45.391  31.388  28.294  1.00  0.00     0.074 A 
ATOM     53  C   UNL A   1      46.742  31.486  27.781  1.00  0.00     0.031 C 
ATOM     54  C   UNL A   1      44.746  32.387  28.944  1.00  0.00     0.037 A 
BRANCH  41  55
ATOM     55  C   UNL A   1      39.036  30.910  30.781  1.00  0.00     0.064 A 
ATOM     56  C   UNL A   1      38.846  30.754  32.161  1.00  0.00     0.173 A 
ATOM     57  C   UNL A   1      37.995  31.479  30.032  1.00  0.00     0.173 A 
ATOM     58  F   UNL A   1      39.803  30.196  32.916  1.00  0.00    -0.203 F 
ATOM     59  C   UNL A   1      37.646  31.127  32.762  1.00  0.00     0.198 A 
ATOM     60  C   UNL A   1      36.807  31.872  30.639  1.00  0.00     0.198 A 
ATOM     61  F   UNL A   1      38.130  31.648  28.708  1.00  0.00    -0.203 F 
ATOM     62  F   UNL A   1      37.463  30.923  34.074  1.00  0.00    -0.200 F 
ATOM     63  C   UNL A   1      36.630  31.689  32.001  1.00  0.00     0.200 A 
ATOM     64  F   UNL A   1      35.829  32.419  29.904  1.00  0.00    -0.200 F 
ATOM     65  F   UNL A   1      35.474  32.042  32.582  1.00  0.00    -0.200 F 
ENDBRANCH  41  55
BRANCH  42  66
ATOM     66  C   UNL A   1      47.155  27.696  25.970  1.00  0.00     0.064 A 
ATOM     67  C   UNL A   1      47.262  27.849  24.582  1.00  0.00     0.173 A 
ATOM     68  C   UNL A   1      48.228  27.099  26.649  1.00  0.00     0.173 A 
ATOM     69  F   UNL A   1      46.250  28.389  23.888  1.00  0.00    -0.203 F 
ATOM     70  C   UNL A   1      48.397  27.419  23.898  1.00  0.00     0.198 A 
ATOM     71  C   UNL A   1      49.373  26.694  25.968  1.00  0.00     0.198 A 
ATOM     72  F   UNL A   1      48.170  26.929  27.978  1.00  0.00    -0.203 F 
ATOM     73  F   UNL A   1      48.464  27.548  22.566  1.00  0.00    -0.200 F 
ATOM     74  C   UNL A   1      49.455  26.850  24.593  1.00  0.00     0.200 A 
ATOM     75  F   UNL A   1      50.397  26.156  26.644  1.00  0.00    -0.200 F 
ATOM     76  F   UNL A   1      50.551  26.448  23.935  1.00  0.00    -0.200 F 
ENDBRANCH  42  66
BRANCH  54  77
ATOM     77  C   UNL A   1      45.497  33.670  29.134  1.00  0.00     0.064 A 
ATOM     78  C   UNL A   1      46.314  33.877  30.254  1.00  0.00     0.173 A 
ATOM     79  C   UNL A   1      45.419  34.692  28.176  1.00  0.00     0.173 A 
ATOM     80  F   UNL A   1      46.408  32.934  31.204  1.00  0.00    -0.203 F 
ATOM     81  C   UNL A   1      47.008  35.072  30.422  1.00  0.00     0.198 A 
ATOM     82  C   UNL A   1      46.131  35.877  28.336  1.00  0.00     0.198 A 
ATOM     83  F   UNL A   1      44.654  34.539  27.085  1.00  0.00    -0.203 F 
ATOM     84  F   UNL A   1      47.749  35.266  31.522  1.00  0.00    -0.200 F 
ATOM     85  C   UNL A   1      46.919  36.068  29.462  1.00  0.00     0.200 A 
ATOM     86  F   UNL A   1      46.051  36.837  27.405  1.00  0.00    -0.200 F 
ATOM     87  F   UNL A   1      47.587  37.219  29.625  1.00  0.00    -0.200 F 
ENDBRANCH  54  77
ENDBRANCH  28  29
ENDBRANCH  21  23
ENDBRANCH  20  21
ENDBRANCH  19  20
ENDBRANCH   1  19
TORSDOF 14
ENDMDL
