MODEL 1
REMARK VINA RESULT:     -12.1      0.000      0.000
REMARK SMILES O=C(OCCOC(=O)c1cc(SCC(=O)N2CCOCC2)ccn1)c1ccc(-c2c3nc(c(-c4c(F)c(F)c(F)c(F)c4F)c4ccc([nH]4)c(-c4c(F)c(F)c(F)c(F)c4F)c4nc(c(-c5c(F)c(F)c(F)c(F)c5F)c5ccc2[nH]5)C=C4)C=C3)cc1
REMARK SMILES IDX 5 1 4 2 3 3 2 4 1 5 25 6 26 7 87 8 27 9 86 10 28 11 29 12
REMARK SMILES IDX 30 13 80 14 31 15 85 16 79 17 81 18 32 19 84 20 78 21 77 22
REMARK SMILES IDX 33 24 65 25 45 26 64 27 46 28 49 29 63 30 82 31 47 32 48 33
REMARK SMILES IDX 62 35 83 36 50 37 34 38 35 39 43 40 36 41 37 42 41 43 44 44
REMARK SMILES IDX 38 45 39 46 42 47 40 48 66 49 67 50 75 51 68 52 69 53 73 54
REMARK SMILES IDX 76 55 70 56 71 57 74 58 72 59 51 60 52 61 60 62 53 63 54 64
REMARK SMILES IDX 58 65 61 66 55 67 56 68 59 69 57 70 6 71 7 72 8 73 9 74
REMARK SMILES IDX 10 75 24 76 11 77 23 78 22 79 12 80 13 81 14 82 15 83 16 84
REMARK SMILES IDX 17 85 21 86 18 87 20 88 19 89
REMARK H PARENT 81 23 49 34
REMARK Flexibility Score: inf
ROOT
ATOM      1  C   UNL A   1      31.095  28.554  24.806  1.00  0.00     0.275 C 
ENDROOT
BRANCH   1   2
ATOM      2  C   UNL A   1      32.073  29.694  25.109  1.00  0.00     0.275 C 
BRANCH   2   3
ATOM      3  O   UNL A   1      31.934  30.178  26.461  1.00  0.00    -0.458 OA
BRANCH   3   4
ATOM      4  C   UNL A   1      32.662  31.157  27.053  1.00  0.00     0.338 C 
ATOM      5  O   UNL A   1      32.222  32.303  27.107  1.00  0.00    -0.246 OA
BRANCH   4   6
ATOM      6  C   UNL A   1      34.083  30.938  27.475  1.00  0.00     0.060 A 
ATOM      7  C   UNL A   1      34.672  29.693  27.655  1.00  0.00     0.016 A 
ATOM      8  C   UNL A   1      34.847  32.081  27.809  1.00  0.00     0.016 A 
ATOM      9  C   UNL A   1      35.967  29.594  28.155  1.00  0.00     0.010 A 
ATOM     10  C   UNL A   1      36.161  31.981  28.308  1.00  0.00     0.010 A 
ATOM     11  C   UNL A   1      36.727  30.727  28.487  1.00  0.00    -0.014 A 
BRANCH  11  12
ATOM     12  C   UNL A   1      38.005  30.446  29.149  1.00  0.00     0.031 A 
ATOM     13  C   UNL A   1      38.201  30.711  30.652  1.00  0.00     0.074 A 
ATOM     14  C   UNL A   1      38.860  29.567  28.592  1.00  0.00     0.049 A 
ATOM     15  N   UNL A   1      39.168  30.308  31.452  1.00  0.00    -0.248 NA
ATOM     16  C   UNL A   1      37.264  31.618  31.311  1.00  0.00     0.031 C 
ATOM     17  C   UNL A   1      39.647  29.328  26.874  1.00  0.00     0.029 A 
ATOM     18  N   UNL A   1      39.816  28.515  29.654  1.00  0.00    -0.354 N 
ATOM     19  C   UNL A   1      39.023  30.921  32.683  1.00  0.00     0.074 A 
ATOM     20  C   UNL A   1      37.805  31.724  32.523  1.00  0.00     0.031 C 
ATOM     21  C   UNL A   1      40.867  28.198  26.877  1.00  0.00     0.029 A 
ATOM     22  C   UNL A   1      41.209  27.542  28.693  1.00  0.00     0.049 A 
ATOM     23  H   UNL A   1      39.660  28.431  30.623  1.00  0.00     0.167 HD
ATOM     24  C   UNL A   1      39.815  30.900  33.805  1.00  0.00     0.037 A 
ATOM     25  C   UNL A   1      42.373  26.817  28.963  1.00  0.00     0.037 A 
ATOM     26  C   UNL A   1      41.085  30.204  34.117  1.00  0.00     0.049 A 
ATOM     27  C   UNL A   1      43.174  26.695  30.295  1.00  0.00     0.074 A 
ATOM     28  C   UNL A   1      41.897  30.394  35.236  1.00  0.00     0.029 A 
ATOM     29  N   UNL A   1      41.731  29.175  33.423  1.00  0.00    -0.354 N 
ATOM     30  N   UNL A   1      43.004  27.434  31.348  1.00  0.00    -0.248 NA
ATOM     31  C   UNL A   1      44.304  25.777  30.506  1.00  0.00     0.031 C 
ATOM     32  C   UNL A   1      43.022  29.547  35.171  1.00  0.00     0.029 A 
ATOM     33  C   UNL A   1      42.940  28.776  34.024  1.00  0.00     0.049 A 
ATOM     34  H   UNL A   1      41.378  28.773  32.597  1.00  0.00     0.167 HD
ATOM     35  C   UNL A   1      43.856  27.119  32.340  1.00  0.00     0.074 A 
ATOM     36  C   UNL A   1      44.686  26.076  31.762  1.00  0.00     0.031 C 
ATOM     37  C   UNL A   1      43.869  27.724  33.557  1.00  0.00     0.037 A 
BRANCH  24  38
ATOM     38  C   UNL A   1      39.329  31.854  34.870  1.00  0.00     0.064 A 
ATOM     39  C   UNL A   1      39.664  33.217  34.854  1.00  0.00     0.173 A 
ATOM     40  C   UNL A   1      38.557  31.374  35.943  1.00  0.00     0.173 A 
ATOM     41  F   UNL A   1      40.429  33.711  33.870  1.00  0.00    -0.203 F 
ATOM     42  C   UNL A   1      39.271  34.059  35.892  1.00  0.00     0.198 A 
ATOM     43  C   UNL A   1      38.143  32.226  36.963  1.00  0.00     0.198 A 
ATOM     44  F   UNL A   1      38.216  30.078  36.004  1.00  0.00    -0.203 F 
ATOM     45  F   UNL A   1      39.656  35.343  35.892  1.00  0.00    -0.200 F 
ATOM     46  C   UNL A   1      38.510  33.564  36.942  1.00  0.00     0.200 A 
ATOM     47  F   UNL A   1      37.405  31.747  37.975  1.00  0.00    -0.200 F 
ATOM     48  F   UNL A   1      38.144  34.374  37.945  1.00  0.00    -0.200 F 
ENDBRANCH  24  38
BRANCH  25  49
ATOM     49  C   UNL A   1      42.825  25.917  27.871  1.00  0.00     0.064 A 
ATOM     50  C   UNL A   1      43.761  26.418  26.948  1.00  0.00     0.173 A 
ATOM     51  C   UNL A   1      42.356  24.615  27.687  1.00  0.00     0.173 A 
ATOM     52  F   UNL A   1      44.208  27.678  27.070  1.00  0.00    -0.203 F 
ATOM     53  C   UNL A   1      44.212  25.645  25.883  1.00  0.00     0.198 A 
ATOM     54  C   UNL A   1      42.833  23.830  26.638  1.00  0.00     0.198 A 
ATOM     55  F   UNL A   1      41.452  24.103  28.533  1.00  0.00    -0.203 F 
ATOM     56  F   UNL A   1      45.076  26.166  25.001  1.00  0.00    -0.200 F 
ATOM     57  C   UNL A   1      43.755  24.346  25.735  1.00  0.00     0.200 A 
ATOM     58  F   UNL A   1      42.397  22.569  26.500  1.00  0.00    -0.200 F 
ATOM     59  F   UNL A   1      44.197  23.593  24.718  1.00  0.00    -0.200 F 
ENDBRANCH  25  49
BRANCH  37  60
ATOM     60  C   UNL A   1      44.977  27.303  34.460  1.00  0.00     0.064 A 
ATOM     61  C   UNL A   1      46.229  27.934  34.405  1.00  0.00     0.173 A 
ATOM     62  C   UNL A   1      44.783  26.303  35.422  1.00  0.00     0.173 A 
ATOM     63  F   UNL A   1      46.461  28.894  33.495  1.00  0.00    -0.203 F 
ATOM     64  C   UNL A   1      47.253  27.570  35.272  1.00  0.00     0.198 A 
ATOM     65  C   UNL A   1      45.806  25.949  36.296  1.00  0.00     0.198 A 
ATOM     66  F   UNL A   1      43.602  25.672  35.512  1.00  0.00    -0.203 F 
ATOM     67  F   UNL A   1      48.448  28.172  35.187  1.00  0.00    -0.200 F 
ATOM     68  C   UNL A   1      47.040  26.580  36.220  1.00  0.00     0.200 A 
ATOM     69  F   UNL A   1      45.601  24.993  37.213  1.00  0.00    -0.200 F 
ATOM     70  F   UNL A   1      48.026  26.231  37.057  1.00  0.00    -0.200 F 
ENDBRANCH  37  60
ENDBRANCH  11  12
ENDBRANCH   4   6
ENDBRANCH   3   4
ENDBRANCH   2   3
ENDBRANCH   1   2
BRANCH   1  71
ATOM     71  O   UNL A   1      31.688  27.266  25.036  1.00  0.00    -0.457 OA
BRANCH  71  72
ATOM     72  C   UNL A   1      31.250  26.641  26.162  1.00  0.00     0.357 C 
ATOM     73  O   UNL A   1      30.984  27.178  27.226  1.00  0.00    -0.244 OA
BRANCH  72  74
ATOM     74  C   UNL A   1      31.069  25.187  25.904  1.00  0.00     0.149 A 
ATOM     75  C   UNL A   1      31.655  24.570  24.801  1.00  0.00     0.051 A 
ATOM     76  N   UNL A   1      30.388  24.524  26.877  1.00  0.00    -0.249 NA
ATOM     77  C   UNL A   1      31.568  23.185  24.715  1.00  0.00     0.012 A 
ATOM     78  C   UNL A   1      30.311  23.191  26.767  1.00  0.00     0.113 A 
ATOM     79  C   UNL A   1      30.904  22.487  25.735  1.00  0.00     0.035 A 
BRANCH  77  80
ATOM     80  S   UNL A   1      32.384  22.194  23.468  1.00  0.00    -0.116 SA
BRANCH  80  81
ATOM     81  C   UNL A   1      33.903  21.527  24.251  1.00  0.00     0.175 C 
BRANCH  81  82
ATOM     82  C   UNL A   1      35.244  22.146  23.835  1.00  0.00     0.233 C 
ATOM     83  O   UNL A   1      35.239  23.001  22.938  1.00  0.00    -0.274 OA
ATOM     84  N   UNL A   1      36.416  21.978  24.762  1.00  0.00    -0.337 N 
ATOM     85  C   UNL A   1      38.118  20.647  25.105  1.00  0.00     0.148 C 
ATOM     86  C   UNL A   1      36.516  23.610  25.474  1.00  0.00     0.148 C 
ATOM     87  C   UNL A   1      39.496  21.465  26.126  1.00  0.00     0.181 C 
ATOM     88  C   UNL A   1      37.901  23.970  26.498  1.00  0.00     0.181 C 
ATOM     89  O   UNL A   1      39.311  23.171  26.390  1.00  0.00    -0.378 OA
ENDBRANCH  81  82
ENDBRANCH  80  81
ENDBRANCH  77  80
ENDBRANCH  72  74
ENDBRANCH  71  72
ENDBRANCH   1  71
TORSDOF 14
ENDMDL
MODEL 2
REMARK VINA RESULT:     -12.1      1.729      2.415
REMARK SMILES O=C(OCCOC(=O)c1cc(SCC(=O)N2CCOCC2)ccn1)c1ccc(-c2c3nc(c(-c4c(F)c(F)c(F)c(F)c4F)c4ccc([nH]4)c(-c4c(F)c(F)c(F)c(F)c4F)c4nc(c(-c5c(F)c(F)c(F)c(F)c5F)c5ccc2[nH]5)C=C4)C=C3)cc1
REMARK SMILES IDX 5 1 4 2 3 3 2 4 1 5 25 6 26 7 87 8 27 9 86 10 28 11 29 12
REMARK SMILES IDX 30 13 80 14 31 15 85 16 79 17 81 18 32 19 84 20 78 21 77 22
REMARK SMILES IDX 33 24 65 25 45 26 64 27 46 28 49 29 63 30 82 31 47 32 48 33
REMARK SMILES IDX 62 35 83 36 50 37 34 38 35 39 43 40 36 41 37 42 41 43 44 44
REMARK SMILES IDX 38 45 39 46 42 47 40 48 66 49 67 50 75 51 68 52 69 53 73 54
REMARK SMILES IDX 76 55 70 56 71 57 74 58 72 59 51 60 52 61 60 62 53 63 54 64
REMARK SMILES IDX 58 65 61 66 55 67 56 68 59 69 57 70 6 71 7 72 8 73 9 74
REMARK SMILES IDX 10 75 24 76 11 77 23 78 22 79 12 80 13 81 14 82 15 83 16 84
REMARK SMILES IDX 17 85 21 86 18 87 20 88 19 89
REMARK H PARENT 81 23 49 34
REMARK Flexibility Score: inf
ROOT
ATOM      1  C   UNL A   1      32.561  29.502  24.394  1.00  0.00     0.275 C 
ENDROOT
BRANCH   1   2
ATOM      2  C   UNL A   1      31.413  29.274  25.384  1.00  0.00     0.275 C 
BRANCH   2   3
ATOM      3  O   UNL A   1      31.758  29.707  26.717  1.00  0.00    -0.458 OA
BRANCH   3   4
ATOM      4  C   UNL A   1      32.518  30.780  27.052  1.00  0.00     0.338 C 
ATOM      5  O   UNL A   1      32.091  31.917  26.863  1.00  0.00    -0.246 OA
BRANCH   4   6
ATOM      6  C   UNL A   1      33.950  30.635  27.465  1.00  0.00     0.060 A 
ATOM      7  C   UNL A   1      34.631  29.426  27.547  1.00  0.00     0.016 A 
ATOM      8  C   UNL A   1      34.625  31.800  27.898  1.00  0.00     0.016 A 
ATOM      9  C   UNL A   1      35.930  29.385  28.047  1.00  0.00     0.010 A 
ATOM     10  C   UNL A   1      35.942  31.759  28.397  1.00  0.00     0.010 A 
ATOM     11  C   UNL A   1      36.601  30.540  28.477  1.00  0.00    -0.014 A 
BRANCH  11  12
ATOM     12  C   UNL A   1      37.896  30.302  29.124  1.00  0.00     0.031 A 
ATOM     13  C   UNL A   1      38.109  30.602  30.617  1.00  0.00     0.074 A 
ATOM     14  C   UNL A   1      38.762  29.433  28.570  1.00  0.00     0.049 A 
ATOM     15  N   UNL A   1      39.098  30.239  31.410  1.00  0.00    -0.248 NA
ATOM     16  C   UNL A   1      37.162  31.500  31.274  1.00  0.00     0.031 C 
ATOM     17  C   UNL A   1      39.528  29.178  26.844  1.00  0.00     0.029 A 
ATOM     18  N   UNL A   1      39.760  28.425  29.637  1.00  0.00    -0.354 N 
ATOM     19  C   UNL A   1      38.958  30.872  32.630  1.00  0.00     0.074 A 
ATOM     20  C   UNL A   1      37.719  31.644  32.475  1.00  0.00     0.031 C 
ATOM     21  C   UNL A   1      40.774  28.077  26.850  1.00  0.00     0.029 A 
ATOM     22  C   UNL A   1      41.161  27.466  28.672  1.00  0.00     0.049 A 
ATOM     23  H   UNL A   1      39.621  28.357  30.610  1.00  0.00     0.167 HD
ATOM     24  C   UNL A   1      39.768  30.893  33.740  1.00  0.00     0.037 A 
ATOM     25  C   UNL A   1      42.346  26.773  28.938  1.00  0.00     0.037 A 
ATOM     26  C   UNL A   1      41.059  30.232  34.045  1.00  0.00     0.049 A 
ATOM     27  C   UNL A   1      43.169  26.697  30.259  1.00  0.00     0.074 A 
ATOM     28  C   UNL A   1      41.884  30.464  35.146  1.00  0.00     0.029 A 
ATOM     29  N   UNL A   1      41.718  29.206  33.360  1.00  0.00    -0.354 N 
ATOM     30  N   UNL A   1      42.999  27.453  31.300  1.00  0.00    -0.248 NA
ATOM     31  C   UNL A   1      44.325  25.811  30.470  1.00  0.00     0.031 C 
ATOM     32  C   UNL A   1      43.028  29.643  35.080  1.00  0.00     0.029 A 
ATOM     33  C   UNL A   1      42.945  28.847  33.949  1.00  0.00     0.049 A 
ATOM     34  H   UNL A   1      41.361  28.779  32.549  1.00  0.00     0.167 HD
ATOM     35  C   UNL A   1      43.874  27.178  32.284  1.00  0.00     0.074 A 
ATOM     36  C   UNL A   1      44.719  26.143  31.713  1.00  0.00     0.031 C 
ATOM     37  C   UNL A   1      43.892  27.808  33.488  1.00  0.00     0.037 A 
BRANCH  24  38
ATOM     38  C   UNL A   1      39.276  31.856  34.794  1.00  0.00     0.064 A 
ATOM     39  C   UNL A   1      39.579  33.226  34.745  1.00  0.00     0.173 A 
ATOM     40  C   UNL A   1      38.532  31.380  35.888  1.00  0.00     0.173 A 
ATOM     41  F   UNL A   1      40.318  33.717  33.740  1.00  0.00    -0.203 F 
ATOM     42  C   UNL A   1      39.183  34.079  35.773  1.00  0.00     0.198 A 
ATOM     43  C   UNL A   1      38.114  32.243  36.897  1.00  0.00     0.198 A 
ATOM     44  F   UNL A   1      38.222  30.078  35.979  1.00  0.00    -0.203 F 
ATOM     45  F   UNL A   1      39.538  35.371  35.742  1.00  0.00    -0.200 F 
ATOM     46  C   UNL A   1      38.450  33.587  36.844  1.00  0.00     0.200 A 
ATOM     47  F   UNL A   1      37.403  31.767  37.929  1.00  0.00    -0.200 F 
ATOM     48  F   UNL A   1      38.081  34.409  37.837  1.00  0.00    -0.200 F 
ENDBRANCH  24  38
BRANCH  25  49
ATOM     49  C   UNL A   1      42.801  25.862  27.857  1.00  0.00     0.064 A 
ATOM     50  C   UNL A   1      43.792  26.330  26.975  1.00  0.00     0.173 A 
ATOM     51  C   UNL A   1      42.286  24.583  27.644  1.00  0.00     0.173 A 
ATOM     52  F   UNL A   1      44.287  27.569  27.125  1.00  0.00    -0.203 F 
ATOM     53  C   UNL A   1      44.252  25.546  25.922  1.00  0.00     0.198 A 
ATOM     54  C   UNL A   1      42.769  23.785  26.607  1.00  0.00     0.198 A 
ATOM     55  F   UNL A   1      41.328  24.104  28.450  1.00  0.00    -0.203 F 
ATOM     56  F   UNL A   1      45.171  26.035  25.078  1.00  0.00    -0.200 F 
ATOM     57  C   UNL A   1      43.746  24.268  25.745  1.00  0.00     0.200 A 
ATOM     58  F   UNL A   1      42.286  22.545  26.442  1.00  0.00    -0.200 F 
ATOM     59  F   UNL A   1      44.196  23.504  24.740  1.00  0.00    -0.200 F 
ENDBRANCH  25  49
BRANCH  37  60
ATOM     60  C   UNL A   1      45.024  27.431  34.382  1.00  0.00     0.064 A 
ATOM     61  C   UNL A   1      46.250  28.108  34.311  1.00  0.00     0.173 A 
ATOM     62  C   UNL A   1      44.876  26.428  35.348  1.00  0.00     0.173 A 
ATOM     63  F   UNL A   1      46.438  29.072  33.396  1.00  0.00    -0.203 F 
ATOM     64  C   UNL A   1      47.296  27.785  35.169  1.00  0.00     0.198 A 
ATOM     65  C   UNL A   1      45.921  26.114  36.213  1.00  0.00     0.198 A 
ATOM     66  F   UNL A   1      43.721  25.754  35.452  1.00  0.00    -0.203 F 
ATOM     67  F   UNL A   1      48.467  28.429  35.070  1.00  0.00    -0.200 F 
ATOM     68  C   UNL A   1      47.129  26.791  36.123  1.00  0.00     0.200 A 
ATOM     69  F   UNL A   1      45.760  25.155  37.136  1.00  0.00    -0.200 F 
ATOM     70  F   UNL A   1      48.136  26.481  36.950  1.00  0.00    -0.200 F 
ENDBRANCH  37  60
ENDBRANCH  11  12
ENDBRANCH   4   6
ENDBRANCH   3   4
ENDBRANCH   2   3
ENDBRANCH   1   2
BRANCH   1  71
ATOM     71  O   UNL A   1      33.447  28.373  24.334  1.00  0.00    -0.457 OA
BRANCH  71  72
ATOM     72  C   UNL A   1      33.470  27.743  23.128  1.00  0.00     0.357 C 
ATOM     73  O   UNL A   1      33.377  28.279  22.034  1.00  0.00    -0.244 OA
BRANCH  72  74
ATOM     74  C   UNL A   1      33.695  26.285  23.315  1.00  0.00     0.149 A 
ATOM     75  C   UNL A   1      34.054  25.763  24.557  1.00  0.00     0.051 A 
ATOM     76  N   UNL A   1      33.419  25.527  22.219  1.00  0.00    -0.249 NA
ATOM     77  C   UNL A   1      34.093  24.378  24.686  1.00  0.00     0.012 A 
ATOM     78  C   UNL A   1      33.472  24.197  22.369  1.00  0.00     0.113 A 
ATOM     79  C   UNL A   1      33.770  23.588  23.574  1.00  0.00     0.035 A 
BRANCH  77  80
ATOM     80  S   UNL A   1      34.375  23.514  26.227  1.00  0.00    -0.116 SA
BRANCH  80  81
ATOM     81  C   UNL A   1      34.964  21.836  25.778  1.00  0.00     0.175 C 
BRANCH  81  82
ATOM     82  C   UNL A   1      33.953  20.684  25.863  1.00  0.00     0.233 C 
ATOM     83  O   UNL A   1      32.952  20.840  26.575  1.00  0.00    -0.274 OA
ATOM     84  N   UNL A   1      34.022  19.608  24.816  1.00  0.00    -0.337 N 
ATOM     85  C   UNL A   1      34.925  17.645  24.471  1.00  0.00     0.148 C 
ATOM     86  C   UNL A   1      32.615  20.033  23.806  1.00  0.00     0.148 C 
ATOM     87  C   UNL A   1      34.033  16.653  23.118  1.00  0.00     0.181 C 
ATOM     88  C   UNL A   1      32.153  18.907  22.534  1.00  0.00     0.181 C 
ATOM     89  O   UNL A   1      32.530  17.328  22.574  1.00  0.00    -0.378 OA
ENDBRANCH  81  82
ENDBRANCH  80  81
ENDBRANCH  77  80
ENDBRANCH  72  74
ENDBRANCH  71  72
ENDBRANCH   1  71
TORSDOF 14
ENDMDL
MODEL 3
REMARK VINA RESULT:     -12.0      1.282      2.336
REMARK SMILES O=C(OCCOC(=O)c1cc(SCC(=O)N2CCOCC2)ccn1)c1ccc(-c2c3nc(c(-c4c(F)c(F)c(F)c(F)c4F)c4ccc([nH]4)c(-c4c(F)c(F)c(F)c(F)c4F)c4nc(c(-c5c(F)c(F)c(F)c(F)c5F)c5ccc2[nH]5)C=C4)C=C3)cc1
REMARK SMILES IDX 5 1 4 2 3 3 2 4 1 5 25 6 26 7 87 8 27 9 86 10 28 11 29 12
REMARK SMILES IDX 30 13 80 14 31 15 85 16 79 17 81 18 32 19 84 20 78 21 77 22
REMARK SMILES IDX 33 24 65 25 45 26 64 27 46 28 49 29 63 30 82 31 47 32 48 33
REMARK SMILES IDX 62 35 83 36 50 37 34 38 35 39 43 40 36 41 37 42 41 43 44 44
REMARK SMILES IDX 38 45 39 46 42 47 40 48 66 49 67 50 75 51 68 52 69 53 73 54
REMARK SMILES IDX 76 55 70 56 71 57 74 58 72 59 51 60 52 61 60 62 53 63 54 64
REMARK SMILES IDX 58 65 61 66 55 67 56 68 59 69 57 70 6 71 7 72 8 73 9 74
REMARK SMILES IDX 10 75 24 76 11 77 23 78 22 79 12 80 13 81 14 82 15 83 16 84
REMARK SMILES IDX 17 85 21 86 18 87 20 88 19 89
REMARK H PARENT 81 23 49 34
REMARK Flexibility Score: inf
ROOT
ATOM      1  C   UNL A   1      31.511  29.039  24.810  1.00  0.00     0.275 C 
ENDROOT
BRANCH   1   2
ATOM      2  C   UNL A   1      31.403  30.453  25.391  1.00  0.00     0.275 C 
BRANCH   2   3
ATOM      3  O   UNL A   1      31.921  30.523  26.736  1.00  0.00    -0.458 OA
BRANCH   3   4
ATOM      4  C   UNL A   1      32.742  31.477  27.242  1.00  0.00     0.338 C 
ATOM      5  O   UNL A   1      32.385  32.653  27.251  1.00  0.00    -0.246 OA
BRANCH   4   6
ATOM      6  C   UNL A   1      34.163  31.179  27.613  1.00  0.00     0.060 A 
ATOM      7  C   UNL A   1      34.707  29.904  27.699  1.00  0.00     0.016 A 
ATOM      8  C   UNL A   1      34.977  32.270  28.001  1.00  0.00     0.016 A 
ATOM      9  C   UNL A   1      36.008  29.726  28.160  1.00  0.00     0.010 A 
ATOM     10  C   UNL A   1      36.297  32.090  28.460  1.00  0.00     0.010 A 
ATOM     11  C   UNL A   1      36.818  30.806  28.545  1.00  0.00    -0.014 A 
BRANCH  11  12
ATOM     12  C   UNL A   1      38.099  30.436  29.156  1.00  0.00     0.031 A 
ATOM     13  C   UNL A   1      38.360  30.656  30.656  1.00  0.00     0.074 A 
ATOM     14  C   UNL A   1      38.881  29.522  28.552  1.00  0.00     0.049 A 
ATOM     15  N   UNL A   1      39.329  30.180  31.414  1.00  0.00    -0.248 NA
ATOM     16  C   UNL A   1      37.502  31.601  31.366  1.00  0.00     0.031 C 
ATOM     17  C   UNL A   1      39.595  29.276  26.803  1.00  0.00     0.029 A 
ATOM     18  N   UNL A   1      39.808  28.392  29.558  1.00  0.00    -0.354 N 
ATOM     19  C   UNL A   1      39.261  30.772  32.661  1.00  0.00     0.074 A 
ATOM     20  C   UNL A   1      38.088  31.648  32.561  1.00  0.00     0.031 C 
ATOM     21  C   UNL A   1      40.745  28.077  26.741  1.00  0.00     0.029 A 
ATOM     22  C   UNL A   1      41.109  27.361  28.529  1.00  0.00     0.049 A 
ATOM     23  H   UNL A   1      39.681  28.296  30.530  1.00  0.00     0.167 HD
ATOM     24  C   UNL A   1      40.087  30.680  33.755  1.00  0.00     0.037 A 
ATOM     25  C   UNL A   1      42.236  26.563  28.744  1.00  0.00     0.037 A 
ATOM     26  C   UNL A   1      41.324  29.904  34.008  1.00  0.00     0.049 A 
ATOM     27  C   UNL A   1      43.072  26.366  30.045  1.00  0.00     0.074 A 
ATOM     28  C   UNL A   1      42.183  30.021  35.102  1.00  0.00     0.029 A 
ATOM     29  N   UNL A   1      41.885  28.855  33.271  1.00  0.00    -0.354 N 
ATOM     30  N   UNL A   1      42.982  27.089  31.118  1.00  0.00    -0.248 NA
ATOM     31  C   UNL A   1      44.153  25.379  30.198  1.00  0.00     0.031 C 
ATOM     32  C   UNL A   1      43.253  29.111  34.981  1.00  0.00     0.029 A 
ATOM     33  C   UNL A   1      43.087  28.372  33.821  1.00  0.00     0.049 A 
ATOM     34  H   UNL A   1      41.481  28.493  32.450  1.00  0.00     0.167 HD
ATOM     35  C   UNL A   1      43.847  26.703  32.073  1.00  0.00     0.074 A 
ATOM     36  C   UNL A   1      44.593  25.626  31.445  1.00  0.00     0.031 C 
ATOM     37  C   UNL A   1      43.936  27.279  33.301  1.00  0.00     0.037 A 
BRANCH  24  38
ATOM     38  C   UNL A   1      39.695  31.637  34.856  1.00  0.00     0.064 A 
ATOM     39  C   UNL A   1      38.755  31.291  35.839  1.00  0.00     0.173 A 
ATOM     40  C   UNL A   1      40.239  32.933  34.886  1.00  0.00     0.173 A 
ATOM     41  F   UNL A   1      38.182  30.078  35.826  1.00  0.00    -0.203 F 
ATOM     42  C   UNL A   1      38.349  32.220  36.794  1.00  0.00     0.198 A 
ATOM     43  C   UNL A   1      39.852  33.848  35.860  1.00  0.00     0.198 A 
ATOM     44  F   UNL A   1      41.138  33.310  33.964  1.00  0.00    -0.203 F 
ATOM     45  F   UNL A   1      37.403  31.892  37.685  1.00  0.00    -0.200 F 
ATOM     46  C   UNL A   1      38.899  33.495  36.805  1.00  0.00     0.200 A 
ATOM     47  F   UNL A   1      40.387  35.077  35.872  1.00  0.00    -0.200 F 
ATOM     48  F   UNL A   1      38.498  34.390  37.718  1.00  0.00    -0.200 F 
ENDBRANCH  24  38
BRANCH  25  49
ATOM     49  C   UNL A   1      42.597  25.663  27.619  1.00  0.00     0.064 A 
ATOM     50  C   UNL A   1      43.679  26.033  26.800  1.00  0.00     0.173 A 
ATOM     51  C   UNL A   1      41.910  24.489  27.306  1.00  0.00     0.173 A 
ATOM     52  F   UNL A   1      44.343  27.174  27.047  1.00  0.00    -0.203 F 
ATOM     53  C   UNL A   1      44.061  25.255  25.712  1.00  0.00     0.198 A 
ATOM     54  C   UNL A   1      42.314  23.694  26.234  1.00  0.00     0.198 A 
ATOM     55  F   UNL A   1      40.862  24.108  28.050  1.00  0.00    -0.203 F 
ATOM     56  F   UNL A   1      45.075  25.655  24.930  1.00  0.00    -0.200 F 
ATOM     57  C   UNL A   1      43.384  24.079  25.435  1.00  0.00     0.200 A 
ATOM     58  F   UNL A   1      41.663  22.551  25.972  1.00  0.00    -0.200 F 
ATOM     59  F   UNL A   1      43.756  23.321  24.396  1.00  0.00    -0.200 F 
ENDBRANCH  25  49
BRANCH  37  60
ATOM     60  C   UNL A   1      45.048  26.773  34.156  1.00  0.00     0.064 A 
ATOM     61  C   UNL A   1      44.851  25.687  35.021  1.00  0.00     0.173 A 
ATOM     62  C   UNL A   1      46.328  27.335  34.081  1.00  0.00     0.173 A 
ATOM     63  F   UNL A   1      43.639  25.121  35.130  1.00  0.00    -0.203 F 
ATOM     64  C   UNL A   1      45.895  25.188  35.792  1.00  0.00     0.198 A 
ATOM     65  C   UNL A   1      47.374  26.827  34.845  1.00  0.00     0.198 A 
ATOM     66  F   UNL A   1      46.563  28.376  33.267  1.00  0.00    -0.203 F 
ATOM     67  F   UNL A   1      45.680  24.163  36.629  1.00  0.00    -0.200 F 
ATOM     68  C   UNL A   1      47.158  25.755  35.701  1.00  0.00     0.200 A 
ATOM     69  F   UNL A   1      48.595  27.373  34.756  1.00  0.00    -0.200 F 
ATOM     70  F   UNL A   1      48.164  25.274  36.443  1.00  0.00    -0.200 F 
ENDBRANCH  37  60
ENDBRANCH  11  12
ENDBRANCH   4   6
ENDBRANCH   3   4
ENDBRANCH   2   3
ENDBRANCH   1   2
BRANCH   1  71
ATOM     71  O   UNL A   1      31.681  29.058  23.384  1.00  0.00    -0.457 OA
BRANCH  71  72
ATOM     72  C   UNL A   1      31.050  28.043  22.732  1.00  0.00     0.357 C 
ATOM     73  O   UNL A   1      30.053  28.146  22.035  1.00  0.00    -0.244 OA
BRANCH  72  74
ATOM     74  C   UNL A   1      31.791  26.769  22.930  1.00  0.00     0.149 A 
ATOM     75  C   UNL A   1      31.215  25.696  23.608  1.00  0.00     0.051 A 
ATOM     76  N   UNL A   1      33.001  26.719  22.310  1.00  0.00    -0.249 NA
ATOM     77  C   UNL A   1      31.910  24.491  23.615  1.00  0.00     0.012 A 
ATOM     78  C   UNL A   1      33.653  25.549  22.339  1.00  0.00     0.113 A 
ATOM     79  C   UNL A   1      33.139  24.417  22.944  1.00  0.00     0.035 A 
BRANCH  77  80
ATOM     80  S   UNL A   1      31.275  22.960  24.291  1.00  0.00    -0.116 SA
BRANCH  80  81
ATOM     81  C   UNL A   1      32.624  21.728  24.137  1.00  0.00     0.175 C 
BRANCH  81  82
ATOM     82  C   UNL A   1      33.564  21.554  25.337  1.00  0.00     0.233 C 
ATOM     83  O   UNL A   1      33.279  20.693  26.180  1.00  0.00    -0.274 OA
ATOM     84  N   UNL A   1      34.944  22.145  25.242  1.00  0.00    -0.337 N 
ATOM     85  C   UNL A   1      36.034  23.972  25.751  1.00  0.00     0.148 C 
ATOM     86  C   UNL A   1      35.919  20.676  24.971  1.00  0.00     0.148 C 
ATOM     87  C   UNL A   1      37.913  23.703  25.847  1.00  0.00     0.181 C 
ATOM     88  C   UNL A   1      37.671  20.843  25.001  1.00  0.00     0.181 C 
ATOM     89  O   UNL A   1      38.429  22.048  25.782  1.00  0.00    -0.378 OA
ENDBRANCH  81  82
ENDBRANCH  80  81
ENDBRANCH  77  80
ENDBRANCH  72  74
ENDBRANCH  71  72
ENDBRANCH   1  71
TORSDOF 14
ENDMDL
