MODEL 1
REMARK VINA RESULT:     -13.0      0.000      0.000
REMARK SMILES C[C@H]1CC[C@@H](C(=O)OCCOC(=O)c2ccc(-c3c4nc(c(-c5c(F)c(F)c(F)c(F)c5F)c5ccc([nH]5)c(-c5c(F)c(F)c(F)c(F)c5F)c5nc(c(-c6c(F)c(F)c(F)c(F)c6F)c6ccc3[nH]6)C=C5)C=C4)cc2)[C@H]([N@@H+](C)CCS(C)(=O)=O)C1
REMARK SMILES IDX 9 1 8 2 6 3 7 4 5 5 1 6 2 7 3 8 86 9 4 10 77 11 78 12 79 13
REMARK SMILES IDX 80 15 81 16 82 17 83 18 84 19 85 20 10 21 11 22 12 23 13 24
REMARK SMILES IDX 14 25 15 26 76 27 16 28 75 29 17 30 18 31 19 32 69 33 20 34
REMARK SMILES IDX 74 35 68 36 70 37 21 38 73 39 67 40 66 41 22 43 54 44 34 45
REMARK SMILES IDX 53 46 35 47 38 48 52 49 71 50 36 51 37 52 51 54 72 55 39 56
REMARK SMILES IDX 23 57 24 58 32 59 25 60 26 61 30 62 33 63 27 64 28 65 31 66
REMARK SMILES IDX 29 67 55 68 56 69 64 70 57 71 58 72 62 73 65 74 59 75 60 76
REMARK SMILES IDX 63 77 61 78 40 79 41 80 49 81 42 82 43 83 47 84 50 85 44 86
REMARK SMILES IDX 45 87 48 88 46 89
REMARK H PARENT 78 14 70 42 38 53
REMARK Flexibility Score: inf
ROOT
ATOM      1  C   UNL A   1      31.448  27.100  27.000  1.00  0.00     0.274 C 
ENDROOT
BRANCH   1   2
ATOM      2  O   UNL A   1      30.912  26.186  26.005  1.00  0.00    -0.462 OA
BRANCH   2   3
ATOM      3  C   UNL A   1      31.279  24.890  26.169  1.00  0.00     0.315 C 
ATOM      4  O   UNL A   1      31.088  24.267  27.211  1.00  0.00    -0.252 OA
BRANCH   3   5
ATOM      5  C   UNL A   1      31.991  24.232  24.927  1.00  0.00     0.157 C 
ATOM      6  C   UNL A   1      36.641  21.601  24.653  1.00  0.00     0.008 C 
ATOM      7  C   UNL A   1      35.362  22.304  24.124  1.00  0.00    -0.008 C 
ATOM      8  C   UNL A   1      33.674  21.340  24.256  1.00  0.00     0.005 C 
ATOM      9  C   UNL A   1      35.339  24.203  24.585  1.00  0.00     0.069 C 
ATOM     10  C   UNL A   1      31.975  22.354  24.451  1.00  0.00     0.022 C 
ATOM     11  C   UNL A   1      33.664  25.190  24.653  1.00  0.00     0.198 C 
BRANCH  11  12
ATOM     12  N   UNL A   1      33.350  25.772  23.349  1.00  0.00    -0.333 N 
ATOM     13  C   UNL A   1      32.084  25.391  22.740  1.00  0.00     0.333 C 
ATOM     14  H   UNL A   1      33.979  25.473  22.603  1.00  0.00     0.348 HD
BRANCH  12  15
ATOM     15  C   UNL A   1      33.382  27.138  23.742  1.00  0.00     0.278 C 
BRANCH  15  16
ATOM     16  C   UNL A   1      32.554  27.943  22.644  1.00  0.00     0.197 C 
BRANCH  16  17
ATOM     17  S   UNL A   1      30.258  28.765  22.672  1.00  0.00     0.152 S 
ATOM     18  C   UNL A   1      29.809  30.208  23.750  1.00  0.00     0.158 C 
ATOM     19  O   UNL A   1      29.828  29.437  21.450  1.00  0.00    -0.229 OA
ATOM     20  O   UNL A   1      29.216  27.804  23.036  1.00  0.00    -0.229 OA
ENDBRANCH  16  17
ENDBRANCH  15  16
ENDBRANCH  12  15
ENDBRANCH  11  12
ENDBRANCH   3   5
ENDBRANCH   2   3
ENDBRANCH   1   2
BRANCH   1  21
ATOM     21  C   UNL A   1      31.492  28.551  26.472  1.00  0.00     0.275 C 
BRANCH  21  22
ATOM     22  O   UNL A   1      32.073  29.436  27.460  1.00  0.00    -0.458 OA
BRANCH  22  23
ATOM     23  C   UNL A   1      32.626  30.609  27.030  1.00  0.00     0.338 C 
ATOM     24  O   UNL A   1      32.006  31.598  26.679  1.00  0.00    -0.246 OA
BRANCH  23  25
ATOM     25  C   UNL A   1      34.116  30.601  27.245  1.00  0.00     0.060 A 
ATOM     26  C   UNL A   1      34.815  29.406  27.173  1.00  0.00     0.016 A 
ATOM     27  C   UNL A   1      34.774  31.703  27.817  1.00  0.00     0.016 A 
ATOM     28  C   UNL A   1      36.035  29.278  27.857  1.00  0.00     0.010 A 
ATOM     29  C   UNL A   1      36.075  31.576  28.387  1.00  0.00     0.010 A 
ATOM     30  C   UNL A   1      36.718  30.328  28.500  1.00  0.00    -0.014 A 
BRANCH  30  31
ATOM     31  C   UNL A   1      37.997  30.086  29.322  1.00  0.00     0.031 A 
ATOM     32  C   UNL A   1      39.193  29.296  28.773  1.00  0.00     0.074 A 
ATOM     33  C   UNL A   1      38.231  30.650  30.538  1.00  0.00     0.049 A 
ATOM     34  N   UNL A   1      40.193  28.727  29.420  1.00  0.00    -0.248 NA
ATOM     35  C   UNL A   1      39.303  29.157  27.314  1.00  0.00     0.031 C 
ATOM     36  C   UNL A   1      37.373  31.604  31.239  1.00  0.00     0.029 A 
ATOM     37  N   UNL A   1      39.315  30.533  31.399  1.00  0.00    -0.354 N 
ATOM     38  C   UNL A   1      40.982  28.089  28.464  1.00  0.00     0.074 A 
ATOM     39  C   UNL A   1      40.370  28.376  27.181  1.00  0.00     0.031 C 
ATOM     40  C   UNL A   1      38.011  32.094  32.307  1.00  0.00     0.029 A 
ATOM     41  C   UNL A   1      39.198  31.291  32.544  1.00  0.00     0.049 A 
ATOM     42  H   UNL A   1      40.093  29.961  31.210  1.00  0.00     0.167 HD
ATOM     43  C   UNL A   1      42.096  27.324  28.633  1.00  0.00     0.037 A 
ATOM     44  C   UNL A   1      39.853  31.286  33.724  1.00  0.00     0.037 A 
ATOM     45  C   UNL A   1      42.788  27.116  29.887  1.00  0.00     0.049 A 
ATOM     46  C   UNL A   1      40.950  30.292  33.967  1.00  0.00     0.074 A 
ATOM     47  C   UNL A   1      43.875  26.295  30.152  1.00  0.00     0.029 A 
ATOM     48  N   UNL A   1      42.494  27.762  31.076  1.00  0.00    -0.354 N 
ATOM     49  N   UNL A   1      41.540  29.490  33.122  1.00  0.00    -0.248 NA
ATOM     50  C   UNL A   1      41.438  30.171  35.350  1.00  0.00     0.031 C 
ATOM     51  C   UNL A   1      44.192  26.392  31.511  1.00  0.00     0.029 A 
ATOM     52  C   UNL A   1      43.353  27.331  32.080  1.00  0.00     0.049 A 
ATOM     53  H   UNL A   1      41.779  28.429  31.192  1.00  0.00     0.167 HD
ATOM     54  C   UNL A   1      42.479  28.783  33.862  1.00  0.00     0.074 A 
ATOM     55  C   UNL A   1      42.402  29.271  35.220  1.00  0.00     0.031 C 
ATOM     56  C   UNL A   1      43.316  27.807  33.439  1.00  0.00     0.037 A 
BRANCH  43  57
ATOM     57  C   UNL A   1      42.607  26.542  27.447  1.00  0.00     0.064 A 
ATOM     58  C   UNL A   1      43.657  26.979  26.631  1.00  0.00     0.173 A 
ATOM     59  C   UNL A   1      42.066  25.269  27.184  1.00  0.00     0.173 A 
ATOM     60  F   UNL A   1      44.217  28.181  26.834  1.00  0.00    -0.203 F 
ATOM     61  C   UNL A   1      44.124  26.190  25.578  1.00  0.00     0.198 A 
ATOM     62  C   UNL A   1      42.558  24.469  26.156  1.00  0.00     0.198 A 
ATOM     63  F   UNL A   1      41.077  24.784  27.950  1.00  0.00    -0.203 F 
ATOM     64  F   UNL A   1      45.100  26.647  24.781  1.00  0.00    -0.200 F 
ATOM     65  C   UNL A   1      43.580  24.934  25.346  1.00  0.00     0.200 A 
ATOM     66  F   UNL A   1      42.048  23.246  25.957  1.00  0.00    -0.200 F 
ATOM     67  F   UNL A   1      44.038  24.175  24.341  1.00  0.00    -0.200 F 
ENDBRANCH  43  57
BRANCH  44  68
ATOM     68  C   UNL A   1      39.378  32.150  34.848  1.00  0.00     0.064 A 
ATOM     69  C   UNL A   1      39.792  33.484  34.969  1.00  0.00     0.173 A 
ATOM     70  C   UNL A   1      38.539  31.640  35.855  1.00  0.00     0.173 A 
ATOM     71  F   UNL A   1      40.634  34.009  34.067  1.00  0.00    -0.203 F 
ATOM     72  C   UNL A   1      39.393  34.265  36.054  1.00  0.00     0.198 A 
ATOM     73  C   UNL A   1      38.095  32.439  36.904  1.00  0.00     0.198 A 
ATOM     74  F   UNL A   1      38.132  30.362  35.813  1.00  0.00    -0.203 F 
ATOM     75  F   UNL A   1      39.863  35.513  36.184  1.00  0.00    -0.200 F 
ATOM     76  C   UNL A   1      38.533  33.747  37.010  1.00  0.00     0.200 A 
ATOM     77  F   UNL A   1      37.248  31.935  37.813  1.00  0.00    -0.200 F 
ATOM     78  F   UNL A   1      38.144  34.502  38.046  1.00  0.00    -0.200 F 
ENDBRANCH  44  68
BRANCH  56  79
ATOM     79  C   UNL A   1      44.275  27.228  34.440  1.00  0.00     0.064 A 
ATOM     80  C   UNL A   1      43.974  26.066  35.169  1.00  0.00     0.173 A 
ATOM     81  C   UNL A   1      45.521  27.834  34.666  1.00  0.00     0.173 A 
ATOM     82  F   UNL A   1      42.791  25.456  35.011  1.00  0.00    -0.203 F 
ATOM     83  C   UNL A   1      44.871  25.554  36.106  1.00  0.00     0.198 A 
ATOM     84  C   UNL A   1      46.429  27.299  35.577  1.00  0.00     0.198 A 
ATOM     85  F   UNL A   1      45.863  28.946  33.998  1.00  0.00    -0.203 F 
ATOM     86  F   UNL A   1      44.536  24.477  36.832  1.00  0.00    -0.200 F 
ATOM     87  C   UNL A   1      46.099  26.165  36.303  1.00  0.00     0.200 A 
ATOM     88  F   UNL A   1      47.621  27.885  35.756  1.00  0.00    -0.200 F 
ATOM     89  F   UNL A   1      46.963  25.667  37.199  1.00  0.00    -0.200 F 
ENDBRANCH  56  79
ENDBRANCH  30  31
ENDBRANCH  23  25
ENDBRANCH  22  23
ENDBRANCH  21  22
ENDBRANCH   1  21
TORSDOF 15
ENDMDL
MODEL 2
REMARK VINA RESULT:     -12.9      1.659      3.361
REMARK SMILES C[C@H]1CC[C@@H](C(=O)OCCOC(=O)c2ccc(-c3c4nc(c(-c5c(F)c(F)c(F)c(F)c5F)c5ccc([nH]5)c(-c5c(F)c(F)c(F)c(F)c5F)c5nc(c(-c6c(F)c(F)c(F)c(F)c6F)c6ccc3[nH]6)C=C5)C=C4)cc2)[C@H]([N@@H+](C)CCS(C)(=O)=O)C1
REMARK SMILES IDX 9 1 8 2 6 3 7 4 5 5 1 6 2 7 3 8 86 9 4 10 77 11 78 12 79 13
REMARK SMILES IDX 80 15 81 16 82 17 83 18 84 19 85 20 10 21 11 22 12 23 13 24
REMARK SMILES IDX 14 25 15 26 76 27 16 28 75 29 17 30 18 31 19 32 69 33 20 34
REMARK SMILES IDX 74 35 68 36 70 37 21 38 73 39 67 40 66 41 22 43 54 44 34 45
REMARK SMILES IDX 53 46 35 47 38 48 52 49 71 50 36 51 37 52 51 54 72 55 39 56
REMARK SMILES IDX 23 57 24 58 32 59 25 60 26 61 30 62 33 63 27 64 28 65 31 66
REMARK SMILES IDX 29 67 55 68 56 69 64 70 57 71 58 72 62 73 65 74 59 75 60 76
REMARK SMILES IDX 63 77 61 78 40 79 41 80 49 81 42 82 43 83 47 84 50 85 44 86
REMARK SMILES IDX 45 87 48 88 46 89
REMARK H PARENT 78 14 70 42 38 53
REMARK Flexibility Score: inf
ROOT
ATOM      1  C   UNL A   1      32.005  27.933  26.305  1.00  0.00     0.274 C 
ENDROOT
BRANCH   1   2
ATOM      2  O   UNL A   1      33.354  27.659  25.841  1.00  0.00    -0.462 OA
BRANCH   2   3
ATOM      3  C   UNL A   1      33.437  26.735  24.850  1.00  0.00     0.315 C 
ATOM      4  O   UNL A   1      34.152  25.738  24.923  1.00  0.00    -0.252 OA
BRANCH   3   5
ATOM      5  C   UNL A   1      32.559  27.036  23.577  1.00  0.00     0.157 C 
ATOM      6  C   UNL A   1      27.567  28.928  23.240  1.00  0.00     0.008 C 
ATOM      7  C   UNL A   1      28.898  28.309  22.738  1.00  0.00    -0.008 C 
ATOM      8  C   UNL A   1      30.432  29.492  22.534  1.00  0.00     0.005 C 
ATOM      9  C   UNL A   1      29.228  26.557  23.540  1.00  0.00     0.069 C 
ATOM     10  C   UNL A   1      32.270  28.769  22.760  1.00  0.00     0.022 C 
ATOM     11  C   UNL A   1      31.030  25.832  23.639  1.00  0.00     0.198 C 
BRANCH  11  12
ATOM     12  N   UNL A   1      31.342  25.050  22.443  1.00  0.00    -0.333 N 
ATOM     13  C   UNL A   1      32.243  25.655  21.472  1.00  0.00     0.333 C 
ATOM     14  H   UNL A   1      30.539  24.892  21.833  1.00  0.00     0.348 HD
BRANCH  12  15
ATOM     15  C   UNL A   1      31.915  23.927  23.099  1.00  0.00     0.278 C 
BRANCH  15  16
ATOM     16  C   UNL A   1      30.896  23.509  24.251  1.00  0.00     0.197 C 
BRANCH  16  17
ATOM     17  S   UNL A   1      31.151  23.518  26.677  1.00  0.00     0.152 S 
ATOM     18  C   UNL A   1      32.586  22.634  27.455  1.00  0.00     0.158 C 
ATOM     19  O   UNL A   1      31.522  24.805  27.254  1.00  0.00    -0.229 OA
ATOM     20  O   UNL A   1      30.033  22.990  27.461  1.00  0.00    -0.229 OA
ENDBRANCH  16  17
ENDBRANCH  15  16
ENDBRANCH  12  15
ENDBRANCH  11  12
ENDBRANCH   3   5
ENDBRANCH   2   3
ENDBRANCH   1   2
BRANCH   1  21
ATOM     21  C   UNL A   1      31.768  29.448  26.497  1.00  0.00     0.275 C 
BRANCH  21  22
ATOM     22  O   UNL A   1      32.600  29.963  27.565  1.00  0.00    -0.458 OA
BRANCH  22  23
ATOM     23  C   UNL A   1      33.280  31.128  27.348  1.00  0.00     0.338 C 
ATOM     24  O   UNL A   1      32.773  32.228  27.205  1.00  0.00    -0.246 OA
BRANCH  23  25
ATOM     25  C   UNL A   1      34.761  30.915  27.517  1.00  0.00     0.060 A 
ATOM     26  C   UNL A   1      35.273  29.627  27.533  1.00  0.00     0.016 A 
ATOM     27  C   UNL A   1      35.597  31.952  27.965  1.00  0.00     0.016 A 
ATOM     28  C   UNL A   1      36.490  29.378  28.188  1.00  0.00     0.010 A 
ATOM     29  C   UNL A   1      36.889  31.681  28.505  1.00  0.00     0.010 A 
ATOM     30  C   UNL A   1      37.347  30.365  28.711  1.00  0.00    -0.014 A 
BRANCH  30  31
ATOM     31  C   UNL A   1      38.612  30.006  29.513  1.00  0.00     0.031 A 
ATOM     32  C   UNL A   1      39.751  29.165  28.922  1.00  0.00     0.074 A 
ATOM     33  C   UNL A   1      38.887  30.501  30.749  1.00  0.00     0.049 A 
ATOM     34  N   UNL A   1      40.715  28.505  29.536  1.00  0.00    -0.248 NA
ATOM     35  C   UNL A   1      39.845  29.082  27.457  1.00  0.00     0.031 C 
ATOM     36  C   UNL A   1      38.097  31.477  31.497  1.00  0.00     0.029 A 
ATOM     37  N   UNL A   1      39.965  30.277  31.597  1.00  0.00    -0.354 N 
ATOM     38  C   UNL A   1      41.456  27.859  28.548  1.00  0.00     0.074 A 
ATOM     39  C   UNL A   1      40.858  28.240  27.283  1.00  0.00     0.031 C 
ATOM     40  C   UNL A   1      38.770  31.878  32.580  1.00  0.00     0.029 A 
ATOM     41  C   UNL A   1      39.903  30.991  32.774  1.00  0.00     0.049 A 
ATOM     42  H   UNL A   1      40.704  29.665  31.378  1.00  0.00     0.167 HD
ATOM     43  C   UNL A   1      42.519  27.017  28.675  1.00  0.00     0.037 A 
ATOM     44  C   UNL A   1      40.562  30.893  33.947  1.00  0.00     0.037 A 
ATOM     45  C   UNL A   1      43.202  26.711  29.914  1.00  0.00     0.049 A 
ATOM     46  C   UNL A   1      41.594  29.821  34.140  1.00  0.00     0.074 A 
ATOM     47  C   UNL A   1      44.235  25.810  30.136  1.00  0.00     0.029 A 
ATOM     48  N   UNL A   1      42.956  27.323  31.132  1.00  0.00    -0.354 N 
ATOM     49  N   UNL A   1      42.126  29.019  33.257  1.00  0.00    -0.248 NA
ATOM     50  C   UNL A   1      42.080  29.609  35.512  1.00  0.00     0.031 C 
ATOM     51  C   UNL A   1      44.564  25.829  31.496  1.00  0.00     0.029 A 
ATOM     52  C   UNL A   1      43.790  26.795  32.110  1.00  0.00     0.049 A 
ATOM     53  H   UNL A   1      42.286  28.029  31.282  1.00  0.00     0.167 HD
ATOM     54  C   UNL A   1      43.021  28.222  33.959  1.00  0.00     0.074 A 
ATOM     55  C   UNL A   1      42.983  28.655  35.337  1.00  0.00     0.031 C 
ATOM     56  C   UNL A   1      43.791  27.213  33.488  1.00  0.00     0.037 A 
BRANCH  43  57
ATOM     57  C   UNL A   1      42.973  26.255  27.454  1.00  0.00     0.064 A 
ATOM     58  C   UNL A   1      44.024  26.675  26.630  1.00  0.00     0.173 A 
ATOM     59  C   UNL A   1      42.373  25.015  27.159  1.00  0.00     0.173 A 
ATOM     60  F   UNL A   1      44.639  27.845  26.862  1.00  0.00    -0.203 F 
ATOM     61  C   UNL A   1      44.436  25.903  25.542  1.00  0.00     0.198 A 
ATOM     62  C   UNL A   1      42.809  24.231  26.095  1.00  0.00     0.198 A 
ATOM     63  F   UNL A   1      41.379  24.547  27.930  1.00  0.00    -0.203 F 
ATOM     64  F   UNL A   1      45.414  26.346  24.740  1.00  0.00    -0.200 F 
ATOM     65  C   UNL A   1      43.834  24.680  25.280  1.00  0.00     0.200 A 
ATOM     66  F   UNL A   1      42.243  23.039  25.866  1.00  0.00    -0.200 F 
ATOM     67  F   UNL A   1      44.240  23.938  24.240  1.00  0.00    -0.200 F 
ENDBRANCH  43  57
BRANCH  44  68
ATOM     68  C   UNL A   1      40.150  31.737  35.111  1.00  0.00     0.064 A 
ATOM     69  C   UNL A   1      39.039  31.404  35.898  1.00  0.00     0.173 A 
ATOM     70  C   UNL A   1      40.832  32.927  35.426  1.00  0.00     0.173 A 
ATOM     71  F   UNL A   1      38.319  30.309  35.612  1.00  0.00    -0.203 F 
ATOM     72  C   UNL A   1      38.625  32.229  36.944  1.00  0.00     0.198 A 
ATOM     73  C   UNL A   1      40.452  33.717  36.506  1.00  0.00     0.198 A 
ATOM     74  F   UNL A   1      41.884  33.318  34.691  1.00  0.00    -0.203 F 
ATOM     75  F   UNL A   1      37.517  31.926  37.633  1.00  0.00    -0.200 F 
ATOM     76  C   UNL A   1      39.341  33.375  37.256  1.00  0.00     0.200 A 
ATOM     77  F   UNL A   1      41.162  34.812  36.812  1.00  0.00    -0.200 F 
ATOM     78  F   UNL A   1      38.947  34.161  38.267  1.00  0.00    -0.200 F 
ENDBRANCH  44  68
BRANCH  56  79
ATOM     79  C   UNL A   1      44.715  26.530  34.457  1.00  0.00     0.064 A 
ATOM     80  C   UNL A   1      45.980  27.051  34.769  1.00  0.00     0.173 A 
ATOM     81  C   UNL A   1      44.325  25.341  35.095  1.00  0.00     0.173 A 
ATOM     82  F   UNL A   1      46.415  28.172  34.175  1.00  0.00    -0.203 F 
ATOM     83  C   UNL A   1      46.829  26.394  35.658  1.00  0.00     0.198 A 
ATOM     84  C   UNL A   1      45.162  24.706  36.009  1.00  0.00     0.198 A 
ATOM     85  F   UNL A   1      43.127  24.796  34.835  1.00  0.00    -0.203 F 
ATOM     86  F   UNL A   1      48.056  26.881  35.896  1.00  0.00    -0.200 F 
ATOM     87  C   UNL A   1      46.417  25.228  36.283  1.00  0.00     0.200 A 
ATOM     88  F   UNL A   1      44.755  23.585  36.621  1.00  0.00    -0.200 F 
ATOM     89  F   UNL A   1      47.232  24.600  37.142  1.00  0.00    -0.200 F 
ENDBRANCH  56  79
ENDBRANCH  30  31
ENDBRANCH  23  25
ENDBRANCH  22  23
ENDBRANCH  21  22
ENDBRANCH   1  21
TORSDOF 15
ENDMDL
MODEL 3
REMARK VINA RESULT:     -12.9      1.314      2.080
REMARK SMILES C[C@H]1CC[C@@H](C(=O)OCCOC(=O)c2ccc(-c3c4nc(c(-c5c(F)c(F)c(F)c(F)c5F)c5ccc([nH]5)c(-c5c(F)c(F)c(F)c(F)c5F)c5nc(c(-c6c(F)c(F)c(F)c(F)c6F)c6ccc3[nH]6)C=C5)C=C4)cc2)[C@H]([N@@H+](C)CCS(C)(=O)=O)C1
REMARK SMILES IDX 9 1 8 2 6 3 7 4 5 5 1 6 2 7 3 8 86 9 4 10 77 11 78 12 79 13
REMARK SMILES IDX 80 15 81 16 82 17 83 18 84 19 85 20 10 21 11 22 12 23 13 24
REMARK SMILES IDX 14 25 15 26 76 27 16 28 75 29 17 30 18 31 19 32 69 33 20 34
REMARK SMILES IDX 74 35 68 36 70 37 21 38 73 39 67 40 66 41 22 43 54 44 34 45
REMARK SMILES IDX 53 46 35 47 38 48 52 49 71 50 36 51 37 52 51 54 72 55 39 56
REMARK SMILES IDX 23 57 24 58 32 59 25 60 26 61 30 62 33 63 27 64 28 65 31 66
REMARK SMILES IDX 29 67 55 68 56 69 64 70 57 71 58 72 62 73 65 74 59 75 60 76
REMARK SMILES IDX 63 77 61 78 40 79 41 80 49 81 42 82 43 83 47 84 50 85 44 86
REMARK SMILES IDX 45 87 48 88 46 89
REMARK H PARENT 78 14 70 42 38 53
REMARK Flexibility Score: inf
ROOT
ATOM      1  C   UNL A   1      31.597  27.245  25.946  1.00  0.00     0.274 C 
ENDROOT
BRANCH   1   2
ATOM      2  O   UNL A   1      32.719  26.708  26.698  1.00  0.00    -0.462 OA
BRANCH   2   3
ATOM      3  C   UNL A   1      33.356  25.668  26.103  1.00  0.00     0.315 C 
ATOM      4  O   UNL A   1      34.343  25.811  25.386  1.00  0.00    -0.252 OA
BRANCH   3   5
ATOM      5  C   UNL A   1      32.729  24.250  26.380  1.00  0.00     0.157 C 
ATOM      6  C   UNL A   1      34.265  19.434  24.629  1.00  0.00     0.008 C 
ATOM      7  C   UNL A   1      33.350  20.479  25.321  1.00  0.00    -0.008 C 
ATOM      8  C   UNL A   1      33.866  21.112  27.090  1.00  0.00     0.005 C 
ATOM      9  C   UNL A   1      32.696  21.817  24.055  1.00  0.00     0.069 C 
ATOM     10  C   UNL A   1      33.356  22.944  27.667  1.00  0.00     0.022 C 
ATOM     11  C   UNL A   1      32.095  23.561  24.673  1.00  0.00     0.198 C 
BRANCH  11  12
ATOM     12  N   UNL A   1      30.666  23.539  24.983  1.00  0.00    -0.333 N 
ATOM     13  C   UNL A   1      30.292  23.609  26.388  1.00  0.00     0.333 C 
ATOM     14  H   UNL A   1      30.207  22.660  24.742  1.00  0.00     0.348 HD
BRANCH  12  15
ATOM     15  C   UNL A   1      30.301  24.705  24.258  1.00  0.00     0.278 C 
BRANCH  15  16
ATOM     16  C   UNL A   1      30.942  24.555  22.807  1.00  0.00     0.197 C 
BRANCH  16  17
ATOM     17  S   UNL A   1      32.938  25.570  21.839  1.00  0.00     0.152 S 
ATOM     18  C   UNL A   1      33.411  27.302  22.310  1.00  0.00     0.158 C 
ATOM     19  O   UNL A   1      34.202  25.009  22.303  1.00  0.00    -0.229 OA
ATOM     20  O   UNL A   1      33.000  25.645  20.379  1.00  0.00    -0.229 OA
ENDBRANCH  16  17
ENDBRANCH  15  16
ENDBRANCH  12  15
ENDBRANCH  11  12
ENDBRANCH   3   5
ENDBRANCH   2   3
ENDBRANCH   1   2
BRANCH   1  21
ATOM     21  C   UNL A   1      31.699  28.779  25.794  1.00  0.00     0.275 C 
BRANCH  21  22
ATOM     22  O   UNL A   1      32.135  29.388  27.033  1.00  0.00    -0.458 OA
BRANCH  22  23
ATOM     23  C   UNL A   1      32.658  30.648  26.984  1.00  0.00     0.338 C 
ATOM     24  O   UNL A   1      32.013  31.682  26.945  1.00  0.00    -0.246 OA
BRANCH  23  25
ATOM     25  C   UNL A   1      34.148  30.612  27.197  1.00  0.00     0.060 A 
ATOM     26  C   UNL A   1      34.818  29.398  27.167  1.00  0.00     0.016 A 
ATOM     27  C   UNL A   1      34.834  31.718  27.727  1.00  0.00     0.016 A 
ATOM     28  C   UNL A   1      36.036  29.267  27.854  1.00  0.00     0.010 A 
ATOM     29  C   UNL A   1      36.132  31.580  28.301  1.00  0.00     0.010 A 
ATOM     30  C   UNL A   1      36.746  30.322  28.457  1.00  0.00    -0.014 A 
BRANCH  30  31
ATOM     31  C   UNL A   1      38.020  30.079  29.286  1.00  0.00     0.031 A 
ATOM     32  C   UNL A   1      39.219  29.289  28.743  1.00  0.00     0.074 A 
ATOM     33  C   UNL A   1      38.248  30.642  30.503  1.00  0.00     0.049 A 
ATOM     34  N   UNL A   1      40.215  28.718  29.395  1.00  0.00    -0.248 NA
ATOM     35  C   UNL A   1      39.336  29.151  27.285  1.00  0.00     0.031 C 
ATOM     36  C   UNL A   1      37.387  31.595  31.200  1.00  0.00     0.029 A 
ATOM     37  N   UNL A   1      39.327  30.523  31.371  1.00  0.00    -0.354 N 
ATOM     38  C   UNL A   1      41.008  28.081  28.442  1.00  0.00     0.074 A 
ATOM     39  C   UNL A   1      40.404  28.369  27.157  1.00  0.00     0.031 C 
ATOM     40  C   UNL A   1      38.019  32.084  32.272  1.00  0.00     0.029 A 
ATOM     41  C   UNL A   1      39.204  31.281  32.515  1.00  0.00     0.049 A 
ATOM     42  H   UNL A   1      40.106  29.952  31.185  1.00  0.00     0.167 HD
ATOM     43  C   UNL A   1      42.122  27.315  28.617  1.00  0.00     0.037 A 
ATOM     44  C   UNL A   1      39.853  31.275  33.699  1.00  0.00     0.037 A 
ATOM     45  C   UNL A   1      42.807  27.106  29.874  1.00  0.00     0.049 A 
ATOM     46  C   UNL A   1      40.949  30.281  33.947  1.00  0.00     0.074 A 
ATOM     47  C   UNL A   1      43.892  26.284  30.145  1.00  0.00     0.029 A 
ATOM     48  N   UNL A   1      42.506  27.752  31.062  1.00  0.00    -0.354 N 
ATOM     49  N   UNL A   1      41.543  29.478  33.104  1.00  0.00    -0.248 NA
ATOM     50  C   UNL A   1      41.429  30.158  35.332  1.00  0.00     0.031 C 
ATOM     51  C   UNL A   1      44.202  26.381  31.506  1.00  0.00     0.029 A 
ATOM     52  C   UNL A   1      43.360  27.320  32.071  1.00  0.00     0.049 A 
ATOM     53  H   UNL A   1      41.791  28.418  31.175  1.00  0.00     0.167 HD
ATOM     54  C   UNL A   1      42.477  28.770  33.849  1.00  0.00     0.074 A 
ATOM     55  C   UNL A   1      42.394  29.258  35.207  1.00  0.00     0.031 C 
ATOM     56  C   UNL A   1      43.316  27.795  33.429  1.00  0.00     0.037 A 
BRANCH  43  57
ATOM     57  C   UNL A   1      42.639  26.534  27.434  1.00  0.00     0.064 A 
ATOM     58  C   UNL A   1      43.688  26.975  26.618  1.00  0.00     0.173 A 
ATOM     59  C   UNL A   1      42.105  25.257  27.171  1.00  0.00     0.173 A 
ATOM     60  F   UNL A   1      44.240  28.181  26.820  1.00  0.00    -0.203 F 
ATOM     61  C   UNL A   1      44.160  26.186  25.567  1.00  0.00     0.198 A 
ATOM     62  C   UNL A   1      42.602  24.458  26.146  1.00  0.00     0.198 A 
ATOM     63  F   UNL A   1      41.118  24.769  27.938  1.00  0.00    -0.203 F 
ATOM     64  F   UNL A   1      45.134  26.647  24.770  1.00  0.00    -0.200 F 
ATOM     65  C   UNL A   1      43.623  24.927  25.337  1.00  0.00     0.200 A 
ATOM     66  F   UNL A   1      42.099  23.232  25.948  1.00  0.00    -0.200 F 
ATOM     67  F   UNL A   1      44.087  24.169  24.334  1.00  0.00    -0.200 F 
ENDBRANCH  43  57
BRANCH  44  68
ATOM     68  C   UNL A   1      39.373  32.139  34.820  1.00  0.00     0.064 A 
ATOM     69  C   UNL A   1      39.781  33.473  34.942  1.00  0.00     0.173 A 
ATOM     70  C   UNL A   1      38.533  31.626  35.827  1.00  0.00     0.173 A 
ATOM     71  F   UNL A   1      40.624  34.001  34.041  1.00  0.00    -0.203 F 
ATOM     72  C   UNL A   1      39.377  34.255  36.024  1.00  0.00     0.198 A 
ATOM     73  C   UNL A   1      38.083  32.425  36.874  1.00  0.00     0.198 A 
ATOM     74  F   UNL A   1      38.131  30.347  35.785  1.00  0.00    -0.203 F 
ATOM     75  F   UNL A   1      39.842  35.504  36.155  1.00  0.00    -0.200 F 
ATOM     76  C   UNL A   1      38.517  33.735  36.980  1.00  0.00     0.200 A 
ATOM     77  F   UNL A   1      37.236  31.918  37.781  1.00  0.00    -0.200 F 
ATOM     78  F   UNL A   1      38.123  34.489  38.014  1.00  0.00    -0.200 F 
ENDBRANCH  44  68
BRANCH  56  79
ATOM     79  C   UNL A   1      44.269  27.214  34.435  1.00  0.00     0.064 A 
ATOM     80  C   UNL A   1      45.511  27.808  34.711  1.00  0.00     0.173 A 
ATOM     81  C   UNL A   1      43.933  26.051  35.147  1.00  0.00     0.173 A 
ATOM     82  F   UNL A   1      45.896  28.908  34.047  1.00  0.00    -0.203 F 
ATOM     83  C   UNL A   1      46.388  27.245  35.637  1.00  0.00     0.198 A 
ATOM     84  C   UNL A   1      44.797  25.510  36.096  1.00  0.00     0.198 A 
ATOM     85  F   UNL A   1      42.759  25.439  34.925  1.00  0.00    -0.203 F 
ATOM     86  F   UNL A   1      47.592  27.799  35.840  1.00  0.00    -0.200 F 
ATOM     87  C   UNL A   1      46.027  26.102  36.334  1.00  0.00     0.200 A 
ATOM     88  F   UNL A   1      44.440  24.413  36.777  1.00  0.00    -0.200 F 
ATOM     89  F   UNL A   1      46.869  25.565  37.228  1.00  0.00    -0.200 F 
ENDBRANCH  56  79
ENDBRANCH  30  31
ENDBRANCH  23  25
ENDBRANCH  22  23
ENDBRANCH  21  22
ENDBRANCH   1  21
TORSDOF 15
ENDMDL
