MODEL 1
REMARK VINA RESULT:     -12.1      0.000      0.000
REMARK SMILES O=C(OCCOC(=O)c1ccccc1C(=O)Nc1ccc(N2C(=O)[C@H]3[C@@H]4CC[C@@H](C4)[C@@H]3C2=O)cc1)c1ccc(-c2c3nc(c(-c4c(F)c(F)c(F)c(F)c4F)c4ccc([nH]4)c(-c4c(F)c(F)c(F)c(F)c4F)c4nc(c(-c5c(F)c(F)c(F)c(F)c5F)c5ccc2[nH]5)C=C4)C=C3)cc1
REMARK SMILES IDX 5 1 4 2 3 3 2 4 1 5 36 6 37 7 98 8 38 9 97 10 39 11 40 12
REMARK SMILES IDX 41 13 91 14 42 15 96 16 90 17 92 18 43 19 95 20 89 21 88 22
REMARK SMILES IDX 44 24 76 25 56 26 75 27 57 28 60 29 74 30 93 31 58 32 59 33
REMARK SMILES IDX 73 35 94 36 61 37 45 38 46 39 54 40 47 41 48 42 52 43 55 44
REMARK SMILES IDX 49 45 50 46 53 47 51 48 77 49 78 50 86 51 79 52 80 53 84 54
REMARK SMILES IDX 87 55 81 56 82 57 85 58 83 59 62 60 63 61 71 62 64 63 65 64
REMARK SMILES IDX 69 65 72 66 66 67 67 68 70 69 68 70 6 71 7 72 8 73 9 74
REMARK SMILES IDX 10 75 14 76 11 77 13 78 12 79 15 80 16 81 17 82 18 84 19 85
REMARK SMILES IDX 35 86 20 87 34 88 21 89 22 90 23 91 32 92 24 93 25 94 31 95
REMARK SMILES IDX 33 96 26 97 29 98 27 99 30 100 28 101
REMARK H PARENT 92 23 60 34 17 83
REMARK Flexibility Score: inf
ROOT
ATOM      1  C   UNL A   1      33.933  34.863  29.903  1.00  0.00     0.275 C 
ENDROOT
BRANCH   1   2
ATOM      2  C   UNL A   1      33.580  33.855  28.328  1.00  0.00     0.275 C 
BRANCH   2   3
ATOM      3  O   UNL A   1      33.777  32.060  28.361  1.00  0.00    -0.458 OA
BRANCH   3   4
ATOM      4  C   UNL A   1      34.492  30.802  27.821  1.00  0.00     0.338 C 
ATOM      5  O   UNL A   1      33.793  30.201  26.990  1.00  0.00    -0.246 OA
BRANCH   4   6
ATOM      6  C   UNL A   1      36.008  29.989  28.076  1.00  0.00     0.060 A 
ATOM      7  C   UNL A   1      37.173  29.842  27.246  1.00  0.00     0.016 A 
ATOM      8  C   UNL A   1      36.307  29.478  29.361  1.00  0.00     0.016 A 
ATOM      9  C   UNL A   1      38.509  29.507  27.637  1.00  0.00     0.010 A 
ATOM     10  C   UNL A   1      37.677  29.116  29.783  1.00  0.00     0.010 A 
ATOM     11  C   UNL A   1      38.818  29.210  28.945  1.00  0.00    -0.014 A 
BRANCH  11  12
ATOM     12  C   UNL A   1      40.277  28.947  29.318  1.00  0.00     0.031 A 
ATOM     13  C   UNL A   1      40.910  27.620  28.986  1.00  0.00     0.074 A 
ATOM     14  C   UNL A   1      41.200  29.877  29.684  1.00  0.00     0.049 A 
ATOM     15  N   UNL A   1      42.144  27.215  29.187  1.00  0.00    -0.248 NA
ATOM     16  C   UNL A   1      40.078  26.678  28.232  1.00  0.00     0.031 C 
ATOM     17  C   UNL A   1      41.033  31.312  29.613  1.00  0.00     0.029 A 
ATOM     18  N   UNL A   1      42.499  29.759  30.168  1.00  0.00    -0.354 N 
ATOM     19  C   UNL A   1      42.262  26.009  28.524  1.00  0.00     0.074 A 
ATOM     20  C   UNL A   1      40.953  25.718  27.963  1.00  0.00     0.031 C 
ATOM     21  C   UNL A   1      42.060  31.939  30.215  1.00  0.00     0.029 A 
ATOM     22  C   UNL A   1      43.031  30.942  30.646  1.00  0.00     0.049 A 
ATOM     23  H   UNL A   1      42.995  28.909  30.170  1.00  0.00     0.167 HD
ATOM     24  C   UNL A   1      43.354  25.222  28.357  1.00  0.00     0.037 A 
ATOM     25  C   UNL A   1      44.160  31.225  31.332  1.00  0.00     0.037 A 
ATOM     26  C   UNL A   1      44.669  25.430  28.909  1.00  0.00     0.049 A 
ATOM     27  C   UNL A   1      45.227  30.179  31.505  1.00  0.00     0.074 A 
ATOM     28  C   UNL A   1      45.770  24.590  28.839  1.00  0.00     0.029 A 
ATOM     29  N   UNL A   1      45.071  26.537  29.637  1.00  0.00    -0.354 N 
ATOM     30  N   UNL A   1      45.302  29.002  30.944  1.00  0.00    -0.248 NA
ATOM     31  C   UNL A   1      46.393  30.514  32.343  1.00  0.00     0.031 C 
ATOM     32  C   UNL A   1      46.819  25.158  29.572  1.00  0.00     0.029 A 
ATOM     33  C   UNL A   1      46.385  26.372  30.068  1.00  0.00     0.049 A 
ATOM     34  H   UNL A   1      44.511  27.324  29.823  1.00  0.00     0.167 HD
ATOM     35  C   UNL A   1      46.546  28.494  31.289  1.00  0.00     0.074 A 
ATOM     36  C   UNL A   1      47.189  29.473  32.134  1.00  0.00     0.031 C 
ATOM     37  C   UNL A   1      47.092  27.320  30.892  1.00  0.00     0.037 A 
BRANCH  24  38
ATOM     38  C   UNL A   1      43.136  23.983  27.554  1.00  0.00     0.064 A 
ATOM     39  C   UNL A   1      42.671  22.800  28.145  1.00  0.00     0.173 A 
ATOM     40  C   UNL A   1      43.407  23.985  26.180  1.00  0.00     0.173 A 
ATOM     41  F   UNL A   1      42.414  22.758  29.461  1.00  0.00    -0.203 F 
ATOM     42  C   UNL A   1      42.510  21.648  27.386  1.00  0.00     0.198 A 
ATOM     43  C   UNL A   1      43.229  22.835  25.422  1.00  0.00     0.198 A 
ATOM     44  F   UNL A   1      43.852  25.100  25.581  1.00  0.00    -0.203 F 
ATOM     45  F   UNL A   1      42.106  20.511  27.970  1.00  0.00    -0.200 F 
ATOM     46  C   UNL A   1      42.789  21.667  26.026  1.00  0.00     0.200 A 
ATOM     47  F   UNL A   1      43.495  22.855  24.108  1.00  0.00    -0.200 F 
ATOM     48  F   UNL A   1      42.644  20.551  25.296  1.00  0.00    -0.200 F 
ENDBRANCH  24  38
BRANCH  25  49
ATOM     49  C   UNL A   1      44.367  32.562  31.962  1.00  0.00     0.064 A 
ATOM     50  C   UNL A   1      43.853  32.879  33.228  1.00  0.00     0.173 A 
ATOM     51  C   UNL A   1      44.952  33.602  31.222  1.00  0.00     0.173 A 
ATOM     52  F   UNL A   1      43.232  31.937  33.953  1.00  0.00    -0.203 F 
ATOM     53  C   UNL A   1      43.894  34.186  33.716  1.00  0.00     0.198 A 
ATOM     54  C   UNL A   1      45.010  34.904  31.720  1.00  0.00     0.198 A 
ATOM     55  F   UNL A   1      45.417  33.368  29.985  1.00  0.00    -0.203 F 
ATOM     56  F   UNL A   1      43.326  34.476  34.896  1.00  0.00    -0.200 F 
ATOM     57  C   UNL A   1      44.470  35.197  32.961  1.00  0.00     0.200 A 
ATOM     58  F   UNL A   1      45.551  35.879  30.977  1.00  0.00    -0.200 F 
ATOM     59  F   UNL A   1      44.473  36.459  33.415  1.00  0.00    -0.200 F 
ENDBRANCH  25  49
BRANCH  37  60
ATOM     60  C   UNL A   1      48.501  27.015  31.312  1.00  0.00     0.064 A 
ATOM     61  C   UNL A   1      48.793  26.422  32.549  1.00  0.00     0.173 A 
ATOM     62  C   UNL A   1      49.576  27.282  30.449  1.00  0.00     0.173 A 
ATOM     63  F   UNL A   1      47.808  26.166  33.423  1.00  0.00    -0.203 F 
ATOM     64  C   UNL A   1      50.105  26.120  32.911  1.00  0.00     0.198 A 
ATOM     65  C   UNL A   1      50.885  26.956  30.804  1.00  0.00     0.198 A 
ATOM     66  F   UNL A   1      49.359  27.852  29.254  1.00  0.00    -0.203 F 
ATOM     67  F   UNL A   1      50.361  25.585  34.114  1.00  0.00    -0.200 F 
ATOM     68  C   UNL A   1      51.149  26.379  32.035  1.00  0.00     0.200 A 
ATOM     69  F   UNL A   1      51.891  27.202  29.952  1.00  0.00    -0.200 F 
ATOM     70  F   UNL A   1      52.408  26.076  32.381  1.00  0.00    -0.200 F 
ENDBRANCH  37  60
ENDBRANCH  11  12
ENDBRANCH   4   6
ENDBRANCH   3   4
ENDBRANCH   2   3
ENDBRANCH   1   2
BRANCH   1  71
ATOM     71  O   UNL A   1      35.526  34.265  31.062  1.00  0.00    -0.458 OA
BRANCH  71  72
ATOM     72  C   UNL A   1      36.818  33.493  31.022  1.00  0.00     0.339 C 
ATOM     73  O   UNL A   1      36.774  32.263  31.126  1.00  0.00    -0.246 OA
BRANCH  72  74
ATOM     74  C   UNL A   1      38.235  33.836  31.400  1.00  0.00     0.072 A 
ATOM     75  C   UNL A   1      38.958  34.467  30.295  1.00  0.00     0.016 A 
ATOM     76  C   UNL A   1      38.945  33.645  32.571  1.00  0.00     0.054 A 
ATOM     77  C   UNL A   1      40.262  34.930  30.339  1.00  0.00     0.001 A 
ATOM     78  C   UNL A   1      40.296  34.135  32.596  1.00  0.00     0.015 A 
ATOM     79  C   UNL A   1      40.939  34.768  31.516  1.00  0.00     0.001 A 
BRANCH  76  80
ATOM     80  C   UNL A   1      38.465  33.133  33.881  1.00  0.00     0.256 C 
ATOM     81  O   UNL A   1      37.431  33.650  34.323  1.00  0.00    -0.269 OA
ATOM     82  N   UNL A   1      38.994  32.103  34.625  1.00  0.00    -0.322 N 
ATOM     83  H   UNL A   1      38.595  31.982  35.517  1.00  0.00     0.170 HD
BRANCH  82  84
ATOM     84  C   UNL A   1      40.015  31.204  34.301  1.00  0.00     0.041 A 
ATOM     85  C   UNL A   1      40.899  30.701  35.753  1.00  0.00     0.028 A 
ATOM     86  C   UNL A   1      39.824  30.120  32.910  1.00  0.00     0.028 A 
ATOM     87  C   UNL A   1      41.549  29.082  35.953  1.00  0.00     0.029 A 
ATOM     88  C   UNL A   1      40.432  28.412  33.099  1.00  0.00     0.029 A 
ATOM     89  C   UNL A   1      41.420  27.897  34.658  1.00  0.00     0.052 A 
BRANCH  89  90
ATOM     90  N   UNL A   1      42.651  26.797  34.784  1.00  0.00    -0.250 N 
ATOM     91  C   UNL A   1      43.919  26.905  34.166  1.00  0.00     0.237 C 
ATOM     92  C   UNL A   1      42.715  25.530  35.434  1.00  0.00     0.237 C 
ATOM     93  O   UNL A   1      44.717  27.826  34.205  1.00  0.00    -0.274 OA
ATOM     94  C   UNL A   1      44.157  25.512  33.624  1.00  0.00     0.095 C 
ATOM     95  C   UNL A   1      43.977  24.822  34.945  1.00  0.00     0.095 C 
ATOM     96  O   UNL A   1      42.087  25.050  36.365  1.00  0.00    -0.274 OA
ATOM     97  C   UNL A   1      45.135  24.607  32.868  1.00  0.00     0.002 C 
ATOM     98  C   UNL A   1      44.296  23.369  34.563  1.00  0.00     0.002 C 
ATOM     99  C   UNL A   1      44.224  23.567  32.129  1.00  0.00     0.005 C 
ATOM    100  C   UNL A   1      45.686  23.645  33.933  1.00  0.00     0.009 C 
ATOM    101  C   UNL A   1      43.534  22.842  33.319  1.00  0.00     0.005 C 
ENDBRANCH  89  90
ENDBRANCH  82  84
ENDBRANCH  76  80
ENDBRANCH  72  74
ENDBRANCH  71  72
ENDBRANCH   1  71
TORSDOF 14
ENDMDL
MODEL 2
REMARK VINA RESULT:     -11.4      7.709     13.279
REMARK SMILES O=C(OCCOC(=O)c1ccccc1C(=O)Nc1ccc(N2C(=O)[C@H]3[C@@H]4CC[C@@H](C4)[C@@H]3C2=O)cc1)c1ccc(-c2c3nc(c(-c4c(F)c(F)c(F)c(F)c4F)c4ccc([nH]4)c(-c4c(F)c(F)c(F)c(F)c4F)c4nc(c(-c5c(F)c(F)c(F)c(F)c5F)c5ccc2[nH]5)C=C4)C=C3)cc1
REMARK SMILES IDX 5 1 4 2 3 3 2 4 1 5 36 6 37 7 98 8 38 9 97 10 39 11 40 12
REMARK SMILES IDX 41 13 91 14 42 15 96 16 90 17 92 18 43 19 95 20 89 21 88 22
REMARK SMILES IDX 44 24 76 25 56 26 75 27 57 28 60 29 74 30 93 31 58 32 59 33
REMARK SMILES IDX 73 35 94 36 61 37 45 38 46 39 54 40 47 41 48 42 52 43 55 44
REMARK SMILES IDX 49 45 50 46 53 47 51 48 77 49 78 50 86 51 79 52 80 53 84 54
REMARK SMILES IDX 87 55 81 56 82 57 85 58 83 59 62 60 63 61 71 62 64 63 65 64
REMARK SMILES IDX 69 65 72 66 66 67 67 68 70 69 68 70 6 71 7 72 8 73 9 74
REMARK SMILES IDX 10 75 14 76 11 77 13 78 12 79 15 80 16 81 17 82 18 84 19 85
REMARK SMILES IDX 35 86 20 87 34 88 21 89 22 90 23 91 32 92 24 93 25 94 31 95
REMARK SMILES IDX 33 96 26 97 29 98 27 99 30 100 28 101
REMARK H PARENT 92 23 60 34 17 83
REMARK Flexibility Score: inf
ROOT
ATOM      1  C   UNL A   1      47.500  40.983  29.554  1.00  0.00     0.275 C 
ENDROOT
BRANCH   1   2
ATOM      2  C   UNL A   1      47.503  39.984  31.172  1.00  0.00     0.275 C 
BRANCH   2   3
ATOM      3  O   UNL A   1      46.839  38.304  31.181  1.00  0.00    -0.458 OA
BRANCH   3   4
ATOM      4  C   UNL A   1      45.807  37.292  30.637  1.00  0.00     0.338 C 
ATOM      5  O   UNL A   1      44.670  37.786  30.576  1.00  0.00    -0.246 OA
BRANCH   4   6
ATOM      6  C   UNL A   1      45.805  35.637  30.101  1.00  0.00     0.060 A 
ATOM      7  C   UNL A   1      45.995  34.398  30.804  1.00  0.00     0.016 A 
ATOM      8  C   UNL A   1      45.399  35.343  28.778  1.00  0.00     0.016 A 
ATOM      9  C   UNL A   1      45.607  33.078  30.406  1.00  0.00     0.010 A 
ATOM     10  C   UNL A   1      45.004  33.987  28.341  1.00  0.00     0.010 A 
ATOM     11  C   UNL A   1      45.020  32.844  29.183  1.00  0.00    -0.014 A 
BRANCH  11  12
ATOM     12  C   UNL A   1      44.547  31.430  28.848  1.00  0.00     0.031 A 
ATOM     13  C   UNL A   1      43.207  30.949  29.341  1.00  0.00     0.074 A 
ATOM     14  C   UNL A   1      45.072  30.603  27.903  1.00  0.00     0.049 A 
ATOM     15  N   UNL A   1      42.610  29.797  29.133  1.00  0.00    -0.248 NA
ATOM     16  C   UNL A   1      42.393  31.932  30.061  1.00  0.00     0.031 C 
ATOM     17  C   UNL A   1      46.057  30.968  26.909  1.00  0.00     0.029 A 
ATOM     18  N   UNL A   1      44.827  29.270  27.594  1.00  0.00    -0.354 N 
ATOM     19  C   UNL A   1      41.327  29.937  29.627  1.00  0.00     0.074 A 
ATOM     20  C   UNL A   1      41.252  31.271  30.201  1.00  0.00     0.031 C 
ATOM     21  C   UNL A   1      46.489  29.879  26.248  1.00  0.00     0.029 A 
ATOM     22  C   UNL A   1      45.737  28.721  26.710  1.00  0.00     0.049 A 
ATOM     23  H   UNL A   1      44.072  28.762  27.970  1.00  0.00     0.167 HD
ATOM     24  C   UNL A   1      40.290  29.065  29.586  1.00  0.00     0.037 A 
ATOM     25  C   UNL A   1      45.954  27.454  26.291  1.00  0.00     0.037 A 
ATOM     26  C   UNL A   1      40.302  27.722  29.065  1.00  0.00     0.049 A 
ATOM     27  C   UNL A   1      44.967  26.366  26.616  1.00  0.00     0.074 A 
ATOM     28  C   UNL A   1      39.286  26.778  29.106  1.00  0.00     0.029 A 
ATOM     29  N   UNL A   1      41.368  27.117  28.423  1.00  0.00    -0.354 N 
ATOM     30  N   UNL A   1      43.785  26.484  27.159  1.00  0.00    -0.248 NA
ATOM     31  C   UNL A   1      45.303  24.987  26.215  1.00  0.00     0.031 C 
ATOM     32  C   UNL A   1      39.755  25.586  28.541  1.00  0.00     0.029 A 
ATOM     33  C   UNL A   1      41.052  25.796  28.113  1.00  0.00     0.049 A 
ATOM     34  H   UNL A   1      42.224  27.555  28.214  1.00  0.00     0.167 HD
ATOM     35  C   UNL A   1      43.207  25.224  27.091  1.00  0.00     0.074 A 
ATOM     36  C   UNL A   1      44.174  24.342  26.481  1.00  0.00     0.031 C 
ATOM     37  C   UNL A   1      41.961  24.872  27.484  1.00  0.00     0.037 A 
BRANCH  24  38
ATOM     38  C   UNL A   1      39.018  29.551  30.199  1.00  0.00     0.064 A 
ATOM     39  C   UNL A   1      38.054  30.230  29.441  1.00  0.00     0.173 A 
ATOM     40  C   UNL A   1      38.775  29.340  31.562  1.00  0.00     0.173 A 
ATOM     41  F   UNL A   1      38.260  30.463  28.136  1.00  0.00    -0.203 F 
ATOM     42  C   UNL A   1      36.894  30.707  30.040  1.00  0.00     0.198 A 
ATOM     43  C   UNL A   1      37.606  29.804  32.152  1.00  0.00     0.198 A 
ATOM     44  F   UNL A   1      39.675  28.692  32.317  1.00  0.00    -0.203 F 
ATOM     45  F   UNL A   1      35.999  31.392  29.315  1.00  0.00    -0.200 F 
ATOM     46  C   UNL A   1      36.671  30.493  31.393  1.00  0.00     0.200 A 
ATOM     47  F   UNL A   1      37.389  29.593  33.458  1.00  0.00    -0.200 F 
ATOM     48  F   UNL A   1      35.557  30.963  31.972  1.00  0.00    -0.200 F 
ENDBRANCH  24  38
BRANCH  25  49
ATOM     49  C   UNL A   1      47.184  27.093  25.527  1.00  0.00     0.064 A 
ATOM     50  C   UNL A   1      48.321  26.559  26.152  1.00  0.00     0.173 A 
ATOM     51  C   UNL A   1      47.292  27.434  24.170  1.00  0.00     0.173 A 
ATOM     52  F   UNL A   1      48.290  26.270  27.462  1.00  0.00    -0.203 F 
ATOM     53  C   UNL A   1      49.521  26.406  25.456  1.00  0.00     0.198 A 
ATOM     54  C   UNL A   1      48.486  27.262  23.471  1.00  0.00     0.198 A 
ATOM     55  F   UNL A   1      46.251  27.994  23.533  1.00  0.00    -0.203 F 
ATOM     56  F   UNL A   1      50.613  25.965  26.098  1.00  0.00    -0.200 F 
ATOM     57  C   UNL A   1      49.603  26.759  24.118  1.00  0.00     0.200 A 
ATOM     58  F   UNL A   1      48.564  27.623  22.182  1.00  0.00    -0.200 F 
ATOM     59  F   UNL A   1      50.767  26.647  23.461  1.00  0.00    -0.200 F 
ENDBRANCH  25  49
BRANCH  37  60
ATOM     60  C   UNL A   1      41.507  23.464  27.226  1.00  0.00     0.064 A 
ATOM     61  C   UNL A   1      42.124  22.363  27.838  1.00  0.00     0.173 A 
ATOM     62  C   UNL A   1      40.413  23.210  26.384  1.00  0.00     0.173 A 
ATOM     63  F   UNL A   1      43.188  22.544  28.635  1.00  0.00    -0.203 F 
ATOM     64  C   UNL A   1      41.672  21.064  27.609  1.00  0.00     0.198 A 
ATOM     65  C   UNL A   1      39.948  21.912  26.175  1.00  0.00     0.198 A 
ATOM     66  F   UNL A   1      39.785  24.222  25.766  1.00  0.00    -0.203 F 
ATOM     67  F   UNL A   1      42.301  20.026  28.179  1.00  0.00    -0.200 F 
ATOM     68  C   UNL A   1      40.580  20.840  26.785  1.00  0.00     0.200 A 
ATOM     69  F   UNL A   1      38.887  21.699  25.382  1.00  0.00    -0.200 F 
ATOM     70  F   UNL A   1      40.140  19.591  26.575  1.00  0.00    -0.200 F 
ENDBRANCH  37  60
ENDBRANCH  11  12
ENDBRANCH   4   6
ENDBRANCH   3   4
ENDBRANCH   2   3
ENDBRANCH   1   2
BRANCH   1  71
ATOM     71  O   UNL A   1      47.084  39.955  27.819  1.00  0.00    -0.458 OA
BRANCH  71  72
ATOM     72  C   UNL A   1      46.034  39.115  27.142  1.00  0.00     0.339 C 
ATOM     73  O   UNL A   1      46.269  38.675  26.012  1.00  0.00    -0.246 OA
BRANCH  72  74
ATOM     74  C   UNL A   1      44.532  39.061  27.244  1.00  0.00     0.072 A 
ATOM     75  C   UNL A   1      44.010  37.729  26.938  1.00  0.00     0.016 A 
ATOM     76  C   UNL A   1      43.598  40.033  27.553  1.00  0.00     0.054 A 
ATOM     77  C   UNL A   1      42.680  37.350  26.981  1.00  0.00     0.001 A 
ATOM     78  C   UNL A   1      42.223  39.618  27.594  1.00  0.00     0.015 A 
ATOM     79  C   UNL A   1      41.771  38.313  27.325  1.00  0.00     0.001 A 
BRANCH  76  80
ATOM     80  C   UNL A   1      43.820  41.432  28.002  1.00  0.00     0.256 C 
ATOM     81  O   UNL A   1      43.831  41.617  29.226  1.00  0.00    -0.269 OA
ATOM     82  N   UNL A   1      44.085  42.533  27.220  1.00  0.00    -0.322 N 
ATOM     83  H   UNL A   1      44.099  43.394  27.698  1.00  0.00     0.170 HD
BRANCH  82  84
ATOM     84  C   UNL A   1      44.339  42.609  25.847  1.00  0.00     0.041 A 
ATOM     85  C   UNL A   1      43.034  41.845  24.920  1.00  0.00     0.028 A 
ATOM     86  C   UNL A   1      45.262  43.976  25.196  1.00  0.00     0.028 A 
ATOM     87  C   UNL A   1      42.503  42.449  23.359  1.00  0.00     0.029 A 
ATOM     88  C   UNL A   1      44.705  44.671  23.605  1.00  0.00     0.029 A 
ATOM     89  C   UNL A   1      43.320  43.810  22.598  1.00  0.00     0.052 A 
BRANCH  89  90
ATOM     90  N   UNL A   1      43.142  43.719  20.955  1.00  0.00    -0.250 N 
ATOM     91  C   UNL A   1      44.193  43.746  20.009  1.00  0.00     0.237 C 
ATOM     92  C   UNL A   1      41.974  43.669  20.138  1.00  0.00     0.237 C 
ATOM     93  O   UNL A   1      45.195  43.053  19.954  1.00  0.00    -0.274 OA
ATOM     94  C   UNL A   1      43.675  44.688  18.944  1.00  0.00     0.095 C 
ATOM     95  C   UNL A   1      42.406  43.924  18.696  1.00  0.00     0.095 C 
ATOM     96  O   UNL A   1      40.829  43.305  20.360  1.00  0.00    -0.274 OA
ATOM     97  C   UNL A   1      43.975  45.349  17.595  1.00  0.00     0.002 C 
ATOM     98  C   UNL A   1      41.802  44.728  17.535  1.00  0.00     0.002 C 
ATOM     99  C   UNL A   1      43.214  46.718  17.645  1.00  0.00     0.005 C 
ATOM    100  C   UNL A   1      43.035  44.653  16.597  1.00  0.00     0.009 C 
ATOM    101  C   UNL A   1      41.734  46.259  17.771  1.00  0.00     0.005 C 
ENDBRANCH  89  90
ENDBRANCH  82  84
ENDBRANCH  76  80
ENDBRANCH  72  74
ENDBRANCH  71  72
ENDBRANCH   1  71
TORSDOF 14
ENDMDL
MODEL 3
REMARK VINA RESULT:     -11.3      4.246     10.760
REMARK SMILES O=C(OCCOC(=O)c1ccccc1C(=O)Nc1ccc(N2C(=O)[C@H]3[C@@H]4CC[C@@H](C4)[C@@H]3C2=O)cc1)c1ccc(-c2c3nc(c(-c4c(F)c(F)c(F)c(F)c4F)c4ccc([nH]4)c(-c4c(F)c(F)c(F)c(F)c4F)c4nc(c(-c5c(F)c(F)c(F)c(F)c5F)c5ccc2[nH]5)C=C4)C=C3)cc1
REMARK SMILES IDX 5 1 4 2 3 3 2 4 1 5 36 6 37 7 98 8 38 9 97 10 39 11 40 12
REMARK SMILES IDX 41 13 91 14 42 15 96 16 90 17 92 18 43 19 95 20 89 21 88 22
REMARK SMILES IDX 44 24 76 25 56 26 75 27 57 28 60 29 74 30 93 31 58 32 59 33
REMARK SMILES IDX 73 35 94 36 61 37 45 38 46 39 54 40 47 41 48 42 52 43 55 44
REMARK SMILES IDX 49 45 50 46 53 47 51 48 77 49 78 50 86 51 79 52 80 53 84 54
REMARK SMILES IDX 87 55 81 56 82 57 85 58 83 59 62 60 63 61 71 62 64 63 65 64
REMARK SMILES IDX 69 65 72 66 66 67 67 68 70 69 68 70 6 71 7 72 8 73 9 74
REMARK SMILES IDX 10 75 14 76 11 77 13 78 12 79 15 80 16 81 17 82 18 84 19 85
REMARK SMILES IDX 35 86 20 87 34 88 21 89 22 90 23 91 32 92 24 93 25 94 31 95
REMARK SMILES IDX 33 96 26 97 29 98 27 99 30 100 28 101
REMARK H PARENT 92 23 60 34 17 83
REMARK Flexibility Score: inf
ROOT
ATOM      1  C   UNL A   1      47.349  25.282  24.711  1.00  0.00     0.275 C 
ENDROOT
BRANCH   1   2
ATOM      2  C   UNL A   1      46.734  23.587  24.105  1.00  0.00     0.275 C 
BRANCH   2   3
ATOM      3  O   UNL A   1      44.959  23.257  24.042  1.00  0.00    -0.458 OA
BRANCH   3   4
ATOM      4  C   UNL A   1      43.596  23.234  24.768  1.00  0.00     0.338 C 
ATOM      5  O   UNL A   1      43.006  22.156  24.598  1.00  0.00    -0.246 OA
BRANCH   4   6
ATOM      6  C   UNL A   1      42.654  24.321  25.747  1.00  0.00     0.060 A 
ATOM      7  C   UNL A   1      41.795  24.098  26.877  1.00  0.00     0.016 A 
ATOM      8  C   UNL A   1      42.815  25.716  25.575  1.00  0.00     0.016 A 
ATOM      9  C   UNL A   1      41.362  25.039  27.867  1.00  0.00     0.010 A 
ATOM     10  C   UNL A   1      42.366  26.706  26.577  1.00  0.00     0.010 A 
ATOM     11  C   UNL A   1      41.706  26.368  27.788  1.00  0.00    -0.014 A 
BRANCH  11  12
ATOM     12  C   UNL A   1      41.289  27.309  28.918  1.00  0.00     0.031 A 
ATOM     13  C   UNL A   1      42.055  27.310  30.216  1.00  0.00     0.074 A 
ATOM     14  C   UNL A   1      40.456  28.380  28.814  1.00  0.00     0.049 A 
ATOM     15  N   UNL A   1      41.880  28.058  31.283  1.00  0.00    -0.248 NA
ATOM     16  C   UNL A   1      43.230  26.437  30.274  1.00  0.00     0.031 C 
ATOM     17  C   UNL A   1      39.949  28.945  27.583  1.00  0.00     0.029 A 
ATOM     18  N   UNL A   1      39.900  29.222  29.771  1.00  0.00    -0.354 N 
ATOM     19  C   UNL A   1      42.961  27.805  32.106  1.00  0.00     0.074 A 
ATOM     20  C   UNL A   1      43.756  26.787  31.440  1.00  0.00     0.031 C 
ATOM     21  C   UNL A   1      39.015  29.879  27.840  1.00  0.00     0.029 A 
ATOM     22  C   UNL A   1      38.912  30.055  29.282  1.00  0.00     0.049 A 
ATOM     23  H   UNL A   1      40.184  29.225  30.714  1.00  0.00     0.167 HD
ATOM     24  C   UNL A   1      43.294  28.380  33.288  1.00  0.00     0.037 A 
ATOM     25  C   UNL A   1      38.030  30.882  29.887  1.00  0.00     0.037 A 
ATOM     26  C   UNL A   1      42.540  29.367  34.019  1.00  0.00     0.049 A 
ATOM     27  C   UNL A   1      38.168  31.200  31.351  1.00  0.00     0.074 A 
ATOM     28  C   UNL A   1      42.808  29.892  35.275  1.00  0.00     0.029 A 
ATOM     29  N   UNL A   1      41.375  29.975  33.585  1.00  0.00    -0.354 N 
ATOM     30  N   UNL A   1      39.149  30.893  32.155  1.00  0.00    -0.248 NA
ATOM     31  C   UNL A   1      37.122  32.030  31.978  1.00  0.00     0.031 C 
ATOM     32  C   UNL A   1      41.776  30.771  35.625  1.00  0.00     0.029 A 
ATOM     33  C   UNL A   1      40.884  30.826  34.572  1.00  0.00     0.049 A 
ATOM     34  H   UNL A   1      40.955  29.828  32.707  1.00  0.00     0.167 HD
ATOM     35  C   UNL A   1      38.887  31.552  33.347  1.00  0.00     0.074 A 
ATOM     36  C   UNL A   1      37.638  32.258  33.180  1.00  0.00     0.031 C 
ATOM     37  C   UNL A   1      39.658  31.575  34.459  1.00  0.00     0.037 A 
BRANCH  24  38
ATOM     38  C   UNL A   1      44.558  27.884  33.909  1.00  0.00     0.064 A 
ATOM     39  C   UNL A   1      45.769  28.572  33.750  1.00  0.00     0.173 A 
ATOM     40  C   UNL A   1      44.550  26.704  34.662  1.00  0.00     0.173 A 
ATOM     41  F   UNL A   1      45.817  29.699  33.023  1.00  0.00    -0.203 F 
ATOM     42  C   UNL A   1      46.941  28.073  34.305  1.00  0.00     0.198 A 
ATOM     43  C   UNL A   1      45.721  26.218  35.229  1.00  0.00     0.198 A 
ATOM     44  F   UNL A   1      43.408  26.022  34.837  1.00  0.00    -0.203 F 
ATOM     45  F   UNL A   1      48.101  28.716  34.110  1.00  0.00    -0.200 F 
ATOM     46  C   UNL A   1      46.916  26.899  35.044  1.00  0.00     0.200 A 
ATOM     47  F   UNL A   1      45.695  25.086  35.946  1.00  0.00    -0.200 F 
ATOM     48  F   UNL A   1      48.050  26.413  35.570  1.00  0.00    -0.200 F 
ENDBRANCH  24  38
BRANCH  25  49
ATOM     49  C   UNL A   1      36.884  31.472  29.135  1.00  0.00     0.064 A 
ATOM     50  C   UNL A   1      36.788  32.848  28.880  1.00  0.00     0.173 A 
ATOM     51  C   UNL A   1      35.778  30.674  28.802  1.00  0.00     0.173 A 
ATOM     52  F   UNL A   1      37.792  33.665  29.233  1.00  0.00    -0.203 F 
ATOM     53  C   UNL A   1      35.624  33.403  28.346  1.00  0.00     0.198 A 
ATOM     54  C   UNL A   1      34.624  31.227  28.250  1.00  0.00     0.198 A 
ATOM     55  F   UNL A   1      35.795  29.358  29.068  1.00  0.00    -0.203 F 
ATOM     56  F   UNL A   1      35.530  34.731  28.184  1.00  0.00    -0.200 F 
ATOM     57  C   UNL A   1      34.543  32.593  28.033  1.00  0.00     0.200 A 
ATOM     58  F   UNL A   1      33.576  30.441  27.967  1.00  0.00    -0.200 F 
ATOM     59  F   UNL A   1      33.412  33.132  27.557  1.00  0.00    -0.200 F 
ENDBRANCH  25  49
BRANCH  37  60
ATOM     60  C   UNL A   1      39.223  32.441  35.607  1.00  0.00     0.064 A 
ATOM     61  C   UNL A   1      38.377  31.960  36.617  1.00  0.00     0.173 A 
ATOM     62  C   UNL A   1      39.690  33.760  35.722  1.00  0.00     0.173 A 
ATOM     63  F   UNL A   1      37.884  30.715  36.547  1.00  0.00    -0.203 F 
ATOM     64  C   UNL A   1      38.006  32.769  37.691  1.00  0.00     0.198 A 
ATOM     65  C   UNL A   1      39.336  34.558  36.809  1.00  0.00     0.198 A 
ATOM     66  F   UNL A   1      40.498  34.277  34.784  1.00  0.00    -0.203 F 
ATOM     67  F   UNL A   1      37.169  32.297  38.626  1.00  0.00    -0.200 F 
ATOM     68  C   UNL A   1      38.492  34.064  37.791  1.00  0.00     0.200 A 
ATOM     69  F   UNL A   1      39.812  35.808  36.906  1.00  0.00    -0.200 F 
ATOM     70  F   UNL A   1      38.142  34.835  38.829  1.00  0.00    -0.200 F 
ENDBRANCH  37  60
ENDBRANCH  11  12
ENDBRANCH   4   6
ENDBRANCH   3   4
ENDBRANCH   2   3
ENDBRANCH   1   2
BRANCH   1  71
ATOM     71  O   UNL A   1      49.003  25.295  25.937  1.00  0.00    -0.458 OA
BRANCH  71  72
ATOM     72  C   UNL A   1      49.432  25.212  27.378  1.00  0.00     0.339 C 
ATOM     73  O   UNL A   1      50.348  24.439  27.676  1.00  0.00    -0.246 OA
BRANCH  72  74
ATOM     74  C   UNL A   1      48.716  25.443  28.682  1.00  0.00     0.072 A 
ATOM     75  C   UNL A   1      49.645  25.526  29.809  1.00  0.00     0.016 A 
ATOM     76  C   UNL A   1      47.371  25.569  28.981  1.00  0.00     0.054 A 
ATOM     77  C   UNL A   1      49.300  25.768  31.128  1.00  0.00     0.001 A 
ATOM     78  C   UNL A   1      47.035  25.822  30.355  1.00  0.00     0.015 A 
ATOM     79  C   UNL A   1      47.970  25.928  31.402  1.00  0.00     0.001 A 
BRANCH  76  80
ATOM     80  C   UNL A   1      46.211  25.631  28.055  1.00  0.00     0.256 C 
ATOM     81  O   UNL A   1      45.705  24.546  27.741  1.00  0.00    -0.269 OA
ATOM     82  N   UNL A   1      45.588  26.755  27.562  1.00  0.00    -0.322 N 
ATOM     83  H   UNL A   1      44.900  26.588  26.878  1.00  0.00     0.170 HD
BRANCH  82  84
ATOM     84  C   UNL A   1      45.789  28.099  27.890  1.00  0.00     0.041 A 
ATOM     85  C   UNL A   1      44.801  29.155  26.863  1.00  0.00     0.028 A 
ATOM     86  C   UNL A   1      46.201  28.547  29.556  1.00  0.00     0.028 A 
ATOM     87  C   UNL A   1      44.085  30.647  27.451  1.00  0.00     0.029 A 
ATOM     88  C   UNL A   1      45.430  30.058  30.224  1.00  0.00     0.029 A 
ATOM     89  C   UNL A   1      44.398  31.208  29.089  1.00  0.00     0.052 A 
BRANCH  89  90
ATOM     90  N   UNL A   1      44.243  32.854  29.154  1.00  0.00    -0.250 N 
ATOM     91  C   UNL A   1      43.222  33.560  29.833  1.00  0.00     0.237 C 
ATOM     92  C   UNL A   1      44.996  33.894  28.532  1.00  0.00     0.237 C 
ATOM     93  O   UNL A   1      42.864  33.466  30.995  1.00  0.00    -0.274 OA
ATOM     94  C   UNL A   1      42.822  34.629  28.838  1.00  0.00     0.095 C 
ATOM     95  C   UNL A   1      44.206  35.191  28.684  1.00  0.00     0.095 C 
ATOM     96  O   UNL A   1      46.140  33.940  28.108  1.00  0.00    -0.274 OA
ATOM     97  C   UNL A   1      41.907  35.830  28.583  1.00  0.00     0.002 C 
ATOM     98  C   UNL A   1      43.935  36.382  27.752  1.00  0.00     0.002 C 
ATOM     99  C   UNL A   1      41.668  35.826  27.034  1.00  0.00     0.005 C 
ATOM    100  C   UNL A   1      42.839  37.052  28.621  1.00  0.00     0.009 C 
ATOM    101  C   UNL A   1      43.107  36.043  26.486  1.00  0.00     0.005 C 
ENDBRANCH  89  90
ENDBRANCH  82  84
ENDBRANCH  76  80
ENDBRANCH  72  74
ENDBRANCH  71  72
ENDBRANCH   1  71
TORSDOF 14
ENDMDL
