MODEL 1
REMARK VINA RESULT:     -10.9      0.000      0.000
REMARK SMILES O=C(CCNC(=O)c1cccn1CC(=O)OCCOC(=O)c1ccc(-c2c3nc(c(-c4c(F)c(F)c(F)c(F)c4F)c4ccc([nH]4)c(-c4c(F)c(F)c(F)c(F)c4F)c4nc(c(-c5c(F)c(F)c(F)c(F)c5F)c5ccc2[nH]5)C=C4)C=C3)cc1)NC1CC1
REMARK SMILES IDX 14 1 15 2 13 3 12 4 8 5 9 6 10 7 11 8 6 9 5 10 7 12 4 13
REMARK SMILES IDX 3 14 2 15 1 16 85 17 86 19 87 20 88 21 16 22 17 23 18 24
REMARK SMILES IDX 19 25 20 26 21 27 22 28 23 29 84 30 24 31 83 32 25 33 26 34
REMARK SMILES IDX 27 35 77 36 28 37 82 38 76 39 78 40 29 41 81 42 75 43 74 44
REMARK SMILES IDX 30 46 62 47 42 48 61 49 43 50 46 51 60 52 79 53 44 54 45 55
REMARK SMILES IDX 59 57 80 58 47 59 31 60 32 61 40 62 33 63 34 64 38 65 41 66
REMARK SMILES IDX 35 67 36 68 39 69 37 70 63 71 64 72 72 73 65 74 66 75 70 76
REMARK SMILES IDX 73 77 67 78 68 79 71 80 69 81 48 82 49 83 57 84 50 85 51 86
REMARK SMILES IDX 55 87 58 88 52 89 53 90 56 91 54 92
REMARK H PARENT 5 11 85 18 78 45 46 56
REMARK Flexibility Score: inf
ROOT
ATOM      1  C   UNL A   1      36.990  20.951  25.166  1.00  0.00     0.326 C 
ATOM      2  O   UNL A   1      37.214  19.841  24.684  1.00  0.00    -0.250 OA
ENDROOT
BRANCH   1   3
ATOM      3  C   UNL A   1      35.583  21.369  25.526  1.00  0.00     0.244 C 
BRANCH   3   4
ATOM      4  N   UNL A   1      34.719  21.885  24.466  1.00  0.00    -0.332 N 
ATOM      5  C   UNL A   1      33.356  21.692  24.333  1.00  0.00     0.107 A 
ATOM      6  C   UNL A   1      32.946  22.471  23.254  1.00  0.00     0.033 A 
ATOM      7  C   UNL A   1      34.059  23.154  22.738  1.00  0.00     0.020 A 
ATOM      8  C   UNL A   1      35.113  22.837  23.554  1.00  0.00     0.087 A 
BRANCH   5   9
ATOM      9  C   UNL A   1      32.522  20.921  25.222  1.00  0.00     0.267 C 
ATOM     10  N   UNL A   1      32.182  21.463  26.433  1.00  0.00    -0.350 N 
ATOM     11  H   UNL A   1      31.935  20.819  27.135  1.00  0.00     0.163 HD
ATOM     12  O   UNL A   1      32.109  19.795  24.962  1.00  0.00    -0.268 OA
BRANCH  10  13
ATOM     13  C   UNL A   1      32.137  22.868  26.820  1.00  0.00     0.126 C 
BRANCH  13  14
ATOM     14  C   UNL A   1      30.777  23.489  26.526  1.00  0.00     0.121 C 
BRANCH  14  15
ATOM     15  C   UNL A   1      30.939  24.938  26.131  1.00  0.00     0.221 C 
ATOM     16  O   UNL A   1      30.104  25.784  26.430  1.00  0.00    -0.275 OA
ATOM     17  N   UNL A   1      32.074  25.180  25.380  1.00  0.00    -0.353 N 
ATOM     18  H   UNL A   1      32.706  24.438  25.246  1.00  0.00     0.163 HD
BRANCH  17  19
ATOM     19  C   UNL A   1      32.384  26.440  24.788  1.00  0.00     0.082 C 
ATOM     20  C   UNL A   1      33.826  26.819  24.565  1.00  0.00     0.027 C 
ATOM     21  C   UNL A   1      32.926  26.579  23.392  1.00  0.00     0.027 C 
ENDBRANCH  17  19
ENDBRANCH  14  15
ENDBRANCH  13  14
ENDBRANCH  10  13
ENDBRANCH   5   9
ENDBRANCH   3   4
ENDBRANCH   1   3
BRANCH   1  22
ATOM     22  O   UNL A   1      37.955  21.892  25.351  1.00  0.00    -0.461 OA
BRANCH  22  23
ATOM     23  C   UNL A   1      39.173  21.424  25.984  1.00  0.00     0.274 C 
BRANCH  23  24
ATOM     24  C   UNL A   1      39.864  22.443  26.906  1.00  0.00     0.275 C 
BRANCH  24  25
ATOM     25  O   UNL A   1      40.033  23.744  26.330  1.00  0.00    -0.458 OA
BRANCH  25  26
ATOM     26  C   UNL A   1      39.331  24.661  27.011  1.00  0.00     0.338 C 
ATOM     27  O   UNL A   1      38.106  24.778  27.037  1.00  0.00    -0.246 OA
BRANCH  26  28
ATOM     28  C   UNL A   1      40.139  25.715  27.599  1.00  0.00     0.060 A 
ATOM     29  C   UNL A   1      39.937  25.944  28.962  1.00  0.00     0.016 A 
ATOM     30  C   UNL A   1      40.494  26.737  26.717  1.00  0.00     0.016 A 
ATOM     31  C   UNL A   1      39.868  27.244  29.414  1.00  0.00     0.010 A 
ATOM     32  C   UNL A   1      40.466  28.041  27.174  1.00  0.00     0.010 A 
ATOM     33  C   UNL A   1      40.111  28.289  28.510  1.00  0.00    -0.014 A 
BRANCH  33  34
ATOM     34  C   UNL A   1      40.348  29.616  29.091  1.00  0.00     0.031 A 
ATOM     35  C   UNL A   1      38.995  30.365  29.149  1.00  0.00     0.074 A 
ATOM     36  C   UNL A   1      41.637  29.947  29.425  1.00  0.00     0.049 A 
ATOM     37  N   UNL A   1      38.758  31.634  29.227  1.00  0.00    -0.248 NA
ATOM     38  C   UNL A   1      37.706  29.606  29.037  1.00  0.00     0.031 C 
ATOM     39  C   UNL A   1      42.814  29.057  29.286  1.00  0.00     0.029 A 
ATOM     40  N   UNL A   1      42.234  31.088  29.937  1.00  0.00    -0.354 N 
ATOM     41  C   UNL A   1      37.367  31.798  29.417  1.00  0.00     0.074 A 
ATOM     42  C   UNL A   1      36.761  30.538  29.142  1.00  0.00     0.031 C 
ATOM     43  C   UNL A   1      43.961  29.703  29.611  1.00  0.00     0.029 A 
ATOM     44  C   UNL A   1      43.659  31.059  30.031  1.00  0.00     0.049 A 
ATOM     45  H   UNL A   1      41.708  31.871  30.217  1.00  0.00     0.167 HD
ATOM     46  C   UNL A   1      36.838  32.926  29.970  1.00  0.00     0.037 A 
ATOM     47  C   UNL A   1      44.521  32.066  30.399  1.00  0.00     0.037 A 
ATOM     48  C   UNL A   1      37.882  33.863  30.204  1.00  0.00     0.049 A 
ATOM     49  C   UNL A   1      43.647  33.099  30.960  1.00  0.00     0.074 A 
ATOM     50  C   UNL A   1      38.663  34.566  29.325  1.00  0.00     0.029 A 
ATOM     51  N   UNL A   1      38.504  33.788  31.428  1.00  0.00    -0.354 N 
ATOM     52  N   UNL A   1      43.066  33.006  32.118  1.00  0.00    -0.248 NA
ATOM     53  C   UNL A   1      43.349  34.293  30.161  1.00  0.00     0.031 C 
ATOM     54  C   UNL A   1      39.942  34.438  29.893  1.00  0.00     0.029 A 
ATOM     55  C   UNL A   1      39.842  33.975  31.211  1.00  0.00     0.049 A 
ATOM     56  H   UNL A   1      38.069  33.630  32.297  1.00  0.00     0.167 HD
ATOM     57  C   UNL A   1      42.067  33.937  31.997  1.00  0.00     0.074 A 
ATOM     58  C   UNL A   1      42.501  34.890  30.997  1.00  0.00     0.031 C 
ATOM     59  C   UNL A   1      40.787  33.531  32.207  1.00  0.00     0.037 A 
BRANCH  46  60
ATOM     60  C   UNL A   1      35.512  33.223  30.602  1.00  0.00     0.064 A 
ATOM     61  C   UNL A   1      34.744  34.274  30.039  1.00  0.00     0.173 A 
ATOM     62  C   UNL A   1      35.173  32.831  31.901  1.00  0.00     0.173 A 
ATOM     63  F   UNL A   1      34.962  34.686  28.780  1.00  0.00    -0.203 F 
ATOM     64  C   UNL A   1      33.820  34.993  30.790  1.00  0.00     0.198 A 
ATOM     65  C   UNL A   1      34.205  33.522  32.634  1.00  0.00     0.198 A 
ATOM     66  F   UNL A   1      35.841  31.855  32.530  1.00  0.00    -0.203 F 
ATOM     67  F   UNL A   1      33.244  36.086  30.270  1.00  0.00    -0.200 F 
ATOM     68  C   UNL A   1      33.566  34.628  32.097  1.00  0.00     0.200 A 
ATOM     69  F   UNL A   1      33.953  33.162  33.900  1.00  0.00    -0.200 F 
ATOM     70  F   UNL A   1      32.739  35.363  32.851  1.00  0.00    -0.200 F 
ENDBRANCH  46  60
BRANCH  47  71
ATOM     71  C   UNL A   1      46.000  32.433  30.400  1.00  0.00     0.064 A 
ATOM     72  C   UNL A   1      46.693  33.099  29.385  1.00  0.00     0.173 A 
ATOM     73  C   UNL A   1      46.788  32.197  31.573  1.00  0.00     0.173 A 
ATOM     74  F   UNL A   1      46.137  33.284  28.184  1.00  0.00    -0.203 F 
ATOM     75  C   UNL A   1      48.004  33.593  29.580  1.00  0.00     0.198 A 
ATOM     76  C   UNL A   1      48.051  32.746  31.792  1.00  0.00     0.198 A 
ATOM     77  F   UNL A   1      46.361  31.416  32.573  1.00  0.00    -0.203 F 
ATOM     78  F   UNL A   1      48.632  34.225  28.578  1.00  0.00    -0.200 F 
ATOM     79  C   UNL A   1      48.658  33.463  30.796  1.00  0.00     0.200 A 
ATOM     80  F   UNL A   1      48.650  32.583  32.981  1.00  0.00    -0.200 F 
ATOM     81  F   UNL A   1      49.863  34.010  31.002  1.00  0.00    -0.200 F 
ENDBRANCH  47  71
BRANCH  59  82
ATOM     82  C   UNL A   1      40.647  32.363  33.171  1.00  0.00     0.064 A 
ATOM     83  C   UNL A   1      41.154  32.479  34.480  1.00  0.00     0.173 A 
ATOM     84  C   UNL A   1      40.153  31.095  32.825  1.00  0.00     0.173 A 
ATOM     85  F   UNL A   1      41.605  33.665  34.919  1.00  0.00    -0.203 F 
ATOM     86  C   UNL A   1      41.209  31.390  35.356  1.00  0.00     0.198 A 
ATOM     87  C   UNL A   1      40.207  30.002  33.698  1.00  0.00     0.198 A 
ATOM     88  F   UNL A   1      39.589  30.886  31.638  1.00  0.00    -0.203 F 
ATOM     89  F   UNL A   1      41.710  31.551  36.589  1.00  0.00    -0.200 F 
ATOM     90  C   UNL A   1      40.744  30.148  34.962  1.00  0.00     0.200 A 
ATOM     91  F   UNL A   1      39.729  28.808  33.310  1.00  0.00    -0.200 F 
ATOM     92  F   UNL A   1      40.789  29.106  35.803  1.00  0.00    -0.200 F 
ENDBRANCH  59  82
ENDBRANCH  33  34
ENDBRANCH  26  28
ENDBRANCH  25  26
ENDBRANCH  24  25
ENDBRANCH  23  24
ENDBRANCH  22  23
ENDBRANCH   1  22
TORSDOF 17
ENDMDL
MODEL 2
REMARK VINA RESULT:     -10.8      3.414      8.230
REMARK SMILES O=C(CCNC(=O)c1cccn1CC(=O)OCCOC(=O)c1ccc(-c2c3nc(c(-c4c(F)c(F)c(F)c(F)c4F)c4ccc([nH]4)c(-c4c(F)c(F)c(F)c(F)c4F)c4nc(c(-c5c(F)c(F)c(F)c(F)c5F)c5ccc2[nH]5)C=C4)C=C3)cc1)NC1CC1
REMARK SMILES IDX 14 1 15 2 13 3 12 4 8 5 9 6 10 7 11 8 6 9 5 10 7 12 4 13
REMARK SMILES IDX 3 14 2 15 1 16 85 17 86 19 87 20 88 21 16 22 17 23 18 24
REMARK SMILES IDX 19 25 20 26 21 27 22 28 23 29 84 30 24 31 83 32 25 33 26 34
REMARK SMILES IDX 27 35 77 36 28 37 82 38 76 39 78 40 29 41 81 42 75 43 74 44
REMARK SMILES IDX 30 46 62 47 42 48 61 49 43 50 46 51 60 52 79 53 44 54 45 55
REMARK SMILES IDX 59 57 80 58 47 59 31 60 32 61 40 62 33 63 34 64 38 65 41 66
REMARK SMILES IDX 35 67 36 68 39 69 37 70 63 71 64 72 72 73 65 74 66 75 70 76
REMARK SMILES IDX 73 77 67 78 68 79 71 80 69 81 48 82 49 83 57 84 50 85 51 86
REMARK SMILES IDX 55 87 58 88 52 89 53 90 56 91 54 92
REMARK H PARENT 5 11 85 18 78 45 46 56
REMARK Flexibility Score: inf
ROOT
ATOM      1  C   UNL A   1      31.858  28.659  26.943  1.00  0.00     0.326 C 
ATOM      2  O   UNL A   1      31.210  28.070  27.808  1.00  0.00    -0.250 OA
ENDROOT
BRANCH   1   3
ATOM      3  C   UNL A   1      32.146  28.005  25.612  1.00  0.00     0.244 C 
BRANCH   3   4
ATOM      4  N   UNL A   1      31.041  27.829  24.672  1.00  0.00    -0.332 N 
ATOM      5  C   UNL A   1      30.200  26.735  24.569  1.00  0.00     0.107 A 
ATOM      6  C   UNL A   1      29.228  27.066  23.628  1.00  0.00     0.033 A 
ATOM      7  C   UNL A   1      29.467  28.372  23.168  1.00  0.00     0.020 A 
ATOM      8  C   UNL A   1      30.535  28.840  23.887  1.00  0.00     0.087 A 
BRANCH   5   9
ATOM      9  C   UNL A   1      30.267  25.540  25.374  1.00  0.00     0.267 C 
ATOM     10  N   UNL A   1      30.913  24.445  24.865  1.00  0.00    -0.350 N 
ATOM     11  H   UNL A   1      30.649  23.578  25.247  1.00  0.00     0.163 HD
ATOM     12  O   UNL A   1      29.763  25.442  26.489  1.00  0.00    -0.268 OA
BRANCH  10  13
ATOM     13  C   UNL A   1      31.940  24.394  23.831  1.00  0.00     0.126 C 
BRANCH  13  14
ATOM     14  C   UNL A   1      32.495  22.985  23.660  1.00  0.00     0.121 C 
BRANCH  14  15
ATOM     15  C   UNL A   1      33.914  23.041  23.146  1.00  0.00     0.221 C 
ATOM     16  O   UNL A   1      34.166  23.345  21.985  1.00  0.00    -0.275 OA
ATOM     17  N   UNL A   1      34.856  22.680  24.089  1.00  0.00    -0.353 N 
ATOM     18  H   UNL A   1      34.548  22.510  25.008  1.00  0.00     0.163 HD
BRANCH  17  19
ATOM     19  C   UNL A   1      36.249  22.539  23.812  1.00  0.00     0.082 C 
ATOM     20  C   UNL A   1      37.258  22.995  24.835  1.00  0.00     0.027 C 
ATOM     21  C   UNL A   1      37.127  21.539  24.512  1.00  0.00     0.027 C 
ENDBRANCH  17  19
ENDBRANCH  14  15
ENDBRANCH  13  14
ENDBRANCH  10  13
ENDBRANCH   5   9
ENDBRANCH   3   4
ENDBRANCH   1   3
BRANCH   1  22
ATOM     22  O   UNL A   1      32.407  29.890  27.133  1.00  0.00    -0.461 OA
BRANCH  22  23
ATOM     23  C   UNL A   1      31.806  30.968  26.371  1.00  0.00     0.274 C 
BRANCH  23  24
ATOM     24  C   UNL A   1      31.478  32.235  27.179  1.00  0.00     0.275 C 
BRANCH  24  25
ATOM     25  O   UNL A   1      32.285  33.373  26.850  1.00  0.00    -0.458 OA
BRANCH  25  26
ATOM     26  C   UNL A   1      32.940  33.821  27.931  1.00  0.00     0.338 C 
ATOM     27  O   UNL A   1      32.657  34.811  28.603  1.00  0.00    -0.246 OA
BRANCH  26  28
ATOM     28  C   UNL A   1      34.209  33.159  28.175  1.00  0.00     0.060 A 
ATOM     29  C   UNL A   1      34.151  32.015  28.977  1.00  0.00     0.016 A 
ATOM     30  C   UNL A   1      35.319  34.005  28.165  1.00  0.00     0.016 A 
ATOM     31  C   UNL A   1      35.115  31.833  29.944  1.00  0.00     0.010 A 
ATOM     32  C   UNL A   1      36.310  33.804  29.108  1.00  0.00     0.010 A 
ATOM     33  C   UNL A   1      36.179  32.744  30.020  1.00  0.00    -0.014 A 
BRANCH  33  34
ATOM     34  C   UNL A   1      37.333  32.337  30.832  1.00  0.00     0.031 A 
ATOM     35  C   UNL A   1      37.983  31.103  30.160  1.00  0.00     0.074 A 
ATOM     36  C   UNL A   1      37.593  33.049  31.976  1.00  0.00     0.049 A 
ATOM     37  N   UNL A   1      38.759  30.201  30.668  1.00  0.00    -0.248 NA
ATOM     38  C   UNL A   1      37.681  30.776  28.728  1.00  0.00     0.031 C 
ATOM     39  C   UNL A   1      36.826  34.228  32.444  1.00  0.00     0.029 A 
ATOM     40  N   UNL A   1      38.535  32.934  32.984  1.00  0.00    -0.354 N 
ATOM     41  C   UNL A   1      39.214  29.384  29.609  1.00  0.00     0.074 A 
ATOM     42  C   UNL A   1      38.407  29.688  28.475  1.00  0.00     0.031 C 
ATOM     43  C   UNL A   1      37.267  34.653  33.654  1.00  0.00     0.029 A 
ATOM     44  C   UNL A   1      38.383  33.832  34.086  1.00  0.00     0.049 A 
ATOM     45  H   UNL A   1      39.265  32.275  32.946  1.00  0.00     0.167 HD
ATOM     46  C   UNL A   1      40.354  28.642  29.703  1.00  0.00     0.037 A 
ATOM     47  C   UNL A   1      39.095  33.883  35.262  1.00  0.00     0.037 A 
ATOM     48  C   UNL A   1      40.890  28.777  31.013  1.00  0.00     0.049 A 
ATOM     49  C   UNL A   1      40.245  33.006  35.025  1.00  0.00     0.074 A 
ATOM     50  C   UNL A   1      40.413  28.339  32.221  1.00  0.00     0.029 A 
ATOM     51  N   UNL A   1      41.776  29.810  31.206  1.00  0.00    -0.354 N 
ATOM     52  N   UNL A   1      41.248  33.315  34.261  1.00  0.00    -0.248 NA
ATOM     53  C   UNL A   1      40.257  31.669  35.630  1.00  0.00     0.031 C 
ATOM     54  C   UNL A   1      40.625  29.454  33.049  1.00  0.00     0.029 A 
ATOM     55  C   UNL A   1      41.493  30.361  32.426  1.00  0.00     0.049 A 
ATOM     56  H   UNL A   1      42.482  30.099  30.584  1.00  0.00     0.167 HD
ATOM     57  C   UNL A   1      41.792  32.083  34.012  1.00  0.00     0.074 A 
ATOM     58  C   UNL A   1      41.400  31.223  35.110  1.00  0.00     0.031 C 
ATOM     59  C   UNL A   1      41.945  31.700  32.717  1.00  0.00     0.037 A 
BRANCH  46  60
ATOM     60  C   UNL A   1      41.239  28.003  28.676  1.00  0.00     0.064 A 
ATOM     61  C   UNL A   1      41.973  28.865  27.823  1.00  0.00     0.173 A 
ATOM     62  C   UNL A   1      41.087  26.681  28.246  1.00  0.00     0.173 A 
ATOM     63  F   UNL A   1      42.213  30.139  28.174  1.00  0.00    -0.203 F 
ATOM     64  C   UNL A   1      42.374  28.472  26.551  1.00  0.00     0.198 A 
ATOM     65  C   UNL A   1      41.542  26.275  26.988  1.00  0.00     0.198 A 
ATOM     66  F   UNL A   1      40.404  25.786  28.972  1.00  0.00    -0.203 F 
ATOM     67  F   UNL A   1      42.911  29.370  25.713  1.00  0.00    -0.200 F 
ATOM     68  C   UNL A   1      42.139  27.180  26.125  1.00  0.00     0.200 A 
ATOM     69  F   UNL A   1      41.319  25.018  26.580  1.00  0.00    -0.200 F 
ATOM     70  F   UNL A   1      42.450  26.817  24.874  1.00  0.00    -0.200 F 
ENDBRANCH  46  60
BRANCH  47  71
ATOM     71  C   UNL A   1      39.068  34.513  36.649  1.00  0.00     0.064 A 
ATOM     72  C   UNL A   1      38.509  33.960  37.804  1.00  0.00     0.173 A 
ATOM     73  C   UNL A   1      39.762  35.745  36.882  1.00  0.00     0.173 A 
ATOM     74  F   UNL A   1      37.726  32.878  37.736  1.00  0.00    -0.203 F 
ATOM     75  C   UNL A   1      38.737  34.519  39.083  1.00  0.00     0.198 A 
ATOM     76  C   UNL A   1      40.048  36.256  38.147  1.00  0.00     0.198 A 
ATOM     77  F   UNL A   1      40.202  36.516  35.879  1.00  0.00    -0.203 F 
ATOM     78  F   UNL A   1      38.180  33.955  40.165  1.00  0.00    -0.200 F 
ATOM     79  C   UNL A   1      39.547  35.631  39.258  1.00  0.00     0.200 A 
ATOM     80  F   UNL A   1      40.827  37.342  38.265  1.00  0.00    -0.200 F 
ATOM     81  F   UNL A   1      39.831  36.103  40.479  1.00  0.00    -0.200 F 
ENDBRANCH  47  71
BRANCH  59  82
ATOM     82  C   UNL A   1      42.149  32.849  31.742  1.00  0.00     0.064 A 
ATOM     83  C   UNL A   1      43.244  33.718  31.913  1.00  0.00     0.173 A 
ATOM     84  C   UNL A   1      41.246  33.207  30.728  1.00  0.00     0.173 A 
ATOM     85  F   UNL A   1      44.186  33.433  32.825  1.00  0.00    -0.203 F 
ATOM     86  C   UNL A   1      43.392  34.885  31.158  1.00  0.00     0.198 A 
ATOM     87  C   UNL A   1      41.389  34.376  29.971  1.00  0.00     0.198 A 
ATOM     88  F   UNL A   1      40.210  32.426  30.433  1.00  0.00    -0.203 F 
ATOM     89  F   UNL A   1      44.448  35.685  31.365  1.00  0.00    -0.200 F 
ATOM     90  C   UNL A   1      42.460  35.220  30.192  1.00  0.00     0.200 A 
ATOM     91  F   UNL A   1      40.488  34.675  29.020  1.00  0.00    -0.200 F 
ATOM     92  F   UNL A   1      42.605  36.335  29.463  1.00  0.00    -0.200 F 
ENDBRANCH  59  82
ENDBRANCH  33  34
ENDBRANCH  26  28
ENDBRANCH  25  26
ENDBRANCH  24  25
ENDBRANCH  23  24
ENDBRANCH  22  23
ENDBRANCH   1  22
TORSDOF 17
ENDMDL
MODEL 3
REMARK VINA RESULT:     -10.8      4.076      6.288
REMARK SMILES O=C(CCNC(=O)c1cccn1CC(=O)OCCOC(=O)c1ccc(-c2c3nc(c(-c4c(F)c(F)c(F)c(F)c4F)c4ccc([nH]4)c(-c4c(F)c(F)c(F)c(F)c4F)c4nc(c(-c5c(F)c(F)c(F)c(F)c5F)c5ccc2[nH]5)C=C4)C=C3)cc1)NC1CC1
REMARK SMILES IDX 14 1 15 2 13 3 12 4 8 5 9 6 10 7 11 8 6 9 5 10 7 12 4 13
REMARK SMILES IDX 3 14 2 15 1 16 85 17 86 19 87 20 88 21 16 22 17 23 18 24
REMARK SMILES IDX 19 25 20 26 21 27 22 28 23 29 84 30 24 31 83 32 25 33 26 34
REMARK SMILES IDX 27 35 77 36 28 37 82 38 76 39 78 40 29 41 81 42 75 43 74 44
REMARK SMILES IDX 30 46 62 47 42 48 61 49 43 50 46 51 60 52 79 53 44 54 45 55
REMARK SMILES IDX 59 57 80 58 47 59 31 60 32 61 40 62 33 63 34 64 38 65 41 66
REMARK SMILES IDX 35 67 36 68 39 69 37 70 63 71 64 72 72 73 65 74 66 75 70 76
REMARK SMILES IDX 73 77 67 78 68 79 71 80 69 81 48 82 49 83 57 84 50 85 51 86
REMARK SMILES IDX 55 87 58 88 52 89 53 90 56 91 54 92
REMARK H PARENT 5 11 85 18 78 45 46 56
REMARK Flexibility Score: inf
ROOT
ATOM      1  C   UNL A   1      37.180  22.574  25.632  1.00  0.00     0.326 C 
ATOM      2  O   UNL A   1      37.777  23.642  25.764  1.00  0.00    -0.250 OA
ENDROOT
BRANCH   1   3
ATOM      3  C   UNL A   1      35.715  22.460  25.982  1.00  0.00     0.244 C 
BRANCH   3   4
ATOM      4  N   UNL A   1      34.759  23.287  25.249  1.00  0.00    -0.332 N 
ATOM      5  C   UNL A   1      33.378  23.210  25.299  1.00  0.00     0.107 A 
ATOM      6  C   UNL A   1      32.891  24.270  24.540  1.00  0.00     0.033 A 
ATOM      7  C   UNL A   1      33.977  25.007  24.039  1.00  0.00     0.020 A 
ATOM      8  C   UNL A   1      35.103  24.426  24.559  1.00  0.00     0.087 A 
BRANCH   5   9
ATOM      9  C   UNL A   1      32.614  22.274  26.087  1.00  0.00     0.267 C 
ATOM     10  N   UNL A   1      32.389  21.022  25.578  1.00  0.00    -0.350 N 
ATOM     11  H   UNL A   1      31.606  20.549  25.939  1.00  0.00     0.163 HD
ATOM     12  O   UNL A   1      32.137  22.540  27.186  1.00  0.00    -0.268 OA
BRANCH  10  13
ATOM     13  C   UNL A   1      33.157  20.298  24.572  1.00  0.00     0.126 C 
BRANCH  13  14
ATOM     14  C   UNL A   1      32.261  19.748  23.469  1.00  0.00     0.121 C 
BRANCH  14  15
ATOM     15  C   UNL A   1      32.622  18.313  23.169  1.00  0.00     0.221 C 
ATOM     16  O   UNL A   1      32.315  17.780  22.108  1.00  0.00    -0.275 OA
ATOM     17  N   UNL A   1      33.275  17.681  24.210  1.00  0.00    -0.353 N 
ATOM     18  H   UNL A   1      33.524  18.220  24.995  1.00  0.00     0.163 HD
BRANCH  17  19
ATOM     19  C   UNL A   1      33.612  16.294  24.215  1.00  0.00     0.082 C 
ATOM     20  C   UNL A   1      34.551  15.764  25.269  1.00  0.00     0.027 C 
ATOM     21  C   UNL A   1      33.116  15.334  25.261  1.00  0.00     0.027 C 
ENDBRANCH  17  19
ENDBRANCH  14  15
ENDBRANCH  13  14
ENDBRANCH  10  13
ENDBRANCH   5   9
ENDBRANCH   3   4
ENDBRANCH   1   3
BRANCH   1  22
ATOM     22  O   UNL A   1      37.787  21.425  25.230  1.00  0.00    -0.461 OA
BRANCH  22  23
ATOM     23  C   UNL A   1      39.114  21.196  25.768  1.00  0.00     0.274 C 
BRANCH  23  24
ATOM     24  C   UNL A   1      39.619  19.747  25.670  1.00  0.00     0.275 C 
BRANCH  24  25
ATOM     25  O   UNL A   1      40.532  19.365  26.707  1.00  0.00    -0.458 OA
BRANCH  25  26
ATOM     26  C   UNL A   1      41.774  19.225  26.221  1.00  0.00     0.338 C 
ATOM     27  O   UNL A   1      42.256  18.212  25.718  1.00  0.00    -0.246 OA
BRANCH  26  28
ATOM     28  C   UNL A   1      42.659  20.338  26.518  1.00  0.00     0.060 A 
ATOM     29  C   UNL A   1      42.508  20.910  27.784  1.00  0.00     0.016 A 
ATOM     30  C   UNL A   1      43.049  21.084  25.406  1.00  0.00     0.016 A 
ATOM     31  C   UNL A   1      42.529  22.283  27.899  1.00  0.00     0.010 A 
ATOM     32  C   UNL A   1      43.111  22.460  25.525  1.00  0.00     0.010 A 
ATOM     33  C   UNL A   1      42.808  23.053  26.761  1.00  0.00    -0.014 A 
BRANCH  33  34
ATOM     34  C   UNL A   1      43.139  24.465  26.990  1.00  0.00     0.031 A 
ATOM     35  C   UNL A   1      41.818  25.237  27.227  1.00  0.00     0.074 A 
ATOM     36  C   UNL A   1      44.460  24.831  26.927  1.00  0.00     0.049 A 
ATOM     37  N   UNL A   1      41.568  26.500  27.107  1.00  0.00    -0.248 NA
ATOM     38  C   UNL A   1      40.564  24.496  27.586  1.00  0.00     0.031 C 
ATOM     39  C   UNL A   1      45.594  23.908  26.684  1.00  0.00     0.029 A 
ATOM     40  N   UNL A   1      45.127  26.040  27.040  1.00  0.00    -0.354 N 
ATOM     41  C   UNL A   1      40.261  26.726  27.594  1.00  0.00     0.074 A 
ATOM     42  C   UNL A   1      39.645  25.449  27.732  1.00  0.00     0.031 C 
ATOM     43  C   UNL A   1      46.765  24.583  26.584  1.00  0.00     0.029 A 
ATOM     44  C   UNL A   1      46.533  26.002  26.787  1.00  0.00     0.049 A 
ATOM     45  H   UNL A   1      44.662  26.873  27.279  1.00  0.00     0.167 HD
ATOM     46  C   UNL A   1      39.848  27.952  28.024  1.00  0.00     0.037 A 
ATOM     47  C   UNL A   1      47.428  27.046  26.725  1.00  0.00     0.037 A 
ATOM     48  C   UNL A   1      40.889  28.896  27.805  1.00  0.00     0.049 A 
ATOM     49  C   UNL A   1      46.685  28.187  27.267  1.00  0.00     0.074 A 
ATOM     50  C   UNL A   1      41.411  29.394  26.640  1.00  0.00     0.029 A 
ATOM     51  N   UNL A   1      41.792  29.056  28.829  1.00  0.00    -0.354 N 
ATOM     52  N   UNL A   1      46.406  28.339  28.526  1.00  0.00    -0.248 NA
ATOM     53  C   UNL A   1      46.166  29.202  26.343  1.00  0.00     0.031 C 
ATOM     54  C   UNL A   1      42.793  29.357  26.892  1.00  0.00     0.029 A 
ATOM     55  C   UNL A   1      43.031  29.169  28.260  1.00  0.00     0.049 A 
ATOM     56  H   UNL A   1      41.586  29.083  29.792  1.00  0.00     0.167 HD
ATOM     57  C   UNL A   1      45.380  29.246  28.470  1.00  0.00     0.074 A 
ATOM     58  C   UNL A   1      45.529  29.971  27.225  1.00  0.00     0.031 C 
ATOM     59  C   UNL A   1      44.202  28.915  29.062  1.00  0.00     0.037 A 
BRANCH  46  60
ATOM     60  C   UNL A   1      38.707  28.395  28.888  1.00  0.00     0.064 A 
ATOM     61  C   UNL A   1      37.983  29.540  28.473  1.00  0.00     0.173 A 
ATOM     62  C   UNL A   1      38.568  28.023  30.230  1.00  0.00     0.173 A 
ATOM     63  F   UNL A   1      38.014  29.946  27.192  1.00  0.00    -0.203 F 
ATOM     64  C   UNL A   1      37.307  30.352  29.378  1.00  0.00     0.198 A 
ATOM     65  C   UNL A   1      37.842  28.812  31.125  1.00  0.00     0.198 A 
ATOM     66  F   UNL A   1      39.216  26.962  30.729  1.00  0.00    -0.203 F 
ATOM     67  F   UNL A   1      36.783  31.516  28.968  1.00  0.00    -0.200 F 
ATOM     68  C   UNL A   1      37.256  29.997  30.710  1.00  0.00     0.200 A 
ATOM     69  F   UNL A   1      37.786  28.463  32.418  1.00  0.00    -0.200 F 
ATOM     70  F   UNL A   1      36.676  30.813  31.601  1.00  0.00    -0.200 F 
ENDBRANCH  46  60
BRANCH  47  71
ATOM     71  C   UNL A   1      48.850  27.377  26.292  1.00  0.00     0.064 A 
ATOM     72  C   UNL A   1      49.334  27.415  24.982  1.00  0.00     0.173 A 
ATOM     73  C   UNL A   1      49.808  27.805  27.269  1.00  0.00     0.173 A 
ATOM     74  F   UNL A   1      48.608  26.931  23.969  1.00  0.00    -0.203 F 
ATOM     75  C   UNL A   1      50.604  27.954  24.673  1.00  0.00     0.198 A 
ATOM     76  C   UNL A   1      51.028  28.403  26.960  1.00  0.00     0.198 A 
ATOM     77  F   UNL A   1      49.595  27.664  28.584  1.00  0.00    -0.203 F 
ATOM     78  F   UNL A   1      51.029  27.970  23.401  1.00  0.00    -0.200 F 
ATOM     79  C   UNL A   1      51.424  28.494  25.652  1.00  0.00     0.200 A 
ATOM     80  F   UNL A   1      51.793  28.900  27.944  1.00  0.00    -0.200 F 
ATOM     81  F   UNL A   1      52.587  29.082  25.343  1.00  0.00    -0.200 F 
ENDBRANCH  47  71
BRANCH  59  82
ATOM     82  C   UNL A   1      44.336  27.967  30.244  1.00  0.00     0.064 A 
ATOM     83  C   UNL A   1      45.070  28.369  31.377  1.00  0.00     0.173 A 
ATOM     84  C   UNL A   1      43.885  26.638  30.257  1.00  0.00     0.173 A 
ATOM     85  F   UNL A   1      45.502  29.636  31.477  1.00  0.00    -0.203 F 
ATOM     86  C   UNL A   1      45.372  27.487  32.419  1.00  0.00     0.198 A 
ATOM     87  C   UNL A   1      44.187  25.750  31.298  1.00  0.00     0.198 A 
ATOM     88  F   UNL A   1      43.126  26.167  29.271  1.00  0.00    -0.203 F 
ATOM     89  F   UNL A   1      46.082  27.917  33.472  1.00  0.00    -0.200 F 
ATOM     90  C   UNL A   1      44.939  26.174  32.376  1.00  0.00     0.200 A 
ATOM     91  F   UNL A   1      43.738  24.485  31.253  1.00  0.00    -0.200 F 
ATOM     92  F   UNL A   1      45.222  25.331  33.378  1.00  0.00    -0.200 F 
ENDBRANCH  59  82
ENDBRANCH  33  34
ENDBRANCH  26  28
ENDBRANCH  25  26
ENDBRANCH  24  25
ENDBRANCH  23  24
ENDBRANCH  22  23
ENDBRANCH   1  22
TORSDOF 17
ENDMDL
