MODEL 1
REMARK VINA RESULT:     -12.0      0.000      0.000
REMARK SMILES COc1c(N)cc(-c2ccccc2)cc1C(=O)OCCOC(=O)c1ccc(-c2c3nc(c(-c4c(F)c(F)c(F)c(F)c4F)c4ccc([nH]4)c(-c4c(F)c(F)c(F)c(F)c4F)c4nc(c(-c5c(F)c(F)c(F)c(F)c5F)c5ccc2[nH]5)C=C4)C=C3)cc1
REMARK SMILES IDX 20 1 19 2 18 3 16 4 17 5 15 6 3 7 4 8 6 9 14 10 7 11 2 12
REMARK SMILES IDX 1 13 5 14 8 17 9 18 13 19 10 20 12 21 11 22 21 23 22 24
REMARK SMILES IDX 23 25 24 26 25 27 86 28 26 29 85 30 27 31 28 32 29 33 79 34
REMARK SMILES IDX 30 35 84 36 78 37 80 38 31 39 83 40 77 41 76 42 32 44 64 45
REMARK SMILES IDX 44 46 63 47 45 48 48 49 62 50 81 51 46 52 47 53 61 55 82 56
REMARK SMILES IDX 49 57 33 58 34 59 42 60 35 61 36 62 40 63 43 64 37 65 38 66
REMARK SMILES IDX 41 67 39 68 65 69 66 70 74 71 67 72 68 73 72 74 75 75 69 76
REMARK SMILES IDX 70 77 73 78 71 79 50 80 51 81 59 82 52 83 53 84 57 85 60 86
REMARK SMILES IDX 54 87 55 88 58 89 56 90
REMARK H PARENT 5 15 5 16 80 43 48 54
REMARK Flexibility Score: inf
ROOT
ATOM      1  C   UNL A   1      31.707  29.594  25.509  1.00  0.00     0.275 C 
ENDROOT
BRANCH   1   2
ATOM      2  C   UNL A   1      31.755  28.282  24.729  1.00  0.00     0.275 C 
BRANCH   2   3
ATOM      3  O   UNL A   1      32.908  27.507  25.111  1.00  0.00    -0.458 OA
BRANCH   3   4
ATOM      4  C   UNL A   1      32.663  26.261  25.583  1.00  0.00     0.342 C 
ATOM      5  O   UNL A   1      31.890  25.966  26.483  1.00  0.00    -0.246 OA
BRANCH   4   6
ATOM      6  C   UNL A   1      33.337  25.235  24.759  1.00  0.00     0.104 A 
ATOM      7  C   UNL A   1      32.813  24.733  23.566  1.00  0.00     0.156 A 
ATOM      8  C   UNL A   1      33.573  23.840  22.784  1.00  0.00     0.076 A 
ATOM      9  C   UNL A   1      34.772  23.328  23.304  1.00  0.00     0.038 A 
ATOM     10  C   UNL A   1      34.591  24.787  25.200  1.00  0.00     0.028 A 
ATOM     11  C   UNL A   1      35.297  23.794  24.516  1.00  0.00    -0.015 A 
BRANCH   7  12
ATOM     12  O   UNL A   1      31.613  25.204  23.086  1.00  0.00    -0.494 OA
ATOM     13  C   UNL A   1      30.538  24.365  23.525  1.00  0.00     0.278 C 
ENDBRANCH   7  12
BRANCH   8  14
ATOM     14  N   UNL A   1      33.096  23.364  21.563  1.00  0.00    -0.396 N 
ATOM     15  H   UNL A   1      32.837  22.419  21.470  1.00  0.00     0.156 HD
ATOM     16  H   UNL A   1      33.018  23.974  20.794  1.00  0.00     0.156 HD
ENDBRANCH   8  14
BRANCH  11  17
ATOM     17  C   UNL A   1      36.556  23.281  25.069  1.00  0.00    -0.018 A 
ATOM     18  C   UNL A   1      37.356  24.078  25.900  1.00  0.00     0.009 A 
ATOM     19  C   UNL A   1      36.967  21.961  24.813  1.00  0.00     0.009 A 
ATOM     20  C   UNL A   1      38.529  23.569  26.464  1.00  0.00     0.001 A 
ATOM     21  C   UNL A   1      38.141  21.453  25.374  1.00  0.00     0.001 A 
ATOM     22  C   UNL A   1      38.920  22.257  26.201  1.00  0.00     0.000 A 
ENDBRANCH  11  17
ENDBRANCH   4   6
ENDBRANCH   3   4
ENDBRANCH   2   3
ENDBRANCH   1   2
BRANCH   1  23
ATOM     23  O   UNL A   1      33.048  30.064  25.731  1.00  0.00    -0.458 OA
BRANCH  23  24
ATOM     24  C   UNL A   1      33.215  30.916  26.767  1.00  0.00     0.338 C 
ATOM     25  O   UNL A   1      32.429  31.746  27.189  1.00  0.00    -0.246 OA
BRANCH  24  26
ATOM     26  C   UNL A   1      34.539  30.690  27.370  1.00  0.00     0.060 A 
ATOM     27  C   UNL A   1      34.959  29.389  27.627  1.00  0.00     0.016 A 
ATOM     28  C   UNL A   1      35.313  31.770  27.789  1.00  0.00     0.016 A 
ATOM     29  C   UNL A   1      36.099  29.157  28.394  1.00  0.00     0.010 A 
ATOM     30  C   UNL A   1      36.517  31.534  28.460  1.00  0.00     0.010 A 
ATOM     31  C   UNL A   1      36.907  30.225  28.808  1.00  0.00    -0.014 A 
BRANCH  31  32
ATOM     32  C   UNL A   1      38.134  29.988  29.623  1.00  0.00     0.031 A 
ATOM     33  C   UNL A   1      39.256  29.141  29.078  1.00  0.00     0.074 A 
ATOM     34  C   UNL A   1      38.256  30.522  30.856  1.00  0.00     0.049 A 
ATOM     35  N   UNL A   1      40.303  28.650  29.693  1.00  0.00    -0.248 NA
ATOM     36  C   UNL A   1      39.180  28.783  27.653  1.00  0.00     0.031 C 
ATOM     37  C   UNL A   1      37.276  31.392  31.506  1.00  0.00     0.029 A 
ATOM     38  N   UNL A   1      39.264  30.409  31.786  1.00  0.00    -0.354 N 
ATOM     39  C   UNL A   1      40.969  27.874  28.754  1.00  0.00     0.074 A 
ATOM     40  C   UNL A   1      40.212  27.962  27.523  1.00  0.00     0.031 C 
ATOM     41  C   UNL A   1      37.745  31.767  32.705  1.00  0.00     0.029 A 
ATOM     42  C   UNL A   1      39.016  31.094  32.951  1.00  0.00     0.049 A 
ATOM     43  H   UNL A   1      40.084  29.888  31.631  1.00  0.00     0.167 HD
ATOM     44  C   UNL A   1      42.105  27.151  28.905  1.00  0.00     0.037 A 
ATOM     45  C   UNL A   1      39.706  31.143  34.106  1.00  0.00     0.037 A 
ATOM     46  C   UNL A   1      42.897  27.119  30.109  1.00  0.00     0.049 A 
ATOM     47  C   UNL A   1      40.963  30.334  34.251  1.00  0.00     0.074 A 
ATOM     48  C   UNL A   1      44.077  26.436  30.348  1.00  0.00     0.029 A 
ATOM     49  N   UNL A   1      42.599  27.817  31.269  1.00  0.00    -0.354 N 
ATOM     50  N   UNL A   1      41.550  29.555  33.376  1.00  0.00    -0.248 NA
ATOM     51  C   UNL A   1      41.642  30.392  35.554  1.00  0.00     0.031 C 
ATOM     52  C   UNL A   1      44.479  26.700  31.662  1.00  0.00     0.029 A 
ATOM     53  C   UNL A   1      43.569  27.577  32.228  1.00  0.00     0.049 A 
ATOM     54  H   UNL A   1      41.814  28.398  31.392  1.00  0.00     0.167 HD
ATOM     55  C   UNL A   1      42.664  29.034  34.017  1.00  0.00     0.074 A 
ATOM     56  C   UNL A   1      42.688  29.606  35.347  1.00  0.00     0.031 C 
ATOM     57  C   UNL A   1      43.580  28.152  33.547  1.00  0.00     0.037 A 
BRANCH  44  58
ATOM     58  C   UNL A   1      42.555  26.307  27.748  1.00  0.00     0.064 A 
ATOM     59  C   UNL A   1      42.037  25.025  27.518  1.00  0.00     0.173 A 
ATOM     60  C   UNL A   1      43.486  26.815  26.829  1.00  0.00     0.173 A 
ATOM     61  F   UNL A   1      41.154  24.490  28.374  1.00  0.00    -0.203 F 
ATOM     62  C   UNL A   1      42.450  24.273  26.421  1.00  0.00     0.198 A 
ATOM     63  C   UNL A   1      43.878  26.071  25.718  1.00  0.00     0.198 A 
ATOM     64  F   UNL A   1      44.008  28.039  26.999  1.00  0.00    -0.203 F 
ATOM     65  F   UNL A   1      41.973  23.034  26.241  1.00  0.00    -0.200 F 
ATOM     66  C   UNL A   1      43.364  24.799  25.519  1.00  0.00     0.200 A 
ATOM     67  F   UNL A   1      44.752  26.586  24.843  1.00  0.00    -0.200 F 
ATOM     68  F   UNL A   1      43.754  24.077  24.460  1.00  0.00    -0.200 F 
ENDBRANCH  44  58
BRANCH  45  69
ATOM     69  C   UNL A   1      39.197  31.965  35.235  1.00  0.00     0.064 A 
ATOM     70  C   UNL A   1      38.449  31.384  36.268  1.00  0.00     0.173 A 
ATOM     71  C   UNL A   1      39.453  33.342  35.309  1.00  0.00     0.173 A 
ATOM     72  F   UNL A   1      38.153  30.078  36.227  1.00  0.00    -0.203 F 
ATOM     73  C   UNL A   1      37.971  32.151  37.328  1.00  0.00     0.198 A 
ATOM     74  C   UNL A   1      39.000  34.102  36.383  1.00  0.00     0.198 A 
ATOM     75  F   UNL A   1      40.160  33.947  34.342  1.00  0.00    -0.203 F 
ATOM     76  F   UNL A   1      37.226  31.580  38.284  1.00  0.00    -0.200 F 
ATOM     77  C   UNL A   1      38.256  33.508  37.390  1.00  0.00     0.200 A 
ATOM     78  F   UNL A   1      39.288  35.410  36.446  1.00  0.00    -0.200 F 
ATOM     79  F   UNL A   1      37.804  34.244  38.416  1.00  0.00    -0.200 F 
ENDBRANCH  45  69
BRANCH  57  80
ATOM     80  C   UNL A   1      44.696  27.770  34.472  1.00  0.00     0.064 A 
ATOM     81  C   UNL A   1      44.602  26.647  35.307  1.00  0.00     0.173 A 
ATOM     82  C   UNL A   1      45.882  28.517  34.504  1.00  0.00     0.173 A 
ATOM     83  F   UNL A   1      43.479  25.912  35.324  1.00  0.00    -0.203 F 
ATOM     84  C   UNL A   1      45.647  26.299  36.157  1.00  0.00     0.198 A 
ATOM     85  C   UNL A   1      46.935  28.153  35.338  1.00  0.00     0.198 A 
ATOM     86  F   UNL A   1      46.022  29.597  33.721  1.00  0.00    -0.203 F 
ATOM     87  F   UNL A   1      45.520  25.245  36.977  1.00  0.00    -0.200 F 
ATOM     88  C   UNL A   1      46.814  27.048  36.167  1.00  0.00     0.200 A 
ATOM     89  F   UNL A   1      48.065  28.872  35.342  1.00  0.00    -0.200 F 
ATOM     90  F   UNL A   1      47.821  26.710  36.985  1.00  0.00    -0.200 F 
ENDBRANCH  57  80
ENDBRANCH  31  32
ENDBRANCH  24  26
ENDBRANCH  23  24
ENDBRANCH   1  23
TORSDOF 14
ENDMDL
MODEL 2
REMARK VINA RESULT:     -11.9      4.042      9.513
REMARK SMILES COc1c(N)cc(-c2ccccc2)cc1C(=O)OCCOC(=O)c1ccc(-c2c3nc(c(-c4c(F)c(F)c(F)c(F)c4F)c4ccc([nH]4)c(-c4c(F)c(F)c(F)c(F)c4F)c4nc(c(-c5c(F)c(F)c(F)c(F)c5F)c5ccc2[nH]5)C=C4)C=C3)cc1
REMARK SMILES IDX 20 1 19 2 18 3 16 4 17 5 15 6 3 7 4 8 6 9 14 10 7 11 2 12
REMARK SMILES IDX 1 13 5 14 8 17 9 18 13 19 10 20 12 21 11 22 21 23 22 24
REMARK SMILES IDX 23 25 24 26 25 27 86 28 26 29 85 30 27 31 28 32 29 33 79 34
REMARK SMILES IDX 30 35 84 36 78 37 80 38 31 39 83 40 77 41 76 42 32 44 64 45
REMARK SMILES IDX 44 46 63 47 45 48 48 49 62 50 81 51 46 52 47 53 61 55 82 56
REMARK SMILES IDX 49 57 33 58 34 59 42 60 35 61 36 62 40 63 43 64 37 65 38 66
REMARK SMILES IDX 41 67 39 68 65 69 66 70 74 71 67 72 68 73 72 74 75 75 69 76
REMARK SMILES IDX 70 77 73 78 71 79 50 80 51 81 59 82 52 83 53 84 57 85 60 86
REMARK SMILES IDX 54 87 55 88 58 89 56 90
REMARK H PARENT 5 15 5 16 80 43 48 54
REMARK Flexibility Score: inf
ROOT
ATOM      1  C   UNL A   1      36.161  21.448  24.592  1.00  0.00     0.275 C 
ENDROOT
BRANCH   1   2
ATOM      2  C   UNL A   1      34.781  22.098  24.631  1.00  0.00     0.275 C 
BRANCH   2   3
ATOM      3  O   UNL A   1      34.883  23.478  25.034  1.00  0.00    -0.458 OA
BRANCH   3   4
ATOM      4  C   UNL A   1      34.245  24.381  24.251  1.00  0.00     0.342 C 
ATOM      5  O   UNL A   1      34.352  24.492  23.038  1.00  0.00    -0.246 OA
BRANCH   4   6
ATOM      6  C   UNL A   1      33.244  25.147  25.024  1.00  0.00     0.104 A 
ATOM      7  C   UNL A   1      31.937  24.709  25.248  1.00  0.00     0.156 A 
ATOM      8  C   UNL A   1      31.082  25.448  26.091  1.00  0.00     0.076 A 
ATOM      9  C   UNL A   1      31.498  26.706  26.551  1.00  0.00     0.038 A 
ATOM     10  C   UNL A   1      33.668  26.359  25.589  1.00  0.00     0.028 A 
ATOM     11  C   UNL A   1      32.794  27.179  26.308  1.00  0.00    -0.015 A 
BRANCH   7  12
ATOM     12  O   UNL A   1      31.521  23.495  24.753  1.00  0.00    -0.494 OA
ATOM     13  C   UNL A   1      30.875  23.669  23.487  1.00  0.00     0.278 C 
ENDBRANCH   7  12
BRANCH   8  14
ATOM     14  N   UNL A   1      29.790  25.006  26.374  1.00  0.00    -0.396 N 
ATOM     15  H   UNL A   1      29.196  25.551  26.938  1.00  0.00     0.156 HD
ATOM     16  H   UNL A   1      29.472  24.149  26.008  1.00  0.00     0.156 HD
ENDBRANCH   8  14
BRANCH  11  17
ATOM     17  C   UNL A   1      33.252  28.487  26.792  1.00  0.00    -0.018 A 
ATOM     18  C   UNL A   1      34.584  28.687  27.179  1.00  0.00     0.009 A 
ATOM     19  C   UNL A   1      32.372  29.583  26.836  1.00  0.00     0.009 A 
ATOM     20  C   UNL A   1      35.027  29.946  27.593  1.00  0.00     0.001 A 
ATOM     21  C   UNL A   1      32.813  30.841  27.252  1.00  0.00     0.001 A 
ATOM     22  C   UNL A   1      34.142  31.022  27.628  1.00  0.00     0.000 A 
ENDBRANCH  11  17
ENDBRANCH   4   6
ENDBRANCH   3   4
ENDBRANCH   2   3
ENDBRANCH   1   2
BRANCH   1  23
ATOM     23  O   UNL A   1      36.857  21.734  25.818  1.00  0.00    -0.458 OA
BRANCH  23  24
ATOM     24  C   UNL A   1      38.188  21.504  25.813  1.00  0.00     0.338 C 
ATOM     25  O   UNL A   1      38.779  20.529  25.385  1.00  0.00    -0.246 OA
BRANCH  24  26
ATOM     26  C   UNL A   1      38.880  22.660  26.410  1.00  0.00     0.060 A 
ATOM     27  C   UNL A   1      38.430  23.946  26.126  1.00  0.00     0.016 A 
ATOM     28  C   UNL A   1      40.044  22.474  27.152  1.00  0.00     0.016 A 
ATOM     29  C   UNL A   1      39.193  25.053  26.491  1.00  0.00     0.010 A 
ATOM     30  C   UNL A   1      40.749  23.590  27.616  1.00  0.00     0.010 A 
ATOM     31  C   UNL A   1      40.356  24.895  27.258  1.00  0.00    -0.014 A 
BRANCH  31  32
ATOM     32  C   UNL A   1      41.176  26.074  27.661  1.00  0.00     0.031 A 
ATOM     33  C   UNL A   1      40.583  27.146  28.540  1.00  0.00     0.074 A 
ATOM     34  C   UNL A   1      42.452  26.201  27.243  1.00  0.00     0.049 A 
ATOM     35  N   UNL A   1      41.050  28.335  28.833  1.00  0.00    -0.248 NA
ATOM     36  C   UNL A   1      39.281  26.849  29.158  1.00  0.00     0.031 C 
ATOM     37  C   UNL A   1      43.178  25.231  26.422  1.00  0.00     0.029 A 
ATOM     38  N   UNL A   1      43.370  27.203  27.456  1.00  0.00    -0.354 N 
ATOM     39  C   UNL A   1      40.074  28.948  29.608  1.00  0.00     0.074 A 
ATOM     40  C   UNL A   1      38.989  28.000  29.745  1.00  0.00     0.031 C 
ATOM     41  C   UNL A   1      44.434  25.663  26.235  1.00  0.00     0.029 A 
ATOM     42  C   UNL A   1      44.580  26.980  26.845  1.00  0.00     0.049 A 
ATOM     43  H   UNL A   1      43.177  28.004  27.996  1.00  0.00     0.167 HD
ATOM     44  C   UNL A   1      40.081  30.190  30.150  1.00  0.00     0.037 A 
ATOM     45  C   UNL A   1      45.671  27.763  26.744  1.00  0.00     0.037 A 
ATOM     46  C   UNL A   1      41.189  31.107  30.072  1.00  0.00     0.049 A 
ATOM     47  C   UNL A   1      45.656  29.135  27.354  1.00  0.00     0.074 A 
ATOM     48  C   UNL A   1      41.299  32.377  30.613  1.00  0.00     0.029 A 
ATOM     49  N   UNL A   1      42.389  30.844  29.430  1.00  0.00    -0.354 N 
ATOM     50  N   UNL A   1      44.704  29.728  28.031  1.00  0.00    -0.248 NA
ATOM     51  C   UNL A   1      46.860  29.957  27.165  1.00  0.00     0.031 C 
ATOM     52  C   UNL A   1      42.555  32.893  30.275  1.00  0.00     0.029 A 
ATOM     53  C   UNL A   1      43.242  31.929  29.556  1.00  0.00     0.049 A 
ATOM     54  H   UNL A   1      42.604  30.009  28.955  1.00  0.00     0.167 HD
ATOM     55  C   UNL A   1      45.192  30.986  28.352  1.00  0.00     0.074 A 
ATOM     56  C   UNL A   1      46.536  31.064  27.818  1.00  0.00     0.031 C 
ATOM     57  C   UNL A   1      44.576  31.992  29.020  1.00  0.00     0.037 A 
BRANCH  44  58
ATOM     58  C   UNL A   1      38.840  30.649  30.859  1.00  0.00     0.064 A 
ATOM     59  C   UNL A   1      38.692  30.532  32.248  1.00  0.00     0.173 A 
ATOM     60  C   UNL A   1      37.804  31.261  30.136  1.00  0.00     0.173 A 
ATOM     61  F   UNL A   1      39.648  29.943  32.982  1.00  0.00    -0.203 F 
ATOM     62  C   UNL A   1      37.542  30.991  32.886  1.00  0.00     0.198 A 
ATOM     63  C   UNL A   1      36.667  31.743  30.780  1.00  0.00     0.198 A 
ATOM     64  F   UNL A   1      37.899  31.404  28.806  1.00  0.00    -0.203 F 
ATOM     65  F   UNL A   1      37.403  30.834  34.209  1.00  0.00    -0.200 F 
ATOM     66  C   UNL A   1      36.535  31.602  32.153  1.00  0.00     0.200 A 
ATOM     67  F   UNL A   1      35.701  32.343  30.072  1.00  0.00    -0.200 F 
ATOM     68  F   UNL A   1      35.433  32.051  32.770  1.00  0.00    -0.200 F 
ENDBRANCH  44  58
BRANCH  45  69
ATOM     69  C   UNL A   1      46.861  27.275  25.998  1.00  0.00     0.064 A 
ATOM     70  C   UNL A   1      47.010  27.537  24.630  1.00  0.00     0.173 A 
ATOM     71  C   UNL A   1      47.875  26.547  26.638  1.00  0.00     0.173 A 
ATOM     72  F   UNL A   1      46.054  28.203  23.968  1.00  0.00    -0.203 F 
ATOM     73  C   UNL A   1      48.125  27.082  23.929  1.00  0.00     0.198 A 
ATOM     74  C   UNL A   1      49.002  26.118  25.943  1.00  0.00     0.198 A 
ATOM     75  F   UNL A   1      47.777  26.266  27.947  1.00  0.00    -0.203 F 
ATOM     76  F   UNL A   1      48.225  27.312  22.612  1.00  0.00    -0.200 F 
ATOM     77  C   UNL A   1      49.125  26.382  24.588  1.00  0.00     0.200 A 
ATOM     78  F   UNL A   1      49.972  25.453  26.586  1.00  0.00    -0.200 F 
ATOM     79  F   UNL A   1      50.202  25.953  23.915  1.00  0.00    -0.200 F 
ENDBRANCH  45  69
BRANCH  57  80
ATOM     80  C   UNL A   1      45.359  33.252  29.229  1.00  0.00     0.064 A 
ATOM     81  C   UNL A   1      45.297  34.312  28.313  1.00  0.00     0.173 A 
ATOM     82  C   UNL A   1      46.158  33.414  30.371  1.00  0.00     0.173 A 
ATOM     83  F   UNL A   1      44.560  34.197  27.197  1.00  0.00    -0.203 F 
ATOM     84  C   UNL A   1      46.024  35.480  28.522  1.00  0.00     0.198 A 
ATOM     85  C   UNL A   1      46.865  34.592  30.588  1.00  0.00     0.198 A 
ATOM     86  F   UNL A   1      46.246  32.429  31.278  1.00  0.00    -0.203 F 
ATOM     87  F   UNL A   1      45.983  36.465  27.612  1.00  0.00    -0.200 F 
ATOM     88  C   UNL A   1      46.803  35.621  29.661  1.00  0.00     0.200 A 
ATOM     89  F   UNL A   1      47.611  34.730  31.692  1.00  0.00    -0.200 F 
ATOM     90  F   UNL A   1      47.501  36.748  29.861  1.00  0.00    -0.200 F 
ENDBRANCH  57  80
ENDBRANCH  31  32
ENDBRANCH  24  26
ENDBRANCH  23  24
ENDBRANCH   1  23
TORSDOF 14
ENDMDL
MODEL 3
REMARK VINA RESULT:     -11.8      0.462      2.034
REMARK SMILES COc1c(N)cc(-c2ccccc2)cc1C(=O)OCCOC(=O)c1ccc(-c2c3nc(c(-c4c(F)c(F)c(F)c(F)c4F)c4ccc([nH]4)c(-c4c(F)c(F)c(F)c(F)c4F)c4nc(c(-c5c(F)c(F)c(F)c(F)c5F)c5ccc2[nH]5)C=C4)C=C3)cc1
REMARK SMILES IDX 20 1 19 2 18 3 16 4 17 5 15 6 3 7 4 8 6 9 14 10 7 11 2 12
REMARK SMILES IDX 1 13 5 14 8 17 9 18 13 19 10 20 12 21 11 22 21 23 22 24
REMARK SMILES IDX 23 25 24 26 25 27 86 28 26 29 85 30 27 31 28 32 29 33 79 34
REMARK SMILES IDX 30 35 84 36 78 37 80 38 31 39 83 40 77 41 76 42 32 44 64 45
REMARK SMILES IDX 44 46 63 47 45 48 48 49 62 50 81 51 46 52 47 53 61 55 82 56
REMARK SMILES IDX 49 57 33 58 34 59 42 60 35 61 36 62 40 63 43 64 37 65 38 66
REMARK SMILES IDX 41 67 39 68 65 69 66 70 74 71 67 72 68 73 72 74 75 75 69 76
REMARK SMILES IDX 70 77 73 78 71 79 50 80 51 81 59 82 52 83 53 84 57 85 60 86
REMARK SMILES IDX 54 87 55 88 58 89 56 90
REMARK H PARENT 5 15 5 16 80 43 48 54
REMARK Flexibility Score: inf
ROOT
ATOM      1  C   UNL A   1      31.783  30.075  25.532  1.00  0.00     0.275 C 
ENDROOT
BRANCH   1   2
ATOM      2  C   UNL A   1      32.384  28.993  24.638  1.00  0.00     0.275 C 
BRANCH   2   3
ATOM      3  O   UNL A   1      33.242  28.123  25.403  1.00  0.00    -0.458 OA
BRANCH   3   4
ATOM      4  C   UNL A   1      32.725  26.915  25.737  1.00  0.00     0.342 C 
ATOM      5  O   UNL A   1      31.875  26.701  26.589  1.00  0.00    -0.246 OA
BRANCH   4   6
ATOM      6  C   UNL A   1      33.202  25.858  24.820  1.00  0.00     0.104 A 
ATOM      7  C   UNL A   1      32.549  25.507  23.637  1.00  0.00     0.156 A 
ATOM      8  C   UNL A   1      33.132  24.566  22.764  1.00  0.00     0.076 A 
ATOM      9  C   UNL A   1      34.273  23.864  23.181  1.00  0.00     0.038 A 
ATOM     10  C   UNL A   1      34.402  25.216  25.158  1.00  0.00     0.028 A 
ATOM     11  C   UNL A   1      34.923  24.177  24.381  1.00  0.00    -0.015 A 
BRANCH   7  12
ATOM     12  O   UNL A   1      31.404  26.167  23.258  1.00  0.00    -0.494 OA
ATOM     13  C   UNL A   1      30.246  25.466  23.727  1.00  0.00     0.278 C 
ENDBRANCH   7  12
BRANCH   8  14
ATOM     14  N   UNL A   1      32.528  24.236  21.551  1.00  0.00    -0.396 N 
ATOM     15  H   UNL A   1      33.075  23.915  20.799  1.00  0.00     0.156 HD
ATOM     16  H   UNL A   1      31.552  24.323  21.448  1.00  0.00     0.156 HD
ENDBRANCH   8  14
BRANCH  11  17
ATOM     17  C   UNL A   1      36.125  23.463  24.827  1.00  0.00    -0.018 A 
ATOM     18  C   UNL A   1      37.023  24.055  25.727  1.00  0.00     0.009 A 
ATOM     19  C   UNL A   1      36.380  22.150  24.396  1.00  0.00     0.009 A 
ATOM     20  C   UNL A   1      38.140  23.352  26.187  1.00  0.00     0.001 A 
ATOM     21  C   UNL A   1      37.498  21.448  24.854  1.00  0.00     0.001 A 
ATOM     22  C   UNL A   1      38.376  22.049  25.751  1.00  0.00     0.000 A 
ENDBRANCH  11  17
ENDBRANCH   4   6
ENDBRANCH   3   4
ENDBRANCH   2   3
ENDBRANCH   1   2
BRANCH   1  23
ATOM     23  O   UNL A   1      32.476  30.091  26.792  1.00  0.00    -0.458 OA
BRANCH  23  24
ATOM     24  C   UNL A   1      33.085  31.251  27.120  1.00  0.00     0.338 C 
ATOM     25  O   UNL A   1      32.650  32.384  27.011  1.00  0.00    -0.246 OA
BRANCH  24  26
ATOM     26  C   UNL A   1      34.416  30.958  27.679  1.00  0.00     0.060 A 
ATOM     27  C   UNL A   1      34.750  29.643  27.992  1.00  0.00     0.016 A 
ATOM     28  C   UNL A   1      35.286  31.996  28.000  1.00  0.00     0.016 A 
ATOM     29  C   UNL A   1      35.904  29.367  28.722  1.00  0.00     0.010 A 
ATOM     30  C   UNL A   1      36.501  31.704  28.632  1.00  0.00     0.010 A 
ATOM     31  C   UNL A   1      36.808  30.391  29.038  1.00  0.00    -0.014 A 
BRANCH  31  32
ATOM     32  C   UNL A   1      38.051  30.104  29.812  1.00  0.00     0.031 A 
ATOM     33  C   UNL A   1      39.128  29.229  29.223  1.00  0.00     0.074 A 
ATOM     34  C   UNL A   1      38.228  30.619  31.047  1.00  0.00     0.049 A 
ATOM     35  N   UNL A   1      40.177  28.698  29.800  1.00  0.00    -0.248 NA
ATOM     36  C   UNL A   1      38.997  28.891  27.797  1.00  0.00     0.031 C 
ATOM     37  C   UNL A   1      37.297  31.512  31.736  1.00  0.00     0.029 A 
ATOM     38  N   UNL A   1      39.259  30.463  31.944  1.00  0.00    -0.354 N 
ATOM     39  C   UNL A   1      40.789  27.913  28.832  1.00  0.00     0.074 A 
ATOM     40  C   UNL A   1      39.998  28.039  27.626  1.00  0.00     0.031 C 
ATOM     41  C   UNL A   1      37.813  31.857  32.925  1.00  0.00     0.029 A 
ATOM     42  C   UNL A   1      39.069  31.141  33.123  1.00  0.00     0.049 A 
ATOM     43  H   UNL A   1      40.057  29.918  31.758  1.00  0.00     0.167 HD
ATOM     44  C   UNL A   1      41.905  27.152  28.940  1.00  0.00     0.037 A 
ATOM     45  C   UNL A   1      39.795  31.154  34.257  1.00  0.00     0.037 A 
ATOM     46  C   UNL A   1      42.731  27.079  30.118  1.00  0.00     0.049 A 
ATOM     47  C   UNL A   1      41.029  30.303  34.354  1.00  0.00     0.074 A 
ATOM     48  C   UNL A   1      43.896  26.357  30.313  1.00  0.00     0.029 A 
ATOM     49  N   UNL A   1      42.491  27.773  31.295  1.00  0.00    -0.354 N 
ATOM     50  N   UNL A   1      41.564  29.517  33.452  1.00  0.00    -0.248 NA
ATOM     51  C   UNL A   1      41.749  30.324  35.636  1.00  0.00     0.031 C 
ATOM     52  C   UNL A   1      44.346  26.591  31.617  1.00  0.00     0.029 A 
ATOM     53  C   UNL A   1      43.482  27.490  32.221  1.00  0.00     0.049 A 
ATOM     54  H   UNL A   1      41.730  28.377  31.449  1.00  0.00     0.167 HD
ATOM     55  C   UNL A   1      42.680  28.953  34.053  1.00  0.00     0.074 A 
ATOM     56  C   UNL A   1      42.763  29.507  35.388  1.00  0.00     0.031 C 
ATOM     57  C   UNL A   1      43.552  28.048  33.545  1.00  0.00     0.037 A 
BRANCH  44  58
ATOM     58  C   UNL A   1      42.292  26.308  27.760  1.00  0.00     0.064 A 
ATOM     59  C   UNL A   1      43.290  26.705  26.860  1.00  0.00     0.173 A 
ATOM     60  C   UNL A   1      41.684  25.059  27.559  1.00  0.00     0.173 A 
ATOM     61  F   UNL A   1      43.893  27.895  27.001  1.00  0.00    -0.203 F 
ATOM     62  C   UNL A   1      43.651  25.892  25.788  1.00  0.00     0.198 A 
ATOM     63  C   UNL A   1      42.065  24.236  26.502  1.00  0.00     0.198 A 
ATOM     64  F   UNL A   1      40.727  24.629  28.396  1.00  0.00    -0.203 F 
ATOM     65  F   UNL A   1      44.581  26.306  24.917  1.00  0.00    -0.200 F 
ATOM     66  C   UNL A   1      43.044  24.656  25.615  1.00  0.00     0.200 A 
ATOM     67  F   UNL A   1      41.486  23.039  26.344  1.00  0.00    -0.200 F 
ATOM     68  F   UNL A   1      43.400  23.871  24.588  1.00  0.00    -0.200 F 
ENDBRANCH  44  58
BRANCH  45  69
ATOM     69  C   UNL A   1      39.347  31.978  35.411  1.00  0.00     0.064 A 
ATOM     70  C   UNL A   1      39.740  33.317  35.535  1.00  0.00     0.173 A 
ATOM     71  C   UNL A   1      38.512  31.447  36.405  1.00  0.00     0.173 A 
ATOM     72  F   UNL A   1      40.562  33.860  34.626  1.00  0.00    -0.203 F 
ATOM     73  C   UNL A   1      39.321  34.091  36.614  1.00  0.00     0.198 A 
ATOM     74  C   UNL A   1      38.069  32.230  37.467  1.00  0.00     0.198 A 
ATOM     75  F   UNL A   1      38.112  30.168  36.334  1.00  0.00    -0.203 F 
ATOM     76  F   UNL A   1      39.742  35.358  36.731  1.00  0.00    -0.200 F 
ATOM     77  C   UNL A   1      38.477  33.550  37.575  1.00  0.00     0.200 A 
ATOM     78  F   UNL A   1      37.245  31.707  38.385  1.00  0.00    -0.200 F 
ATOM     79  F   UNL A   1      38.066  34.299  38.607  1.00  0.00    -0.200 F 
ENDBRANCH  45  69
BRANCH  57  80
ATOM     80  C   UNL A   1      44.683  27.619  34.431  1.00  0.00     0.064 A 
ATOM     81  C   UNL A   1      45.891  28.331  34.470  1.00  0.00     0.173 A 
ATOM     82  C   UNL A   1      44.547  26.503  35.269  1.00  0.00     0.173 A 
ATOM     83  F   UNL A   1      46.073  29.395  33.673  1.00  0.00    -0.203 F 
ATOM     84  C   UNL A   1      46.931  27.926  35.302  1.00  0.00     0.198 A 
ATOM     85  C   UNL A   1      45.581  26.115  36.116  1.00  0.00     0.198 A 
ATOM     86  F   UNL A   1      43.409  25.793  35.269  1.00  0.00    -0.203 F 
ATOM     87  F   UNL A   1      48.093  28.596  35.293  1.00  0.00    -0.200 F 
ATOM     88  C   UNL A   1      46.773  26.823  36.127  1.00  0.00     0.200 A 
ATOM     89  F   UNL A   1      45.425  25.054  36.919  1.00  0.00    -0.200 F 
ATOM     90  F   UNL A   1      47.776  26.435  36.928  1.00  0.00    -0.200 F 
ENDBRANCH  57  80
ENDBRANCH  31  32
ENDBRANCH  24  26
ENDBRANCH  23  24
ENDBRANCH   1  23
TORSDOF 14
ENDMDL
