MODEL 1
REMARK VINA RESULT:     -11.1      0.000      0.000
REMARK SMILES CCCC[C@@H](Sc1nc(OCCC2CCCCC2)cc(OCCC2CCCCC2)n1)C(=O)OCCOC(=O)c1ccc(-c2c3nc(c(-c4c(F)c(F)c(F)c(F)c4F)c4ccc([nH]4)c(-c4c(F)c(F)c(F)c(F)c4F)c4nc(c(-c5c(F)c(F)c(F)c(F)c5F)c5ccc2[nH]5)C=C4)C=C3)cc1
REMARK SMILES IDX 31 1 32 2 5 3 4 4 3 5 2 6 1 7 6 8 7 9 8 10 30 11 9 12 20 13
REMARK SMILES IDX 19 14 10 15 11 16 12 17 13 18 14 19 18 20 15 21 17 22 16 23
REMARK SMILES IDX 21 24 22 25 23 26 24 27 25 28 29 29 26 30 28 31 27 32 33 33
REMARK SMILES IDX 34 34 35 35 36 36 37 37 38 38 39 39 40 40 101 41 41 42
REMARK SMILES IDX 100 43 42 44 43 45 44 46 94 47 45 48 99 49 93 50 95 51 46 52
REMARK SMILES IDX 98 53 92 54 91 55 47 57 79 58 59 59 78 60 60 61 63 62 77 63
REMARK SMILES IDX 96 64 61 65 62 66 76 68 97 69 64 70 48 71 49 72 57 73 50 74
REMARK SMILES IDX 51 75 55 76 58 77 52 78 53 79 56 80 54 81 80 82 81 83 89 84
REMARK SMILES IDX 82 85 83 86 87 87 90 88 84 89 85 90 88 91 86 92 65 93 66 94
REMARK SMILES IDX 74 95 67 96 68 97 72 98 75 99 69 100 70 101 73 102 71 103
REMARK H PARENT 95 56 63 67
REMARK Flexibility Score: inf
ROOT
ATOM      1  C   UNL A   1      30.934  27.257  24.923  1.00  0.00     0.319 C 
ATOM      2  O   UNL A   1      30.759  26.729  26.017  1.00  0.00    -0.251 OA
ENDROOT
BRANCH   1   3
ATOM      3  C   UNL A   1      30.190  26.825  23.658  1.00  0.00     0.164 C 
BRANCH   3   4
ATOM      4  C   UNL A   1      28.920  27.692  23.462  1.00  0.00     0.027 C 
BRANCH   4   5
ATOM      5  C   UNL A   1      28.941  28.840  22.441  1.00  0.00     0.001 C 
BRANCH   5   6
ATOM      6  C   UNL A   1      29.013  30.262  23.013  1.00  0.00    -0.003 C 
ATOM      7  C   UNL A   1      27.654  30.834  23.378  1.00  0.00     0.004 C 
ENDBRANCH   5   6
ENDBRANCH   4   5
ENDBRANCH   3   4
BRANCH   3   8
ATOM      8  S   UNL A   1      31.445  26.868  22.303  1.00  0.00    -0.071 SA
BRANCH   8   9
ATOM      9  C   UNL A   1      32.342  25.388  22.674  1.00  0.00     0.195 A 
ATOM     10  N   UNL A   1      33.512  25.571  23.288  1.00  0.00    -0.187 NA
ATOM     11  N   UNL A   1      31.788  24.193  22.416  1.00  0.00    -0.187 NA
ATOM     12  C   UNL A   1      34.151  24.502  23.742  1.00  0.00     0.221 A 
ATOM     13  C   UNL A   1      32.459  23.125  22.873  1.00  0.00     0.221 A 
ATOM     14  C   UNL A   1      33.629  23.255  23.577  1.00  0.00     0.136 A 
BRANCH  12  15
ATOM     15  O   UNL A   1      35.294  24.808  24.423  1.00  0.00    -0.477 OA
BRANCH  15  16
ATOM     16  C   UNL A   1      35.461  24.375  25.771  1.00  0.00     0.231 C 
BRANCH  16  17
ATOM     17  C   UNL A   1      36.794  23.635  26.013  1.00  0.00     0.045 C 
BRANCH  17  18
ATOM     18  C   UNL A   1      36.843  22.236  25.388  1.00  0.00    -0.008 C 
ATOM     19  C   UNL A   1      38.153  21.475  25.609  1.00  0.00     0.004 C 
ATOM     20  C   UNL A   1      35.659  21.356  25.803  1.00  0.00     0.004 C 
ATOM     21  C   UNL A   1      38.152  20.226  24.718  1.00  0.00     0.000 C 
ATOM     22  C   UNL A   1      35.607  20.116  24.915  1.00  0.00     0.000 C 
ATOM     23  C   UNL A   1      36.924  19.341  24.949  1.00  0.00     0.000 C 
ENDBRANCH  17  18
ENDBRANCH  16  17
ENDBRANCH  15  16
ENDBRANCH  12  15
BRANCH  13  24
ATOM     24  O   UNL A   1      31.941  21.901  22.511  1.00  0.00    -0.477 OA
BRANCH  24  25
ATOM     25  C   UNL A   1      32.209  20.763  23.341  1.00  0.00     0.231 C 
BRANCH  25  26
ATOM     26  C   UNL A   1      32.201  19.387  22.620  1.00  0.00     0.045 C 
BRANCH  26  27
ATOM     27  C   UNL A   1      32.552  18.165  23.488  1.00  0.00    -0.008 C 
ATOM     28  C   UNL A   1      33.870  17.465  23.129  1.00  0.00     0.004 C 
ATOM     29  C   UNL A   1      32.565  18.493  24.988  1.00  0.00     0.004 C 
ATOM     30  C   UNL A   1      33.981  16.153  23.925  1.00  0.00     0.000 C 
ATOM     31  C   UNL A   1      32.638  17.213  25.814  1.00  0.00     0.000 C 
ATOM     32  C   UNL A   1      33.848  16.365  25.435  1.00  0.00     0.000 C 
ENDBRANCH  26  27
ENDBRANCH  25  26
ENDBRANCH  24  25
ENDBRANCH  13  24
ENDBRANCH   8   9
ENDBRANCH   3   8
ENDBRANCH   1   3
BRANCH   1  33
ATOM     33  O   UNL A   1      31.793  28.287  24.686  1.00  0.00    -0.461 OA
BRANCH  33  34
ATOM     34  C   UNL A   1      31.415  29.573  25.211  1.00  0.00     0.274 C 
BRANCH  34  35
ATOM     35  C   UNL A   1      32.091  29.820  26.559  1.00  0.00     0.275 C 
BRANCH  35  36
ATOM     36  O   UNL A   1      33.376  30.440  26.366  1.00  0.00    -0.458 OA
BRANCH  36  37
ATOM     37  C   UNL A   1      33.680  31.459  27.196  1.00  0.00     0.338 C 
ATOM     38  O   UNL A   1      33.050  32.492  27.385  1.00  0.00    -0.246 OA
BRANCH  37  39
ATOM     39  C   UNL A   1      34.926  31.140  27.899  1.00  0.00     0.060 A 
ATOM     40  C   UNL A   1      35.077  29.895  28.513  1.00  0.00     0.016 A 
ATOM     41  C   UNL A   1      35.925  32.107  27.994  1.00  0.00     0.016 A 
ATOM     42  C   UNL A   1      36.237  29.607  29.230  1.00  0.00     0.010 A 
ATOM     43  C   UNL A   1      37.101  31.806  28.682  1.00  0.00     0.010 A 
ATOM     44  C   UNL A   1      37.266  30.555  29.302  1.00  0.00    -0.014 A 
BRANCH  44  45
ATOM     45  C   UNL A   1      38.541  30.240  29.987  1.00  0.00     0.031 A 
ATOM     46  C   UNL A   1      39.502  29.262  29.381  1.00  0.00     0.074 A 
ATOM     47  C   UNL A   1      38.796  30.790  31.188  1.00  0.00     0.049 A 
ATOM     48  N   UNL A   1      40.568  28.715  29.908  1.00  0.00    -0.248 NA
ATOM     49  C   UNL A   1      39.225  28.838  28.001  1.00  0.00     0.031 C 
ATOM     50  C   UNL A   1      37.950  31.777  31.859  1.00  0.00     0.029 A 
ATOM     51  N   UNL A   1      39.826  30.577  32.069  1.00  0.00    -0.354 N 
ATOM     52  C   UNL A   1      41.076  27.865  28.936  1.00  0.00     0.074 A 
ATOM     53  C   UNL A   1      40.196  27.959  27.790  1.00  0.00     0.031 C 
ATOM     54  C   UNL A   1      38.484  32.071  33.055  1.00  0.00     0.029 A 
ATOM     55  C   UNL A   1      39.674  31.250  33.257  1.00  0.00     0.049 A 
ATOM     56  H   UNL A   1      40.597  29.998  31.870  1.00  0.00     0.167 HD
ATOM     57  C   UNL A   1      42.176  27.079  29.003  1.00  0.00     0.037 A 
ATOM     58  C   UNL A   1      40.384  31.175  34.397  1.00  0.00     0.037 A 
ATOM     59  C   UNL A   1      43.051  27.003  30.145  1.00  0.00     0.049 A 
ATOM     60  C   UNL A   1      41.555  30.236  34.471  1.00  0.00     0.074 A 
ATOM     61  C   UNL A   1      44.217  26.273  30.292  1.00  0.00     0.029 A 
ATOM     62  N   UNL A   1      42.848  27.677  31.340  1.00  0.00    -0.354 N 
ATOM     63  N   UNL A   1      42.039  29.444  33.546  1.00  0.00    -0.248 NA
ATOM     64  C   UNL A   1      42.269  30.168  35.754  1.00  0.00     0.031 C 
ATOM     65  C   UNL A   1      44.694  26.468  31.594  1.00  0.00     0.029 A 
ATOM     66  C   UNL A   1      43.848  27.353  32.243  1.00  0.00     0.049 A 
ATOM     67  H   UNL A   1      42.103  28.295  31.521  1.00  0.00     0.167 HD
ATOM     68  C   UNL A   1      43.116  28.791  34.127  1.00  0.00     0.074 A 
ATOM     69  C   UNL A   1      43.230  29.295  35.480  1.00  0.00     0.031 C 
ATOM     70  C   UNL A   1      43.938  27.856  33.589  1.00  0.00     0.037 A 
BRANCH  57  71
ATOM     71  C   UNL A   1      42.486  26.213  27.819  1.00  0.00     0.064 A 
ATOM     72  C   UNL A   1      43.407  26.607  26.836  1.00  0.00     0.173 A 
ATOM     73  C   UNL A   1      41.891  24.948  27.692  1.00  0.00     0.173 A 
ATOM     74  F   UNL A   1      43.996  27.810  26.906  1.00  0.00    -0.203 F 
ATOM     75  C   UNL A   1      43.705  25.774  25.760  1.00  0.00     0.198 A 
ATOM     76  C   UNL A   1      42.209  24.109  26.629  1.00  0.00     0.198 A 
ATOM     77  F   UNL A   1      41.008  24.522  28.608  1.00  0.00    -0.203 F 
ATOM     78  F   UNL A   1      44.561  26.184  24.815  1.00  0.00    -0.200 F 
ATOM     79  C   UNL A   1      43.112  24.523  25.661  1.00  0.00     0.200 A 
ATOM     80  F   UNL A   1      41.644  22.897  26.540  1.00  0.00    -0.200 F 
ATOM     81  F   UNL A   1      43.407  23.720  24.630  1.00  0.00    -0.200 F 
ENDBRANCH  57  71
BRANCH  58  82
ATOM     82  C   UNL A   1      39.976  31.984  35.573  1.00  0.00     0.064 A 
ATOM     83  C   UNL A   1      40.598  33.206  35.859  1.00  0.00     0.173 A 
ATOM     84  C   UNL A   1      38.953  31.554  36.433  1.00  0.00     0.173 A 
ATOM     85  F   UNL A   1      41.599  33.644  35.083  1.00  0.00    -0.203 F 
ATOM     86  C   UNL A   1      40.220  33.963  36.965  1.00  0.00     0.198 A 
ATOM     87  C   UNL A   1      38.556  32.325  37.522  1.00  0.00     0.198 A 
ATOM     88  F   UNL A   1      38.329  30.389  36.204  1.00  0.00    -0.203 F 
ATOM     89  F   UNL A   1      40.857  35.109  37.240  1.00  0.00    -0.200 F 
ATOM     90  C   UNL A   1      39.194  33.526  37.791  1.00  0.00     0.200 A 
ATOM     91  F   UNL A   1      37.558  31.904  38.311  1.00  0.00    -0.200 F 
ATOM     92  F   UNL A   1      38.826  34.259  38.852  1.00  0.00    -0.200 F 
ENDBRANCH  58  82
BRANCH  70  93
ATOM     93  C   UNL A   1      45.032  27.323  34.465  1.00  0.00     0.064 A 
ATOM     94  C   UNL A   1      44.854  26.161  35.230  1.00  0.00     0.173 A 
ATOM     95  C   UNL A   1      46.283  27.958  34.510  1.00  0.00     0.173 A 
ATOM     96  F   UNL A   1      43.670  25.530  35.233  1.00  0.00    -0.203 F 
ATOM     97  C   UNL A   1      45.886  25.663  36.021  1.00  0.00     0.198 A 
ATOM     98  C   UNL A   1      47.319  27.441  35.283  1.00  0.00     0.198 A 
ATOM     99  F   UNL A   1      46.503  29.070  33.794  1.00  0.00    -0.203 F 
ATOM    100  F   UNL A   1      45.683  24.573  36.775  1.00  0.00    -0.200 F 
ATOM    101  C   UNL A   1      47.118  26.298  36.041  1.00  0.00     0.200 A 
ATOM    102  F   UNL A   1      48.512  28.051  35.293  1.00  0.00    -0.200 F 
ATOM    103  F   UNL A   1      48.111  25.812  36.798  1.00  0.00    -0.200 F 
ENDBRANCH  70  93
ENDBRANCH  44  45
ENDBRANCH  37  39
ENDBRANCH  36  37
ENDBRANCH  35  36
ENDBRANCH  34  35
ENDBRANCH  33  34
ENDBRANCH   1  33
TORSDOF 24
ENDMDL
MODEL 2
REMARK VINA RESULT:     -10.9      0.585      2.735
REMARK SMILES CCCC[C@@H](Sc1nc(OCCC2CCCCC2)cc(OCCC2CCCCC2)n1)C(=O)OCCOC(=O)c1ccc(-c2c3nc(c(-c4c(F)c(F)c(F)c(F)c4F)c4ccc([nH]4)c(-c4c(F)c(F)c(F)c(F)c4F)c4nc(c(-c5c(F)c(F)c(F)c(F)c5F)c5ccc2[nH]5)C=C4)C=C3)cc1
REMARK SMILES IDX 31 1 32 2 5 3 4 4 3 5 2 6 1 7 6 8 7 9 8 10 30 11 9 12 20 13
REMARK SMILES IDX 19 14 10 15 11 16 12 17 13 18 14 19 18 20 15 21 17 22 16 23
REMARK SMILES IDX 21 24 22 25 23 26 24 27 25 28 29 29 26 30 28 31 27 32 33 33
REMARK SMILES IDX 34 34 35 35 36 36 37 37 38 38 39 39 40 40 101 41 41 42
REMARK SMILES IDX 100 43 42 44 43 45 44 46 94 47 45 48 99 49 93 50 95 51 46 52
REMARK SMILES IDX 98 53 92 54 91 55 47 57 79 58 59 59 78 60 60 61 63 62 77 63
REMARK SMILES IDX 96 64 61 65 62 66 76 68 97 69 64 70 48 71 49 72 57 73 50 74
REMARK SMILES IDX 51 75 55 76 58 77 52 78 53 79 56 80 54 81 80 82 81 83 89 84
REMARK SMILES IDX 82 85 83 86 87 87 90 88 84 89 85 90 88 91 86 92 65 93 66 94
REMARK SMILES IDX 74 95 67 96 68 97 72 98 75 99 69 100 70 101 73 102 71 103
REMARK H PARENT 95 56 63 67
REMARK Flexibility Score: inf
ROOT
ATOM      1  C   UNL A   1      30.622  27.228  24.743  1.00  0.00     0.319 C 
ATOM      2  O   UNL A   1      30.511  26.348  25.591  1.00  0.00    -0.251 OA
ENDROOT
BRANCH   1   3
ATOM      3  C   UNL A   1      30.233  27.030  23.277  1.00  0.00     0.164 C 
BRANCH   3   4
ATOM      4  C   UNL A   1      29.162  28.071  22.863  1.00  0.00     0.027 C 
BRANCH   4   5
ATOM      5  C   UNL A   1      29.590  29.323  22.080  1.00  0.00     0.001 C 
BRANCH   5   6
ATOM      6  C   UNL A   1      28.505  30.382  21.839  1.00  0.00    -0.003 C 
ATOM      7  C   UNL A   1      27.793  30.814  23.110  1.00  0.00     0.004 C 
ENDBRANCH   5   6
ENDBRANCH   4   5
ENDBRANCH   3   4
BRANCH   3   8
ATOM      8  S   UNL A   1      31.821  27.049  22.333  1.00  0.00    -0.071 SA
BRANCH   8   9
ATOM      9  C   UNL A   1      32.624  25.653  23.067  1.00  0.00     0.195 A 
ATOM     10  N   UNL A   1      32.324  24.473  22.522  1.00  0.00    -0.187 NA
ATOM     11  N   UNL A   1      33.531  25.843  24.038  1.00  0.00    -0.187 NA
ATOM     12  C   UNL A   1      33.016  23.412  22.915  1.00  0.00     0.221 A 
ATOM     13  C   UNL A   1      34.210  24.752  24.428  1.00  0.00     0.221 A 
ATOM     14  C   UNL A   1      33.998  23.527  23.851  1.00  0.00     0.136 A 
BRANCH  12  15
ATOM     15  O   UNL A   1      32.685  22.274  22.237  1.00  0.00    -0.477 OA
BRANCH  15  16
ATOM     16  C   UNL A   1      31.840  21.299  22.843  1.00  0.00     0.231 C 
BRANCH  16  17
ATOM     17  C   UNL A   1      32.451  20.666  24.111  1.00  0.00     0.045 C 
BRANCH  17  18
ATOM     18  C   UNL A   1      33.176  19.341  23.849  1.00  0.00    -0.008 C 
ATOM     19  C   UNL A   1      33.556  18.552  25.104  1.00  0.00     0.004 C 
ATOM     20  C   UNL A   1      32.419  18.429  22.876  1.00  0.00     0.004 C 
ATOM     21  C   UNL A   1      34.491  17.404  24.700  1.00  0.00     0.000 C 
ATOM     22  C   UNL A   1      33.331  17.291  22.426  1.00  0.00     0.000 C 
ATOM     23  C   UNL A   1      33.886  16.509  23.616  1.00  0.00     0.000 C 
ENDBRANCH  17  18
ENDBRANCH  16  17
ENDBRANCH  15  16
ENDBRANCH  12  15
BRANCH  13  24
ATOM     24  O   UNL A   1      35.059  24.936  25.497  1.00  0.00    -0.477 OA
BRANCH  24  25
ATOM     25  C   UNL A   1      35.862  23.833  25.939  1.00  0.00     0.231 C 
BRANCH  25  26
ATOM     26  C   UNL A   1      37.306  23.782  25.368  1.00  0.00     0.045 C 
BRANCH  26  27
ATOM     27  C   UNL A   1      37.916  22.379  25.191  1.00  0.00    -0.008 C 
ATOM     28  C   UNL A   1      38.968  21.986  26.238  1.00  0.00     0.004 C 
ATOM     29  C   UNL A   1      36.848  21.276  25.133  1.00  0.00     0.004 C 
ATOM     30  C   UNL A   1      39.636  20.667  25.816  1.00  0.00     0.000 C 
ATOM     31  C   UNL A   1      37.466  19.957  24.682  1.00  0.00     0.000 C 
ATOM     32  C   UNL A   1      38.626  19.541  25.581  1.00  0.00     0.000 C 
ENDBRANCH  26  27
ENDBRANCH  25  26
ENDBRANCH  24  25
ENDBRANCH  13  24
ENDBRANCH   8   9
ENDBRANCH   3   8
ENDBRANCH   1   3
BRANCH   1  33
ATOM     33  O   UNL A   1      31.091  28.484  24.984  1.00  0.00    -0.461 OA
BRANCH  33  34
ATOM     34  C   UNL A   1      31.784  28.684  26.230  1.00  0.00     0.274 C 
BRANCH  34  35
ATOM     35  C   UNL A   1      31.901  30.174  26.545  1.00  0.00     0.275 C 
BRANCH  35  36
ATOM     36  O   UNL A   1      33.282  30.581  26.521  1.00  0.00    -0.458 OA
BRANCH  36  37
ATOM     37  C   UNL A   1      33.613  31.624  27.310  1.00  0.00     0.338 C 
ATOM     38  O   UNL A   1      33.000  32.671  27.474  1.00  0.00    -0.246 OA
BRANCH  37  39
ATOM     39  C   UNL A   1      34.866  31.313  28.003  1.00  0.00     0.060 A 
ATOM     40  C   UNL A   1      35.860  32.288  28.112  1.00  0.00     0.016 A 
ATOM     41  C   UNL A   1      35.075  30.026  28.496  1.00  0.00     0.016 A 
ATOM     42  C   UNL A   1      37.075  31.981  28.721  1.00  0.00     0.010 A 
ATOM     43  C   UNL A   1      36.278  29.729  29.137  1.00  0.00     0.010 A 
ATOM     44  C   UNL A   1      37.284  30.703  29.256  1.00  0.00    -0.014 A 
BRANCH  44  45
ATOM     45  C   UNL A   1      38.535  30.380  29.981  1.00  0.00     0.031 A 
ATOM     46  C   UNL A   1      39.528  29.428  29.385  1.00  0.00     0.074 A 
ATOM     47  C   UNL A   1      38.739  30.898  31.205  1.00  0.00     0.049 A 
ATOM     48  N   UNL A   1      40.578  28.876  29.937  1.00  0.00    -0.248 NA
ATOM     49  C   UNL A   1      39.308  29.041  27.984  1.00  0.00     0.031 C 
ATOM     50  C   UNL A   1      37.858  31.859  31.871  1.00  0.00     0.029 A 
ATOM     51  N   UNL A   1      39.736  30.669  32.119  1.00  0.00    -0.354 N 
ATOM     52  C   UNL A   1      41.131  28.057  28.962  1.00  0.00     0.074 A 
ATOM     53  C   UNL A   1      40.295  28.177  27.786  1.00  0.00     0.031 C 
ATOM     54  C   UNL A   1      38.343  32.123  33.094  1.00  0.00     0.029 A 
ATOM     55  C   UNL A   1      39.533  31.307  33.318  1.00  0.00     0.049 A 
ATOM     56  H   UNL A   1      40.520  30.102  31.934  1.00  0.00     0.167 HD
ATOM     57  C   UNL A   1      42.236  27.280  29.049  1.00  0.00     0.037 A 
ATOM     58  C   UNL A   1      40.199  31.206  34.483  1.00  0.00     0.037 A 
ATOM     59  C   UNL A   1      43.067  27.179  30.222  1.00  0.00     0.049 A 
ATOM     60  C   UNL A   1      41.375  30.275  34.576  1.00  0.00     0.074 A 
ATOM     61  C   UNL A   1      44.233  26.455  30.393  1.00  0.00     0.029 A 
ATOM     62  N   UNL A   1      42.811  27.817  31.427  1.00  0.00    -0.354 N 
ATOM     63  N   UNL A   1      41.902  29.514  33.648  1.00  0.00    -0.248 NA
ATOM     64  C   UNL A   1      42.040  30.177  35.883  1.00  0.00     0.031 C 
ATOM     65  C   UNL A   1      44.658  26.617  31.717  1.00  0.00     0.029 A 
ATOM     66  C   UNL A   1      43.780  27.476  32.358  1.00  0.00     0.049 A 
ATOM     67  H   UNL A   1      42.054  28.424  31.596  1.00  0.00     0.167 HD
ATOM     68  C   UNL A   1      42.962  28.854  34.252  1.00  0.00     0.074 A 
ATOM     69  C   UNL A   1      43.019  29.321  35.622  1.00  0.00     0.031 C 
ATOM     70  C   UNL A   1      43.813  27.942  33.720  1.00  0.00     0.037 A 
BRANCH  57  71
ATOM     71  C   UNL A   1      42.599  26.450  27.854  1.00  0.00     0.064 A 
ATOM     72  C   UNL A   1      43.509  26.905  26.888  1.00  0.00     0.173 A 
ATOM     73  C   UNL A   1      42.068  25.160  27.701  1.00  0.00     0.173 A 
ATOM     74  F   UNL A   1      44.037  28.134  26.984  1.00  0.00    -0.203 F 
ATOM     75  C   UNL A   1      43.857  26.106  25.802  1.00  0.00     0.198 A 
ATOM     76  C   UNL A   1      42.437  24.355  26.627  1.00  0.00     0.198 A 
ATOM     77  F   UNL A   1      41.199  24.675  28.600  1.00  0.00    -0.203 F 
ATOM     78  F   UNL A   1      44.701  26.574  24.872  1.00  0.00    -0.200 F 
ATOM     79  C   UNL A   1      43.327  24.830  25.676  1.00  0.00     0.200 A 
ATOM     80  F   UNL A   1      41.934  23.118  26.512  1.00  0.00    -0.200 F 
ATOM     81  F   UNL A   1      43.671  24.059  24.634  1.00  0.00    -0.200 F 
ENDBRANCH  57  71
BRANCH  58  82
ATOM     82  C   UNL A   1      39.738  31.977  35.665  1.00  0.00     0.064 A 
ATOM     83  C   UNL A   1      38.707  31.497  36.481  1.00  0.00     0.173 A 
ATOM     84  C   UNL A   1      40.323  33.207  36.005  1.00  0.00     0.173 A 
ATOM     85  F   UNL A   1      38.098  30.341  36.180  1.00  0.00    -0.203 F 
ATOM     86  C   UNL A   1      38.269  32.222  37.587  1.00  0.00     0.198 A 
ATOM     87  C   UNL A   1      39.904  33.917  37.127  1.00  0.00     0.198 A 
ATOM     88  F   UNL A   1      41.312  33.712  35.253  1.00  0.00    -0.203 F 
ATOM     89  F   UNL A   1      37.254  31.760  38.330  1.00  0.00    -0.200 F 
ATOM     90  C   UNL A   1      38.874  33.427  37.914  1.00  0.00     0.200 A 
ATOM     91  F   UNL A   1      40.498  35.075  37.445  1.00  0.00    -0.200 F 
ATOM     92  F   UNL A   1      38.457  34.121  38.983  1.00  0.00    -0.200 F 
ENDBRANCH  58  82
BRANCH  70  93
ATOM     93  C   UNL A   1      44.877  27.394  34.622  1.00  0.00     0.064 A 
ATOM     94  C   UNL A   1      44.681  26.210  35.349  1.00  0.00     0.173 A 
ATOM     95  C   UNL A   1      46.120  28.036  34.732  1.00  0.00     0.173 A 
ATOM     96  F   UNL A   1      43.503  25.571  35.291  1.00  0.00    -0.203 F 
ATOM     97  C   UNL A   1      45.686  25.699  36.165  1.00  0.00     0.198 A 
ATOM     98  C   UNL A   1      47.131  27.506  35.528  1.00  0.00     0.198 A 
ATOM     99  F   UNL A   1      46.358  29.168  34.053  1.00  0.00    -0.203 F 
ATOM    100  F   UNL A   1      45.464  24.587  36.882  1.00  0.00    -0.200 F 
ATOM    101  C   UNL A   1      46.912  26.342  36.249  1.00  0.00     0.200 A 
ATOM    102  F   UNL A   1      48.318  28.124  35.600  1.00  0.00    -0.200 F 
ATOM    103  F   UNL A   1      47.880  25.844  37.029  1.00  0.00    -0.200 F 
ENDBRANCH  70  93
ENDBRANCH  44  45
ENDBRANCH  37  39
ENDBRANCH  36  37
ENDBRANCH  35  36
ENDBRANCH  34  35
ENDBRANCH  33  34
ENDBRANCH   1  33
TORSDOF 24
ENDMDL
MODEL 3
REMARK VINA RESULT:     -10.4      2.917      6.060
REMARK SMILES CCCC[C@@H](Sc1nc(OCCC2CCCCC2)cc(OCCC2CCCCC2)n1)C(=O)OCCOC(=O)c1ccc(-c2c3nc(c(-c4c(F)c(F)c(F)c(F)c4F)c4ccc([nH]4)c(-c4c(F)c(F)c(F)c(F)c4F)c4nc(c(-c5c(F)c(F)c(F)c(F)c5F)c5ccc2[nH]5)C=C4)C=C3)cc1
REMARK SMILES IDX 31 1 32 2 5 3 4 4 3 5 2 6 1 7 6 8 7 9 8 10 30 11 9 12 20 13
REMARK SMILES IDX 19 14 10 15 11 16 12 17 13 18 14 19 18 20 15 21 17 22 16 23
REMARK SMILES IDX 21 24 22 25 23 26 24 27 25 28 29 29 26 30 28 31 27 32 33 33
REMARK SMILES IDX 34 34 35 35 36 36 37 37 38 38 39 39 40 40 101 41 41 42
REMARK SMILES IDX 100 43 42 44 43 45 44 46 94 47 45 48 99 49 93 50 95 51 46 52
REMARK SMILES IDX 98 53 92 54 91 55 47 57 79 58 59 59 78 60 60 61 63 62 77 63
REMARK SMILES IDX 96 64 61 65 62 66 76 68 97 69 64 70 48 71 49 72 57 73 50 74
REMARK SMILES IDX 51 75 55 76 58 77 52 78 53 79 56 80 54 81 80 82 81 83 89 84
REMARK SMILES IDX 82 85 83 86 87 87 90 88 84 89 85 90 88 91 86 92 65 93 66 94
REMARK SMILES IDX 74 95 67 96 68 97 72 98 75 99 69 100 70 101 73 102 71 103
REMARK H PARENT 95 56 63 67
REMARK Flexibility Score: inf
ROOT
ATOM      1  C   UNL A   1      34.157  32.553  28.414  1.00  0.00     0.319 C 
ATOM      2  O   UNL A   1      34.820  32.408  29.436  1.00  0.00    -0.251 OA
ENDROOT
BRANCH   1   3
ATOM      3  C   UNL A   1      33.844  31.407  27.452  1.00  0.00     0.164 C 
BRANCH   3   4
ATOM      4  C   UNL A   1      34.418  30.076  28.001  1.00  0.00     0.027 C 
BRANCH   4   5
ATOM      5  C   UNL A   1      35.555  29.373  27.241  1.00  0.00     0.001 C 
BRANCH   5   6
ATOM      6  C   UNL A   1      36.844  29.111  28.031  1.00  0.00    -0.003 C 
ATOM      7  C   UNL A   1      38.033  29.911  27.526  1.00  0.00     0.004 C 
ENDBRANCH   5   6
ENDBRANCH   4   5
ENDBRANCH   3   4
BRANCH   3   8
ATOM      8  S   UNL A   1      32.019  31.474  27.173  1.00  0.00    -0.071 SA
BRANCH   8   9
ATOM      9  C   UNL A   1      31.775  29.905  26.390  1.00  0.00     0.195 A 
ATOM     10  N   UNL A   1      31.669  29.943  25.061  1.00  0.00    -0.187 NA
ATOM     11  N   UNL A   1      31.799  28.784  27.128  1.00  0.00    -0.187 NA
ATOM     12  C   UNL A   1      31.653  28.791  24.404  1.00  0.00     0.221 A 
ATOM     13  C   UNL A   1      31.769  27.631  26.442  1.00  0.00     0.221 A 
ATOM     14  C   UNL A   1      31.736  27.607  25.071  1.00  0.00     0.136 A 
BRANCH  12  15
ATOM     15  O   UNL A   1      31.624  28.946  23.048  1.00  0.00    -0.477 OA
BRANCH  15  16
ATOM     16  C   UNL A   1      30.668  28.234  22.266  1.00  0.00     0.231 C 
BRANCH  16  17
ATOM     17  C   UNL A   1      29.222  28.734  22.467  1.00  0.00     0.045 C 
BRANCH  17  18
ATOM     18  C   UNL A   1      29.050  30.237  22.216  1.00  0.00    -0.008 C 
ATOM     19  C   UNL A   1      28.029  30.600  21.136  1.00  0.00     0.004 C 
ATOM     20  C   UNL A   1      28.749  31.024  23.497  1.00  0.00     0.004 C 
ATOM     21  C   UNL A   1      28.158  32.096  20.818  1.00  0.00     0.000 C 
ATOM     22  C   UNL A   1      28.900  32.519  23.227  1.00  0.00     0.000 C 
ATOM     23  C   UNL A   1      28.018  32.975  22.064  1.00  0.00     0.000 C 
ENDBRANCH  17  18
ENDBRANCH  16  17
ENDBRANCH  15  16
ENDBRANCH  12  15
BRANCH  13  24
ATOM     24  O   UNL A   1      31.685  26.489  27.209  1.00  0.00    -0.477 OA
BRANCH  24  25
ATOM     25  C   UNL A   1      31.451  25.234  26.556  1.00  0.00     0.231 C 
BRANCH  25  26
ATOM     26  C   UNL A   1      32.658  24.258  26.522  1.00  0.00     0.045 C 
BRANCH  26  27
ATOM     27  C   UNL A   1      32.969  23.610  25.160  1.00  0.00    -0.008 C 
ATOM     28  C   UNL A   1      31.740  23.250  24.312  1.00  0.00     0.004 C 
ATOM     29  C   UNL A   1      33.919  24.462  24.307  1.00  0.00     0.004 C 
ATOM     30  C   UNL A   1      32.189  22.427  23.093  1.00  0.00     0.000 C 
ATOM     31  C   UNL A   1      34.416  23.666  23.104  1.00  0.00     0.000 C 
ATOM     32  C   UNL A   1      33.260  23.137  22.262  1.00  0.00     0.000 C 
ENDBRANCH  26  27
ENDBRANCH  25  26
ENDBRANCH  24  25
ENDBRANCH  13  24
ENDBRANCH   8   9
ENDBRANCH   3   8
ENDBRANCH   1   3
BRANCH   1  33
ATOM     33  O   UNL A   1      33.610  33.732  28.004  1.00  0.00    -0.461 OA
BRANCH  33  34
ATOM     34  C   UNL A   1      33.960  34.902  28.765  1.00  0.00     0.274 C 
BRANCH  34  35
ATOM     35  C   UNL A   1      32.748  35.423  29.534  1.00  0.00     0.275 C 
BRANCH  35  36
ATOM     36  O   UNL A   1      33.163  35.999  30.788  1.00  0.00    -0.458 OA
BRANCH  36  37
ATOM     37  C   UNL A   1      32.981  35.236  31.885  1.00  0.00     0.338 C 
ATOM     38  O   UNL A   1      31.942  35.026  32.496  1.00  0.00    -0.246 OA
BRANCH  37  39
ATOM     39  C   UNL A   1      34.267  34.640  32.263  1.00  0.00     0.060 A 
ATOM     40  C   UNL A   1      34.300  33.359  32.821  1.00  0.00     0.016 A 
ATOM     41  C   UNL A   1      35.437  35.382  32.113  1.00  0.00     0.016 A 
ATOM     42  C   UNL A   1      35.512  32.810  33.233  1.00  0.00     0.010 A 
ATOM     43  C   UNL A   1      36.655  34.817  32.493  1.00  0.00     0.010 A 
ATOM     44  C   UNL A   1      36.701  33.528  33.053  1.00  0.00    -0.014 A 
BRANCH  44  45
ATOM     45  C   UNL A   1      38.010  32.931  33.406  1.00  0.00     0.031 A 
ATOM     46  C   UNL A   1      38.625  31.886  32.525  1.00  0.00     0.074 A 
ATOM     47  C   UNL A   1      38.606  33.287  34.558  1.00  0.00     0.049 A 
ATOM     48  N   UNL A   1      39.657  31.114  32.753  1.00  0.00    -0.248 NA
ATOM     49  C   UNL A   1      37.993  31.678  31.213  1.00  0.00     0.031 C 
ATOM     50  C   UNL A   1      38.117  34.314  35.478  1.00  0.00     0.029 A 
ATOM     51  N   UNL A   1      39.739  32.807  35.164  1.00  0.00    -0.354 N 
ATOM     52  C   UNL A   1      39.785  30.312  31.628  1.00  0.00     0.074 A 
ATOM     53  C   UNL A   1      38.719  30.683  30.721  1.00  0.00     0.031 C 
ATOM     54  C   UNL A   1      38.933  34.375  36.541  1.00  0.00     0.029 A 
ATOM     55  C   UNL A   1      39.966  33.352  36.405  1.00  0.00     0.049 A 
ATOM     56  H   UNL A   1      40.331  32.136  34.752  1.00  0.00     0.167 HD
ATOM     57  C   UNL A   1      40.710  29.354  31.383  1.00  0.00     0.037 A 
ATOM     58  C   UNL A   1      40.871  33.029  37.346  1.00  0.00     0.037 A 
ATOM     59  C   UNL A   1      41.774  29.003  32.289  1.00  0.00     0.049 A 
ATOM     60  C   UNL A   1      41.836  31.908  37.081  1.00  0.00     0.074 A 
ATOM     61  C   UNL A   1      42.789  28.079  32.112  1.00  0.00     0.029 A 
ATOM     62  N   UNL A   1      41.952  29.557  33.549  1.00  0.00    -0.354 N 
ATOM     63  N   UNL A   1      41.962  31.161  36.011  1.00  0.00    -0.248 NA
ATOM     64  C   UNL A   1      42.777  31.575  38.160  1.00  0.00     0.031 C 
ATOM     65  C   UNL A   1      43.553  28.040  33.284  1.00  0.00     0.029 A 
ATOM     66  C   UNL A   1      43.040  28.969  34.174  1.00  0.00     0.049 A 
ATOM     67  H   UNL A   1      41.389  30.263  33.941  1.00  0.00     0.167 HD
ATOM     68  C   UNL A   1      42.996  30.277  36.282  1.00  0.00     0.074 A 
ATOM     69  C   UNL A   1      43.480  30.595  37.610  1.00  0.00     0.031 C 
ATOM     70  C   UNL A   1      43.500  29.290  35.501  1.00  0.00     0.037 A 
BRANCH  57  71
ATOM     71  C   UNL A   1      40.601  28.593  30.096  1.00  0.00     0.064 A 
ATOM     72  C   UNL A   1      41.356  28.941  28.966  1.00  0.00     0.173 A 
ATOM     73  C   UNL A   1      39.766  27.468  30.007  1.00  0.00     0.173 A 
ATOM     74  F   UNL A   1      42.161  30.014  28.996  1.00  0.00    -0.203 F 
ATOM     75  C   UNL A   1      41.263  28.203  27.788  1.00  0.00     0.198 A 
ATOM     76  C   UNL A   1      39.695  26.718  28.837  1.00  0.00     0.198 A 
ATOM     77  F   UNL A   1      39.028  27.090  31.062  1.00  0.00    -0.203 F 
ATOM     78  F   UNL A   1      41.967  28.574  26.710  1.00  0.00    -0.200 F 
ATOM     79  C   UNL A   1      40.439  27.088  27.727  1.00  0.00     0.200 A 
ATOM     80  F   UNL A   1      38.907  25.635  28.783  1.00  0.00    -0.200 F 
ATOM     81  F   UNL A   1      40.359  26.373  26.597  1.00  0.00    -0.200 F 
ENDBRANCH  57  71
BRANCH  58  82
ATOM     82  C   UNL A   1      40.873  33.750  38.644  1.00  0.00     0.064 A 
ATOM     83  C   UNL A   1      40.014  33.368  39.682  1.00  0.00     0.173 A 
ATOM     84  C   UNL A   1      41.738  34.832  38.874  1.00  0.00     0.173 A 
ATOM     85  F   UNL A   1      39.151  32.359  39.499  1.00  0.00    -0.203 F 
ATOM     86  C   UNL A   1      40.011  34.047  40.898  1.00  0.00     0.198 A 
ATOM     87  C   UNL A   1      41.754  35.491  40.101  1.00  0.00     0.198 A 
ATOM     88  F   UNL A   1      42.577  35.238  37.911  1.00  0.00    -0.203 F 
ATOM     89  F   UNL A   1      39.152  33.688  41.862  1.00  0.00    -0.200 F 
ATOM     90  C   UNL A   1      40.887  35.102  41.110  1.00  0.00     0.200 A 
ATOM     91  F   UNL A   1      42.608  36.504  40.303  1.00  0.00    -0.200 F 
ATOM     92  F   UNL A   1      40.888  35.751  42.283  1.00  0.00    -0.200 F 
ENDBRANCH  58  82
BRANCH  70  93
ATOM     93  C   UNL A   1      44.634  28.487  36.063  1.00  0.00     0.064 A 
ATOM     94  C   UNL A   1      44.406  27.298  36.772  1.00  0.00     0.173 A 
ATOM     95  C   UNL A   1      45.963  28.887  35.858  1.00  0.00     0.173 A 
ATOM     96  F   UNL A   1      43.151  26.885  37.010  1.00  0.00    -0.203 F 
ATOM     97  C   UNL A   1      45.468  26.548  37.269  1.00  0.00     0.198 A 
ATOM     98  C   UNL A   1      47.022  28.120  36.334  1.00  0.00     0.198 A 
ATOM     99  F   UNL A   1      46.233  30.014  35.183  1.00  0.00    -0.203 F 
ATOM    100  F   UNL A   1      45.227  25.436  37.978  1.00  0.00    -0.200 F 
ATOM    101  C   UNL A   1      46.775  26.955  37.044  1.00  0.00     0.200 A 
ATOM    102  F   UNL A   1      48.284  28.510  36.107  1.00  0.00    -0.200 F 
ATOM    103  F   UNL A   1      47.795  26.228  37.516  1.00  0.00    -0.200 F 
ENDBRANCH  70  93
ENDBRANCH  44  45
ENDBRANCH  37  39
ENDBRANCH  36  37
ENDBRANCH  35  36
ENDBRANCH  34  35
ENDBRANCH  33  34
ENDBRANCH   1  33
TORSDOF 24
ENDMDL
