MODEL 1
REMARK VINA RESULT:     -11.4      0.000      0.000
REMARK SMILES C/C(=C/C[NH+]1C[C@@H](C)[C@H](C)C1)C(=O)OCCOC(=O)c1ccc(-c2c3nc(c(-c4c(F)c(F)c(F)c(F)c4F)c4ccc([nH]4)c(-c4c(F)c(F)c(F)c(F)c4F)c4nc(c(-c5c(F)c(F)c(F)c(F)c5F)c5ccc2[nH]5)C=C4)C=C3)cc1
REMARK SMILES IDX 15 1 14 2 12 3 13 4 2 5 1 6 3 7 4 8 5 9 6 10 11 11 7 13 9 14
REMARK SMILES IDX 8 15 10 16 16 17 17 18 18 19 19 20 20 21 21 22 82 23 22 24
REMARK SMILES IDX 81 25 23 26 24 27 25 28 75 29 26 30 80 31 74 32 76 33 27 34
REMARK SMILES IDX 79 35 73 36 72 37 28 39 60 40 40 41 59 42 41 43 44 44 58 45
REMARK SMILES IDX 77 46 42 47 43 48 57 50 78 51 45 52 29 53 30 54 38 55 31 56
REMARK SMILES IDX 32 57 36 58 39 59 33 60 34 61 37 62 35 63 61 64 62 65 70 66
REMARK SMILES IDX 63 67 64 68 68 69 71 70 65 71 66 72 69 73 67 74 46 75 47 76
REMARK SMILES IDX 55 77 48 78 49 79 53 80 56 81 50 82 51 83 54 84 52 85
REMARK H PARENT 5 12 76 38 44 49
REMARK Flexibility Score: inf
ROOT
ATOM      1  C   UNL A   1      31.649  28.587  26.308  1.00  0.00     0.275 C 
ENDROOT
BRANCH   1   2
ATOM      2  O   UNL A   1      32.307  27.670  25.413  1.00  0.00    -0.459 OA
BRANCH   2   3
ATOM      3  C   UNL A   1      31.529  26.935  24.584  1.00  0.00     0.333 C 
ATOM      4  O   UNL A   1      30.737  26.073  24.935  1.00  0.00    -0.247 OA
BRANCH   3   5
ATOM      5  C   UNL A   1      31.645  27.398  23.168  1.00  0.00     0.036 C 
ATOM      6  C   UNL A   1      32.904  26.985  22.455  1.00  0.00     0.052 C 
ATOM      7  C   UNL A   1      30.779  28.230  22.555  1.00  0.00     0.044 C 
BRANCH   7   8
ATOM      8  C   UNL A   1      29.552  28.889  23.102  1.00  0.00     0.291 C 
BRANCH   8   9
ATOM      9  N   UNL A   1      29.545  30.280  22.664  1.00  0.00    -0.331 N 
ATOM     10  C   UNL A   1      28.811  30.497  21.419  1.00  0.00     0.266 C 
ATOM     11  C   UNL A   1      28.966  31.190  23.653  1.00  0.00     0.266 C 
ATOM     12  H   UNL A   1      30.536  30.483  22.524  1.00  0.00     0.348 HD
ATOM     13  C   UNL A   1      28.740  32.018  21.379  1.00  0.00     0.049 C 
ATOM     14  C   UNL A   1      28.476  32.398  22.846  1.00  0.00     0.049 C 
ATOM     15  C   UNL A   1      27.671  32.528  20.426  1.00  0.00     0.014 C 
ATOM     16  C   UNL A   1      29.175  33.692  23.241  1.00  0.00     0.014 C 
ENDBRANCH   8   9
ENDBRANCH   7   8
ENDBRANCH   3   5
ENDBRANCH   2   3
ENDBRANCH   1   2
BRANCH   1  17
ATOM     17  C   UNL A   1      31.834  30.022  25.819  1.00  0.00     0.275 C 
BRANCH  17  18
ATOM     18  O   UNL A   1      33.201  30.428  26.010  1.00  0.00    -0.458 OA
BRANCH  18  19
ATOM     19  C   UNL A   1      33.397  31.350  26.976  1.00  0.00     0.338 C 
ATOM     20  O   UNL A   1      32.624  32.206  27.373  1.00  0.00    -0.246 OA
BRANCH  19  21
ATOM     21  C   UNL A   1      34.688  31.079  27.615  1.00  0.00     0.060 A 
ATOM     22  C   UNL A   1      34.969  29.760  27.970  1.00  0.00     0.016 A 
ATOM     23  C   UNL A   1      35.575  32.105  27.930  1.00  0.00     0.016 A 
ATOM     24  C   UNL A   1      36.119  29.458  28.690  1.00  0.00     0.010 A 
ATOM     25  C   UNL A   1      36.753  31.797  28.619  1.00  0.00     0.010 A 
ATOM     26  C   UNL A   1      37.021  30.475  29.024  1.00  0.00    -0.014 A 
BRANCH  26  27
ATOM     27  C   UNL A   1      38.213  30.158  29.847  1.00  0.00     0.031 A 
ATOM     28  C   UNL A   1      39.296  29.285  29.281  1.00  0.00     0.074 A 
ATOM     29  C   UNL A   1      38.342  30.677  31.081  1.00  0.00     0.049 A 
ATOM     30  N   UNL A   1      40.350  28.782  29.873  1.00  0.00    -0.248 NA
ATOM     31  C   UNL A   1      39.176  28.926  27.859  1.00  0.00     0.031 C 
ATOM     32  C   UNL A   1      37.391  31.587  31.720  1.00  0.00     0.029 A 
ATOM     33  N   UNL A   1      39.332  30.517  32.018  1.00  0.00    -0.354 N 
ATOM     34  C   UNL A   1      40.992  28.014  28.911  1.00  0.00     0.074 A 
ATOM     35  C   UNL A   1      40.211  28.117  27.696  1.00  0.00     0.031 C 
ATOM     36  C   UNL A   1      37.852  31.921  32.936  1.00  0.00     0.029 A 
ATOM     37  C   UNL A   1      39.097  31.200  33.185  1.00  0.00     0.049 A 
ATOM     38  H   UNL A   1      40.133  29.965  31.868  1.00  0.00     0.167 HD
ATOM     39  C   UNL A   1      42.127  27.289  29.035  1.00  0.00     0.037 A 
ATOM     40  C   UNL A   1      39.792  31.217  34.338  1.00  0.00     0.037 A 
ATOM     41  C   UNL A   1      42.923  27.223  30.233  1.00  0.00     0.049 A 
ATOM     42  C   UNL A   1      41.035  30.379  34.460  1.00  0.00     0.074 A 
ATOM     43  C   UNL A   1      44.090  26.514  30.458  1.00  0.00     0.029 A 
ATOM     44  N   UNL A   1      42.637  27.909  31.404  1.00  0.00    -0.354 N 
ATOM     45  N   UNL A   1      41.605  29.611  33.565  1.00  0.00    -0.248 NA
ATOM     46  C   UNL A   1      41.722  30.399  35.759  1.00  0.00     0.031 C 
ATOM     47  C   UNL A   1      44.497  26.751  31.777  1.00  0.00     0.029 A 
ATOM     48  C   UNL A   1      43.602  27.633  32.360  1.00  0.00     0.049 A 
ATOM     49  H   UNL A   1      41.863  28.502  31.537  1.00  0.00     0.167 HD
ATOM     50  C   UNL A   1      42.716  29.062  34.186  1.00  0.00     0.074 A 
ATOM     51  C   UNL A   1      42.755  29.600  35.530  1.00  0.00     0.031 C 
ATOM     52  C   UNL A   1      43.621  28.182  33.690  1.00  0.00     0.037 A 
BRANCH  39  53
ATOM     53  C   UNL A   1      42.559  26.475  27.853  1.00  0.00     0.064 A 
ATOM     54  C   UNL A   1      42.088  25.173  27.639  1.00  0.00     0.173 A 
ATOM     55  C   UNL A   1      43.440  27.021  26.906  1.00  0.00     0.173 A 
ATOM     56  F   UNL A   1      41.258  24.601  28.526  1.00  0.00    -0.203 F 
ATOM     57  C   UNL A   1      42.497  24.438  26.530  1.00  0.00     0.198 A 
ATOM     58  C   UNL A   1      43.829  26.291  25.787  1.00  0.00     0.198 A 
ATOM     59  F   UNL A   1      43.918  28.263  27.066  1.00  0.00    -0.203 F 
ATOM     60  F   UNL A   1      42.065  23.179  26.365  1.00  0.00    -0.200 F 
ATOM     61  C   UNL A   1      43.363  24.999  25.602  1.00  0.00     0.200 A 
ATOM     62  F   UNL A   1      44.659  26.838  24.888  1.00  0.00    -0.200 F 
ATOM     63  F   UNL A   1      43.753  24.290  24.533  1.00  0.00    -0.200 F 
ENDBRANCH  39  53
BRANCH  40  64
ATOM     64  C   UNL A   1      39.309  32.035  35.480  1.00  0.00     0.064 A 
ATOM     65  C   UNL A   1      38.468  31.484  36.456  1.00  0.00     0.173 A 
ATOM     66  C   UNL A   1      39.684  33.379  35.621  1.00  0.00     0.173 A 
ATOM     67  F   UNL A   1      38.062  30.211  36.347  1.00  0.00    -0.203 F 
ATOM     68  C   UNL A   1      38.011  32.251  37.526  1.00  0.00     0.198 A 
ATOM     69  C   UNL A   1      39.248  34.137  36.705  1.00  0.00     0.198 A 
ATOM     70  F   UNL A   1      40.484  33.953  34.711  1.00  0.00    -0.203 F 
ATOM     71  F   UNL A   1      37.178  31.712  38.425  1.00  0.00    -0.200 F 
ATOM     72  C   UNL A   1      38.408  33.574  37.654  1.00  0.00     0.200 A 
ATOM     73  F   UNL A   1      39.639  35.412  36.829  1.00  0.00    -0.200 F 
ATOM     74  F   UNL A   1      37.973  34.309  38.686  1.00  0.00    -0.200 F 
ENDBRANCH  40  64
BRANCH  52  75
ATOM     75  C   UNL A   1      44.736  27.766  34.600  1.00  0.00     0.064 A 
ATOM     76  C   UNL A   1      45.927  28.502  34.677  1.00  0.00     0.173 A 
ATOM     77  C   UNL A   1      44.596  26.644  35.431  1.00  0.00     0.173 A 
ATOM     78  F   UNL A   1      46.110  29.574  33.891  1.00  0.00    -0.203 F 
ATOM     79  C   UNL A   1      46.948  28.117  35.540  1.00  0.00     0.198 A 
ATOM     80  C   UNL A   1      45.612  26.275  36.308  1.00  0.00     0.198 A 
ATOM     81  F   UNL A   1      43.473  25.912  35.394  1.00  0.00    -0.203 F 
ATOM     82  F   UNL A   1      48.094  28.812  35.572  1.00  0.00    -0.200 F 
ATOM     83  C   UNL A   1      46.788  27.008  36.359  1.00  0.00     0.200 A 
ATOM     84  F   UNL A   1      45.453  25.207  37.102  1.00  0.00    -0.200 F 
ATOM     85  F   UNL A   1      47.772  26.641  37.191  1.00  0.00    -0.200 F 
ENDBRANCH  52  75
ENDBRANCH  26  27
ENDBRANCH  19  21
ENDBRANCH  18  19
ENDBRANCH  17  18
ENDBRANCH   1  17
TORSDOF 13
ENDMDL
MODEL 2
REMARK VINA RESULT:     -11.4      5.736     10.902
REMARK SMILES C/C(=C/C[NH+]1C[C@@H](C)[C@H](C)C1)C(=O)OCCOC(=O)c1ccc(-c2c3nc(c(-c4c(F)c(F)c(F)c(F)c4F)c4ccc([nH]4)c(-c4c(F)c(F)c(F)c(F)c4F)c4nc(c(-c5c(F)c(F)c(F)c(F)c5F)c5ccc2[nH]5)C=C4)C=C3)cc1
REMARK SMILES IDX 15 1 14 2 12 3 13 4 2 5 1 6 3 7 4 8 5 9 6 10 11 11 7 13 9 14
REMARK SMILES IDX 8 15 10 16 16 17 17 18 18 19 19 20 20 21 21 22 82 23 22 24
REMARK SMILES IDX 81 25 23 26 24 27 25 28 75 29 26 30 80 31 74 32 76 33 27 34
REMARK SMILES IDX 79 35 73 36 72 37 28 39 60 40 40 41 59 42 41 43 44 44 58 45
REMARK SMILES IDX 77 46 42 47 43 48 57 50 78 51 45 52 29 53 30 54 38 55 31 56
REMARK SMILES IDX 32 57 36 58 39 59 33 60 34 61 37 62 35 63 61 64 62 65 70 66
REMARK SMILES IDX 63 67 64 68 68 69 71 70 65 71 66 72 69 73 67 74 46 75 47 76
REMARK SMILES IDX 55 77 48 78 49 79 53 80 56 81 50 82 51 83 54 84 52 85
REMARK H PARENT 5 12 76 38 44 49
REMARK Flexibility Score: inf
ROOT
ATOM      1  C   UNL A   1      36.509  22.325  23.923  1.00  0.00     0.275 C 
ENDROOT
BRANCH   1   2
ATOM      2  O   UNL A   1      35.556  22.953  24.801  1.00  0.00    -0.459 OA
BRANCH   2   3
ATOM      3  C   UNL A   1      34.245  22.845  24.486  1.00  0.00     0.333 C 
ATOM      4  O   UNL A   1      33.740  23.192  23.428  1.00  0.00    -0.247 OA
BRANCH   3   5
ATOM      5  C   UNL A   1      33.484  22.113  25.543  1.00  0.00     0.036 C 
ATOM      6  C   UNL A   1      33.209  22.895  26.799  1.00  0.00     0.052 C 
ATOM      7  C   UNL A   1      33.147  20.809  25.487  1.00  0.00     0.044 C 
BRANCH   7   8
ATOM      8  C   UNL A   1      33.444  19.800  24.422  1.00  0.00     0.291 C 
BRANCH   8   9
ATOM      9  N   UNL A   1      33.789  18.539  25.070  1.00  0.00    -0.331 N 
ATOM     10  C   UNL A   1      32.644  17.656  25.278  1.00  0.00     0.266 C 
ATOM     11  C   UNL A   1      34.782  17.766  24.324  1.00  0.00     0.266 C 
ATOM     12  H   UNL A   1      34.167  18.838  25.970  1.00  0.00     0.348 HD
ATOM     13  C   UNL A   1      33.338  16.363  25.686  1.00  0.00     0.049 C 
ATOM     14  C   UNL A   1      34.562  16.311  24.758  1.00  0.00     0.049 C 
ATOM     15  C   UNL A   1      32.433  15.148  25.555  1.00  0.00     0.014 C 
ATOM     16  C   UNL A   1      35.782  15.711  25.445  1.00  0.00     0.014 C 
ENDBRANCH   8   9
ENDBRANCH   7   8
ENDBRANCH   3   5
ENDBRANCH   2   3
ENDBRANCH   1   2
BRANCH   1  17
ATOM     17  C   UNL A   1      37.197  21.164  24.639  1.00  0.00     0.275 C 
BRANCH  17  18
ATOM     18  O   UNL A   1      37.682  21.602  25.920  1.00  0.00    -0.458 OA
BRANCH  18  19
ATOM     19  C   UNL A   1      38.978  21.322  26.171  1.00  0.00     0.338 C 
ATOM     20  O   UNL A   1      39.590  20.294  25.932  1.00  0.00    -0.246 OA
BRANCH  19  21
ATOM     21  C   UNL A   1      39.623  22.540  26.672  1.00  0.00     0.060 A 
ATOM     22  C   UNL A   1      39.171  23.761  26.177  1.00  0.00     0.016 A 
ATOM     23  C   UNL A   1      40.700  22.483  27.553  1.00  0.00     0.016 A 
ATOM     24  C   UNL A   1      39.822  24.941  26.517  1.00  0.00     0.010 A 
ATOM     25  C   UNL A   1      41.332  23.674  27.929  1.00  0.00     0.010 A 
ATOM     26  C   UNL A   1      40.912  24.907  27.395  1.00  0.00    -0.014 A 
BRANCH  26  27
ATOM     27  C   UNL A   1      41.645  26.159  27.705  1.00  0.00     0.031 A 
ATOM     28  C   UNL A   1      40.990  27.213  28.550  1.00  0.00     0.074 A 
ATOM     29  C   UNL A   1      42.902  26.336  27.260  1.00  0.00     0.049 A 
ATOM     30  N   UNL A   1      41.399  28.426  28.828  1.00  0.00    -0.248 NA
ATOM     31  C   UNL A   1      39.699  26.859  29.161  1.00  0.00     0.031 C 
ATOM     32  C   UNL A   1      43.670  25.363  26.484  1.00  0.00     0.029 A 
ATOM     33  N   UNL A   1      43.759  27.399  27.406  1.00  0.00    -0.354 N 
ATOM     34  C   UNL A   1      40.398  28.991  29.607  1.00  0.00     0.074 A 
ATOM     35  C   UNL A   1      39.364  27.991  29.760  1.00  0.00     0.031 C 
ATOM     36  C   UNL A   1      44.891  25.864  26.238  1.00  0.00     0.029 A 
ATOM     37  C   UNL A   1      44.969  27.215  26.784  1.00  0.00     0.049 A 
ATOM     38  H   UNL A   1      43.528  28.214  27.907  1.00  0.00     0.167 HD
ATOM     39  C   UNL A   1      40.352  30.233  30.143  1.00  0.00     0.037 A 
ATOM     40  C   UNL A   1      46.010  28.057  26.642  1.00  0.00     0.037 A 
ATOM     41  C   UNL A   1      41.402  31.210  30.024  1.00  0.00     0.049 A 
ATOM     42  C   UNL A   1      45.921  29.441  27.222  1.00  0.00     0.074 A 
ATOM     43  C   UNL A   1      41.448  32.497  30.529  1.00  0.00     0.029 A 
ATOM     44  N   UNL A   1      42.602  30.996  29.361  1.00  0.00    -0.354 N 
ATOM     45  N   UNL A   1      44.949  29.989  27.909  1.00  0.00    -0.248 NA
ATOM     46  C   UNL A   1      47.068  30.331  26.991  1.00  0.00     0.031 C 
ATOM     47  C   UNL A   1      42.666  33.073  30.150  1.00  0.00     0.029 A 
ATOM     48  C   UNL A   1      43.392  32.131  29.438  1.00  0.00     0.049 A 
ATOM     49  H   UNL A   1      42.854  30.162  28.904  1.00  0.00     0.167 HD
ATOM     50  C   UNL A   1      45.366  31.279  28.198  1.00  0.00     0.074 A 
ATOM     51  C   UNL A   1      46.690  31.429  27.629  1.00  0.00     0.031 C 
ATOM     52  C   UNL A   1      44.708  32.258  28.867  1.00  0.00     0.037 A 
BRANCH  39  53
ATOM     53  C   UNL A   1      39.105  30.621  30.878  1.00  0.00     0.064 A 
ATOM     54  C   UNL A   1      38.985  30.463  32.266  1.00  0.00     0.173 A 
ATOM     55  C   UNL A   1      38.023  31.182  30.183  1.00  0.00     0.173 A 
ATOM     56  F   UNL A   1      39.987  29.914  32.972  1.00  0.00    -0.203 F 
ATOM     57  C   UNL A   1      37.819  30.836  32.930  1.00  0.00     0.198 A 
ATOM     58  C   UNL A   1      36.868  31.574  30.854  1.00  0.00     0.198 A 
ATOM     59  F   UNL A   1      38.089  31.355  28.855  1.00  0.00    -0.203 F 
ATOM     60  F   UNL A   1      37.711  30.640  34.251  1.00  0.00    -0.200 F 
ATOM     61  C   UNL A   1      36.764  31.397  32.224  1.00  0.00     0.200 A 
ATOM     62  F   UNL A   1      35.853  32.123  30.172  1.00  0.00    -0.200 F 
ATOM     63  F   UNL A   1      35.645  31.758  32.866  1.00  0.00    -0.200 F 
ENDBRANCH  39  53
BRANCH  40  64
ATOM     64  C   UNL A   1      47.217  27.620  25.894  1.00  0.00     0.064 A 
ATOM     65  C   UNL A   1      47.283  27.742  24.500  1.00  0.00     0.173 A 
ATOM     66  C   UNL A   1      48.327  27.078  26.558  1.00  0.00     0.173 A 
ATOM     67  F   UNL A   1      46.234  28.228  23.820  1.00  0.00    -0.203 F 
ATOM     68  C   UNL A   1      48.413  27.329  23.796  1.00  0.00     0.198 A 
ATOM     69  C   UNL A   1      49.466  26.690  25.856  1.00  0.00     0.198 A 
ATOM     70  F   UNL A   1      48.310  26.937  27.891  1.00  0.00    -0.203 F 
ATOM     71  F   UNL A   1      48.437  27.422  22.460  1.00  0.00    -0.200 F 
ATOM     72  C   UNL A   1      49.506  26.811  24.475  1.00  0.00     0.200 A 
ATOM     73  F   UNL A   1      50.522  26.198  26.517  1.00  0.00    -0.200 F 
ATOM     74  F   UNL A   1      50.594  26.420  23.798  1.00  0.00    -0.200 F 
ENDBRANCH  40  64
BRANCH  52  75
ATOM     75  C   UNL A   1      45.419  33.564  29.035  1.00  0.00     0.064 A 
ATOM     76  C   UNL A   1      46.273  33.795  30.125  1.00  0.00     0.173 A 
ATOM     77  C   UNL A   1      45.276  34.582  28.080  1.00  0.00     0.173 A 
ATOM     78  F   UNL A   1      46.428  32.856  31.070  1.00  0.00    -0.203 F 
ATOM     79  C   UNL A   1      46.943  35.007  30.260  1.00  0.00     0.198 A 
ATOM     80  C   UNL A   1      45.965  35.784  28.210  1.00  0.00     0.198 A 
ATOM     81  F   UNL A   1      44.474  34.405  27.020  1.00  0.00    -0.203 F 
ATOM     82  F   UNL A   1      47.725  35.221  31.328  1.00  0.00    -0.200 F 
ATOM     83  C   UNL A   1      46.794  35.998  29.301  1.00  0.00     0.200 A 
ATOM     84  F   UNL A   1      45.825  36.738  27.278  1.00  0.00    -0.200 F 
ATOM     85  F   UNL A   1      47.443  37.162  29.433  1.00  0.00    -0.200 F 
ENDBRANCH  52  75
ENDBRANCH  26  27
ENDBRANCH  19  21
ENDBRANCH  18  19
ENDBRANCH  17  18
ENDBRANCH   1  17
TORSDOF 13
ENDMDL
MODEL 3
REMARK VINA RESULT:     -11.2      1.454      3.447
REMARK SMILES C/C(=C/C[NH+]1C[C@@H](C)[C@H](C)C1)C(=O)OCCOC(=O)c1ccc(-c2c3nc(c(-c4c(F)c(F)c(F)c(F)c4F)c4ccc([nH]4)c(-c4c(F)c(F)c(F)c(F)c4F)c4nc(c(-c5c(F)c(F)c(F)c(F)c5F)c5ccc2[nH]5)C=C4)C=C3)cc1
REMARK SMILES IDX 15 1 14 2 12 3 13 4 2 5 1 6 3 7 4 8 5 9 6 10 11 11 7 13 9 14
REMARK SMILES IDX 8 15 10 16 16 17 17 18 18 19 19 20 20 21 21 22 82 23 22 24
REMARK SMILES IDX 81 25 23 26 24 27 25 28 75 29 26 30 80 31 74 32 76 33 27 34
REMARK SMILES IDX 79 35 73 36 72 37 28 39 60 40 40 41 59 42 41 43 44 44 58 45
REMARK SMILES IDX 77 46 42 47 43 48 57 50 78 51 45 52 29 53 30 54 38 55 31 56
REMARK SMILES IDX 32 57 36 58 39 59 33 60 34 61 37 62 35 63 61 64 62 65 70 66
REMARK SMILES IDX 63 67 64 68 68 69 71 70 65 71 66 72 69 73 67 74 46 75 47 76
REMARK SMILES IDX 55 77 48 78 49 79 53 80 56 81 50 82 51 83 54 84 52 85
REMARK H PARENT 5 12 76 38 44 49
REMARK Flexibility Score: inf
ROOT
ATOM      1  C   UNL A   1      31.652  29.474  24.395  1.00  0.00     0.275 C 
ENDROOT
BRANCH   1   2
ATOM      2  O   UNL A   1      30.279  29.131  24.122  1.00  0.00    -0.459 OA
BRANCH   2   3
ATOM      3  C   UNL A   1      30.026  28.380  23.025  1.00  0.00     0.333 C 
ATOM      4  O   UNL A   1      30.063  28.779  21.870  1.00  0.00    -0.247 OA
BRANCH   3   5
ATOM      5  C   UNL A   1      29.827  26.942  23.378  1.00  0.00     0.036 C 
ATOM      6  C   UNL A   1      28.474  26.598  23.940  1.00  0.00     0.052 C 
ATOM      7  C   UNL A   1      30.787  25.997  23.335  1.00  0.00     0.044 C 
BRANCH   7   8
ATOM      8  C   UNL A   1      32.231  26.132  22.964  1.00  0.00     0.291 C 
BRANCH   8   9
ATOM      9  N   UNL A   1      33.038  25.683  24.092  1.00  0.00    -0.331 N 
ATOM     10  C   UNL A   1      32.271  24.975  25.115  1.00  0.00     0.266 C 
ATOM     11  C   UNL A   1      34.128  24.791  23.698  1.00  0.00     0.266 C 
ATOM     12  H   UNL A   1      33.406  26.555  24.474  1.00  0.00     0.348 HD
ATOM     13  C   UNL A   1      33.387  24.405  25.980  1.00  0.00     0.049 C 
ATOM     14  C   UNL A   1      34.441  23.965  24.951  1.00  0.00     0.049 C 
ATOM     15  C   UNL A   1      32.911  23.271  26.875  1.00  0.00     0.014 C 
ATOM     16  C   UNL A   1      35.863  24.175  25.456  1.00  0.00     0.014 C 
ENDBRANCH   8   9
ENDBRANCH   7   8
ENDBRANCH   3   5
ENDBRANCH   2   3
ENDBRANCH   1   2
BRANCH   1  17
ATOM     17  C   UNL A   1      31.763  30.140  25.766  1.00  0.00     0.275 C 
BRANCH  17  18
ATOM     18  O   UNL A   1      33.149  30.293  26.120  1.00  0.00    -0.458 OA
BRANCH  18  19
ATOM     19  C   UNL A   1      33.414  31.291  26.989  1.00  0.00     0.338 C 
ATOM     20  O   UNL A   1      32.693  32.219  27.318  1.00  0.00    -0.246 OA
BRANCH  19  21
ATOM     21  C   UNL A   1      34.706  31.016  27.626  1.00  0.00     0.060 A 
ATOM     22  C   UNL A   1      34.969  29.703  28.010  1.00  0.00     0.016 A 
ATOM     23  C   UNL A   1      35.609  32.037  27.909  1.00  0.00     0.016 A 
ATOM     24  C   UNL A   1      36.120  29.400  28.729  1.00  0.00     0.010 A 
ATOM     25  C   UNL A   1      36.788  31.727  28.597  1.00  0.00     0.010 A 
ATOM     26  C   UNL A   1      37.039  30.412  29.032  1.00  0.00    -0.014 A 
BRANCH  26  27
ATOM     27  C   UNL A   1      38.233  30.097  29.854  1.00  0.00     0.031 A 
ATOM     28  C   UNL A   1      39.318  29.227  29.287  1.00  0.00     0.074 A 
ATOM     29  C   UNL A   1      38.361  30.615  31.089  1.00  0.00     0.049 A 
ATOM     30  N   UNL A   1      40.373  28.727  29.878  1.00  0.00    -0.248 NA
ATOM     31  C   UNL A   1      39.197  28.869  27.865  1.00  0.00     0.031 C 
ATOM     32  C   UNL A   1      37.408  31.522  31.729  1.00  0.00     0.029 A 
ATOM     33  N   UNL A   1      39.352  30.457  32.025  1.00  0.00    -0.354 N 
ATOM     34  C   UNL A   1      41.016  27.961  28.914  1.00  0.00     0.074 A 
ATOM     35  C   UNL A   1      40.235  28.063  27.700  1.00  0.00     0.031 C 
ATOM     36  C   UNL A   1      37.869  31.856  32.945  1.00  0.00     0.029 A 
ATOM     37  C   UNL A   1      39.116  31.139  33.193  1.00  0.00     0.049 A 
ATOM     38  H   UNL A   1      40.154  29.907  31.874  1.00  0.00     0.167 HD
ATOM     39  C   UNL A   1      42.154  27.238  29.038  1.00  0.00     0.037 A 
ATOM     40  C   UNL A   1      39.812  31.156  34.346  1.00  0.00     0.037 A 
ATOM     41  C   UNL A   1      42.950  27.173  30.235  1.00  0.00     0.049 A 
ATOM     42  C   UNL A   1      41.057  30.322  34.466  1.00  0.00     0.074 A 
ATOM     43  C   UNL A   1      44.119  26.467  30.459  1.00  0.00     0.029 A 
ATOM     44  N   UNL A   1      42.663  27.857  31.407  1.00  0.00    -0.354 N 
ATOM     45  N   UNL A   1      41.628  29.555  33.570  1.00  0.00    -0.248 NA
ATOM     46  C   UNL A   1      41.744  30.341  35.765  1.00  0.00     0.031 C 
ATOM     47  C   UNL A   1      44.526  26.704  31.777  1.00  0.00     0.029 A 
ATOM     48  C   UNL A   1      43.629  27.583  32.362  1.00  0.00     0.049 A 
ATOM     49  H   UNL A   1      41.888  28.449  31.541  1.00  0.00     0.167 HD
ATOM     50  C   UNL A   1      42.741  29.008  34.189  1.00  0.00     0.074 A 
ATOM     51  C   UNL A   1      42.779  29.546  35.534  1.00  0.00     0.031 C 
ATOM     52  C   UNL A   1      43.648  28.131  33.693  1.00  0.00     0.037 A 
BRANCH  39  53
ATOM     53  C   UNL A   1      42.587  26.427  27.854  1.00  0.00     0.064 A 
ATOM     54  C   UNL A   1      42.118  25.123  27.640  1.00  0.00     0.173 A 
ATOM     55  C   UNL A   1      43.466  26.975  26.908  1.00  0.00     0.173 A 
ATOM     56  F   UNL A   1      41.290  24.549  28.526  1.00  0.00    -0.203 F 
ATOM     57  C   UNL A   1      42.529  24.390  26.529  1.00  0.00     0.198 A 
ATOM     58  C   UNL A   1      43.856  26.247  25.788  1.00  0.00     0.198 A 
ATOM     59  F   UNL A   1      43.941  28.219  27.068  1.00  0.00    -0.203 F 
ATOM     60  F   UNL A   1      42.100  23.131  26.364  1.00  0.00    -0.200 F 
ATOM     61  C   UNL A   1      43.393  24.955  25.602  1.00  0.00     0.200 A 
ATOM     62  F   UNL A   1      44.684  26.797  24.889  1.00  0.00    -0.200 F 
ATOM     63  F   UNL A   1      43.784  24.248  24.532  1.00  0.00    -0.200 F 
ENDBRANCH  39  53
BRANCH  40  64
ATOM     64  C   UNL A   1      39.327  31.972  35.488  1.00  0.00     0.064 A 
ATOM     65  C   UNL A   1      39.712  33.312  35.630  1.00  0.00     0.173 A 
ATOM     66  C   UNL A   1      38.468  31.430  36.455  1.00  0.00     0.173 A 
ATOM     67  F   UNL A   1      40.554  33.864  34.745  1.00  0.00    -0.203 F 
ATOM     68  C   UNL A   1      39.261  34.078  36.704  1.00  0.00     0.198 A 
ATOM     69  C   UNL A   1      37.998  32.204  37.513  1.00  0.00     0.198 A 
ATOM     70  F   UNL A   1      38.076  30.151  36.365  1.00  0.00    -0.203 F 
ATOM     71  F   UNL A   1      39.672  35.346  36.838  1.00  0.00    -0.200 F 
ATOM     72  C   UNL A   1      38.398  33.526  37.640  1.00  0.00     0.200 A 
ATOM     73  F   UNL A   1      37.159  31.670  38.410  1.00  0.00    -0.200 F 
ATOM     74  F   UNL A   1      37.961  34.265  38.668  1.00  0.00    -0.200 F 
ENDBRANCH  40  64
BRANCH  52  75
ATOM     75  C   UNL A   1      44.764  27.718  34.602  1.00  0.00     0.064 A 
ATOM     76  C   UNL A   1      44.658  26.579  35.414  1.00  0.00     0.173 A 
ATOM     77  C   UNL A   1      45.963  28.444  34.633  1.00  0.00     0.173 A 
ATOM     78  F   UNL A   1      43.525  25.862  35.428  1.00  0.00    -0.203 F 
ATOM     79  C   UNL A   1      45.710  26.194  36.241  1.00  0.00     0.198 A 
ATOM     80  C   UNL A   1      47.019  28.043  35.446  1.00  0.00     0.198 A 
ATOM     81  F   UNL A   1      46.111  29.538  33.871  1.00  0.00    -0.203 F 
ATOM     82  F   UNL A   1      45.575  25.124  37.037  1.00  0.00    -0.200 F 
ATOM     83  C   UNL A   1      46.890  26.922  36.252  1.00  0.00     0.200 A 
ATOM     84  F   UNL A   1      48.162  28.744  35.451  1.00  0.00    -0.200 F 
ATOM     85  F   UNL A   1      47.902  26.548  37.047  1.00  0.00    -0.200 F 
ENDBRANCH  52  75
ENDBRANCH  26  27
ENDBRANCH  19  21
ENDBRANCH  18  19
ENDBRANCH  17  18
ENDBRANCH   1  17
TORSDOF 13
ENDMDL
