MODEL 1
REMARK VINA RESULT:     -10.0      0.000      0.000
REMARK SMILES COc1cc(/C=C/C(=O)OCCOC(=O)c2ccc(-c3c4nc(c(-c5c(F)c(F)c(F)c(F)c5F)c5ccc([nH]5)c(-c5c(F)c(F)c(F)c(F)c5F)c5nc(c(-c6c(F)c(F)c(F)c(F)c6F)c6ccc3[nH]6)C=C5)C=C4)cc2)cc(OC)c1O
REMARK SMILES IDX 11 1 10 2 8 3 9 4 7 5 6 6 5 7 3 8 4 9 83 10 80 11 79 12 2 13
REMARK SMILES IDX 1 14 84 15 81 17 82 18 12 19 13 20 14 21 15 22 16 23 17 24
REMARK SMILES IDX 78 25 18 26 77 27 19 28 20 29 21 30 71 31 22 32 76 33 70 34
REMARK SMILES IDX 72 35 23 36 75 37 69 38 68 39 24 41 56 42 36 43 55 44 37 45
REMARK SMILES IDX 40 46 54 47 73 48 38 49 39 50 53 52 74 53 41 54 25 55 26 56
REMARK SMILES IDX 34 57 27 58 28 59 32 60 35 61 29 62 30 63 33 64 31 65 57 66
REMARK SMILES IDX 58 67 66 68 59 69 60 70 64 71 67 72 61 73 62 74 65 75 63 76
REMARK SMILES IDX 42 77 43 78 51 79 44 80 45 81 49 82 52 83 46 84 47 85 50 86
REMARK SMILES IDX 48 87
REMARK H PARENT 84 16 72 40 40 51
REMARK Flexibility Score: inf
ROOT
ATOM      1  C   UNL A   1      44.713  19.042  25.021  1.00  0.00     0.275 C 
ENDROOT
BRANCH   1   2
ATOM      2  O   UNL A   1      44.960  20.453  24.872  1.00  0.00    -0.459 OA
BRANCH   2   3
ATOM      3  C   UNL A   1      46.244  20.796  24.619  1.00  0.00     0.330 C 
ATOM      4  O   UNL A   1      47.186  20.027  24.490  1.00  0.00    -0.247 OA
BRANCH   3   5
ATOM      5  C   UNL A   1      46.429  22.251  24.446  1.00  0.00     0.094 C 
ATOM      6  C   UNL A   1      46.167  23.201  25.358  1.00  0.00     0.016 C 
BRANCH   6   7
ATOM      7  C   UNL A   1      46.313  24.633  25.048  1.00  0.00    -0.018 A 
ATOM      8  C   UNL A   1      47.648  26.508  24.217  1.00  0.00     0.165 A 
ATOM      9  C   UNL A   1      47.488  25.141  24.483  1.00  0.00     0.058 A 
ATOM     10  C   UNL A   1      46.596  27.387  24.515  1.00  0.00     0.200 A 
ATOM     11  C   UNL A   1      45.386  26.893  25.029  1.00  0.00     0.165 A 
ATOM     12  C   UNL A   1      45.260  25.517  25.289  1.00  0.00     0.058 A 
BRANCH   8  13
ATOM     13  O   UNL A   1      48.890  26.799  23.720  1.00  0.00    -0.493 OA
ATOM     14  C   UNL A   1      49.942  27.124  24.615  1.00  0.00     0.278 C 
ENDBRANCH   8  13
BRANCH  10  15
ATOM     15  O   UNL A   1      46.770  28.735  24.375  1.00  0.00    -0.502 OA
ATOM     16  H   UNL A   1      47.333  29.198  24.964  1.00  0.00     0.293 HD
ENDBRANCH  10  15
BRANCH  11  17
ATOM     17  O   UNL A   1      44.265  27.597  25.386  1.00  0.00    -0.493 OA
ATOM     18  C   UNL A   1      42.989  27.025  25.135  1.00  0.00     0.278 C 
ENDBRANCH  11  17
ENDBRANCH   6   7
ENDBRANCH   3   5
ENDBRANCH   2   3
ENDBRANCH   1   2
BRANCH   1  19
ATOM     19  C   UNL A   1      43.397  18.772  25.757  1.00  0.00     0.275 C 
BRANCH  19  20
ATOM     20  O   UNL A   1      42.288  19.472  25.159  1.00  0.00    -0.458 OA
BRANCH  20  21
ATOM     21  C   UNL A   1      41.423  20.021  26.041  1.00  0.00     0.338 C 
ATOM     22  O   UNL A   1      40.368  19.536  26.433  1.00  0.00    -0.246 OA
BRANCH  21  23
ATOM     23  C   UNL A   1      41.956  21.281  26.587  1.00  0.00     0.060 A 
ATOM     24  C   UNL A   1      42.002  21.413  27.978  1.00  0.00     0.016 A 
ATOM     25  C   UNL A   1      42.312  22.355  25.765  1.00  0.00     0.016 A 
ATOM     26  C   UNL A   1      42.369  22.626  28.554  1.00  0.00     0.010 A 
ATOM     27  C   UNL A   1      42.680  23.577  26.345  1.00  0.00     0.010 A 
ATOM     28  C   UNL A   1      42.683  23.726  27.743  1.00  0.00    -0.014 A 
BRANCH  28  29
ATOM     29  C   UNL A   1      42.921  25.044  28.384  1.00  0.00     0.031 A 
ATOM     30  C   UNL A   1      44.313  25.441  28.782  1.00  0.00     0.074 A 
ATOM     31  C   UNL A   1      41.904  25.910  28.541  1.00  0.00     0.049 A 
ATOM     32  N   UNL A   1      44.745  26.575  29.276  1.00  0.00    -0.248 NA
ATOM     33  C   UNL A   1      45.364  24.428  28.596  1.00  0.00     0.031 C 
ATOM     34  C   UNL A   1      40.512  25.648  28.182  1.00  0.00     0.029 A 
ATOM     35  N   UNL A   1      41.892  27.192  29.030  1.00  0.00    -0.354 N 
ATOM     36  C   UNL A   1      46.111  26.414  29.457  1.00  0.00     0.074 A 
ATOM     37  C   UNL A   1      46.435  25.062  29.054  1.00  0.00     0.031 C 
ATOM     38  C   UNL A   1      39.780  26.744  28.449  1.00  0.00     0.029 A 
ATOM     39  C   UNL A   1      40.649  27.775  29.012  1.00  0.00     0.049 A 
ATOM     40  H   UNL A   1      42.697  27.650  29.361  1.00  0.00     0.167 HD
ATOM     41  C   UNL A   1      47.018  27.316  29.907  1.00  0.00     0.037 A 
ATOM     42  C   UNL A   1      40.259  29.003  29.403  1.00  0.00     0.037 A 
ATOM     43  C   UNL A   1      46.701  28.662  30.306  1.00  0.00     0.049 A 
ATOM     44  C   UNL A   1      41.283  29.977  29.922  1.00  0.00     0.074 A 
ATOM     45  C   UNL A   1      47.555  29.652  30.763  1.00  0.00     0.029 A 
ATOM     46  N   UNL A   1      45.426  29.208  30.297  1.00  0.00    -0.354 N 
ATOM     47  N   UNL A   1      42.578  29.826  30.057  1.00  0.00    -0.248 NA
ATOM     48  C   UNL A   1      40.788  31.299  30.333  1.00  0.00     0.031 C 
ATOM     49  C   UNL A   1      46.791  30.785  31.064  1.00  0.00     0.029 A 
ATOM     50  C   UNL A   1      45.468  30.516  30.756  1.00  0.00     0.049 A 
ATOM     51  H   UNL A   1      44.613  28.737  30.008  1.00  0.00     0.167 HD
ATOM     52  C   UNL A   1      43.054  31.036  30.545  1.00  0.00     0.074 A 
ATOM     53  C   UNL A   1      41.912  31.917  30.665  1.00  0.00     0.031 C 
ATOM     54  C   UNL A   1      44.324  31.383  30.867  1.00  0.00     0.037 A 
BRANCH  41  55
ATOM     55  C   UNL A   1      48.445  26.866  30.004  1.00  0.00     0.064 A 
ATOM     56  C   UNL A   1      49.349  27.057  28.948  1.00  0.00     0.173 A 
ATOM     57  C   UNL A   1      48.924  26.264  31.178  1.00  0.00     0.173 A 
ATOM     58  F   UNL A   1      48.937  27.617  27.801  1.00  0.00    -0.203 F 
ATOM     59  C   UNL A   1      50.674  26.643  29.056  1.00  0.00     0.198 A 
ATOM     60  C   UNL A   1      50.255  25.873  31.291  1.00  0.00     0.198 A 
ATOM     61  F   UNL A   1      48.100  26.063  32.219  1.00  0.00    -0.203 F 
ATOM     62  F   UNL A   1      51.510  26.799  28.021  1.00  0.00    -0.200 F 
ATOM     63  C   UNL A   1      51.127  26.056  30.229  1.00  0.00     0.200 A 
ATOM     64  F   UNL A   1      50.694  25.315  32.429  1.00  0.00    -0.200 F 
ATOM     65  F   UNL A   1      52.403  25.661  30.332  1.00  0.00    -0.200 F 
ENDBRANCH  41  55
BRANCH  42  66
ATOM     66  C   UNL A   1      38.829  29.390  29.302  1.00  0.00     0.064 A 
ATOM     67  C   UNL A   1      38.237  29.656  28.061  1.00  0.00     0.173 A 
ATOM     68  C   UNL A   1      38.031  29.519  30.449  1.00  0.00     0.173 A 
ATOM     69  F   UNL A   1      38.968  29.572  26.939  1.00  0.00    -0.203 F 
ATOM     70  C   UNL A   1      36.905  30.053  27.970  1.00  0.00     0.198 A 
ATOM     71  C   UNL A   1      36.693  29.891  30.355  1.00  0.00     0.198 A 
ATOM     72  F   UNL A   1      38.554  29.280  31.661  1.00  0.00    -0.203 F 
ATOM     73  F   UNL A   1      36.375  30.344  26.774  1.00  0.00    -0.200 F 
ATOM     74  C   UNL A   1      36.133  30.165  29.116  1.00  0.00     0.200 A 
ATOM     75  F   UNL A   1      35.948  29.993  31.464  1.00  0.00    -0.200 F 
ATOM     76  F   UNL A   1      34.852  30.547  29.028  1.00  0.00    -0.200 F 
ENDBRANCH  42  66
BRANCH  54  77
ATOM     77  C   UNL A   1      44.546  32.785  31.354  1.00  0.00     0.064 A 
ATOM     78  C   UNL A   1      44.816  33.838  30.467  1.00  0.00     0.173 A 
ATOM     79  C   UNL A   1      44.473  33.083  32.724  1.00  0.00     0.173 A 
ATOM     80  F   UNL A   1      44.911  33.602  29.150  1.00  0.00    -0.203 F 
ATOM     81  C   UNL A   1      45.035  35.131  30.936  1.00  0.00     0.198 A 
ATOM     82  C   UNL A   1      44.667  34.381  33.186  1.00  0.00     0.198 A 
ATOM     83  F   UNL A   1      44.212  32.112  33.613  1.00  0.00    -0.203 F 
ATOM     84  F   UNL A   1      45.342  36.110  30.075  1.00  0.00    -0.200 F 
ATOM     85  C   UNL A   1      44.956  35.402  32.294  1.00  0.00     0.200 A 
ATOM     86  F   UNL A   1      44.581  34.643  34.498  1.00  0.00    -0.200 F 
ATOM     87  F   UNL A   1      45.170  36.646  32.744  1.00  0.00    -0.200 F 
ENDBRANCH  54  77
ENDBRANCH  28  29
ENDBRANCH  21  23
ENDBRANCH  20  21
ENDBRANCH  19  20
ENDBRANCH   1  19
TORSDOF 15
ENDMDL
MODEL 2
REMARK VINA RESULT:      -9.9      0.724      2.025
REMARK SMILES COc1cc(/C=C/C(=O)OCCOC(=O)c2ccc(-c3c4nc(c(-c5c(F)c(F)c(F)c(F)c5F)c5ccc([nH]5)c(-c5c(F)c(F)c(F)c(F)c5F)c5nc(c(-c6c(F)c(F)c(F)c(F)c6F)c6ccc3[nH]6)C=C5)C=C4)cc2)cc(OC)c1O
REMARK SMILES IDX 11 1 10 2 8 3 9 4 7 5 6 6 5 7 3 8 4 9 83 10 80 11 79 12 2 13
REMARK SMILES IDX 1 14 84 15 81 17 82 18 12 19 13 20 14 21 15 22 16 23 17 24
REMARK SMILES IDX 78 25 18 26 77 27 19 28 20 29 21 30 71 31 22 32 76 33 70 34
REMARK SMILES IDX 72 35 23 36 75 37 69 38 68 39 24 41 56 42 36 43 55 44 37 45
REMARK SMILES IDX 40 46 54 47 73 48 38 49 39 50 53 52 74 53 41 54 25 55 26 56
REMARK SMILES IDX 34 57 27 58 28 59 32 60 35 61 29 62 30 63 33 64 31 65 57 66
REMARK SMILES IDX 58 67 66 68 59 69 60 70 64 71 67 72 61 73 62 74 65 75 63 76
REMARK SMILES IDX 42 77 43 78 51 79 44 80 45 81 49 82 52 83 46 84 47 85 50 86
REMARK SMILES IDX 48 87
REMARK H PARENT 84 16 72 40 40 51
REMARK Flexibility Score: inf
ROOT
ATOM      1  C   UNL A   1      44.906  19.351  23.905  1.00  0.00     0.275 C 
ENDROOT
BRANCH   1   2
ATOM      2  O   UNL A   1      44.954  20.790  23.917  1.00  0.00    -0.459 OA
BRANCH   2   3
ATOM      3  C   UNL A   1      45.752  21.339  24.862  1.00  0.00     0.330 C 
ATOM      4  O   UNL A   1      46.448  20.730  25.663  1.00  0.00    -0.247 OA
BRANCH   3   5
ATOM      5  C   UNL A   1      45.765  22.814  24.819  1.00  0.00     0.094 C 
ATOM      6  C   UNL A   1      46.825  23.594  24.551  1.00  0.00     0.016 C 
BRANCH   6   7
ATOM      7  C   UNL A   1      46.741  25.063  24.615  1.00  0.00    -0.018 A 
ATOM      8  C   UNL A   1      45.519  27.106  25.185  1.00  0.00     0.165 A 
ATOM      9  C   UNL A   1      45.621  25.707  25.152  1.00  0.00     0.058 A 
ATOM     10  C   UNL A   1      46.575  27.877  24.676  1.00  0.00     0.200 A 
ATOM     11  C   UNL A   1      47.734  27.253  24.184  1.00  0.00     0.165 A 
ATOM     12  C   UNL A   1      47.801  25.849  24.160  1.00  0.00     0.058 A 
BRANCH   8  13
ATOM     13  O   UNL A   1      44.323  27.528  25.698  1.00  0.00    -0.493 OA
ATOM     14  C   UNL A   1      43.113  27.020  25.156  1.00  0.00     0.278 C 
ENDBRANCH   8  13
BRANCH  10  15
ATOM     15  O   UNL A   1      46.450  29.235  24.589  1.00  0.00    -0.502 OA
ATOM     16  H   UNL A   1      46.532  29.661  23.759  1.00  0.00     0.293 HD
ENDBRANCH  10  15
BRANCH  11  17
ATOM     17  O   UNL A   1      48.849  27.840  23.644  1.00  0.00    -0.493 OA
ATOM     18  C   UNL A   1      49.470  27.226  22.522  1.00  0.00     0.278 C 
ENDBRANCH  11  17
ENDBRANCH   6   7
ENDBRANCH   3   5
ENDBRANCH   2   3
ENDBRANCH   1   2
BRANCH   1  19
ATOM     19  C   UNL A   1      43.833  18.811  24.855  1.00  0.00     0.275 C 
BRANCH  19  20
ATOM     20  O   UNL A   1      42.701  19.698  24.954  1.00  0.00    -0.458 OA
BRANCH  20  21
ATOM     21  C   UNL A   1      42.089  19.701  26.160  1.00  0.00     0.338 C 
ATOM     22  O   UNL A   1      41.650  18.728  26.763  1.00  0.00    -0.246 OA
BRANCH  21  23
ATOM     23  C   UNL A   1      42.094  21.050  26.750  1.00  0.00     0.060 A 
ATOM     24  C   UNL A   1      42.287  22.132  25.887  1.00  0.00     0.016 A 
ATOM     25  C   UNL A   1      42.015  21.256  28.131  1.00  0.00     0.016 A 
ATOM     26  C   UNL A   1      42.435  23.419  26.399  1.00  0.00     0.010 A 
ATOM     27  C   UNL A   1      42.165  22.551  28.646  1.00  0.00     0.010 A 
ATOM     28  C   UNL A   1      42.404  23.635  27.784  1.00  0.00    -0.014 A 
BRANCH  28  29
ATOM     29  C   UNL A   1      42.717  24.989  28.304  1.00  0.00     0.031 A 
ATOM     30  C   UNL A   1      44.146  25.384  28.547  1.00  0.00     0.074 A 
ATOM     31  C   UNL A   1      41.732  25.886  28.487  1.00  0.00     0.049 A 
ATOM     32  N   UNL A   1      44.637  26.540  28.918  1.00  0.00    -0.248 NA
ATOM     33  C   UNL A   1      45.160  24.339  28.343  1.00  0.00     0.031 C 
ATOM     34  C   UNL A   1      40.309  25.629  28.272  1.00  0.00     0.029 A 
ATOM     35  N   UNL A   1      41.783  27.199  28.881  1.00  0.00    -0.354 N 
ATOM     36  C   UNL A   1      46.012  26.364  28.989  1.00  0.00     0.074 A 
ATOM     37  C   UNL A   1      46.278  24.980  28.657  1.00  0.00     0.031 C 
ATOM     38  C   UNL A   1      39.621  26.756  28.524  1.00  0.00     0.029 A 
ATOM     39  C   UNL A   1      40.552  27.806  28.932  1.00  0.00     0.049 A 
ATOM     40  H   UNL A   1      42.621  27.662  29.106  1.00  0.00     0.167 HD
ATOM     41  C   UNL A   1      46.968  27.275  29.290  1.00  0.00     0.037 A 
ATOM     42  C   UNL A   1      40.217  29.066  29.266  1.00  0.00     0.037 A 
ATOM     43  C   UNL A   1      46.709  28.654  29.618  1.00  0.00     0.049 A 
ATOM     44  C   UNL A   1      41.298  30.052  29.620  1.00  0.00     0.074 A 
ATOM     45  C   UNL A   1      47.615  29.655  29.924  1.00  0.00     0.029 A 
ATOM     46  N   UNL A   1      45.446  29.224  29.681  1.00  0.00    -0.354 N 
ATOM     47  N   UNL A   1      42.597  29.884  29.650  1.00  0.00    -0.248 NA
ATOM     48  C   UNL A   1      40.861  31.410  29.977  1.00  0.00     0.031 C 
ATOM     49  C   UNL A   1      46.898  30.823  30.209  1.00  0.00     0.029 A 
ATOM     50  C   UNL A   1      45.549  30.560  30.039  1.00  0.00     0.049 A 
ATOM     51  H   UNL A   1      44.603  28.751  29.500  1.00  0.00     0.167 HD
ATOM     52  C   UNL A   1      43.134  31.115  30.006  1.00  0.00     0.074 A 
ATOM     53  C   UNL A   1      42.019  32.026  30.162  1.00  0.00     0.031 C 
ATOM     54  C   UNL A   1      44.432  31.457  30.188  1.00  0.00     0.037 A 
BRANCH  41  55
ATOM     55  C   UNL A   1      48.392  26.804  29.293  1.00  0.00     0.064 A 
ATOM     56  C   UNL A   1      49.253  27.063  28.217  1.00  0.00     0.173 A 
ATOM     57  C   UNL A   1      48.910  26.111  30.398  1.00  0.00     0.173 A 
ATOM     58  F   UNL A   1      48.802  27.711  27.132  1.00  0.00    -0.203 F 
ATOM     59  C   UNL A   1      50.575  26.627  28.237  1.00  0.00     0.198 A 
ATOM     60  C   UNL A   1      50.239  25.697  30.424  1.00  0.00     0.198 A 
ATOM     61  F   UNL A   1      48.128  25.842  31.455  1.00  0.00    -0.203 F 
ATOM     62  F   UNL A   1      51.369  26.850  27.181  1.00  0.00    -0.200 F 
ATOM     63  C   UNL A   1      51.068  25.949  29.342  1.00  0.00     0.200 A 
ATOM     64  F   UNL A   1      50.717  25.051  31.498  1.00  0.00    -0.200 F 
ATOM     65  F   UNL A   1      52.341  25.533  29.362  1.00  0.00    -0.200 F 
ENDBRANCH  41  55
BRANCH  42  66
ATOM     66  C   UNL A   1      38.790  29.476  29.264  1.00  0.00     0.064 A 
ATOM     67  C   UNL A   1      38.125  29.777  28.069  1.00  0.00     0.173 A 
ATOM     68  C   UNL A   1      38.068  29.590  30.461  1.00  0.00     0.173 A 
ATOM     69  F   UNL A   1      38.782  29.708  26.901  1.00  0.00    -0.203 F 
ATOM     70  C   UNL A   1      36.796  30.195  28.071  1.00  0.00     0.198 A 
ATOM     71  C   UNL A   1      36.733  29.983  30.461  1.00  0.00     0.198 A 
ATOM     72  F   UNL A   1      38.662  29.316  31.633  1.00  0.00    -0.203 F 
ATOM     73  F   UNL A   1      36.196  30.520  26.917  1.00  0.00    -0.200 F 
ATOM     74  C   UNL A   1      36.100  30.292  29.266  1.00  0.00     0.200 A 
ATOM     75  F   UNL A   1      36.061  30.070  31.616  1.00  0.00    -0.200 F 
ATOM     76  F   UNL A   1      34.821  30.693  29.268  1.00  0.00    -0.200 F 
ENDBRANCH  42  66
BRANCH  54  77
ATOM     77  C   UNL A   1      44.718  32.885  30.551  1.00  0.00     0.064 A 
ATOM     78  C   UNL A   1      44.672  33.328  31.882  1.00  0.00     0.173 A 
ATOM     79  C   UNL A   1      45.057  33.818  29.560  1.00  0.00     0.173 A 
ATOM     80  F   UNL A   1      44.338  32.478  32.865  1.00  0.00    -0.203 F 
ATOM     81  C   UNL A   1      44.925  34.660  32.202  1.00  0.00     0.198 A 
ATOM     82  C   UNL A   1      45.334  35.142  29.886  1.00  0.00     0.198 A 
ATOM     83  F   UNL A   1      45.120  33.443  28.273  1.00  0.00    -0.203 F 
ATOM     84  F   UNL A   1      44.824  35.072  33.472  1.00  0.00    -0.200 F 
ATOM     85  C   UNL A   1      45.259  35.564  31.205  1.00  0.00     0.200 A 
ATOM     86  F   UNL A   1      45.667  36.012  28.923  1.00  0.00    -0.200 F 
ATOM     87  F   UNL A   1      45.500  36.845  31.514  1.00  0.00    -0.200 F 
ENDBRANCH  54  77
ENDBRANCH  28  29
ENDBRANCH  21  23
ENDBRANCH  20  21
ENDBRANCH  19  20
ENDBRANCH   1  19
TORSDOF 15
ENDMDL
MODEL 3
REMARK VINA RESULT:      -9.9      5.461     11.778
REMARK SMILES COc1cc(/C=C/C(=O)OCCOC(=O)c2ccc(-c3c4nc(c(-c5c(F)c(F)c(F)c(F)c5F)c5ccc([nH]5)c(-c5c(F)c(F)c(F)c(F)c5F)c5nc(c(-c6c(F)c(F)c(F)c(F)c6F)c6ccc3[nH]6)C=C5)C=C4)cc2)cc(OC)c1O
REMARK SMILES IDX 11 1 10 2 8 3 9 4 7 5 6 6 5 7 3 8 4 9 83 10 80 11 79 12 2 13
REMARK SMILES IDX 1 14 84 15 81 17 82 18 12 19 13 20 14 21 15 22 16 23 17 24
REMARK SMILES IDX 78 25 18 26 77 27 19 28 20 29 21 30 71 31 22 32 76 33 70 34
REMARK SMILES IDX 72 35 23 36 75 37 69 38 68 39 24 41 56 42 36 43 55 44 37 45
REMARK SMILES IDX 40 46 54 47 73 48 38 49 39 50 53 52 74 53 41 54 25 55 26 56
REMARK SMILES IDX 34 57 27 58 28 59 32 60 35 61 29 62 30 63 33 64 31 65 57 66
REMARK SMILES IDX 58 67 66 68 59 69 60 70 64 71 67 72 61 73 62 74 65 75 63 76
REMARK SMILES IDX 42 77 43 78 51 79 44 80 45 81 49 82 52 83 46 84 47 85 50 86
REMARK SMILES IDX 48 87
REMARK H PARENT 84 16 72 40 40 51
REMARK Flexibility Score: inf
ROOT
ATOM      1  C   UNL A   1      33.116  36.549  31.480  1.00  0.00     0.275 C 
ENDROOT
BRANCH   1   2
ATOM      2  O   UNL A   1      34.004  35.589  32.082  1.00  0.00    -0.459 OA
BRANCH   2   3
ATOM      3  C   UNL A   1      34.527  35.949  33.277  1.00  0.00     0.330 C 
ATOM      4  O   UNL A   1      34.167  36.891  33.970  1.00  0.00    -0.247 OA
BRANCH   3   5
ATOM      5  C   UNL A   1      35.593  35.038  33.738  1.00  0.00     0.094 C 
ATOM      6  C   UNL A   1      35.421  33.853  34.345  1.00  0.00     0.016 C 
BRANCH   6   7
ATOM      7  C   UNL A   1      36.562  33.061  34.835  1.00  0.00    -0.018 A 
ATOM      8  C   UNL A   1      38.162  31.230  34.557  1.00  0.00     0.165 A 
ATOM      9  C   UNL A   1      37.098  32.011  34.082  1.00  0.00     0.058 A 
ATOM     10  C   UNL A   1      38.709  31.519  35.816  1.00  0.00     0.200 A 
ATOM     11  C   UNL A   1      38.224  32.604  36.566  1.00  0.00     0.165 A 
ATOM     12  C   UNL A   1      37.153  33.364  36.063  1.00  0.00     0.058 A 
BRANCH   8  13
ATOM     13  O   UNL A   1      38.495  30.223  33.691  1.00  0.00    -0.493 OA
ATOM     14  C   UNL A   1      37.471  29.552  32.974  1.00  0.00     0.278 C 
ENDBRANCH   8  13
BRANCH  10  15
ATOM     15  O   UNL A   1      39.664  30.702  36.351  1.00  0.00    -0.502 OA
ATOM     16  H   UNL A   1      39.924  29.924  35.896  1.00  0.00     0.293 HD
ENDBRANCH  10  15
BRANCH  11  17
ATOM     17  O   UNL A   1      38.626  33.024  37.807  1.00  0.00    -0.493 OA
ATOM     18  C   UNL A   1      38.650  34.418  38.083  1.00  0.00     0.278 C 
ENDBRANCH  11  17
ENDBRANCH   6   7
ENDBRANCH   3   5
ENDBRANCH   2   3
ENDBRANCH   1   2
BRANCH   1  19
ATOM     19  C   UNL A   1      32.906  36.269  29.989  1.00  0.00     0.275 C 
BRANCH  19  20
ATOM     20  O   UNL A   1      32.533  34.900  29.742  1.00  0.00    -0.458 OA
BRANCH  20  21
ATOM     21  C   UNL A   1      33.275  34.271  28.803  1.00  0.00     0.338 C 
ATOM     22  O   UNL A   1      32.997  34.135  27.617  1.00  0.00    -0.246 OA
BRANCH  21  23
ATOM     23  C   UNL A   1      34.567  33.833  29.359  1.00  0.00     0.060 A 
ATOM     24  C   UNL A   1      35.728  34.261  28.709  1.00  0.00     0.016 A 
ATOM     25  C   UNL A   1      34.648  32.938  30.431  1.00  0.00     0.016 A 
ATOM     26  C   UNL A   1      36.971  33.775  29.104  1.00  0.00     0.010 A 
ATOM     27  C   UNL A   1      35.900  32.447  30.827  1.00  0.00     0.010 A 
ATOM     28  C   UNL A   1      37.065  32.842  30.147  1.00  0.00    -0.014 A 
BRANCH  28  29
ATOM     29  C   UNL A   1      38.383  32.228  30.442  1.00  0.00     0.031 A 
ATOM     30  C   UNL A   1      39.298  32.868  31.446  1.00  0.00     0.074 A 
ATOM     31  C   UNL A   1      38.727  31.061  29.867  1.00  0.00     0.049 A 
ATOM     32  N   UNL A   1      40.451  32.449  31.907  1.00  0.00    -0.248 NA
ATOM     33  C   UNL A   1      38.857  34.152  32.012  1.00  0.00     0.031 C 
ATOM     34  C   UNL A   1      37.921  30.334  28.890  1.00  0.00     0.029 A 
ATOM     35  N   UNL A   1      39.841  30.277  30.037  1.00  0.00    -0.354 N 
ATOM     36  C   UNL A   1      40.870  33.412  32.814  1.00  0.00     0.074 A 
ATOM     37  C   UNL A   1      39.867  34.456  32.816  1.00  0.00     0.031 C 
ATOM     38  C   UNL A   1      38.560  29.200  28.556  1.00  0.00     0.029 A 
ATOM     39  C   UNL A   1      39.826  29.131  29.283  1.00  0.00     0.049 A 
ATOM     40  H   UNL A   1      40.580  30.514  30.643  1.00  0.00     0.167 HD
ATOM     41  C   UNL A   1      41.983  33.420  33.586  1.00  0.00     0.037 A 
ATOM     42  C   UNL A   1      40.729  28.137  29.194  1.00  0.00     0.037 A 
ATOM     43  C   UNL A   1      42.982  32.383  33.590  1.00  0.00     0.049 A 
ATOM     44  C   UNL A   1      41.969  28.183  30.045  1.00  0.00     0.074 A 
ATOM     45  C   UNL A   1      44.138  32.298  34.348  1.00  0.00     0.029 A 
ATOM     46  N   UNL A   1      42.943  31.248  32.794  1.00  0.00    -0.354 N 
ATOM     47  N   UNL A   1      42.339  29.080  30.926  1.00  0.00    -0.248 NA
ATOM     48  C   UNL A   1      42.914  27.066  29.896  1.00  0.00     0.031 C 
ATOM     49  C   UNL A   1      44.816  31.129  33.985  1.00  0.00     0.029 A 
ATOM     50  C   UNL A   1      44.063  30.464  33.031  1.00  0.00     0.049 A 
ATOM     51  H   UNL A   1      42.226  31.031  32.156  1.00  0.00     0.167 HD
ATOM     52  C   UNL A   1      43.543  28.628  31.450  1.00  0.00     0.074 A 
ATOM     53  C   UNL A   1      43.832  27.366  30.803  1.00  0.00     0.031 C 
ATOM     54  C   UNL A   1      44.337  29.209  32.382  1.00  0.00     0.037 A 
BRANCH  41  55
ATOM     55  C   UNL A   1      42.187  34.601  34.487  1.00  0.00     0.064 A 
ATOM     56  C   UNL A   1      41.899  34.538  35.858  1.00  0.00     0.173 A 
ATOM     57  C   UNL A   1      42.706  35.802  33.979  1.00  0.00     0.173 A 
ATOM     58  F   UNL A   1      41.390  33.416  36.390  1.00  0.00    -0.203 F 
ATOM     59  C   UNL A   1      42.102  35.640  36.684  1.00  0.00     0.198 A 
ATOM     60  C   UNL A   1      42.930  36.895  34.813  1.00  0.00     0.198 A 
ATOM     61  F   UNL A   1      43.002  35.913  32.675  1.00  0.00    -0.203 F 
ATOM     62  F   UNL A   1      41.782  35.570  37.983  1.00  0.00    -0.200 F 
ATOM     63  C   UNL A   1      42.622  36.816  36.162  1.00  0.00     0.200 A 
ATOM     64  F   UNL A   1      43.441  38.027  34.308  1.00  0.00    -0.200 F 
ATOM     65  F   UNL A   1      42.820  37.874  36.959  1.00  0.00    -0.200 F 
ENDBRANCH  41  55
BRANCH  42  66
ATOM     66  C   UNL A   1      40.486  26.998  28.271  1.00  0.00     0.064 A 
ATOM     67  C   UNL A   1      39.573  25.986  28.597  1.00  0.00     0.173 A 
ATOM     68  C   UNL A   1      41.174  26.892  27.055  1.00  0.00     0.173 A 
ATOM     69  F   UNL A   1      38.911  26.031  29.763  1.00  0.00    -0.203 F 
ATOM     70  C   UNL A   1      39.371  24.901  27.748  1.00  0.00     0.198 A 
ATOM     71  C   UNL A   1      40.953  25.821  26.194  1.00  0.00     0.198 A 
ATOM     72  F   UNL A   1      42.061  27.835  26.700  1.00  0.00    -0.203 F 
ATOM     73  F   UNL A   1      38.526  23.923  28.103  1.00  0.00    -0.200 F 
ATOM     74  C   UNL A   1      40.057  24.821  26.545  1.00  0.00     0.200 A 
ATOM     75  F   UNL A   1      41.612  25.750  25.030  1.00  0.00    -0.200 F 
ATOM     76  F   UNL A   1      39.862  23.777  25.728  1.00  0.00    -0.200 F 
ENDBRANCH  42  66
BRANCH  54  77
ATOM     77  C   UNL A   1      45.582  28.469  32.776  1.00  0.00     0.064 A 
ATOM     78  C   UNL A   1      45.580  27.526  33.814  1.00  0.00     0.173 A 
ATOM     79  C   UNL A   1      46.789  28.694  32.096  1.00  0.00     0.173 A 
ATOM     80  F   UNL A   1      44.455  27.286  34.505  1.00  0.00    -0.203 F 
ATOM     81  C   UNL A   1      46.747  26.859  34.178  1.00  0.00     0.198 A 
ATOM     82  C   UNL A   1      47.947  28.006  32.445  1.00  0.00     0.198 A 
ATOM     83  F   UNL A   1      46.842  29.581  31.091  1.00  0.00    -0.203 F 
ATOM     84  F   UNL A   1      46.733  26.001  35.207  1.00  0.00    -0.200 F 
ATOM     85  C   UNL A   1      47.928  27.096  33.491  1.00  0.00     0.200 A 
ATOM     86  F   UNL A   1      49.085  28.230  31.773  1.00  0.00    -0.200 F 
ATOM     87  F   UNL A   1      49.050  26.455  33.843  1.00  0.00    -0.200 F 
ENDBRANCH  54  77
ENDBRANCH  28  29
ENDBRANCH  21  23
ENDBRANCH  20  21
ENDBRANCH  19  20
ENDBRANCH   1  19
TORSDOF 15
ENDMDL
