MODEL 1
REMARK VINA RESULT:     -12.3      0.000      0.000
REMARK SMILES Cc1nsc(N[C@@H](C)C2CCCC2)c1C(=O)OCCOC(=O)c1ccc(-c2c3nc(c(-c4c(F)c(F)c(F)c(F)c4F)c4ccc([nH]4)c(-c4c(F)c(F)c(F)c(F)c4F)c4nc(c(-c5c(F)c(F)c(F)c(F)c5F)c5ccc2[nH]5)C=C4)C=C3)cc1
REMARK SMILES IDX 18 1 17 2 15 3 16 4 14 5 1 6 2 7 3 8 4 9 5 10 6 11 7 13 8 14
REMARK SMILES IDX 9 15 10 16 13 17 11 18 12 19 19 20 20 21 21 22 22 23 23 24
REMARK SMILES IDX 24 25 85 26 25 27 84 28 26 29 27 30 28 31 78 32 29 33 83 34
REMARK SMILES IDX 77 35 79 36 30 37 82 38 76 39 75 40 31 42 63 43 43 44 62 45
REMARK SMILES IDX 44 46 47 47 61 48 80 49 45 50 46 51 60 53 81 54 48 55 32 56
REMARK SMILES IDX 33 57 41 58 34 59 35 60 39 61 42 62 36 63 37 64 40 65 38 66
REMARK SMILES IDX 64 67 65 68 73 69 66 70 67 71 71 72 74 73 68 74 69 75 72 76
REMARK SMILES IDX 70 77 49 78 50 79 58 80 51 81 52 82 56 83 59 84 53 85 54 86
REMARK SMILES IDX 57 87 55 88
REMARK H PARENT 6 12 79 41 47 52
REMARK Flexibility Score: inf
ROOT
ATOM      1  C   UNL A   1      32.588  29.540  27.414  1.00  0.00     0.275 C 
ENDROOT
BRANCH   1   2
ATOM      2  O   UNL A   1      31.652  29.147  26.398  1.00  0.00    -0.458 OA
BRANCH   2   3
ATOM      3  C   UNL A   1      31.453  27.806  26.239  1.00  0.00     0.343 C 
ATOM      4  O   UNL A   1      31.027  27.077  27.136  1.00  0.00    -0.246 OA
BRANCH   3   5
ATOM      5  C   UNL A   1      31.738  27.330  24.889  1.00  0.00     0.117 A 
ATOM      6  C   UNL A   1      33.803  25.741  25.329  1.00  0.00     0.069 C 
ATOM      7  C   UNL A   1      32.770  26.399  24.478  1.00  0.00     0.068 A 
ATOM      8  N   UNL A   1      32.803  26.103  23.179  1.00  0.00    -0.195 NA
ATOM      9  S   UNL A   1      31.642  26.965  22.397  1.00  0.00    -0.018 S 
ATOM     10  C   UNL A   1      31.023  27.783  23.777  1.00  0.00     0.124 A 
BRANCH  10  11
ATOM     11  N   UNL A   1      30.031  28.723  23.771  1.00  0.00    -0.372 N 
ATOM     12  H   UNL A   1      29.947  29.295  24.569  1.00  0.00     0.161 HD
BRANCH  11  13
ATOM     13  C   UNL A   1      29.087  28.951  22.683  1.00  0.00     0.080 C 
ATOM     14  C   UNL A   1      27.731  28.398  23.125  1.00  0.00     0.031 C 
BRANCH  13  15
ATOM     15  C   UNL A   1      29.088  30.449  22.311  1.00  0.00     0.011 C 
ATOM     16  C   UNL A   1      28.050  30.814  21.245  1.00  0.00     0.006 C 
ATOM     17  C   UNL A   1      28.750  31.441  23.426  1.00  0.00     0.006 C 
ATOM     18  C   UNL A   1      28.027  32.338  21.267  1.00  0.00     0.000 C 
ATOM     19  C   UNL A   1      28.412  32.740  22.691  1.00  0.00     0.000 C 
ENDBRANCH  13  15
ENDBRANCH  11  13
ENDBRANCH  10  11
ENDBRANCH   3   5
ENDBRANCH   2   3
ENDBRANCH   1   2
BRANCH   1  20
ATOM     20  C   UNL A   1      33.042  30.980  27.216  1.00  0.00     0.275 C 
BRANCH  20  21
ATOM     21  O   UNL A   1      34.459  31.077  27.051  1.00  0.00    -0.458 OA
BRANCH  21  22
ATOM     22  C   UNL A   1      35.102  31.792  28.003  1.00  0.00     0.338 C 
ATOM     23  O   UNL A   1      34.910  32.959  28.296  1.00  0.00    -0.246 OA
BRANCH  22  24
ATOM     24  C   UNL A   1      36.226  31.002  28.526  1.00  0.00     0.060 A 
ATOM     25  C   UNL A   1      37.341  31.694  29.001  1.00  0.00     0.016 A 
ATOM     26  C   UNL A   1      36.255  29.611  28.340  1.00  0.00     0.016 A 
ATOM     27  C   UNL A   1      38.526  31.004  29.179  1.00  0.00     0.010 A 
ATOM     28  C   UNL A   1      37.440  28.925  28.510  1.00  0.00     0.010 A 
ATOM     29  C   UNL A   1      38.579  29.637  28.875  1.00  0.00    -0.014 A 
BRANCH  29  30
ATOM     30  C   UNL A   1      39.843  28.947  29.058  1.00  0.00     0.031 A 
ATOM     31  C   UNL A   1      40.198  28.715  30.479  1.00  0.00     0.074 A 
ATOM     32  C   UNL A   1      40.586  28.466  28.043  1.00  0.00     0.049 A 
ATOM     33  N   UNL A   1      41.188  29.219  31.139  1.00  0.00    -0.248 NA
ATOM     34  C   UNL A   1      39.267  27.927  31.300  1.00  0.00     0.031 C 
ATOM     35  C   UNL A   1      40.247  28.352  26.624  1.00  0.00     0.029 A 
ATOM     36  N   UNL A   1      41.816  27.889  28.111  1.00  0.00    -0.354 N 
ATOM     37  C   UNL A   1      41.097  28.698  32.427  1.00  0.00     0.074 A 
ATOM     38  C   UNL A   1      39.830  28.021  32.505  1.00  0.00     0.031 C 
ATOM     39  C   UNL A   1      41.152  27.549  26.015  1.00  0.00     0.029 A 
ATOM     40  C   UNL A   1      42.198  27.210  26.966  1.00  0.00     0.049 A 
ATOM     41  H   UNL A   1      42.388  27.948  28.911  1.00  0.00     0.167 HD
ATOM     42  C   UNL A   1      42.167  28.704  33.269  1.00  0.00     0.037 A 
ATOM     43  C   UNL A   1      43.264  26.378  26.852  1.00  0.00     0.037 A 
ATOM     44  C   UNL A   1      43.174  29.634  32.830  1.00  0.00     0.049 A 
ATOM     45  C   UNL A   1      44.202  26.699  27.960  1.00  0.00     0.074 A 
ATOM     46  C   UNL A   1      43.221  31.004  32.657  1.00  0.00     0.029 A 
ATOM     47  N   UNL A   1      44.259  29.140  32.148  1.00  0.00    -0.354 N 
ATOM     48  N   UNL A   1      44.875  27.813  28.037  1.00  0.00    -0.248 NA
ATOM     49  C   UNL A   1      44.033  25.982  29.216  1.00  0.00     0.031 C 
ATOM     50  C   UNL A   1      44.016  31.201  31.490  1.00  0.00     0.029 A 
ATOM     51  C   UNL A   1      44.446  29.947  31.055  1.00  0.00     0.049 A 
ATOM     52  H   UNL A   1      44.799  28.356  32.396  1.00  0.00     0.167 HD
ATOM     53  C   UNL A   1      44.836  28.155  29.382  1.00  0.00     0.074 A 
ATOM     54  C   UNL A   1      44.371  26.953  30.070  1.00  0.00     0.031 C 
ATOM     55  C   UNL A   1      44.907  29.458  29.780  1.00  0.00     0.037 A 
BRANCH  42  56
ATOM     56  C   UNL A   1      42.462  27.626  34.281  1.00  0.00     0.064 A 
ATOM     57  C   UNL A   1      43.063  26.426  33.849  1.00  0.00     0.173 A 
ATOM     58  C   UNL A   1      41.902  27.595  35.576  1.00  0.00     0.173 A 
ATOM     59  F   UNL A   1      43.617  26.337  32.630  1.00  0.00    -0.203 F 
ATOM     60  C   UNL A   1      43.020  25.261  34.618  1.00  0.00     0.198 A 
ATOM     61  C   UNL A   1      41.911  26.445  36.362  1.00  0.00     0.198 A 
ATOM     62  F   UNL A   1      41.226  28.630  36.086  1.00  0.00    -0.203 F 
ATOM     63  F   UNL A   1      43.483  24.112  34.110  1.00  0.00    -0.200 F 
ATOM     64  C   UNL A   1      42.436  25.270  35.871  1.00  0.00     0.200 A 
ATOM     65  F   UNL A   1      41.324  26.470  37.568  1.00  0.00    -0.200 F 
ATOM     66  F   UNL A   1      42.334  24.141  36.584  1.00  0.00    -0.200 F 
ENDBRANCH  42  56
BRANCH  43  67
ATOM     67  C   UNL A   1      43.351  25.112  26.085  1.00  0.00     0.064 A 
ATOM     68  C   UNL A   1      44.406  24.873  25.189  1.00  0.00     0.173 A 
ATOM     69  C   UNL A   1      42.560  23.999  26.432  1.00  0.00     0.173 A 
ATOM     70  F   UNL A   1      45.238  25.867  24.847  1.00  0.00    -0.203 F 
ATOM     71  C   UNL A   1      44.664  23.593  24.686  1.00  0.00     0.198 A 
ATOM     72  C   UNL A   1      42.815  22.725  25.926  1.00  0.00     0.198 A 
ATOM     73  F   UNL A   1      41.585  24.106  27.345  1.00  0.00    -0.203 F 
ATOM     74  F   UNL A   1      45.716  23.391  23.879  1.00  0.00    -0.200 F 
ATOM     75  C   UNL A   1      43.875  22.518  25.062  1.00  0.00     0.200 A 
ATOM     76  F   UNL A   1      42.069  21.687  26.331  1.00  0.00    -0.200 F 
ATOM     77  F   UNL A   1      44.160  21.282  24.631  1.00  0.00    -0.200 F 
ENDBRANCH  43  67
BRANCH  55  78
ATOM     78  C   UNL A   1      45.266  30.485  28.746  1.00  0.00     0.064 A 
ATOM     79  C   UNL A   1      44.331  31.101  27.895  1.00  0.00     0.173 A 
ATOM     80  C   UNL A   1      46.581  30.963  28.710  1.00  0.00     0.173 A 
ATOM     81  F   UNL A   1      43.033  30.773  27.944  1.00  0.00    -0.203 F 
ATOM     82  C   UNL A   1      44.710  32.114  27.015  1.00  0.00     0.198 A 
ATOM     83  C   UNL A   1      46.950  31.999  27.857  1.00  0.00     0.198 A 
ATOM     84  F   UNL A   1      47.505  30.453  29.541  1.00  0.00    -0.203 F 
ATOM     85  F   UNL A   1      43.801  32.675  26.204  1.00  0.00    -0.200 F 
ATOM     86  C   UNL A   1      46.019  32.565  27.002  1.00  0.00     0.200 A 
ATOM     87  F   UNL A   1      48.207  32.467  27.883  1.00  0.00    -0.200 F 
ATOM     88  F   UNL A   1      46.377  33.565  26.184  1.00  0.00    -0.200 F 
ENDBRANCH  55  78
ENDBRANCH  29  30
ENDBRANCH  22  24
ENDBRANCH  21  22
ENDBRANCH  20  21
ENDBRANCH   1  20
TORSDOF 14
ENDMDL
MODEL 2
REMARK VINA RESULT:     -12.0      4.060      9.226
REMARK SMILES Cc1nsc(N[C@@H](C)C2CCCC2)c1C(=O)OCCOC(=O)c1ccc(-c2c3nc(c(-c4c(F)c(F)c(F)c(F)c4F)c4ccc([nH]4)c(-c4c(F)c(F)c(F)c(F)c4F)c4nc(c(-c5c(F)c(F)c(F)c(F)c5F)c5ccc2[nH]5)C=C4)C=C3)cc1
REMARK SMILES IDX 18 1 17 2 15 3 16 4 14 5 1 6 2 7 3 8 4 9 5 10 6 11 7 13 8 14
REMARK SMILES IDX 9 15 10 16 13 17 11 18 12 19 19 20 20 21 21 22 22 23 23 24
REMARK SMILES IDX 24 25 85 26 25 27 84 28 26 29 27 30 28 31 78 32 29 33 83 34
REMARK SMILES IDX 77 35 79 36 30 37 82 38 76 39 75 40 31 42 63 43 43 44 62 45
REMARK SMILES IDX 44 46 47 47 61 48 80 49 45 50 46 51 60 53 81 54 48 55 32 56
REMARK SMILES IDX 33 57 41 58 34 59 35 60 39 61 42 62 36 63 37 64 40 65 38 66
REMARK SMILES IDX 64 67 65 68 73 69 66 70 67 71 71 72 74 73 68 74 69 75 72 76
REMARK SMILES IDX 70 77 49 78 50 79 58 80 51 81 52 82 56 83 59 84 53 85 54 86
REMARK SMILES IDX 57 87 55 88
REMARK H PARENT 6 12 79 41 47 52
REMARK Flexibility Score: inf
ROOT
ATOM      1  C   UNL A   1      36.801  21.368  24.336  1.00  0.00     0.275 C 
ENDROOT
BRANCH   1   2
ATOM      2  O   UNL A   1      35.968  22.432  24.825  1.00  0.00    -0.458 OA
BRANCH   2   3
ATOM      3  C   UNL A   1      35.216  23.091  23.897  1.00  0.00     0.343 C 
ATOM      4  O   UNL A   1      35.608  23.324  22.753  1.00  0.00    -0.246 OA
BRANCH   3   5
ATOM      5  C   UNL A   1      33.880  23.442  24.371  1.00  0.00     0.117 A 
ATOM      6  C   UNL A   1      34.029  26.080  24.420  1.00  0.00     0.069 C 
ATOM      7  C   UNL A   1      33.339  24.768  24.591  1.00  0.00     0.068 A 
ATOM      8  N   UNL A   1      32.073  24.819  25.003  1.00  0.00    -0.195 NA
ATOM      9  S   UNL A   1      31.504  23.290  25.195  1.00  0.00    -0.018 S 
ATOM     10  C   UNL A   1      32.939  22.470  24.722  1.00  0.00     0.124 A 
BRANCH  10  11
ATOM     11  N   UNL A   1      33.124  21.116  24.720  1.00  0.00    -0.372 N 
ATOM     12  H   UNL A   1      33.884  20.764  25.239  1.00  0.00     0.161 HD
BRANCH  11  13
ATOM     13  C   UNL A   1      32.291  20.149  24.016  1.00  0.00     0.080 C 
ATOM     14  C   UNL A   1      32.153  20.626  22.568  1.00  0.00     0.031 C 
BRANCH  13  15
ATOM     15  C   UNL A   1      32.894  18.737  24.180  1.00  0.00     0.011 C 
ATOM     16  C   UNL A   1      32.917  17.928  22.880  1.00  0.00     0.006 C 
ATOM     17  C   UNL A   1      34.357  18.655  24.622  1.00  0.00     0.006 C 
ATOM     18  C   UNL A   1      33.806  16.735  23.210  1.00  0.00     0.000 C 
ATOM     19  C   UNL A   1      34.778  17.224  24.284  1.00  0.00     0.000 C 
ENDBRANCH  13  15
ENDBRANCH  11  13
ENDBRANCH  10  11
ENDBRANCH   3   5
ENDBRANCH   2   3
ENDBRANCH   1   2
BRANCH   1  20
ATOM     20  C   UNL A   1      38.010  21.157  25.236  1.00  0.00     0.275 C 
BRANCH  20  21
ATOM     21  O   UNL A   1      38.536  22.393  25.725  1.00  0.00    -0.458 OA
BRANCH  21  22
ATOM     22  C   UNL A   1      39.705  22.296  26.398  1.00  0.00     0.338 C 
ATOM     23  O   UNL A   1      40.448  21.331  26.438  1.00  0.00    -0.246 OA
BRANCH  22  24
ATOM     24  C   UNL A   1      39.873  23.480  27.253  1.00  0.00     0.060 A 
ATOM     25  C   UNL A   1      38.905  24.483  27.172  1.00  0.00     0.016 A 
ATOM     26  C   UNL A   1      41.076  23.682  27.948  1.00  0.00     0.016 A 
ATOM     27  C   UNL A   1      39.197  25.732  27.690  1.00  0.00     0.010 A 
ATOM     28  C   UNL A   1      41.369  24.930  28.457  1.00  0.00     0.010 A 
ATOM     29  C   UNL A   1      40.450  25.959  28.275  1.00  0.00    -0.014 A 
BRANCH  29  30
ATOM     30  C   UNL A   1      40.727  27.285  28.794  1.00  0.00     0.031 A 
ATOM     31  C   UNL A   1      41.939  27.915  28.213  1.00  0.00     0.074 A 
ATOM     32  C   UNL A   1      39.916  27.940  29.646  1.00  0.00     0.049 A 
ATOM     33  N   UNL A   1      43.039  28.220  28.819  1.00  0.00    -0.248 NA
ATOM     34  C   UNL A   1      41.979  28.112  26.757  1.00  0.00     0.031 C 
ATOM     35  C   UNL A   1      38.563  27.593  30.083  1.00  0.00     0.029 A 
ATOM     36  N   UNL A   1      40.134  29.139  30.251  1.00  0.00    -0.354 N 
ATOM     37  C   UNL A   1      43.867  28.786  27.854  1.00  0.00     0.074 A 
ATOM     38  C   UNL A   1      43.219  28.573  26.586  1.00  0.00     0.031 C 
ATOM     39  C   UNL A   1      38.008  28.664  30.700  1.00  0.00     0.029 A 
ATOM     40  C   UNL A   1      39.008  29.712  30.820  1.00  0.00     0.049 A 
ATOM     41  H   UNL A   1      41.021  29.566  30.281  1.00  0.00     0.167 HD
ATOM     42  C   UNL A   1      44.931  29.560  28.201  1.00  0.00     0.037 A 
ATOM     43  C   UNL A   1      38.910  30.982  31.285  1.00  0.00     0.037 A 
ATOM     44  C   UNL A   1      45.298  29.359  29.579  1.00  0.00     0.049 A 
ATOM     45  C   UNL A   1      40.290  31.474  31.539  1.00  0.00     0.074 A 
ATOM     46  C   UNL A   1      45.757  28.284  30.315  1.00  0.00     0.029 A 
ATOM     47  N   UNL A   1      44.874  30.282  30.502  1.00  0.00    -0.354 N 
ATOM     48  N   UNL A   1      41.058  31.014  32.487  1.00  0.00    -0.248 NA
ATOM     49  C   UNL A   1      40.980  32.143  30.445  1.00  0.00     0.031 C 
ATOM     50  C   UNL A   1      45.126  28.412  31.587  1.00  0.00     0.029 A 
ATOM     51  C   UNL A   1      44.365  29.581  31.565  1.00  0.00     0.049 A 
ATOM     52  H   UNL A   1      44.925  31.262  30.417  1.00  0.00     0.167 HD
ATOM     53  C   UNL A   1      42.320  30.945  31.916  1.00  0.00     0.074 A 
ATOM     54  C   UNL A   1      42.226  31.723  30.683  1.00  0.00     0.031 C 
ATOM     55  C   UNL A   1      43.238  30.030  32.344  1.00  0.00     0.037 A 
BRANCH  42  56
ATOM     56  C   UNL A   1      45.416  30.749  27.410  1.00  0.00     0.064 A 
ATOM     57  C   UNL A   1      46.787  30.849  27.096  1.00  0.00     0.173 A 
ATOM     58  C   UNL A   1      44.660  31.926  27.226  1.00  0.00     0.173 A 
ATOM     59  F   UNL A   1      47.603  29.794  27.244  1.00  0.00    -0.203 F 
ATOM     60  C   UNL A   1      47.370  32.061  26.718  1.00  0.00     0.198 A 
ATOM     61  C   UNL A   1      45.237  33.120  26.797  1.00  0.00     0.198 A 
ATOM     62  F   UNL A   1      43.369  32.006  27.563  1.00  0.00    -0.203 F 
ATOM     63  F   UNL A   1      48.697  32.140  26.562  1.00  0.00    -0.200 F 
ATOM     64  C   UNL A   1      46.595  33.197  26.577  1.00  0.00     0.200 A 
ATOM     65  F   UNL A   1      44.471  34.214  26.682  1.00  0.00    -0.200 F 
ATOM     66  F   UNL A   1      47.160  34.375  26.281  1.00  0.00    -0.200 F 
ENDBRANCH  42  56
BRANCH  43  67
ATOM     67  C   UNL A   1      37.751  31.901  31.180  1.00  0.00     0.064 A 
ATOM     68  C   UNL A   1      37.364  32.448  29.946  1.00  0.00     0.173 A 
ATOM     69  C   UNL A   1      36.830  32.031  32.238  1.00  0.00     0.173 A 
ATOM     70  F   UNL A   1      38.160  32.323  28.873  1.00  0.00    -0.203 F 
ATOM     71  C   UNL A   1      36.122  33.070  29.776  1.00  0.00     0.198 A 
ATOM     72  C   UNL A   1      35.595  32.655  32.070  1.00  0.00     0.198 A 
ATOM     73  F   UNL A   1      37.069  31.467  33.430  1.00  0.00    -0.203 F 
ATOM     74  F   UNL A   1      35.761  33.528  28.569  1.00  0.00    -0.200 F 
ATOM     75  C   UNL A   1      35.234  33.165  30.836  1.00  0.00     0.200 A 
ATOM     76  F   UNL A   1      34.730  32.703  33.093  1.00  0.00    -0.200 F 
ATOM     77  F   UNL A   1      34.020  33.703  30.660  1.00  0.00    -0.200 F 
ENDBRANCH  43  67
BRANCH  55  78
ATOM     78  C   UNL A   1      42.930  29.267  33.600  1.00  0.00     0.064 A 
ATOM     79  C   UNL A   1      42.138  28.107  33.638  1.00  0.00     0.173 A 
ATOM     80  C   UNL A   1      43.575  29.647  34.783  1.00  0.00     0.173 A 
ATOM     81  F   UNL A   1      41.573  27.620  32.526  1.00  0.00    -0.203 F 
ATOM     82  C   UNL A   1      41.960  27.391  34.821  1.00  0.00     0.198 A 
ATOM     83  C   UNL A   1      43.425  28.910  35.955  1.00  0.00     0.198 A 
ATOM     84  F   UNL A   1      44.391  30.713  34.793  1.00  0.00    -0.203 F 
ATOM     85  F   UNL A   1      41.187  26.295  34.834  1.00  0.00    -0.200 F 
ATOM     86  C   UNL A   1      42.610  27.791  35.977  1.00  0.00     0.200 A 
ATOM     87  F   UNL A   1      44.096  29.272  37.058  1.00  0.00    -0.200 F 
ATOM     88  F   UNL A   1      42.471  27.081  37.105  1.00  0.00    -0.200 F 
ENDBRANCH  55  78
ENDBRANCH  29  30
ENDBRANCH  22  24
ENDBRANCH  21  22
ENDBRANCH  20  21
ENDBRANCH   1  20
TORSDOF 14
ENDMDL
MODEL 3
REMARK VINA RESULT:     -11.9      4.241      9.520
REMARK SMILES Cc1nsc(N[C@@H](C)C2CCCC2)c1C(=O)OCCOC(=O)c1ccc(-c2c3nc(c(-c4c(F)c(F)c(F)c(F)c4F)c4ccc([nH]4)c(-c4c(F)c(F)c(F)c(F)c4F)c4nc(c(-c5c(F)c(F)c(F)c(F)c5F)c5ccc2[nH]5)C=C4)C=C3)cc1
REMARK SMILES IDX 18 1 17 2 15 3 16 4 14 5 1 6 2 7 3 8 4 9 5 10 6 11 7 13 8 14
REMARK SMILES IDX 9 15 10 16 13 17 11 18 12 19 19 20 20 21 21 22 22 23 23 24
REMARK SMILES IDX 24 25 85 26 25 27 84 28 26 29 27 30 28 31 78 32 29 33 83 34
REMARK SMILES IDX 77 35 79 36 30 37 82 38 76 39 75 40 31 42 63 43 43 44 62 45
REMARK SMILES IDX 44 46 47 47 61 48 80 49 45 50 46 51 60 53 81 54 48 55 32 56
REMARK SMILES IDX 33 57 41 58 34 59 35 60 39 61 42 62 36 63 37 64 40 65 38 66
REMARK SMILES IDX 64 67 65 68 73 69 66 70 67 71 71 72 74 73 68 74 69 75 72 76
REMARK SMILES IDX 70 77 49 78 50 79 58 80 51 81 52 82 56 83 59 84 53 85 54 86
REMARK SMILES IDX 57 87 55 88
REMARK H PARENT 6 12 79 41 47 52
REMARK Flexibility Score: inf
ROOT
ATOM      1  C   UNL A   1      37.069  22.536  25.397  1.00  0.00     0.275 C 
ENDROOT
BRANCH   1   2
ATOM      2  O   UNL A   1      36.062  21.867  24.620  1.00  0.00    -0.458 OA
BRANCH   2   3
ATOM      3  C   UNL A   1      35.124  22.662  24.029  1.00  0.00     0.343 C 
ATOM      4  O   UNL A   1      35.189  23.022  22.852  1.00  0.00    -0.246 OA
BRANCH   3   5
ATOM      5  C   UNL A   1      34.006  22.997  24.906  1.00  0.00     0.117 A 
ATOM      6  C   UNL A   1      34.034  25.637  24.790  1.00  0.00     0.069 C 
ATOM      7  C   UNL A   1      33.504  24.316  25.236  1.00  0.00     0.068 A 
ATOM      8  N   UNL A   1      32.445  24.350  26.045  1.00  0.00    -0.195 NA
ATOM      9  S   UNL A   1      32.047  22.817  26.481  1.00  0.00    -0.018 S 
ATOM     10  C   UNL A   1      33.283  22.017  25.592  1.00  0.00     0.124 A 
BRANCH  10  11
ATOM     11  N   UNL A   1      33.522  20.672  25.587  1.00  0.00    -0.372 N 
ATOM     12  H   UNL A   1      34.342  20.358  26.032  1.00  0.00     0.161 HD
BRANCH  11  13
ATOM     13  C   UNL A   1      32.664  19.662  24.978  1.00  0.00     0.080 C 
ATOM     14  C   UNL A   1      32.479  20.040  23.507  1.00  0.00     0.031 C 
BRANCH  13  15
ATOM     15  C   UNL A   1      33.270  18.263  25.218  1.00  0.00     0.011 C 
ATOM     16  C   UNL A   1      32.264  17.122  25.041  1.00  0.00     0.006 C 
ATOM     17  C   UNL A   1      34.401  17.827  24.284  1.00  0.00     0.006 C 
ATOM     18  C   UNL A   1      33.133  15.870  25.024  1.00  0.00     0.000 C 
ATOM     19  C   UNL A   1      34.488  16.312  24.472  1.00  0.00     0.000 C 
ENDBRANCH  13  15
ENDBRANCH  11  13
ENDBRANCH  10  11
ENDBRANCH   3   5
ENDBRANCH   2   3
ENDBRANCH   1   2
BRANCH   1  20
ATOM     20  C   UNL A   1      38.213  21.592  25.742  1.00  0.00     0.275 C 
BRANCH  20  21
ATOM     21  O   UNL A   1      39.483  22.246  25.682  1.00  0.00    -0.458 OA
BRANCH  21  22
ATOM     22  C   UNL A   1      40.145  22.327  26.859  1.00  0.00     0.338 C 
ATOM     23  O   UNL A   1      40.337  21.424  27.654  1.00  0.00    -0.246 OA
BRANCH  22  24
ATOM     24  C   UNL A   1      40.449  23.736  27.148  1.00  0.00     0.060 A 
ATOM     25  C   UNL A   1      41.532  24.009  27.986  1.00  0.00     0.016 A 
ATOM     26  C   UNL A   1      39.545  24.742  26.774  1.00  0.00     0.016 A 
ATOM     27  C   UNL A   1      41.639  25.270  28.544  1.00  0.00     0.010 A 
ATOM     28  C   UNL A   1      39.648  25.997  27.338  1.00  0.00     0.010 A 
ATOM     29  C   UNL A   1      40.663  26.234  28.261  1.00  0.00    -0.014 A 
BRANCH  29  30
ATOM     30  C   UNL A   1      40.798  27.541  28.876  1.00  0.00     0.031 A 
ATOM     31  C   UNL A   1      41.919  28.347  28.330  1.00  0.00     0.074 A 
ATOM     32  C   UNL A   1      39.935  28.034  29.784  1.00  0.00     0.049 A 
ATOM     33  N   UNL A   1      42.989  28.730  28.945  1.00  0.00    -0.248 NA
ATOM     34  C   UNL A   1      41.907  28.655  26.893  1.00  0.00     0.031 C 
ATOM     35  C   UNL A   1      38.640  27.502  30.209  1.00  0.00     0.029 A 
ATOM     36  N   UNL A   1      40.028  29.201  30.476  1.00  0.00    -0.354 N 
ATOM     37  C   UNL A   1      43.727  29.458  28.016  1.00  0.00     0.074 A 
ATOM     38  C   UNL A   1      43.082  29.267  26.743  1.00  0.00     0.031 C 
ATOM     39  C   UNL A   1      37.979  28.454  30.912  1.00  0.00     0.029 A 
ATOM     40  C   UNL A   1      38.856  29.597  31.099  1.00  0.00     0.049 A 
ATOM     41  H   UNL A   1      40.861  29.724  30.528  1.00  0.00     0.167 HD
ATOM     42  C   UNL A   1      44.703  30.321  28.408  1.00  0.00     0.037 A 
ATOM     43  C   UNL A   1      38.623  30.810  31.661  1.00  0.00     0.037 A 
ATOM     44  C   UNL A   1      45.119  30.062  29.763  1.00  0.00     0.049 A 
ATOM     45  C   UNL A   1      39.943  31.436  31.936  1.00  0.00     0.074 A 
ATOM     46  C   UNL A   1      45.711  28.995  30.409  1.00  0.00     0.029 A 
ATOM     47  N   UNL A   1      44.611  30.860  30.759  1.00  0.00    -0.354 N 
ATOM     48  N   UNL A   1      40.777  30.999  32.837  1.00  0.00    -0.248 NA
ATOM     49  C   UNL A   1      40.531  32.260  30.888  1.00  0.00     0.031 C 
ATOM     50  C   UNL A   1      45.096  28.955  31.695  1.00  0.00     0.029 A 
ATOM     51  C   UNL A   1      44.207  30.028  31.771  1.00  0.00     0.049 A 
ATOM     52  H   UNL A   1      44.549  31.842  30.748  1.00  0.00     0.167 HD
ATOM     53  C   UNL A   1      42.027  31.118  32.247  1.00  0.00     0.074 A 
ATOM     54  C   UNL A   1      41.821  31.970  31.078  1.00  0.00     0.031 C 
ATOM     55  C   UNL A   1      43.052  30.285  32.594  1.00  0.00     0.037 A 
BRANCH  42  56
ATOM     56  C   UNL A   1      45.034  31.613  27.705  1.00  0.00     0.064 A 
ATOM     57  C   UNL A   1      46.271  31.733  27.038  1.00  0.00     0.173 A 
ATOM     58  C   UNL A   1      44.339  32.822  27.923  1.00  0.00     0.173 A 
ATOM     59  F   UNL A   1      47.022  30.649  26.788  1.00  0.00    -0.203 F 
ATOM     60  C   UNL A   1      46.810  32.976  26.701  1.00  0.00     0.198 A 
ATOM     61  C   UNL A   1      44.857  34.056  27.536  1.00  0.00     0.198 A 
ATOM     62  F   UNL A   1      43.198  32.874  28.616  1.00  0.00    -0.203 F 
ATOM     63  F   UNL A   1      48.046  33.049  26.193  1.00  0.00    -0.200 F 
ATOM     64  C   UNL A   1      46.106  34.138  26.959  1.00  0.00     0.200 A 
ATOM     65  F   UNL A   1      44.166  35.172  27.810  1.00  0.00    -0.200 F 
ATOM     66  F   UNL A   1      46.647  35.335  26.700  1.00  0.00    -0.200 F 
ENDBRANCH  42  56
BRANCH  43  67
ATOM     67  C   UNL A   1      37.366  31.595  31.639  1.00  0.00     0.064 A 
ATOM     68  C   UNL A   1      36.686  31.917  32.825  1.00  0.00     0.173 A 
ATOM     69  C   UNL A   1      36.964  32.288  30.480  1.00  0.00     0.173 A 
ATOM     70  F   UNL A   1      37.042  31.341  33.983  1.00  0.00    -0.203 F 
ATOM     71  C   UNL A   1      35.678  32.887  32.853  1.00  0.00     0.198 A 
ATOM     72  C   UNL A   1      35.956  33.252  30.507  1.00  0.00     0.198 A 
ATOM     73  F   UNL A   1      37.608  32.116  29.318  1.00  0.00    -0.203 F 
ATOM     74  F   UNL A   1      35.092  33.211  34.015  1.00  0.00    -0.200 F 
ATOM     75  C   UNL A   1      35.320  33.561  31.696  1.00  0.00     0.200 A 
ATOM     76  F   UNL A   1      35.649  33.924  29.389  1.00  0.00    -0.200 F 
ATOM     77  F   UNL A   1      34.400  34.534  31.733  1.00  0.00    -0.200 F 
ENDBRANCH  43  67
BRANCH  55  78
ATOM     78  C   UNL A   1      42.858  29.401  33.792  1.00  0.00     0.064 A 
ATOM     79  C   UNL A   1      42.245  28.137  33.743  1.00  0.00     0.173 A 
ATOM     80  C   UNL A   1      43.439  29.789  35.006  1.00  0.00     0.173 A 
ATOM     81  F   UNL A   1      41.759  27.651  32.594  1.00  0.00    -0.203 F 
ATOM     82  C   UNL A   1      42.173  27.323  34.872  1.00  0.00     0.198 A 
ATOM     83  C   UNL A   1      43.398  28.959  36.123  1.00  0.00     0.198 A 
ATOM     84  F   UNL A   1      44.089  30.960  35.097  1.00  0.00    -0.203 F 
ATOM     85  F   UNL A   1      41.569  26.128  34.803  1.00  0.00    -0.200 F 
ATOM     86  C   UNL A   1      42.756  27.734  36.060  1.00  0.00     0.200 A 
ATOM     87  F   UNL A   1      44.007  29.338  37.255  1.00  0.00    -0.200 F 
ATOM     88  F   UNL A   1      42.722  26.936  37.136  1.00  0.00    -0.200 F 
ENDBRANCH  55  78
ENDBRANCH  29  30
ENDBRANCH  22  24
ENDBRANCH  21  22
ENDBRANCH  20  21
ENDBRANCH   1  20
TORSDOF 14
ENDMDL
