MODEL 1
REMARK VINA RESULT:     -12.4      0.000      0.000
REMARK SMILES C[C@H](Nc1ccc2c(c1)Cc1ccccc1-2)[C@@H](C)C(=O)OCCOC(=O)c1ccc(-c2c3nc(c(-c4c(F)c(F)c(F)c(F)c4F)c4ccc([nH]4)c(-c4c(F)c(F)c(F)c(F)c4F)c4nc(c(-c5c(F)c(F)c(F)c(F)c5F)c5ccc2[nH]5)C=C4)C=C3)cc1
REMARK SMILES IDX 22 1 21 2 19 3 20 4 17 5 18 6 2 7 1 8 3 9 4 11 5 12 9 13
REMARK SMILES IDX 6 14 8 15 7 16 10 17 16 18 11 19 15 20 12 21 14 22 13 23
REMARK SMILES IDX 23 24 24 25 25 26 26 27 27 28 28 29 89 30 29 31 88 32 30 33
REMARK SMILES IDX 31 34 32 35 82 36 33 37 87 38 81 39 83 40 34 41 86 42 80 43
REMARK SMILES IDX 79 44 35 46 67 47 47 48 66 49 48 50 51 51 65 52 84 53 49 54
REMARK SMILES IDX 50 55 64 57 85 58 52 59 36 60 37 61 45 62 38 63 39 64 43 65
REMARK SMILES IDX 46 66 40 67 41 68 44 69 42 70 68 71 69 72 77 73 70 74 71 75
REMARK SMILES IDX 75 76 78 77 72 78 73 79 76 80 74 81 53 82 54 83 62 84 55 85
REMARK SMILES IDX 56 86 60 87 63 88 57 89 58 90 61 91 59 92
REMARK H PARENT 3 10 83 45 51 56
REMARK Flexibility Score: inf
ROOT
ATOM      1  C   UNL A   1      31.027  29.554  24.569  1.00  0.00     0.274 C 
ENDROOT
BRANCH   1   2
ATOM      2  O   UNL A   1      31.214  28.372  23.760  1.00  0.00    -0.462 OA
BRANCH   2   3
ATOM      3  C   UNL A   1      30.211  28.112  22.881  1.00  0.00     0.310 C 
ATOM      4  O   UNL A   1      29.875  28.863  21.969  1.00  0.00    -0.252 OA
BRANCH   3   5
ATOM      5  C   UNL A   1      29.478  26.810  23.148  1.00  0.00     0.118 C 
ATOM      6  C   UNL A   1      28.186  27.193  23.876  1.00  0.00     0.022 C 
BRANCH   5   7
ATOM      7  C   UNL A   1      30.290  25.695  23.869  1.00  0.00     0.090 C 
ATOM      8  C   UNL A   1      30.309  25.890  25.390  1.00  0.00     0.031 C 
BRANCH   7   9
ATOM      9  N   UNL A   1      31.644  25.654  23.277  1.00  0.00    -0.382 N 
ATOM     10  H   UNL A   1      31.703  25.973  22.347  1.00  0.00     0.160 HD
BRANCH   9  11
ATOM     11  C   UNL A   1      32.839  25.236  23.828  1.00  0.00     0.035 A 
ATOM     12  C   UNL A   1      33.550  25.992  24.778  1.00  0.00     0.026 A 
ATOM     13  C   UNL A   1      33.368  23.994  23.439  1.00  0.00     0.030 A 
ATOM     14  C   UNL A   1      34.768  25.560  25.324  1.00  0.00     0.011 A 
ATOM     15  C   UNL A   1      34.565  23.555  23.992  1.00  0.00    -0.034 A 
ATOM     16  C   UNL A   1      35.272  24.337  24.925  1.00  0.00    -0.014 A 
ATOM     17  C   UNL A   1      35.292  22.247  23.749  1.00  0.00     0.072 C 
ATOM     18  C   UNL A   1      36.464  23.624  25.329  1.00  0.00    -0.015 A 
ATOM     19  C   UNL A   1      36.497  22.382  24.659  1.00  0.00    -0.036 A 
ATOM     20  C   UNL A   1      37.475  23.974  26.209  1.00  0.00     0.009 A 
ATOM     21  C   UNL A   1      37.522  21.473  24.868  1.00  0.00     0.005 A 
ATOM     22  C   UNL A   1      38.517  23.064  26.421  1.00  0.00     0.001 A 
ATOM     23  C   UNL A   1      38.537  21.825  25.761  1.00  0.00     0.000 A 
ENDBRANCH   9  11
ENDBRANCH   7   9
ENDBRANCH   5   7
ENDBRANCH   3   5
ENDBRANCH   2   3
ENDBRANCH   1   2
BRANCH   1  24
ATOM     24  C   UNL A   1      31.724  29.398  25.924  1.00  0.00     0.275 C 
BRANCH  24  25
ATOM     25  O   UNL A   1      32.970  30.115  25.909  1.00  0.00    -0.458 OA
BRANCH  25  26
ATOM     26  C   UNL A   1      33.129  31.047  26.877  1.00  0.00     0.338 C 
ATOM     27  O   UNL A   1      32.354  31.943  27.161  1.00  0.00    -0.246 OA
BRANCH  26  28
ATOM     28  C   UNL A   1      34.430  30.842  27.553  1.00  0.00     0.060 A 
ATOM     29  C   UNL A   1      35.318  31.900  27.772  1.00  0.00     0.016 A 
ATOM     30  C   UNL A   1      34.782  29.550  27.950  1.00  0.00     0.016 A 
ATOM     31  C   UNL A   1      36.551  31.675  28.382  1.00  0.00     0.010 A 
ATOM     32  C   UNL A   1      35.990  29.333  28.615  1.00  0.00     0.010 A 
ATOM     33  C   UNL A   1      36.884  30.395  28.841  1.00  0.00    -0.014 A 
BRANCH  33  34
ATOM     34  C   UNL A   1      38.139  30.149  29.595  1.00  0.00     0.031 A 
ATOM     35  C   UNL A   1      39.185  29.225  29.043  1.00  0.00     0.074 A 
ATOM     36  C   UNL A   1      38.303  30.702  30.811  1.00  0.00     0.049 A 
ATOM     37  N   UNL A   1      40.229  28.706  29.637  1.00  0.00    -0.248 NA
ATOM     38  C   UNL A   1      39.028  28.824  27.637  1.00  0.00     0.031 C 
ATOM     39  C   UNL A   1      37.376  31.640  31.447  1.00  0.00     0.029 A 
ATOM     40  N   UNL A   1      39.298  30.536  31.743  1.00  0.00    -0.354 N 
ATOM     41  C   UNL A   1      40.834  27.890  28.692  1.00  0.00     0.074 A 
ATOM     42  C   UNL A   1      40.037  27.976  27.485  1.00  0.00     0.031 C 
ATOM     43  C   UNL A   1      37.841  31.962  32.663  1.00  0.00     0.029 A 
ATOM     44  C   UNL A   1      39.060  31.201  32.921  1.00  0.00     0.049 A 
ATOM     45  H   UNL A   1      40.104  29.993  31.583  1.00  0.00     0.167 HD
ATOM     46  C   UNL A   1      41.951  27.136  28.825  1.00  0.00     0.037 A 
ATOM     47  C   UNL A   1      39.718  31.164  34.094  1.00  0.00     0.037 A 
ATOM     48  C   UNL A   1      42.755  27.076  30.020  1.00  0.00     0.049 A 
ATOM     49  C   UNL A   1      40.920  30.276  34.234  1.00  0.00     0.074 A 
ATOM     50  C   UNL A   1      43.926  26.372  30.240  1.00  0.00     0.029 A 
ATOM     51  N   UNL A   1      42.466  27.750  31.198  1.00  0.00    -0.354 N 
ATOM     52  N   UNL A   1      41.479  29.493  33.344  1.00  0.00    -0.248 NA
ATOM     53  C   UNL A   1      41.577  30.253  35.549  1.00  0.00     0.031 C 
ATOM     54  C   UNL A   1      44.326  26.588  31.564  1.00  0.00     0.029 A 
ATOM     55  C   UNL A   1      43.425  27.459  32.156  1.00  0.00     0.049 A 
ATOM     56  H   UNL A   1      41.695  28.346  31.333  1.00  0.00     0.167 HD
ATOM     57  C   UNL A   1      42.552  28.892  33.984  1.00  0.00     0.074 A 
ATOM     58  C   UNL A   1      42.581  29.416  35.334  1.00  0.00     0.031 C 
ATOM     59  C   UNL A   1      43.432  27.983  33.497  1.00  0.00     0.037 A 
BRANCH  46  60
ATOM     60  C   UNL A   1      42.363  26.289  27.657  1.00  0.00     0.064 A 
ATOM     61  C   UNL A   1      43.312  26.729  26.724  1.00  0.00     0.173 A 
ATOM     62  C   UNL A   1      41.831  25.001  27.497  1.00  0.00     0.173 A 
ATOM     63  F   UNL A   1      43.844  27.956  26.829  1.00  0.00    -0.203 F 
ATOM     64  C   UNL A   1      43.701  25.916  25.661  1.00  0.00     0.198 A 
ATOM     65  C   UNL A   1      42.239  24.182  26.448  1.00  0.00     0.198 A 
ATOM     66  F   UNL A   1      40.924  24.530  28.366  1.00  0.00    -0.203 F 
ATOM     67  F   UNL A   1      44.585  26.369  24.761  1.00  0.00    -0.200 F 
ATOM     68  C   UNL A   1      43.169  24.642  25.528  1.00  0.00     0.200 A 
ATOM     69  F   UNL A   1      41.734  22.945  26.328  1.00  0.00    -0.200 F 
ATOM     70  F   UNL A   1      43.552  23.858  24.510  1.00  0.00    -0.200 F 
ENDBRANCH  46  60
BRANCH  47  71
ATOM     71  C   UNL A   1      39.222  31.967  35.242  1.00  0.00     0.064 A 
ATOM     72  C   UNL A   1      38.454  31.376  36.253  1.00  0.00     0.173 A 
ATOM     73  C   UNL A   1      39.515  33.334  35.355  1.00  0.00     0.173 A 
ATOM     74  F   UNL A   1      38.126  30.078  36.173  1.00  0.00    -0.203 F 
ATOM     75  C   UNL A   1      37.993  32.124  37.334  1.00  0.00     0.198 A 
ATOM     76  C   UNL A   1      39.076  34.075  36.449  1.00  0.00     0.198 A 
ATOM     77  F   UNL A   1      40.244  33.945  34.410  1.00  0.00    -0.203 F 
ATOM     78  F   UNL A   1      37.232  31.544  38.271  1.00  0.00    -0.200 F 
ATOM     79  C   UNL A   1      38.311  33.471  37.436  1.00  0.00     0.200 A 
ATOM     80  F   UNL A   1      39.396  35.373  36.549  1.00  0.00    -0.200 F 
ATOM     81  F   UNL A   1      37.876  34.188  38.480  1.00  0.00    -0.200 F 
ENDBRANCH  47  71
BRANCH  59  82
ATOM     82  C   UNL A   1      44.506  27.510  34.431  1.00  0.00     0.064 A 
ATOM     83  C   UNL A   1      44.338  26.359  35.214  1.00  0.00     0.173 A 
ATOM     84  C   UNL A   1      45.724  28.201  34.524  1.00  0.00     0.173 A 
ATOM     85  F   UNL A   1      43.184  25.677  35.173  1.00  0.00    -0.203 F 
ATOM     86  C   UNL A   1      45.344  25.928  36.076  1.00  0.00     0.198 A 
ATOM     87  C   UNL A   1      46.736  27.752  35.368  1.00  0.00     0.198 A 
ATOM     88  F   UNL A   1      45.933  29.305  33.794  1.00  0.00    -0.203 F 
ATOM     89  F   UNL A   1      45.147  24.851  36.848  1.00  0.00    -0.200 F 
ATOM     90  C   UNL A   1      46.543  26.621  36.147  1.00  0.00     0.200 A 
ATOM     91  F   UNL A   1      47.898  28.418  35.430  1.00  0.00    -0.200 F 
ATOM     92  F   UNL A   1      47.511  26.204  36.975  1.00  0.00    -0.200 F 
ENDBRANCH  59  82
ENDBRANCH  33  34
ENDBRANCH  26  28
ENDBRANCH  25  26
ENDBRANCH  24  25
ENDBRANCH   1  24
TORSDOF 14
ENDMDL
MODEL 2
REMARK VINA RESULT:     -12.3      0.667      1.336
REMARK SMILES C[C@H](Nc1ccc2c(c1)Cc1ccccc1-2)[C@@H](C)C(=O)OCCOC(=O)c1ccc(-c2c3nc(c(-c4c(F)c(F)c(F)c(F)c4F)c4ccc([nH]4)c(-c4c(F)c(F)c(F)c(F)c4F)c4nc(c(-c5c(F)c(F)c(F)c(F)c5F)c5ccc2[nH]5)C=C4)C=C3)cc1
REMARK SMILES IDX 22 1 21 2 19 3 20 4 17 5 18 6 2 7 1 8 3 9 4 11 5 12 9 13
REMARK SMILES IDX 6 14 8 15 7 16 10 17 16 18 11 19 15 20 12 21 14 22 13 23
REMARK SMILES IDX 23 24 24 25 25 26 26 27 27 28 28 29 89 30 29 31 88 32 30 33
REMARK SMILES IDX 31 34 32 35 82 36 33 37 87 38 81 39 83 40 34 41 86 42 80 43
REMARK SMILES IDX 79 44 35 46 67 47 47 48 66 49 48 50 51 51 65 52 84 53 49 54
REMARK SMILES IDX 50 55 64 57 85 58 52 59 36 60 37 61 45 62 38 63 39 64 43 65
REMARK SMILES IDX 46 66 40 67 41 68 44 69 42 70 68 71 69 72 77 73 70 74 71 75
REMARK SMILES IDX 75 76 78 77 72 78 73 79 76 80 74 81 53 82 54 83 62 84 55 85
REMARK SMILES IDX 56 86 60 87 63 88 57 89 58 90 61 91 59 92
REMARK H PARENT 3 10 83 45 51 56
REMARK Flexibility Score: inf
ROOT
ATOM      1  C   UNL A   1      31.539  28.991  24.768  1.00  0.00     0.274 C 
ENDROOT
BRANCH   1   2
ATOM      2  O   UNL A   1      31.135  27.604  24.785  1.00  0.00    -0.462 OA
BRANCH   2   3
ATOM      3  C   UNL A   1      31.133  26.990  23.573  1.00  0.00     0.310 C 
ATOM      4  O   UNL A   1      31.792  27.361  22.606  1.00  0.00    -0.252 OA
BRANCH   3   5
ATOM      5  C   UNL A   1      30.185  25.807  23.483  1.00  0.00     0.118 C 
ATOM      6  C   UNL A   1      28.939  26.201  24.283  1.00  0.00     0.022 C 
BRANCH   5   7
ATOM      7  C   UNL A   1      30.768  24.422  23.885  1.00  0.00     0.090 C 
ATOM      8  C   UNL A   1      30.757  24.212  25.404  1.00  0.00     0.031 C 
BRANCH   7   9
ATOM      9  N   UNL A   1      32.120  24.302  23.297  1.00  0.00    -0.382 N 
ATOM     10  H   UNL A   1      32.149  24.313  22.313  1.00  0.00     0.160 HD
BRANCH   9  11
ATOM     11  C   UNL A   1      33.348  24.177  23.917  1.00  0.00     0.035 A 
ATOM     12  C   UNL A   1      33.902  25.185  24.728  1.00  0.00     0.026 A 
ATOM     13  C   UNL A   1      34.074  22.987  23.748  1.00  0.00     0.030 A 
ATOM     14  C   UNL A   1      35.155  25.048  25.345  1.00  0.00     0.011 A 
ATOM     15  C   UNL A   1      35.307  22.842  24.373  1.00  0.00    -0.034 A 
ATOM     16  C   UNL A   1      35.854  23.871  25.162  1.00  0.00    -0.014 A 
ATOM     17  C   UNL A   1      36.236  21.643  24.360  1.00  0.00     0.072 C 
ATOM     18  C   UNL A   1      37.130  23.434  25.688  1.00  0.00    -0.015 A 
ATOM     19  C   UNL A   1      37.375  22.118  25.240  1.00  0.00    -0.036 A 
ATOM     20  C   UNL A   1      38.046  24.082  26.500  1.00  0.00     0.009 A 
ATOM     21  C   UNL A   1      38.522  21.431  25.606  1.00  0.00     0.005 A 
ATOM     22  C   UNL A   1      39.209  23.397  26.869  1.00  0.00     0.001 A 
ATOM     23  C   UNL A   1      39.442  22.083  26.430  1.00  0.00     0.000 A 
ENDBRANCH   9  11
ENDBRANCH   7   9
ENDBRANCH   5   7
ENDBRANCH   3   5
ENDBRANCH   2   3
ENDBRANCH   1   2
BRANCH   1  24
ATOM     24  C   UNL A   1      31.889  29.470  26.180  1.00  0.00     0.275 C 
BRANCH  24  25
ATOM     25  O   UNL A   1      33.204  30.051  26.178  1.00  0.00    -0.458 OA
BRANCH  25  26
ATOM     26  C   UNL A   1      33.403  31.067  27.049  1.00  0.00     0.338 C 
ATOM     27  O   UNL A   1      32.668  32.019  27.241  1.00  0.00    -0.246 OA
BRANCH  26  28
ATOM     28  C   UNL A   1      34.695  30.875  27.746  1.00  0.00     0.060 A 
ATOM     29  C   UNL A   1      35.569  31.942  27.978  1.00  0.00     0.016 A 
ATOM     30  C   UNL A   1      35.054  29.587  28.148  1.00  0.00     0.016 A 
ATOM     31  C   UNL A   1      36.795  31.729  28.608  1.00  0.00     0.010 A 
ATOM     32  C   UNL A   1      36.254  29.382  28.833  1.00  0.00     0.010 A 
ATOM     33  C   UNL A   1      37.134  30.452  29.072  1.00  0.00    -0.014 A 
BRANCH  33  34
ATOM     34  C   UNL A   1      38.378  30.219  29.846  1.00  0.00     0.031 A 
ATOM     35  C   UNL A   1      39.456  29.331  29.296  1.00  0.00     0.074 A 
ATOM     36  C   UNL A   1      38.506  30.751  31.077  1.00  0.00     0.049 A 
ATOM     37  N   UNL A   1      40.501  28.824  29.901  1.00  0.00    -0.248 NA
ATOM     38  C   UNL A   1      39.337  28.956  27.880  1.00  0.00     0.031 C 
ATOM     39  C   UNL A   1      37.545  31.654  31.713  1.00  0.00     0.029 A 
ATOM     40  N   UNL A   1      39.486  30.588  32.024  1.00  0.00    -0.354 N 
ATOM     41  C   UNL A   1      41.142  28.041  28.951  1.00  0.00     0.074 A 
ATOM     42  C   UNL A   1      40.368  28.135  27.731  1.00  0.00     0.031 C 
ATOM     43  C   UNL A   1      37.979  31.960  32.945  1.00  0.00     0.029 A 
ATOM     44  C   UNL A   1      39.209  31.222  33.211  1.00  0.00     0.049 A 
ATOM     45  H   UNL A   1      40.308  30.066  31.869  1.00  0.00     0.167 HD
ATOM     46  C   UNL A   1      42.274  27.310  29.091  1.00  0.00     0.037 A 
ATOM     47  C   UNL A   1      39.845  31.174  34.396  1.00  0.00     0.037 A 
ATOM     48  C   UNL A   1      43.055  27.244  30.300  1.00  0.00     0.049 A 
ATOM     49  C   UNL A   1      41.065  30.311  34.542  1.00  0.00     0.074 A 
ATOM     50  C   UNL A   1      44.238  26.562  30.529  1.00  0.00     0.029 A 
ATOM     51  N   UNL A   1      42.728  27.886  31.486  1.00  0.00    -0.354 N 
ATOM     52  N   UNL A   1      41.658  29.560  33.647  1.00  0.00    -0.248 NA
ATOM     53  C   UNL A   1      41.695  30.276  35.870  1.00  0.00     0.031 C 
ATOM     54  C   UNL A   1      44.606  26.759  31.865  1.00  0.00     0.029 A 
ATOM     55  C   UNL A   1      43.675  27.597  32.457  1.00  0.00     0.049 A 
ATOM     56  H   UNL A   1      41.941  28.461  31.618  1.00  0.00     0.167 HD
ATOM     57  C   UNL A   1      42.733  28.970  34.296  1.00  0.00     0.074 A 
ATOM     58  C   UNL A   1      42.723  29.466  35.657  1.00  0.00     0.031 C 
ATOM     59  C   UNL A   1      43.643  28.092  33.809  1.00  0.00     0.037 A 
BRANCH  46  60
ATOM     60  C   UNL A   1      42.728  26.498  27.914  1.00  0.00     0.064 A 
ATOM     61  C   UNL A   1      43.547  27.040  26.914  1.00  0.00     0.173 A 
ATOM     62  C   UNL A   1      42.373  25.145  27.812  1.00  0.00     0.173 A 
ATOM     63  F   UNL A   1      43.907  28.332  26.964  1.00  0.00    -0.203 F 
ATOM     64  C   UNL A   1      43.981  26.261  25.843  1.00  0.00     0.198 A 
ATOM     65  C   UNL A   1      42.827  24.362  26.753  1.00  0.00     0.198 A 
ATOM     66  F   UNL A   1      41.596  24.576  28.746  1.00  0.00    -0.203 F 
ATOM     67  F   UNL A   1      44.736  26.808  24.880  1.00  0.00    -0.200 F 
ATOM     68  C   UNL A   1      43.626  24.923  25.768  1.00  0.00     0.200 A 
ATOM     69  F   UNL A   1      42.494  23.066  26.688  1.00  0.00    -0.200 F 
ATOM     70  F   UNL A   1      44.051  24.172  24.741  1.00  0.00    -0.200 F 
ENDBRANCH  46  60
BRANCH  47  71
ATOM     71  C   UNL A   1      39.308  31.941  35.550  1.00  0.00     0.064 A 
ATOM     72  C   UNL A   1      39.665  33.281  35.751  1.00  0.00     0.173 A 
ATOM     73  C   UNL A   1      38.421  31.356  36.465  1.00  0.00     0.173 A 
ATOM     74  F   UNL A   1      40.532  33.875  34.917  1.00  0.00    -0.203 F 
ATOM     75  C   UNL A   1      39.159  34.005  36.827  1.00  0.00     0.198 A 
ATOM     76  C   UNL A   1      37.895  32.088  37.526  1.00  0.00     0.198 A 
ATOM     77  F   UNL A   1      38.052  30.075  36.317  1.00  0.00    -0.203 F 
ATOM     78  F   UNL A   1      39.543  35.274  37.017  1.00  0.00    -0.200 F 
ATOM     79  C   UNL A   1      38.268  33.411  37.709  1.00  0.00     0.200 A 
ATOM     80  F   UNL A   1      37.025  31.514  38.368  1.00  0.00    -0.200 F 
ATOM     81  F   UNL A   1      37.774  34.111  38.739  1.00  0.00    -0.200 F 
ENDBRANCH  47  71
BRANCH  59  82
ATOM     82  C   UNL A   1      44.709  27.624  34.754  1.00  0.00     0.064 A 
ATOM     83  C   UNL A   1      44.550  26.456  35.514  1.00  0.00     0.173 A 
ATOM     84  C   UNL A   1      45.910  28.337  34.882  1.00  0.00     0.173 A 
ATOM     85  F   UNL A   1      43.411  25.752  35.439  1.00  0.00    -0.203 F 
ATOM     86  C   UNL A   1      45.548  26.030  36.386  1.00  0.00     0.198 A 
ATOM     87  C   UNL A   1      46.915  27.894  35.736  1.00  0.00     0.198 A 
ATOM     88  F   UNL A   1      46.110  29.458  34.174  1.00  0.00    -0.203 F 
ATOM     89  F   UNL A   1      45.359  24.936  37.136  1.00  0.00    -0.200 F 
ATOM     90  C   UNL A   1      46.732  26.746  36.492  1.00  0.00     0.200 A 
ATOM     91  F   UNL A   1      48.063  28.581  35.832  1.00  0.00    -0.200 F 
ATOM     92  F   UNL A   1      47.692  26.333  37.330  1.00  0.00    -0.200 F 
ENDBRANCH  59  82
ENDBRANCH  33  34
ENDBRANCH  26  28
ENDBRANCH  25  26
ENDBRANCH  24  25
ENDBRANCH   1  24
TORSDOF 14
ENDMDL
MODEL 3
REMARK VINA RESULT:     -12.3      1.446      2.665
REMARK SMILES C[C@H](Nc1ccc2c(c1)Cc1ccccc1-2)[C@@H](C)C(=O)OCCOC(=O)c1ccc(-c2c3nc(c(-c4c(F)c(F)c(F)c(F)c4F)c4ccc([nH]4)c(-c4c(F)c(F)c(F)c(F)c4F)c4nc(c(-c5c(F)c(F)c(F)c(F)c5F)c5ccc2[nH]5)C=C4)C=C3)cc1
REMARK SMILES IDX 22 1 21 2 19 3 20 4 17 5 18 6 2 7 1 8 3 9 4 11 5 12 9 13
REMARK SMILES IDX 6 14 8 15 7 16 10 17 16 18 11 19 15 20 12 21 14 22 13 23
REMARK SMILES IDX 23 24 24 25 25 26 26 27 27 28 28 29 89 30 29 31 88 32 30 33
REMARK SMILES IDX 31 34 32 35 82 36 33 37 87 38 81 39 83 40 34 41 86 42 80 43
REMARK SMILES IDX 79 44 35 46 67 47 47 48 66 49 48 50 51 51 65 52 84 53 49 54
REMARK SMILES IDX 50 55 64 57 85 58 52 59 36 60 37 61 45 62 38 63 39 64 43 65
REMARK SMILES IDX 46 66 40 67 41 68 44 69 42 70 68 71 69 72 77 73 70 74 71 75
REMARK SMILES IDX 75 76 78 77 72 78 73 79 76 80 74 81 53 82 54 83 62 84 55 85
REMARK SMILES IDX 56 86 60 87 63 88 57 89 58 90 61 91 59 92
REMARK H PARENT 3 10 83 45 51 56
REMARK Flexibility Score: inf
ROOT
ATOM      1  C   UNL A   1      31.537  29.373  24.415  1.00  0.00     0.274 C 
ENDROOT
BRANCH   1   2
ATOM      2  O   UNL A   1      30.679  28.245  24.697  1.00  0.00    -0.462 OA
BRANCH   2   3
ATOM      3  C   UNL A   1      31.181  27.036  24.334  1.00  0.00     0.310 C 
ATOM      4  O   UNL A   1      31.301  26.652  23.174  1.00  0.00    -0.252 OA
BRANCH   3   5
ATOM      5  C   UNL A   1      31.546  26.143  25.508  1.00  0.00     0.118 C 
ATOM      6  C   UNL A   1      31.015  26.851  26.759  1.00  0.00     0.022 C 
BRANCH   5   7
ATOM      7  C   UNL A   1      33.041  25.725  25.619  1.00  0.00     0.090 C 
ATOM      8  C   UNL A   1      33.968  26.937  25.772  1.00  0.00     0.031 C 
BRANCH   7   9
ATOM      9  N   UNL A   1      33.375  24.889  24.446  1.00  0.00    -0.382 N 
ATOM     10  H   UNL A   1      33.719  25.381  23.666  1.00  0.00     0.160 HD
BRANCH   9  11
ATOM     11  C   UNL A   1      33.277  23.521  24.277  1.00  0.00     0.035 A 
ATOM     12  C   UNL A   1      32.191  22.906  23.628  1.00  0.00     0.026 A 
ATOM     13  C   UNL A   1      34.313  22.704  24.758  1.00  0.00     0.030 A 
ATOM     14  C   UNL A   1      32.101  21.514  23.471  1.00  0.00     0.011 A 
ATOM     15  C   UNL A   1      34.235  21.327  24.587  1.00  0.00    -0.034 A 
ATOM     16  C   UNL A   1      33.129  20.728  23.954  1.00  0.00    -0.014 A 
ATOM     17  C   UNL A   1      35.244  20.268  24.988  1.00  0.00     0.072 C 
ATOM     18  C   UNL A   1      33.330  19.296  23.911  1.00  0.00    -0.015 A 
ATOM     19  C   UNL A   1      34.575  18.997  24.504  1.00  0.00    -0.036 A 
ATOM     20  C   UNL A   1      32.531  18.284  23.405  1.00  0.00     0.009 A 
ATOM     21  C   UNL A   1      35.044  17.695  24.586  1.00  0.00     0.005 A 
ATOM     22  C   UNL A   1      32.994  16.966  23.489  1.00  0.00     0.001 A 
ATOM     23  C   UNL A   1      34.240  16.676  24.070  1.00  0.00     0.000 A 
ENDBRANCH   9  11
ENDBRANCH   7   9
ENDBRANCH   5   7
ENDBRANCH   3   5
ENDBRANCH   2   3
ENDBRANCH   1   2
BRANCH   1  24
ATOM     24  C   UNL A   1      31.553  30.348  25.595  1.00  0.00     0.275 C 
BRANCH  24  25
ATOM     25  O   UNL A   1      32.842  30.314  26.231  1.00  0.00    -0.458 OA
BRANCH  25  26
ATOM     26  C   UNL A   1      33.133  31.359  27.038  1.00  0.00     0.338 C 
ATOM     27  O   UNL A   1      32.461  32.362  27.205  1.00  0.00    -0.246 OA
BRANCH  26  28
ATOM     28  C   UNL A   1      34.438  31.127  27.698  1.00  0.00     0.060 A 
ATOM     29  C   UNL A   1      35.328  32.176  27.953  1.00  0.00     0.016 A 
ATOM     30  C   UNL A   1      34.792  29.821  28.040  1.00  0.00     0.016 A 
ATOM     31  C   UNL A   1      36.565  31.927  28.546  1.00  0.00     0.010 A 
ATOM     32  C   UNL A   1      36.004  29.578  28.689  1.00  0.00     0.010 A 
ATOM     33  C   UNL A   1      36.900  30.629  28.951  1.00  0.00    -0.014 A 
BRANCH  33  34
ATOM     34  C   UNL A   1      38.159  30.353  29.687  1.00  0.00     0.031 A 
ATOM     35  C   UNL A   1      39.179  29.413  29.115  1.00  0.00     0.074 A 
ATOM     36  C   UNL A   1      38.350  30.895  30.905  1.00  0.00     0.049 A 
ATOM     37  N   UNL A   1      40.221  28.869  29.693  1.00  0.00    -0.248 NA
ATOM     38  C   UNL A   1      38.996  29.024  27.710  1.00  0.00     0.031 C 
ATOM     39  C   UNL A   1      37.450  31.847  31.559  1.00  0.00     0.029 A 
ATOM     40  N   UNL A   1      39.354  30.703  31.822  1.00  0.00    -0.354 N 
ATOM     41  C   UNL A   1      40.796  28.047  28.734  1.00  0.00     0.074 A 
ATOM     42  C   UNL A   1      39.986  28.158  27.539  1.00  0.00     0.031 C 
ATOM     43  C   UNL A   1      37.937  32.151  32.771  1.00  0.00     0.029 A 
ATOM     44  C   UNL A   1      39.144  31.365  33.007  1.00  0.00     0.049 A 
ATOM     45  H   UNL A   1      40.147  30.145  31.648  1.00  0.00     0.167 HD
ATOM     46  C   UNL A   1      41.900  27.270  28.848  1.00  0.00     0.037 A 
ATOM     47  C   UNL A   1      39.816  31.306  34.172  1.00  0.00     0.037 A 
ATOM     48  C   UNL A   1      42.718  27.187  30.032  1.00  0.00     0.049 A 
ATOM     49  C   UNL A   1      41.002  30.394  34.291  1.00  0.00     0.074 A 
ATOM     50  C   UNL A   1      43.878  26.458  30.232  1.00  0.00     0.029 A 
ATOM     51  N   UNL A   1      42.458  27.858  31.218  1.00  0.00    -0.354 N 
ATOM     52  N   UNL A   1      41.533  29.606  33.388  1.00  0.00    -0.248 NA
ATOM     53  C   UNL A   1      41.675  30.349  35.597  1.00  0.00     0.031 C 
ATOM     54  C   UNL A   1      44.298  26.657  31.552  1.00  0.00     0.029 A 
ATOM     55  C   UNL A   1      43.424  27.542  32.161  1.00  0.00     0.049 A 
ATOM     56  H   UNL A   1      41.701  28.468  31.367  1.00  0.00     0.167 HD
ATOM     57  C   UNL A   1      42.603  28.979  34.010  1.00  0.00     0.074 A 
ATOM     58  C   UNL A   1      42.659  29.493  35.363  1.00  0.00     0.031 C 
ATOM     59  C   UNL A   1      43.458  28.056  33.506  1.00  0.00     0.037 A 
BRANCH  46  60
ATOM     60  C   UNL A   1      42.280  26.424  27.669  1.00  0.00     0.064 A 
ATOM     61  C   UNL A   1      43.272  26.821  26.763  1.00  0.00     0.173 A 
ATOM     62  C   UNL A   1      41.672  25.175  27.472  1.00  0.00     0.173 A 
ATOM     63  F   UNL A   1      43.878  28.011  26.904  1.00  0.00    -0.203 F 
ATOM     64  C   UNL A   1      43.629  26.008  25.689  1.00  0.00     0.198 A 
ATOM     65  C   UNL A   1      42.046  24.353  26.413  1.00  0.00     0.198 A 
ATOM     66  F   UNL A   1      40.720  24.744  28.315  1.00  0.00    -0.203 F 
ATOM     67  F   UNL A   1      44.557  26.422  24.815  1.00  0.00    -0.200 F 
ATOM     68  C   UNL A   1      43.021  24.773  25.520  1.00  0.00     0.200 A 
ATOM     69  F   UNL A   1      41.468  23.154  26.257  1.00  0.00    -0.200 F 
ATOM     70  F   UNL A   1      43.372  23.987  24.491  1.00  0.00    -0.200 F 
ENDBRANCH  46  60
BRANCH  47  71
ATOM     71  C   UNL A   1      39.351  32.111  35.331  1.00  0.00     0.064 A 
ATOM     72  C   UNL A   1      39.751  33.445  35.486  1.00  0.00     0.173 A 
ATOM     73  C   UNL A   1      38.491  31.568  36.297  1.00  0.00     0.173 A 
ATOM     74  F   UNL A   1      40.594  33.998  34.602  1.00  0.00    -0.203 F 
ATOM     75  C   UNL A   1      39.311  34.204  36.568  1.00  0.00     0.198 A 
ATOM     76  C   UNL A   1      38.032  32.336  37.365  1.00  0.00     0.198 A 
ATOM     77  F   UNL A   1      38.084  30.294  36.194  1.00  0.00    -0.203 F 
ATOM     78  F   UNL A   1      39.735  35.467  36.712  1.00  0.00    -0.200 F 
ATOM     79  C   UNL A   1      38.446  33.652  37.501  1.00  0.00     0.200 A 
ATOM     80  F   UNL A   1      37.187  31.803  38.257  1.00  0.00    -0.200 F 
ATOM     81  F   UNL A   1      38.017  34.387  38.536  1.00  0.00    -0.200 F 
ENDBRANCH  47  71
BRANCH  59  82
ATOM     82  C   UNL A   1      44.535  27.555  34.422  1.00  0.00     0.064 A 
ATOM     83  C   UNL A   1      45.766  28.218  34.533  1.00  0.00     0.173 A 
ATOM     84  C   UNL A   1      44.324  26.417  35.214  1.00  0.00     0.173 A 
ATOM     85  F   UNL A   1      46.020  29.299  33.781  1.00  0.00    -0.203 F 
ATOM     86  C   UNL A   1      46.757  27.746  35.389  1.00  0.00     0.198 A 
ATOM     87  C   UNL A   1      45.308  25.962  36.087  1.00  0.00     0.198 A 
ATOM     88  F   UNL A   1      43.163  25.750  35.145  1.00  0.00    -0.203 F 
ATOM     89  F   UNL A   1      47.942  28.368  35.448  1.00  0.00    -0.200 F 
ATOM     90  C   UNL A   1      46.525  26.622  36.169  1.00  0.00     0.200 A 
ATOM     91  F   UNL A   1      45.080  24.882  36.847  1.00  0.00    -0.200 F 
ATOM     92  F   UNL A   1      47.479  26.170  36.994  1.00  0.00    -0.200 F 
ENDBRANCH  59  82
ENDBRANCH  33  34
ENDBRANCH  26  28
ENDBRANCH  25  26
ENDBRANCH  24  25
ENDBRANCH   1  24
TORSDOF 14
ENDMDL
