MODEL 1
REMARK VINA RESULT:     -11.7      0.000      0.000
REMARK SMILES CC(C)C[C@H](NC(=O)CNC(=O)[C@@H](NC(=O)OCc1ccccc1)C(C)C)C(=O)OCCOC(=O)c1ccc(-c2c3nc(c(-c4c(F)c(F)c(F)c(F)c4F)c4ccc([nH]4)c(-c4c(F)c(F)c(F)c(F)c4F)c4nc(c(-c5c(F)c(F)c(F)c(F)c5F)c5ccc2[nH]5)C=C4)C=C3)cc1
REMARK SMILES IDX 5 1 4 2 2 3 1 4 3 5 28 6 29 7 30 8 31 9 32 10 33 11 34 12
REMARK SMILES IDX 35 13 36 14 37 15 98 16 38 17 97 18 39 19 40 20 41 21 91 22
REMARK SMILES IDX 42 23 96 24 90 25 92 26 43 27 95 28 89 29 88 30 44 32 76 33
REMARK SMILES IDX 56 34 75 35 57 36 60 37 74 38 93 39 58 40 59 41 73 43 94 44
REMARK SMILES IDX 61 45 45 46 46 47 54 48 47 49 48 50 52 51 55 52 49 53 50 54
REMARK SMILES IDX 53 55 51 56 77 57 78 58 86 59 79 60 80 61 84 62 87 63 81 64
REMARK SMILES IDX 82 65 85 66 83 67 62 68 63 69 71 70 64 71 65 72 69 73 72 74
REMARK SMILES IDX 66 75 67 76 70 77 68 78 6 79 7 80 8 82 9 83 10 84 11 85
REMARK SMILES IDX 12 87 13 88 14 89 15 90 16 92 17 93 18 94 19 95 20 96 24 97
REMARK SMILES IDX 21 98 23 99 22 100 25 101 26 102 27 103
REMARK H PARENT 92 31 60 42 6 81 10 86 14 91
REMARK Flexibility Score: inf
ROOT
ATOM      1  C   UNL A   1      30.539  27.959  23.236  1.00  0.00     0.192 C 
ENDROOT
BRANCH   1   2
ATOM      2  C   UNL A   1      31.542  27.128  22.367  1.00  0.00     0.040 C 
BRANCH   2   3
ATOM      3  C   UNL A   1      33.117  27.010  22.534  1.00  0.00    -0.015 C 
ATOM      4  C   UNL A   1      33.977  28.288  22.327  1.00  0.00     0.007 C 
ATOM      5  C   UNL A   1      33.452  26.628  23.978  1.00  0.00     0.007 C 
ENDBRANCH   2   3
ENDBRANCH   1   2
BRANCH   1   6
ATOM      6  C   UNL A   1      30.280  29.530  23.042  1.00  0.00     0.328 C 
ATOM      7  O   UNL A   1      29.981  30.077  21.989  1.00  0.00    -0.250 OA
BRANCH   6   8
ATOM      8  O   UNL A   1      30.451  30.190  24.238  1.00  0.00    -0.461 OA
BRANCH   8   9
ATOM      9  C   UNL A   1      31.379  29.780  25.270  1.00  0.00     0.274 C 
BRANCH   9  10
ATOM     10  C   UNL A   1      31.715  30.971  26.173  1.00  0.00     0.275 C 
BRANCH  10  11
ATOM     11  O   UNL A   1      32.897  30.676  26.929  1.00  0.00    -0.458 OA
BRANCH  11  12
ATOM     12  C   UNL A   1      33.534  31.777  27.390  1.00  0.00     0.338 C 
ATOM     13  O   UNL A   1      33.103  32.902  27.530  1.00  0.00    -0.246 OA
BRANCH  12  14
ATOM     14  C   UNL A   1      34.842  31.368  27.898  1.00  0.00     0.060 A 
ATOM     15  C   UNL A   1      34.993  30.042  28.304  1.00  0.00     0.016 A 
ATOM     16  C   UNL A   1      35.858  32.304  28.076  1.00  0.00     0.016 A 
ATOM     17  C   UNL A   1      36.147  29.653  28.960  1.00  0.00     0.010 A 
ATOM     18  C   UNL A   1      37.032  31.903  28.707  1.00  0.00     0.010 A 
ATOM     19  C   UNL A   1      37.166  30.585  29.182  1.00  0.00    -0.014 A 
BRANCH  19  20
ATOM     20  C   UNL A   1      38.343  30.181  29.978  1.00  0.00     0.031 A 
ATOM     21  C   UNL A   1      39.346  29.231  29.393  1.00  0.00     0.074 A 
ATOM     22  C   UNL A   1      38.521  30.710  31.201  1.00  0.00     0.049 A 
ATOM     23  N   UNL A   1      40.409  28.706  29.945  1.00  0.00    -0.248 NA
ATOM     24  C   UNL A   1      39.118  28.804  28.002  1.00  0.00     0.031 C 
ATOM     25  C   UNL A   1      37.621  31.670  31.842  1.00  0.00     0.029 A 
ATOM     26  N   UNL A   1      39.520  30.522  32.117  1.00  0.00    -0.354 N 
ATOM     27  C   UNL A   1      40.967  27.880  28.979  1.00  0.00     0.074 A 
ATOM     28  C   UNL A   1      40.105  27.938  27.819  1.00  0.00     0.031 C 
ATOM     29  C   UNL A   1      38.114  31.995  33.046  1.00  0.00     0.029 A 
ATOM     30  C   UNL A   1      39.328  31.222  33.282  1.00  0.00     0.049 A 
ATOM     31  H   UNL A   1      40.298  29.940  31.958  1.00  0.00     0.167 HD
ATOM     32  C   UNL A   1      42.106  27.151  29.056  1.00  0.00     0.037 A 
ATOM     33  C   UNL A   1      40.040  31.213  34.422  1.00  0.00     0.037 A 
ATOM     34  C   UNL A   1      42.956  27.112  30.218  1.00  0.00     0.049 A 
ATOM     35  C   UNL A   1      41.271  30.352  34.496  1.00  0.00     0.074 A 
ATOM     36  C   UNL A   1      44.129  26.404  30.408  1.00  0.00     0.029 A 
ATOM     37  N   UNL A   1      42.722  27.817  31.391  1.00  0.00    -0.354 N 
ATOM     38  N   UNL A   1      41.790  29.566  33.584  1.00  0.00    -0.248 NA
ATOM     39  C   UNL A   1      42.018  30.382  35.759  1.00  0.00     0.031 C 
ATOM     40  C   UNL A   1      44.576  26.639  31.713  1.00  0.00     0.029 A 
ATOM     41  C   UNL A   1      43.719  27.546  32.315  1.00  0.00     0.049 A 
ATOM     42  H   UNL A   1      41.960  28.421  31.545  1.00  0.00     0.167 HD
ATOM     43  C   UNL A   1      42.933  29.024  34.152  1.00  0.00     0.074 A 
ATOM     44  C   UNL A   1      43.048  29.601  35.477  1.00  0.00     0.031 C 
ATOM     45  C   UNL A   1      43.808  28.126  33.633  1.00  0.00     0.037 A 
BRANCH  32  46
ATOM     46  C   UNL A   1      42.485  26.325  27.860  1.00  0.00     0.064 A 
ATOM     47  C   UNL A   1      43.376  26.798  26.885  1.00  0.00     0.173 A 
ATOM     48  C   UNL A   1      41.975  25.027  27.703  1.00  0.00     0.173 A 
ATOM     49  F   UNL A   1      43.881  28.037  26.976  1.00  0.00    -0.203 F 
ATOM     50  C   UNL A   1      43.723  26.013  25.788  1.00  0.00     0.198 A 
ATOM     51  C   UNL A   1      42.349  24.232  26.622  1.00  0.00     0.198 A 
ATOM     52  F   UNL A   1      41.119  24.522  28.605  1.00  0.00    -0.203 F 
ATOM     53  F   UNL A   1      44.537  26.507  24.844  1.00  0.00    -0.200 F 
ATOM     54  C   UNL A   1      43.216  24.729  25.661  1.00  0.00     0.200 A 
ATOM     55  F   UNL A   1      41.869  22.986  26.510  1.00  0.00    -0.200 F 
ATOM     56  F   UNL A   1      43.559  23.971  24.610  1.00  0.00    -0.200 F 
ENDBRANCH  32  46
BRANCH  33  57
ATOM     57  C   UNL A   1      39.587  32.020  35.586  1.00  0.00     0.064 A 
ATOM     58  C   UNL A   1      38.662  31.513  36.507  1.00  0.00     0.173 A 
ATOM     59  C   UNL A   1      40.065  33.324  35.791  1.00  0.00     0.173 A 
ATOM     60  F   UNL A   1      38.161  30.280  36.345  1.00  0.00    -0.203 F 
ATOM     61  C   UNL A   1      38.208  32.289  37.571  1.00  0.00     0.198 A 
ATOM     62  C   UNL A   1      39.639  34.085  36.877  1.00  0.00     0.198 A 
ATOM     63  F   UNL A   1      40.955  33.856  34.942  1.00  0.00    -0.203 F 
ATOM     64  F   UNL A   1      37.277  31.802  38.403  1.00  0.00    -0.200 F 
ATOM     65  C   UNL A   1      38.702  33.571  37.759  1.00  0.00     0.200 A 
ATOM     66  F   UNL A   1      40.134  35.316  37.064  1.00  0.00    -0.200 F 
ATOM     67  F   UNL A   1      38.266  34.316  38.784  1.00  0.00    -0.200 F 
ENDBRANCH  33  57
BRANCH  45  68
ATOM     68  C   UNL A   1      44.976  27.744  34.497  1.00  0.00     0.064 A 
ATOM     69  C   UNL A   1      46.179  28.466  34.474  1.00  0.00     0.173 A 
ATOM     70  C   UNL A   1      44.893  26.635  35.353  1.00  0.00     0.173 A 
ATOM     71  F   UNL A   1      46.315  29.526  33.663  1.00  0.00    -0.203 F 
ATOM     72  C   UNL A   1      47.271  28.062  35.237  1.00  0.00     0.198 A 
ATOM     73  C   UNL A   1      45.974  26.258  36.145  1.00  0.00     0.198 A 
ATOM     74  F   UNL A   1      43.763  25.916  35.423  1.00  0.00    -0.203 F 
ATOM     75  F   UNL A   1      48.435  28.720  35.138  1.00  0.00    -0.200 F 
ATOM     76  C   UNL A   1      47.167  26.962  36.074  1.00  0.00     0.200 A 
ATOM     77  F   UNL A   1      45.865  25.206  36.967  1.00  0.00    -0.200 F 
ATOM     78  F   UNL A   1      48.220  26.571  36.804  1.00  0.00    -0.200 F 
ENDBRANCH  45  68
ENDBRANCH  19  20
ENDBRANCH  12  14
ENDBRANCH  11  12
ENDBRANCH  10  11
ENDBRANCH   9  10
ENDBRANCH   8   9
ENDBRANCH   6   8
ENDBRANCH   1   6
BRANCH   1  79
ATOM     79  N   UNL A   1      29.284  27.294  23.214  1.00  0.00    -0.341 N 
ATOM     80  C   UNL A   1      28.895  26.538  24.274  1.00  0.00     0.240 C 
ATOM     81  H   UNL A   1      28.695  27.382  22.431  1.00  0.00     0.164 HD
ATOM     82  O   UNL A   1      27.740  26.106  24.279  1.00  0.00    -0.273 OA
BRANCH  80  83
ATOM     83  C   UNL A   1      29.912  26.229  25.471  1.00  0.00     0.216 C 
BRANCH  83  84
ATOM     84  N   UNL A   1      30.527  24.979  26.185  1.00  0.00    -0.345 N 
ATOM     85  C   UNL A   1      31.428  23.995  26.461  1.00  0.00     0.243 C 
ATOM     86  H   UNL A   1      29.825  24.777  26.844  1.00  0.00     0.164 HD
ATOM     87  O   UNL A   1      31.124  23.528  27.587  1.00  0.00    -0.273 OA
BRANCH  85  88
ATOM     88  C   UNL A   1      32.732  23.207  25.761  1.00  0.00     0.177 C 
BRANCH  88  89
ATOM     89  N   UNL A   1      32.788  23.139  24.265  1.00  0.00    -0.309 N 
ATOM     90  C   UNL A   1      32.636  22.139  23.333  1.00  0.00     0.408 C 
ATOM     91  H   UNL A   1      32.979  24.013  23.854  1.00  0.00     0.167 HD
ATOM     92  O   UNL A   1      32.978  22.335  22.170  1.00  0.00    -0.225 OA
BRANCH  90  93
ATOM     93  O   UNL A   1      32.176  20.948  23.796  1.00  0.00    -0.445 OA
BRANCH  93  94
ATOM     94  C   UNL A   1      32.375  19.777  22.965  1.00  0.00     0.270 C 
BRANCH  94  95
ATOM     95  C   UNL A   1      32.743  18.478  23.646  1.00  0.00    -0.011 A 
ATOM     96  C   UNL A   1      33.425  17.459  22.980  1.00  0.00     0.007 A 
ATOM     97  C   UNL A   1      32.501  18.329  25.028  1.00  0.00     0.007 A 
ATOM     98  C   UNL A   1      33.847  16.318  23.664  1.00  0.00     0.000 A 
ATOM     99  C   UNL A   1      32.919  17.184  25.712  1.00  0.00     0.000 A 
ATOM    100  C   UNL A   1      33.594  16.179  25.028  1.00  0.00     0.000 A 
ENDBRANCH  94  95
ENDBRANCH  93  94
ENDBRANCH  90  93
ENDBRANCH  88  89
BRANCH  88 101
ATOM    101  C   UNL A   1      34.103  23.124  26.504  1.00  0.00     0.015 C 
ATOM    102  C   UNL A   1      34.438  21.679  26.899  1.00  0.00     0.010 C 
ATOM    103  C   UNL A   1      35.312  23.618  25.667  1.00  0.00     0.010 C 
ENDBRANCH  88 101
ENDBRANCH  85  88
ENDBRANCH  83  84
ENDBRANCH  80  83
ENDBRANCH   1  79
TORSDOF 22
ENDMDL
MODEL 2
REMARK VINA RESULT:     -11.5      1.018      7.413
REMARK SMILES CC(C)C[C@H](NC(=O)CNC(=O)[C@@H](NC(=O)OCc1ccccc1)C(C)C)C(=O)OCCOC(=O)c1ccc(-c2c3nc(c(-c4c(F)c(F)c(F)c(F)c4F)c4ccc([nH]4)c(-c4c(F)c(F)c(F)c(F)c4F)c4nc(c(-c5c(F)c(F)c(F)c(F)c5F)c5ccc2[nH]5)C=C4)C=C3)cc1
REMARK SMILES IDX 5 1 4 2 2 3 1 4 3 5 28 6 29 7 30 8 31 9 32 10 33 11 34 12
REMARK SMILES IDX 35 13 36 14 37 15 98 16 38 17 97 18 39 19 40 20 41 21 91 22
REMARK SMILES IDX 42 23 96 24 90 25 92 26 43 27 95 28 89 29 88 30 44 32 76 33
REMARK SMILES IDX 56 34 75 35 57 36 60 37 74 38 93 39 58 40 59 41 73 43 94 44
REMARK SMILES IDX 61 45 45 46 46 47 54 48 47 49 48 50 52 51 55 52 49 53 50 54
REMARK SMILES IDX 53 55 51 56 77 57 78 58 86 59 79 60 80 61 84 62 87 63 81 64
REMARK SMILES IDX 82 65 85 66 83 67 62 68 63 69 71 70 64 71 65 72 69 73 72 74
REMARK SMILES IDX 66 75 67 76 70 77 68 78 6 79 7 80 8 82 9 83 10 84 11 85
REMARK SMILES IDX 12 87 13 88 14 89 15 90 16 92 17 93 18 94 19 95 20 96 24 97
REMARK SMILES IDX 21 98 23 99 22 100 25 101 26 102 27 103
REMARK H PARENT 92 31 60 42 6 81 10 86 14 91
REMARK Flexibility Score: inf
ROOT
ATOM      1  C   UNL A   1      30.643  27.922  23.215  1.00  0.00     0.192 C 
ENDROOT
BRANCH   1   2
ATOM      2  C   UNL A   1      31.714  27.131  22.390  1.00  0.00     0.040 C 
BRANCH   2   3
ATOM      3  C   UNL A   1      33.291  27.126  22.585  1.00  0.00    -0.015 C 
ATOM      4  C   UNL A   1      34.059  28.465  22.408  1.00  0.00     0.007 C 
ATOM      5  C   UNL A   1      33.627  26.751  24.030  1.00  0.00     0.007 C 
ENDBRANCH   2   3
ENDBRANCH   1   2
BRANCH   1   6
ATOM      6  C   UNL A   1      30.354  29.488  23.029  1.00  0.00     0.328 C 
ATOM      7  O   UNL A   1      29.975  30.025  21.997  1.00  0.00    -0.250 OA
BRANCH   6   8
ATOM      8  O   UNL A   1      30.604  30.159  24.206  1.00  0.00    -0.461 OA
BRANCH   8   9
ATOM      9  C   UNL A   1      31.401  29.630  25.291  1.00  0.00     0.274 C 
BRANCH   9  10
ATOM     10  C   UNL A   1      31.836  30.769  26.221  1.00  0.00     0.275 C 
BRANCH  10  11
ATOM     11  O   UNL A   1      33.150  30.494  26.725  1.00  0.00    -0.458 OA
BRANCH  11  12
ATOM     12  C   UNL A   1      33.713  31.542  27.370  1.00  0.00     0.338 C 
ATOM     13  O   UNL A   1      33.217  32.610  27.660  1.00  0.00    -0.246 OA
BRANCH  12  14
ATOM     14  C   UNL A   1      35.024  31.125  27.862  1.00  0.00     0.060 A 
ATOM     15  C   UNL A   1      35.186  29.786  28.218  1.00  0.00     0.016 A 
ATOM     16  C   UNL A   1      36.033  32.061  28.074  1.00  0.00     0.016 A 
ATOM     17  C   UNL A   1      36.344  29.382  28.858  1.00  0.00     0.010 A 
ATOM     18  C   UNL A   1      37.211  31.647  28.688  1.00  0.00     0.010 A 
ATOM     19  C   UNL A   1      37.356  30.313  29.113  1.00  0.00    -0.014 A 
BRANCH  19  20
ATOM     20  C   UNL A   1      38.536  29.889  29.893  1.00  0.00     0.031 A 
ATOM     21  C   UNL A   1      38.737  30.415  31.284  1.00  0.00     0.074 A 
ATOM     22  C   UNL A   1      39.389  28.997  29.360  1.00  0.00     0.049 A 
ATOM     23  N   UNL A   1      39.733  30.216  32.109  1.00  0.00    -0.248 NA
ATOM     24  C   UNL A   1      37.682  31.293  31.817  1.00  0.00     0.031 C 
ATOM     25  C   UNL A   1      39.260  28.400  28.030  1.00  0.00     0.029 A 
ATOM     26  N   UNL A   1      40.526  28.435  29.873  1.00  0.00    -0.354 N 
ATOM     27  C   UNL A   1      39.432  30.951  33.247  1.00  0.00     0.074 A 
ATOM     28  C   UNL A   1      38.183  31.636  32.995  1.00  0.00     0.031 C 
ATOM     29  C   UNL A   1      40.275  27.545  27.834  1.00  0.00     0.029 A 
ATOM     30  C   UNL A   1      41.152  27.581  28.998  1.00  0.00     0.049 A 
ATOM     31  H   UNL A   1      40.863  28.624  30.778  1.00  0.00     0.167 HD
ATOM     32  C   UNL A   1      40.135  31.032  34.402  1.00  0.00     0.037 A 
ATOM     33  C   UNL A   1      42.322  26.929  29.116  1.00  0.00     0.037 A 
ATOM     34  C   UNL A   1      41.374  30.337  34.637  1.00  0.00     0.049 A 
ATOM     35  C   UNL A   1      43.106  27.081  30.390  1.00  0.00     0.074 A 
ATOM     36  C   UNL A   1      42.173  30.351  35.767  1.00  0.00     0.029 A 
ATOM     37  N   UNL A   1      41.993  29.496  33.721  1.00  0.00    -0.354 N 
ATOM     38  N   UNL A   1      42.823  27.784  31.460  1.00  0.00    -0.248 NA
ATOM     39  C   UNL A   1      44.372  26.343  30.473  1.00  0.00     0.031 C 
ATOM     40  C   UNL A   1      43.301  29.562  35.515  1.00  0.00     0.029 A 
ATOM     41  C   UNL A   1      43.174  29.002  34.254  1.00  0.00     0.049 A 
ATOM     42  H   UNL A   1      41.646  29.283  32.826  1.00  0.00     0.167 HD
ATOM     43  C   UNL A   1      43.862  27.558  32.351  1.00  0.00     0.074 A 
ATOM     44  C   UNL A   1      44.763  26.625  31.706  1.00  0.00     0.031 C 
ATOM     45  C   UNL A   1      44.060  28.079  33.589  1.00  0.00     0.037 A 
BRANCH  32  46
ATOM     46  C   UNL A   1      39.590  31.917  35.487  1.00  0.00     0.064 A 
ATOM     47  C   UNL A   1      38.659  31.448  36.427  1.00  0.00     0.173 A 
ATOM     48  C   UNL A   1      40.030  33.244  35.610  1.00  0.00     0.173 A 
ATOM     49  F   UNL A   1      38.192  30.194  36.347  1.00  0.00    -0.203 F 
ATOM     50  C   UNL A   1      38.172  32.281  37.432  1.00  0.00     0.198 A 
ATOM     51  C   UNL A   1      39.566  34.064  36.635  1.00  0.00     0.198 A 
ATOM     52  F   UNL A   1      40.920  33.745  34.739  1.00  0.00    -0.203 F 
ATOM     53  F   UNL A   1      37.246  31.825  38.287  1.00  0.00    -0.200 F 
ATOM     54  C   UNL A   1      38.632  33.585  37.540  1.00  0.00     0.200 A 
ATOM     55  F   UNL A   1      40.023  35.319  36.747  1.00  0.00    -0.200 F 
ATOM     56  F   UNL A   1      38.170  34.382  38.515  1.00  0.00    -0.200 F 
ENDBRANCH  32  46
BRANCH  33  57
ATOM     57  C   UNL A   1      42.828  26.104  27.988  1.00  0.00     0.064 A 
ATOM     58  C   UNL A   1      42.571  24.729  27.919  1.00  0.00     0.173 A 
ATOM     59  C   UNL A   1      43.593  26.677  26.960  1.00  0.00     0.173 A 
ATOM     60  F   UNL A   1      41.861  24.130  28.886  1.00  0.00    -0.203 F 
ATOM     61  C   UNL A   1      43.085  23.953  26.882  1.00  0.00     0.198 A 
ATOM     62  C   UNL A   1      44.074  25.906  25.904  1.00  0.00     0.198 A 
ATOM     63  F   UNL A   1      43.865  27.989  26.974  1.00  0.00    -0.203 F 
ATOM     64  F   UNL A   1      42.875  22.629  26.873  1.00  0.00    -0.200 F 
ATOM     65  C   UNL A   1      43.829  24.543  25.872  1.00  0.00     0.200 A 
ATOM     66  F   UNL A   1      44.777  26.485  24.921  1.00  0.00    -0.200 F 
ATOM     67  F   UNL A   1      44.321  23.795  24.875  1.00  0.00    -0.200 F 
ENDBRANCH  33  57
BRANCH  45  68
ATOM     68  C   UNL A   1      45.286  27.619  34.326  1.00  0.00     0.064 A 
ATOM     69  C   UNL A   1      45.271  26.479  35.145  1.00  0.00     0.173 A 
ATOM     70  C   UNL A   1      46.490  28.333  34.217  1.00  0.00     0.173 A 
ATOM     71  F   UNL A   1      44.143  25.769  35.294  1.00  0.00    -0.203 F 
ATOM     72  C   UNL A   1      46.400  26.103  35.868  1.00  0.00     0.198 A 
ATOM     73  C   UNL A   1      47.628  27.930  34.910  1.00  0.00     0.198 A 
ATOM     74  F   UNL A   1      46.563  29.423  33.439  1.00  0.00    -0.203 F 
ATOM     75  F   UNL A   1      46.339  25.058  36.705  1.00  0.00    -0.200 F 
ATOM     76  C   UNL A   1      47.577  26.825  35.746  1.00  0.00     0.200 A 
ATOM     77  F   UNL A   1      48.769  28.618  34.777  1.00  0.00    -0.200 F 
ATOM     78  F   UNL A   1      48.662  26.464  36.446  1.00  0.00    -0.200 F 
ENDBRANCH  45  68
ENDBRANCH  19  20
ENDBRANCH  12  14
ENDBRANCH  11  12
ENDBRANCH  10  11
ENDBRANCH   9  10
ENDBRANCH   8   9
ENDBRANCH   6   8
ENDBRANCH   1   6
BRANCH   1  79
ATOM     79  N   UNL A   1      29.410  27.226  23.113  1.00  0.00    -0.341 N 
ATOM     80  C   UNL A   1      28.998  26.416  24.123  1.00  0.00     0.240 C 
ATOM     81  H   UNL A   1      28.851  27.331  22.309  1.00  0.00     0.164 HD
ATOM     82  O   UNL A   1      27.858  25.953  24.062  1.00  0.00    -0.273 OA
BRANCH  80  83
ATOM     83  C   UNL A   1      29.974  26.084  25.348  1.00  0.00     0.216 C 
BRANCH  83  84
ATOM     84  N   UNL A   1      30.695  24.835  25.959  1.00  0.00    -0.345 N 
ATOM     85  C   UNL A   1      31.448  23.700  25.994  1.00  0.00     0.243 C 
ATOM     86  H   UNL A   1      30.455  24.928  26.908  1.00  0.00     0.164 HD
ATOM     87  O   UNL A   1      31.754  23.503  27.196  1.00  0.00    -0.273 OA
BRANCH  85  88
ATOM     88  C   UNL A   1      32.018  22.499  24.973  1.00  0.00     0.177 C 
BRANCH  88  89
ATOM     89  N   UNL A   1      32.764  22.921  23.744  1.00  0.00    -0.309 N 
ATOM     90  C   UNL A   1      34.083  23.171  23.447  1.00  0.00     0.408 C 
ATOM     91  H   UNL A   1      32.172  23.050  22.968  1.00  0.00     0.167 HD
ATOM     92  O   UNL A   1      34.374  23.741  22.399  1.00  0.00    -0.225 OA
BRANCH  90  93
ATOM     93  O   UNL A   1      34.991  22.827  24.398  1.00  0.00    -0.445 OA
BRANCH  93  94
ATOM     94  C   UNL A   1      35.873  23.863  24.897  1.00  0.00     0.270 C 
BRANCH  94  95
ATOM     95  C   UNL A   1      37.207  23.443  25.471  1.00  0.00    -0.011 A 
ATOM     96  C   UNL A   1      37.954  24.281  26.301  1.00  0.00     0.007 A 
ATOM     97  C   UNL A   1      37.664  22.125  25.266  1.00  0.00     0.007 A 
ATOM     98  C   UNL A   1      39.128  23.825  26.903  1.00  0.00     0.000 A 
ATOM     99  C   UNL A   1      38.842  21.670  25.864  1.00  0.00     0.000 A 
ATOM    100  C   UNL A   1      39.573  22.522  26.686  1.00  0.00     0.000 A 
ENDBRANCH  94  95
ENDBRANCH  93  94
ENDBRANCH  90  93
ENDBRANCH  88  89
BRANCH  88 101
ATOM    101  C   UNL A   1      32.354  21.078  25.526  1.00  0.00     0.015 C 
ATOM    102  C   UNL A   1      32.583  20.074  24.388  1.00  0.00     0.010 C 
ATOM    103  C   UNL A   1      33.638  21.021  26.396  1.00  0.00     0.010 C 
ENDBRANCH  88 101
ENDBRANCH  85  88
ENDBRANCH  83  84
ENDBRANCH  80  83
ENDBRANCH   1  79
TORSDOF 22
ENDMDL
MODEL 3
REMARK VINA RESULT:     -11.2      4.472     10.238
REMARK SMILES CC(C)C[C@H](NC(=O)CNC(=O)[C@@H](NC(=O)OCc1ccccc1)C(C)C)C(=O)OCCOC(=O)c1ccc(-c2c3nc(c(-c4c(F)c(F)c(F)c(F)c4F)c4ccc([nH]4)c(-c4c(F)c(F)c(F)c(F)c4F)c4nc(c(-c5c(F)c(F)c(F)c(F)c5F)c5ccc2[nH]5)C=C4)C=C3)cc1
REMARK SMILES IDX 5 1 4 2 2 3 1 4 3 5 28 6 29 7 30 8 31 9 32 10 33 11 34 12
REMARK SMILES IDX 35 13 36 14 37 15 98 16 38 17 97 18 39 19 40 20 41 21 91 22
REMARK SMILES IDX 42 23 96 24 90 25 92 26 43 27 95 28 89 29 88 30 44 32 76 33
REMARK SMILES IDX 56 34 75 35 57 36 60 37 74 38 93 39 58 40 59 41 73 43 94 44
REMARK SMILES IDX 61 45 45 46 46 47 54 48 47 49 48 50 52 51 55 52 49 53 50 54
REMARK SMILES IDX 53 55 51 56 77 57 78 58 86 59 79 60 80 61 84 62 87 63 81 64
REMARK SMILES IDX 82 65 85 66 83 67 62 68 63 69 71 70 64 71 65 72 69 73 72 74
REMARK SMILES IDX 66 75 67 76 70 77 68 78 6 79 7 80 8 82 9 83 10 84 11 85
REMARK SMILES IDX 12 87 13 88 14 89 15 90 16 92 17 93 18 94 19 95 20 96 24 97
REMARK SMILES IDX 21 98 23 99 22 100 25 101 26 102 27 103
REMARK H PARENT 92 31 60 42 6 81 10 86 14 91
REMARK Flexibility Score: inf
ROOT
ATOM      1  C   UNL A   1      35.808  22.462  25.648  1.00  0.00     0.192 C 
ENDROOT
BRANCH   1   2
ATOM      2  C   UNL A   1      34.937  21.491  26.514  1.00  0.00     0.040 C 
BRANCH   2   3
ATOM      3  C   UNL A   1      33.365  21.529  26.744  1.00  0.00    -0.015 C 
ATOM      4  C   UNL A   1      32.671  22.915  26.856  1.00  0.00     0.007 C 
ATOM      5  C   UNL A   1      32.656  20.910  25.536  1.00  0.00     0.007 C 
ENDBRANCH   2   3
ENDBRANCH   1   2
BRANCH   1   6
ATOM      6  C   UNL A   1      37.412  22.440  25.625  1.00  0.00     0.328 C 
ATOM      7  O   UNL A   1      38.143  23.206  26.238  1.00  0.00    -0.250 OA
BRANCH   6   8
ATOM      8  O   UNL A   1      37.861  21.431  24.803  1.00  0.00    -0.461 OA
BRANCH   8   9
ATOM      9  C   UNL A   1      37.847  20.027  25.154  1.00  0.00     0.274 C 
BRANCH   9  10
ATOM     10  C   UNL A   1      39.271  19.464  25.107  1.00  0.00     0.275 C 
BRANCH  10  11
ATOM     11  O   UNL A   1      39.981  19.871  26.283  1.00  0.00    -0.458 OA
BRANCH  11  12
ATOM     12  C   UNL A   1      41.313  19.636  26.221  1.00  0.00     0.338 C 
ATOM     13  O   UNL A   1      41.892  18.649  25.822  1.00  0.00    -0.246 OA
BRANCH  12  14
ATOM     14  C   UNL A   1      42.011  20.877  26.552  1.00  0.00     0.060 A 
ATOM     15  C   UNL A   1      42.205  21.170  27.902  1.00  0.00     0.016 A 
ATOM     16  C   UNL A   1      42.361  21.782  25.554  1.00  0.00     0.016 A 
ATOM     17  C   UNL A   1      42.694  22.410  28.272  1.00  0.00     0.010 A 
ATOM     18  C   UNL A   1      42.882  23.018  25.925  1.00  0.00     0.010 A 
ATOM     19  C   UNL A   1      43.017  23.349  27.286  1.00  0.00    -0.014 A 
BRANCH  19  20
ATOM     20  C   UNL A   1      43.432  24.705  27.700  1.00  0.00     0.031 A 
ATOM     21  C   UNL A   1      42.390  25.728  28.046  1.00  0.00     0.074 A 
ATOM     22  C   UNL A   1      44.742  24.986  27.808  1.00  0.00     0.049 A 
ATOM     23  N   UNL A   1      42.542  26.986  28.372  1.00  0.00    -0.248 NA
ATOM     24  C   UNL A   1      40.988  25.281  28.010  1.00  0.00     0.031 C 
ATOM     25  C   UNL A   1      45.830  24.048  27.529  1.00  0.00     0.029 A 
ATOM     26  N   UNL A   1      45.379  26.137  28.185  1.00  0.00    -0.354 N 
ATOM     27  C   UNL A   1      41.260  27.482  28.566  1.00  0.00     0.074 A 
ATOM     28  C   UNL A   1      40.338  26.404  28.281  1.00  0.00     0.031 C 
ATOM     29  C   UNL A   1      47.003  24.658  27.755  1.00  0.00     0.029 A 
ATOM     30  C   UNL A   1      46.747  26.043  28.135  1.00  0.00     0.049 A 
ATOM     31  H   UNL A   1      44.903  26.953  28.463  1.00  0.00     0.167 HD
ATOM     32  C   UNL A   1      40.893  28.725  28.960  1.00  0.00     0.037 A 
ATOM     33  C   UNL A   1      47.686  26.983  28.342  1.00  0.00     0.037 A 
ATOM     34  C   UNL A   1      41.826  29.783  29.246  1.00  0.00     0.049 A 
ATOM     35  C   UNL A   1      47.245  28.368  28.726  1.00  0.00     0.074 A 
ATOM     36  C   UNL A   1      41.566  31.082  29.646  1.00  0.00     0.029 A 
ATOM     37  N   UNL A   1      43.208  29.661  29.164  1.00  0.00    -0.354 N 
ATOM     38  N   UNL A   1      46.033  28.835  28.900  1.00  0.00    -0.248 NA
ATOM     39  C   UNL A   1      48.308  29.356  28.948  1.00  0.00     0.031 C 
ATOM     40  C   UNL A   1      42.785  31.760  29.756  1.00  0.00     0.029 A 
ATOM     41  C   UNL A   1      43.811  30.867  29.488  1.00  0.00     0.049 A 
ATOM     42  H   UNL A   1      43.688  28.840  28.912  1.00  0.00     0.167 HD
ATOM     43  C   UNL A   1      46.184  30.163  29.271  1.00  0.00     0.074 A 
ATOM     44  C   UNL A   1      47.610  30.415  29.331  1.00  0.00     0.031 C 
ATOM     45  C   UNL A   1      45.234  31.096  29.533  1.00  0.00     0.037 A 
BRANCH  32  46
ATOM     46  C   UNL A   1      39.423  29.009  29.084  1.00  0.00     0.064 A 
ATOM     47  C   UNL A   1      38.750  28.906  30.311  1.00  0.00     0.173 A 
ATOM     48  C   UNL A   1      38.683  29.423  27.966  1.00  0.00     0.173 A 
ATOM     49  F   UNL A   1      39.404  28.499  31.408  1.00  0.00    -0.203 F 
ATOM     50  C   UNL A   1      37.388  29.183  30.407  1.00  0.00     0.198 A 
ATOM     51  C   UNL A   1      37.329  29.731  28.073  1.00  0.00     0.198 A 
ATOM     52  F   UNL A   1      39.275  29.540  26.767  1.00  0.00    -0.203 F 
ATOM     53  F   UNL A   1      36.756  29.029  31.580  1.00  0.00    -0.200 F 
ATOM     54  C   UNL A   1      36.681  29.604  29.291  1.00  0.00     0.200 A 
ATOM     55  F   UNL A   1      36.651  30.152  26.995  1.00  0.00    -0.200 F 
ATOM     56  F   UNL A   1      35.373  29.880  29.389  1.00  0.00    -0.200 F 
ENDBRANCH  32  46
BRANCH  33  57
ATOM     57  C   UNL A   1      49.123  26.649  28.160  1.00  0.00     0.064 A 
ATOM     58  C   UNL A   1      49.945  26.350  29.253  1.00  0.00     0.173 A 
ATOM     59  C   UNL A   1      49.706  26.636  26.882  1.00  0.00     0.173 A 
ATOM     60  F   UNL A   1      49.441  26.368  30.495  1.00  0.00    -0.203 F 
ATOM     61  C   UNL A   1      51.301  26.080  29.080  1.00  0.00     0.198 A 
ATOM     62  C   UNL A   1      51.053  26.328  26.708  1.00  0.00     0.198 A 
ATOM     63  F   UNL A   1      48.963  26.910  25.800  1.00  0.00    -0.203 F 
ATOM     64  F   UNL A   1      52.078  25.858  30.149  1.00  0.00    -0.200 F 
ATOM     65  C   UNL A   1      51.852  26.063  27.808  1.00  0.00     0.200 A 
ATOM     66  F   UNL A   1      51.575  26.294  25.474  1.00  0.00    -0.200 F 
ATOM     67  F   UNL A   1      53.156  25.802  27.643  1.00  0.00    -0.200 F 
ENDBRANCH  33  57
BRANCH  45  68
ATOM     68  C   UNL A   1      45.719  32.459  29.935  1.00  0.00     0.064 A 
ATOM     69  C   UNL A   1      45.973  32.787  31.276  1.00  0.00     0.173 A 
ATOM     70  C   UNL A   1      45.925  33.454  28.967  1.00  0.00     0.173 A 
ATOM     71  F   UNL A   1      45.778  31.877  32.242  1.00  0.00    -0.203 F 
ATOM     72  C   UNL A   1      46.364  34.073  31.637  1.00  0.00     0.198 A 
ATOM     73  C   UNL A   1      46.355  34.728  29.327  1.00  0.00     0.198 A 
ATOM     74  F   UNL A   1      45.709  33.192  27.669  1.00  0.00    -0.203 F 
ATOM     75  F   UNL A   1      46.523  34.385  32.931  1.00  0.00    -0.200 F 
ATOM     76  C   UNL A   1      46.559  35.041  30.663  1.00  0.00     0.200 A 
ATOM     77  F   UNL A   1      46.561  35.656  28.383  1.00  0.00    -0.200 F 
ATOM     78  F   UNL A   1      46.931  36.280  31.012  1.00  0.00    -0.200 F 
ENDBRANCH  45  68
ENDBRANCH  19  20
ENDBRANCH  12  14
ENDBRANCH  11  12
ENDBRANCH  10  11
ENDBRANCH   9  10
ENDBRANCH   8   9
ENDBRANCH   6   8
ENDBRANCH   1   6
BRANCH   1  79
ATOM     79  N   UNL A   1      35.342  22.393  24.308  1.00  0.00    -0.341 N 
ATOM     80  C   UNL A   1      34.836  23.500  23.705  1.00  0.00     0.240 C 
ATOM     81  H   UNL A   1      35.387  21.542  23.816  1.00  0.00     0.164 HD
ATOM     82  O   UNL A   1      34.586  23.434  22.499  1.00  0.00    -0.273 OA
BRANCH  80  83
ATOM     83  C   UNL A   1      34.580  24.840  24.543  1.00  0.00     0.216 C 
BRANCH  83  84
ATOM     84  N   UNL A   1      34.098  26.305  24.280  1.00  0.00    -0.345 N 
ATOM     85  C   UNL A   1      33.332  27.426  24.395  1.00  0.00     0.243 C 
ATOM     86  H   UNL A   1      34.763  26.603  23.618  1.00  0.00     0.164 HD
ATOM     87  O   UNL A   1      33.991  28.371  23.897  1.00  0.00    -0.273 OA
BRANCH  85  88
ATOM     88  C   UNL A   1      31.813  27.900  24.924  1.00  0.00     0.177 C 
BRANCH  88  89
ATOM     89  N   UNL A   1      30.662  26.978  24.664  1.00  0.00    -0.309 N 
ATOM     90  C   UNL A   1      29.525  27.038  23.891  1.00  0.00     0.408 C 
ATOM     91  H   UNL A   1      30.734  26.132  25.163  1.00  0.00     0.167 HD
ATOM     92  O   UNL A   1      28.628  26.217  24.063  1.00  0.00    -0.225 OA
BRANCH  90  93
ATOM     93  O   UNL A   1      29.443  28.077  23.020  1.00  0.00    -0.445 OA
BRANCH  93  94
ATOM     94  C   UNL A   1      28.153  28.716  22.849  1.00  0.00     0.270 C 
BRANCH  94  95
ATOM     95  C   UNL A   1      28.131  30.190  22.513  1.00  0.00    -0.011 A 
ATOM     96  C   UNL A   1      28.334  31.174  23.482  1.00  0.00     0.007 A 
ATOM     97  C   UNL A   1      28.022  30.590  21.165  1.00  0.00     0.007 A 
ATOM     98  C   UNL A   1      28.416  32.521  23.123  1.00  0.00     0.000 A 
ATOM     99  C   UNL A   1      28.099  31.939  20.806  1.00  0.00     0.000 A 
ATOM    100  C   UNL A   1      28.298  32.904  21.788  1.00  0.00     0.000 A 
ENDBRANCH  94  95
ENDBRANCH  93  94
ENDBRANCH  90  93
ENDBRANCH  88  89
BRANCH  88 101
ATOM    101  C   UNL A   1      31.661  28.862  26.145  1.00  0.00     0.015 C 
ATOM    102  C   UNL A   1      32.805  28.674  27.150  1.00  0.00     0.010 C 
ATOM    103  C   UNL A   1      31.675  30.368  25.774  1.00  0.00     0.010 C 
ENDBRANCH  88 101
ENDBRANCH  85  88
ENDBRANCH  83  84
ENDBRANCH  80  83
ENDBRANCH   1  79
TORSDOF 22
ENDMDL
