MODEL 1
REMARK VINA RESULT:     -12.3      0.000      0.000
REMARK SMILES Cc1ccc(N2CCC[C@@H](Cn3cc(C(=O)OCCOC(=O)c4ccc(-c5c6nc(c(-c7c(F)c(F)c(F)c(F)c7F)c7ccc([nH]7)c(-c7c(F)c(F)c(F)c(F)c7F)c7nc(c(-c8c(F)c(F)c(F)c(F)c8F)c8ccc5[nH]8)C=C7)C=C6)cc4)nn3)C2)nn1
REMARK SMILES IDX 18 1 17 2 15 3 16 4 14 5 12 6 13 7 87 8 86 9 11 10 10 11
REMARK SMILES IDX 6 12 7 13 88 14 8 15 9 16 5 17 1 18 2 19 3 20 90 21 4 22
REMARK SMILES IDX 89 23 19 24 20 25 21 26 22 27 23 28 24 29 85 30 25 31 84 32
REMARK SMILES IDX 26 33 27 34 28 35 78 36 29 37 83 38 77 39 79 40 30 41 82 42
REMARK SMILES IDX 76 43 75 44 31 46 63 47 43 48 62 49 44 50 47 51 61 52 80 53
REMARK SMILES IDX 45 54 46 55 60 57 81 58 48 59 32 60 33 61 41 62 34 63 35 64
REMARK SMILES IDX 39 65 42 66 36 67 37 68 40 69 38 70 64 71 65 72 73 73 66 74
REMARK SMILES IDX 67 75 71 76 74 77 68 78 69 79 72 80 70 81 49 82 50 83 58 84
REMARK SMILES IDX 51 85 52 86 56 87 59 88 53 89 54 90 57 91 55 92
REMARK H PARENT 79 45 47 56
REMARK Flexibility Score: inf
ROOT
ATOM      1  C   UNL A   1      41.581  19.790  27.198  1.00  0.00     0.275 C 
ENDROOT
BRANCH   1   2
ATOM      2  O   UNL A   1      41.850  18.861  26.133  1.00  0.00    -0.457 OA
BRANCH   2   3
ATOM      3  C   UNL A   1      43.019  18.142  26.236  1.00  0.00     0.360 C 
ATOM      4  O   UNL A   1      43.107  17.054  26.769  1.00  0.00    -0.244 OA
BRANCH   3   5
ATOM      5  C   UNL A   1      44.128  18.812  25.566  1.00  0.00     0.190 A 
ATOM      6  N   UNL A   1      45.461  20.280  24.728  1.00  0.00    -0.251 N 
ATOM      7  C   UNL A   1      44.149  20.076  25.015  1.00  0.00     0.146 A 
ATOM      8  N   UNL A   1      46.163  19.138  24.829  1.00  0.00    -0.067 NA
ATOM      9  N   UNL A   1      45.359  18.230  25.369  1.00  0.00    -0.123 NA
BRANCH   6  10
ATOM     10  C   UNL A   1      46.147  21.553  24.658  1.00  0.00     0.151 C 
BRANCH  10  11
ATOM     11  C   UNL A   1      45.380  22.703  25.349  1.00  0.00     0.030 C 
ATOM     12  N   UNL A   1      45.508  24.642  26.796  1.00  0.00    -0.355 N 
ATOM     13  C   UNL A   1      44.851  25.556  25.866  1.00  0.00     0.118 C 
ATOM     14  C   UNL A   1      46.319  23.611  26.165  1.00  0.00     0.123 C 
ATOM     15  C   UNL A   1      43.854  24.739  25.045  1.00  0.00     0.022 C 
ATOM     16  C   UNL A   1      44.523  23.537  24.369  1.00  0.00     0.009 C 
BRANCH  12  17
ATOM     17  C   UNL A   1      46.095  25.244  27.906  1.00  0.00     0.151 A 
ATOM     18  C   UNL A   1      47.741  26.793  31.482  1.00  0.00     0.069 C 
ATOM     19  C   UNL A   1      47.134  26.300  30.208  1.00  0.00     0.060 A 
ATOM     20  C   UNL A   1      45.805  26.536  29.907  1.00  0.00     0.029 A 
ATOM     21  N   UNL A   1      47.913  25.562  29.388  1.00  0.00    -0.154 NA
ATOM     22  C   UNL A   1      45.288  26.014  28.730  1.00  0.00     0.051 A 
ATOM     23  N   UNL A   1      47.385  25.024  28.236  1.00  0.00    -0.133 NA
ENDBRANCH  12  17
ENDBRANCH  10  11
ENDBRANCH   6  10
ENDBRANCH   3   5
ENDBRANCH   2   3
ENDBRANCH   1   2
BRANCH   1  24
ATOM     24  C   UNL A   1      40.427  20.717  26.833  1.00  0.00     0.275 C 
BRANCH  24  25
ATOM     25  O   UNL A   1      40.536  21.944  27.553  1.00  0.00    -0.458 OA
BRANCH  25  26
ATOM     26  C   UNL A   1      39.934  22.996  26.955  1.00  0.00     0.338 C 
ATOM     27  O   UNL A   1      38.876  22.989  26.344  1.00  0.00    -0.246 OA
BRANCH  26  28
ATOM     28  C   UNL A   1      40.821  24.157  26.980  1.00  0.00     0.060 A 
ATOM     29  C   UNL A   1      41.669  24.261  28.088  1.00  0.00     0.016 A 
ATOM     30  C   UNL A   1      40.431  25.265  26.219  1.00  0.00     0.016 A 
ATOM     31  C   UNL A   1      41.882  25.513  28.614  1.00  0.00     0.010 A 
ATOM     32  C   UNL A   1      40.616  26.507  26.763  1.00  0.00     0.010 A 
ATOM     33  C   UNL A   1      41.243  26.595  28.004  1.00  0.00    -0.014 A 
BRANCH  33  34
ATOM     34  C   UNL A   1      41.214  27.854  28.706  1.00  0.00     0.031 A 
ATOM     35  C   UNL A   1      42.333  28.752  28.354  1.00  0.00     0.074 A 
ATOM     36  C   UNL A   1      40.172  28.189  29.489  1.00  0.00     0.049 A 
ATOM     37  N   UNL A   1      43.279  29.181  29.119  1.00  0.00    -0.248 NA
ATOM     38  C   UNL A   1      42.501  29.090  26.931  1.00  0.00     0.031 C 
ATOM     39  C   UNL A   1      38.884  27.506  29.653  1.00  0.00     0.029 A 
ATOM     40  N   UNL A   1      40.019  29.308  30.239  1.00  0.00    -0.354 N 
ATOM     41  C   UNL A   1      44.079  29.976  28.307  1.00  0.00     0.074 A 
ATOM     42  C   UNL A   1      43.661  29.742  26.950  1.00  0.00     0.031 C 
ATOM     43  C   UNL A   1      38.011  28.346  30.259  1.00  0.00     0.029 A 
ATOM     44  C   UNL A   1      38.714  29.561  30.634  1.00  0.00     0.049 A 
ATOM     45  H   UNL A   1      40.771  29.892  30.483  1.00  0.00     0.167 HD
ATOM     46  C   UNL A   1      44.877  30.948  28.820  1.00  0.00     0.037 A 
ATOM     47  C   UNL A   1      38.272  30.751  31.114  1.00  0.00     0.037 A 
ATOM     48  C   UNL A   1      45.098  30.769  30.229  1.00  0.00     0.049 A 
ATOM     49  C   UNL A   1      39.472  31.517  31.560  1.00  0.00     0.074 A 
ATOM     50  C   UNL A   1      45.698  29.782  30.987  1.00  0.00     0.029 A 
ATOM     51  N   UNL A   1      44.325  31.494  31.104  1.00  0.00    -0.354 N 
ATOM     52  N   UNL A   1      40.215  31.171  32.577  1.00  0.00    -0.248 NA
ATOM     53  C   UNL A   1      40.121  32.375  30.577  1.00  0.00     0.031 C 
ATOM     54  C   UNL A   1      44.879  29.660  32.148  1.00  0.00     0.029 A 
ATOM     55  C   UNL A   1      43.867  30.616  32.056  1.00  0.00     0.049 A 
ATOM     56  H   UNL A   1      44.136  32.458  31.057  1.00  0.00     0.167 HD
ATOM     57  C   UNL A   1      41.518  31.423  32.170  1.00  0.00     0.074 A 
ATOM     58  C   UNL A   1      41.394  32.214  30.949  1.00  0.00     0.031 C 
ATOM     59  C   UNL A   1      42.572  30.726  32.687  1.00  0.00     0.037 A 
BRANCH  46  60
ATOM     60  C   UNL A   1      45.177  32.227  28.098  1.00  0.00     0.064 A 
ATOM     61  C   UNL A   1      44.151  33.161  27.879  1.00  0.00     0.173 A 
ATOM     62  C   UNL A   1      46.377  32.449  27.385  1.00  0.00     0.173 A 
ATOM     63  F   UNL A   1      42.960  33.017  28.477  1.00  0.00    -0.203 F 
ATOM     64  C   UNL A   1      44.306  34.219  26.980  1.00  0.00     0.198 A 
ATOM     65  C   UNL A   1      46.549  33.538  26.538  1.00  0.00     0.198 A 
ATOM     66  F   UNL A   1      47.382  31.563  27.394  1.00  0.00    -0.203 F 
ATOM     67  F   UNL A   1      43.268  35.023  26.716  1.00  0.00    -0.200 F 
ATOM     68  C   UNL A   1      45.504  34.408  26.314  1.00  0.00     0.200 A 
ATOM     69  F   UNL A   1      47.710  33.689  25.886  1.00  0.00    -0.200 F 
ATOM     70  F   UNL A   1      45.637  35.393  25.417  1.00  0.00    -0.200 F 
ENDBRANCH  46  60
BRANCH  47  71
ATOM     71  C   UNL A   1      36.985  31.419  30.795  1.00  0.00     0.064 A 
ATOM     72  C   UNL A   1      36.066  31.735  31.809  1.00  0.00     0.173 A 
ATOM     73  C   UNL A   1      36.758  32.016  29.538  1.00  0.00     0.173 A 
ATOM     74  F   UNL A   1      36.235  31.247  33.047  1.00  0.00    -0.203 F 
ATOM     75  C   UNL A   1      34.999  32.614  31.584  1.00  0.00     0.198 A 
ATOM     76  C   UNL A   1      35.691  32.887  29.314  1.00  0.00     0.198 A 
ATOM     77  F   UNL A   1      37.623  31.846  28.528  1.00  0.00    -0.203 F 
ATOM     78  F   UNL A   1      34.178  32.940  32.592  1.00  0.00    -0.200 F 
ATOM     79  C   UNL A   1      34.820  33.197  30.340  1.00  0.00     0.200 A 
ATOM     80  F   UNL A   1      35.553  33.473  28.117  1.00  0.00    -0.200 F 
ATOM     81  F   UNL A   1      33.837  34.087  30.142  1.00  0.00    -0.200 F 
ENDBRANCH  47  71
BRANCH  59  82
ATOM     82  C   UNL A   1      42.310  29.815  33.854  1.00  0.00     0.064 A 
ATOM     83  C   UNL A   1      41.834  28.497  33.724  1.00  0.00     0.173 A 
ATOM     84  C   UNL A   1      42.714  30.228  35.130  1.00  0.00     0.173 A 
ATOM     85  F   UNL A   1      41.527  27.992  32.523  1.00  0.00    -0.203 F 
ATOM     86  C   UNL A   1      41.729  27.653  34.828  1.00  0.00     0.198 A 
ATOM     87  C   UNL A   1      42.644  29.370  36.224  1.00  0.00     0.198 A 
ATOM     88  F   UNL A   1      43.232  31.454  35.305  1.00  0.00    -0.203 F 
ATOM     89  F   UNL A   1      41.265  26.402  34.677  1.00  0.00    -0.200 F 
ATOM     90  C   UNL A   1      42.143  28.087  36.075  1.00  0.00     0.200 A 
ATOM     91  F   UNL A   1      43.092  29.778  37.418  1.00  0.00    -0.200 F 
ATOM     92  F   UNL A   1      42.087  27.260  37.130  1.00  0.00    -0.200 F 
ENDBRANCH  59  82
ENDBRANCH  33  34
ENDBRANCH  26  28
ENDBRANCH  25  26
ENDBRANCH  24  25
ENDBRANCH   1  24
TORSDOF 14
ENDMDL
MODEL 2
REMARK VINA RESULT:     -12.3      3.854      6.173
REMARK SMILES Cc1ccc(N2CCC[C@@H](Cn3cc(C(=O)OCCOC(=O)c4ccc(-c5c6nc(c(-c7c(F)c(F)c(F)c(F)c7F)c7ccc([nH]7)c(-c7c(F)c(F)c(F)c(F)c7F)c7nc(c(-c8c(F)c(F)c(F)c(F)c8F)c8ccc5[nH]8)C=C7)C=C6)cc4)nn3)C2)nn1
REMARK SMILES IDX 18 1 17 2 15 3 16 4 14 5 12 6 13 7 87 8 86 9 11 10 10 11
REMARK SMILES IDX 6 12 7 13 88 14 8 15 9 16 5 17 1 18 2 19 3 20 90 21 4 22
REMARK SMILES IDX 89 23 19 24 20 25 21 26 22 27 23 28 24 29 85 30 25 31 84 32
REMARK SMILES IDX 26 33 27 34 28 35 78 36 29 37 83 38 77 39 79 40 30 41 82 42
REMARK SMILES IDX 76 43 75 44 31 46 63 47 43 48 62 49 44 50 47 51 61 52 80 53
REMARK SMILES IDX 45 54 46 55 60 57 81 58 48 59 32 60 33 61 41 62 34 63 35 64
REMARK SMILES IDX 39 65 42 66 36 67 37 68 40 69 38 70 64 71 65 72 73 73 66 74
REMARK SMILES IDX 67 75 71 76 74 77 68 78 69 79 72 80 70 81 49 82 50 83 58 84
REMARK SMILES IDX 51 85 52 86 56 87 59 88 53 89 54 90 57 91 55 92
REMARK H PARENT 79 45 47 56
REMARK Flexibility Score: inf
ROOT
ATOM      1  C   UNL A   1      42.572  20.631  26.079  1.00  0.00     0.275 C 
ENDROOT
BRANCH   1   2
ATOM      2  O   UNL A   1      41.340  21.137  26.623  1.00  0.00    -0.457 OA
BRANCH   2   3
ATOM      3  C   UNL A   1      40.182  20.626  26.081  1.00  0.00     0.360 C 
ATOM      4  O   UNL A   1      40.026  19.459  25.779  1.00  0.00    -0.244 OA
BRANCH   3   5
ATOM      5  C   UNL A   1      39.139  21.640  25.978  1.00  0.00     0.190 A 
ATOM      6  N   UNL A   1      37.258  22.663  25.752  1.00  0.00    -0.251 N 
ATOM      7  C   UNL A   1      37.904  21.529  25.373  1.00  0.00     0.146 A 
ATOM      8  N   UNL A   1      38.107  23.541  26.314  1.00  0.00    -0.067 NA
ATOM      9  N   UNL A   1      39.265  22.914  26.482  1.00  0.00    -0.123 NA
BRANCH   6  10
ATOM     10  C   UNL A   1      35.828  22.842  25.889  1.00  0.00     0.151 C 
BRANCH  10  11
ATOM     11  C   UNL A   1      35.009  22.093  24.815  1.00  0.00     0.030 C 
ATOM     12  N   UNL A   1      33.628  20.171  24.294  1.00  0.00    -0.355 N 
ATOM     13  C   UNL A   1      32.509  20.941  23.762  1.00  0.00     0.118 C 
ATOM     14  C   UNL A   1      34.351  20.819  25.378  1.00  0.00     0.123 C 
ATOM     15  C   UNL A   1      33.081  22.210  23.130  1.00  0.00     0.022 C 
ATOM     16  C   UNL A   1      33.960  22.988  24.114  1.00  0.00     0.009 C 
BRANCH  12  17
ATOM     17  C   UNL A   1      33.377  18.815  24.493  1.00  0.00     0.151 A 
ATOM     18  C   UNL A   1      32.851  14.714  25.383  1.00  0.00     0.069 C 
ATOM     19  C   UNL A   1      33.049  16.148  25.011  1.00  0.00     0.060 A 
ATOM     20  C   UNL A   1      34.147  16.553  24.275  1.00  0.00     0.029 A 
ATOM     21  N   UNL A   1      32.149  17.043  25.472  1.00  0.00    -0.154 NA
ATOM     22  C   UNL A   1      34.299  17.905  24.000  1.00  0.00     0.051 A 
ATOM     23  N   UNL A   1      32.322  18.385  25.218  1.00  0.00    -0.133 NA
ENDBRANCH  12  17
ENDBRANCH  10  11
ENDBRANCH   6  10
ENDBRANCH   3   5
ENDBRANCH   2   3
ENDBRANCH   1   2
BRANCH   1  24
ATOM     24  C   UNL A   1      43.497  21.772  25.672  1.00  0.00     0.275 C 
BRANCH  24  25
ATOM     25  O   UNL A   1      42.760  22.780  24.983  1.00  0.00    -0.458 OA
BRANCH  25  26
ATOM     26  C   UNL A   1      43.100  24.045  25.315  1.00  0.00     0.338 C 
ATOM     27  O   UNL A   1      44.126  24.635  25.011  1.00  0.00    -0.246 OA
BRANCH  26  28
ATOM     28  C   UNL A   1      42.130  24.588  26.264  1.00  0.00     0.060 A 
ATOM     29  C   UNL A   1      41.231  25.532  25.755  1.00  0.00     0.016 A 
ATOM     30  C   UNL A   1      42.470  24.522  27.620  1.00  0.00     0.016 A 
ATOM     31  C   UNL A   1      40.906  26.601  26.556  1.00  0.00     0.010 A 
ATOM     32  C   UNL A   1      42.173  25.603  28.404  1.00  0.00     0.010 A 
ATOM     33  C   UNL A   1      41.490  26.669  27.823  1.00  0.00    -0.014 A 
BRANCH  33  34
ATOM     34  C   UNL A   1      41.398  27.911  28.550  1.00  0.00     0.031 A 
ATOM     35  C   UNL A   1      42.487  28.860  28.237  1.00  0.00     0.074 A 
ATOM     36  C   UNL A   1      40.330  28.188  29.319  1.00  0.00     0.049 A 
ATOM     37  N   UNL A   1      43.401  29.310  29.028  1.00  0.00    -0.248 NA
ATOM     38  C   UNL A   1      42.666  29.234  26.824  1.00  0.00     0.031 C 
ATOM     39  C   UNL A   1      39.068  27.451  29.445  1.00  0.00     0.029 A 
ATOM     40  N   UNL A   1      40.118  29.284  30.089  1.00  0.00    -0.354 N 
ATOM     41  C   UNL A   1      44.182  30.153  28.247  1.00  0.00     0.074 A 
ATOM     42  C   UNL A   1      43.799  29.931  26.878  1.00  0.00     0.031 C 
ATOM     43  C   UNL A   1      38.151  28.243  30.052  1.00  0.00     0.029 A 
ATOM     44  C   UNL A   1      38.797  29.477  30.465  1.00  0.00     0.049 A 
ATOM     45  H   UNL A   1      40.843  29.892  30.358  1.00  0.00     0.167 HD
ATOM     46  C   UNL A   1      44.931  31.145  28.795  1.00  0.00     0.037 A 
ATOM     47  C   UNL A   1      38.300  30.638  30.960  1.00  0.00     0.037 A 
ATOM     48  C   UNL A   1      45.134  30.946  30.204  1.00  0.00     0.049 A 
ATOM     49  C   UNL A   1      39.460  31.441  31.444  1.00  0.00     0.074 A 
ATOM     50  C   UNL A   1      45.759  29.968  30.953  1.00  0.00     0.029 A 
ATOM     51  N   UNL A   1      44.318  31.620  31.078  1.00  0.00    -0.354 N 
ATOM     52  N   UNL A   1      40.198  31.104  32.468  1.00  0.00    -0.248 NA
ATOM     53  C   UNL A   1      40.092  32.345  30.491  1.00  0.00     0.031 C 
ATOM     54  C   UNL A   1      44.925  29.789  32.095  1.00  0.00     0.029 A 
ATOM     55  C   UNL A   1      43.878  30.706  32.004  1.00  0.00     0.049 A 
ATOM     56  H   UNL A   1      44.091  32.577  31.048  1.00  0.00     0.167 HD
ATOM     57  C   UNL A   1      41.497  31.415  32.090  1.00  0.00     0.074 A 
ATOM     58  C   UNL A   1      41.363  32.227  30.883  1.00  0.00     0.031 C 
ATOM     59  C   UNL A   1      42.569  30.750  32.612  1.00  0.00     0.037 A 
BRANCH  46  60
ATOM     60  C   UNL A   1      45.193  32.450  28.104  1.00  0.00     0.064 A 
ATOM     61  C   UNL A   1      44.145  33.368  27.930  1.00  0.00     0.173 A 
ATOM     62  C   UNL A   1      46.376  32.716  27.378  1.00  0.00     0.173 A 
ATOM     63  F   UNL A   1      42.967  33.183  28.543  1.00  0.00    -0.203 F 
ATOM     64  C   UNL A   1      44.262  34.453  27.058  1.00  0.00     0.198 A 
ATOM     65  C   UNL A   1      46.511  33.832  26.559  1.00  0.00     0.198 A 
ATOM     66  F   UNL A   1      47.398  31.851  27.345  1.00  0.00    -0.203 F 
ATOM     67  F   UNL A   1      43.204  35.243  26.835  1.00  0.00    -0.200 F 
ATOM     68  C   UNL A   1      45.445  34.686  26.378  1.00  0.00     0.200 A 
ATOM     69  F   UNL A   1      47.657  34.026  25.892  1.00  0.00    -0.200 F 
ATOM     70  F   UNL A   1      45.542  35.699  25.508  1.00  0.00    -0.200 F 
ENDBRANCH  46  60
BRANCH  47  71
ATOM     71  C   UNL A   1      36.993  31.260  30.631  1.00  0.00     0.064 A 
ATOM     72  C   UNL A   1      36.072  31.580  31.641  1.00  0.00     0.173 A 
ATOM     73  C   UNL A   1      36.742  31.814  29.359  1.00  0.00     0.173 A 
ATOM     74  F   UNL A   1      36.262  31.133  32.892  1.00  0.00    -0.203 F 
ATOM     75  C   UNL A   1      34.980  32.423  31.399  1.00  0.00     0.198 A 
ATOM     76  C   UNL A   1      35.650  32.649  29.117  1.00  0.00     0.198 A 
ATOM     77  F   UNL A   1      37.605  31.639  28.348  1.00  0.00    -0.203 F 
ATOM     78  F   UNL A   1      34.156  32.755  32.402  1.00  0.00    -0.200 F 
ATOM     79  C   UNL A   1      34.777  32.964  30.140  1.00  0.00     0.200 A 
ATOM     80  F   UNL A   1      35.489  33.197  27.905  1.00  0.00    -0.200 F 
ATOM     81  F   UNL A   1      33.769  33.821  29.923  1.00  0.00    -0.200 F 
ENDBRANCH  47  71
BRANCH  59  82
ATOM     82  C   UNL A   1      42.323  29.805  33.755  1.00  0.00     0.064 A 
ATOM     83  C   UNL A   1      41.938  28.462  33.590  1.00  0.00     0.173 A 
ATOM     84  C   UNL A   1      42.651  30.223  35.052  1.00  0.00     0.173 A 
ATOM     85  F   UNL A   1      41.709  27.958  32.370  1.00  0.00    -0.203 F 
ATOM     86  C   UNL A   1      41.847  27.595  34.676  1.00  0.00     0.198 A 
ATOM     87  C   UNL A   1      42.595  29.344  36.131  1.00  0.00     0.198 A 
ATOM     88  F   UNL A   1      43.083  31.476  35.264  1.00  0.00    -0.203 F 
ATOM     89  F   UNL A   1      41.470  26.319  34.490  1.00  0.00    -0.200 F 
ATOM     90  C   UNL A   1      42.185  28.034  35.945  1.00  0.00     0.200 A 
ATOM     91  F   UNL A   1      42.972  29.760  37.347  1.00  0.00    -0.200 F 
ATOM     92  F   UNL A   1      42.143  27.188  36.984  1.00  0.00    -0.200 F 
ENDBRANCH  59  82
ENDBRANCH  33  34
ENDBRANCH  26  28
ENDBRANCH  25  26
ENDBRANCH  24  25
ENDBRANCH   1  24
TORSDOF 14
ENDMDL
MODEL 3
REMARK VINA RESULT:     -12.1      4.136     11.517
REMARK SMILES Cc1ccc(N2CCC[C@@H](Cn3cc(C(=O)OCCOC(=O)c4ccc(-c5c6nc(c(-c7c(F)c(F)c(F)c(F)c7F)c7ccc([nH]7)c(-c7c(F)c(F)c(F)c(F)c7F)c7nc(c(-c8c(F)c(F)c(F)c(F)c8F)c8ccc5[nH]8)C=C7)C=C6)cc4)nn3)C2)nn1
REMARK SMILES IDX 18 1 17 2 15 3 16 4 14 5 12 6 13 7 87 8 86 9 11 10 10 11
REMARK SMILES IDX 6 12 7 13 88 14 8 15 9 16 5 17 1 18 2 19 3 20 90 21 4 22
REMARK SMILES IDX 89 23 19 24 20 25 21 26 22 27 23 28 24 29 85 30 25 31 84 32
REMARK SMILES IDX 26 33 27 34 28 35 78 36 29 37 83 38 77 39 79 40 30 41 82 42
REMARK SMILES IDX 76 43 75 44 31 46 63 47 43 48 62 49 44 50 47 51 61 52 80 53
REMARK SMILES IDX 45 54 46 55 60 57 81 58 48 59 32 60 33 61 41 62 34 63 35 64
REMARK SMILES IDX 39 65 42 66 36 67 37 68 40 69 38 70 64 71 65 72 73 73 66 74
REMARK SMILES IDX 67 75 71 76 74 77 68 78 69 79 72 80 70 81 49 82 50 83 58 84
REMARK SMILES IDX 51 85 52 86 56 87 59 88 53 89 54 90 57 91 55 92
REMARK H PARENT 79 45 47 56
REMARK Flexibility Score: inf
ROOT
ATOM      1  C   UNL A   1      33.846  34.383  27.967  1.00  0.00     0.275 C 
ENDROOT
BRANCH   1   2
ATOM      2  O   UNL A   1      32.758  34.907  28.749  1.00  0.00    -0.457 OA
BRANCH   2   3
ATOM      3  C   UNL A   1      32.968  36.136  29.333  1.00  0.00     0.360 C 
ATOM      4  O   UNL A   1      32.856  37.197  28.752  1.00  0.00    -0.244 OA
BRANCH   3   5
ATOM      5  C   UNL A   1      33.273  36.015  30.754  1.00  0.00     0.190 A 
ATOM      6  N   UNL A   1      34.134  35.468  32.650  1.00  0.00    -0.251 N 
ATOM      7  C   UNL A   1      33.921  34.982  31.399  1.00  0.00     0.146 A 
ATOM      8  N   UNL A   1      33.435  36.596  32.858  1.00  0.00    -0.067 NA
ATOM      9  N   UNL A   1      32.919  36.959  31.690  1.00  0.00    -0.123 NA
BRANCH   6  10
ATOM     10  C   UNL A   1      35.198  35.091  33.558  1.00  0.00     0.151 C 
BRANCH  10  11
ATOM     11  C   UNL A   1      36.130  33.998  32.991  1.00  0.00     0.030 C 
ATOM     12  N   UNL A   1      38.329  33.458  32.127  1.00  0.00    -0.355 N 
ATOM     13  C   UNL A   1      38.578  32.357  33.053  1.00  0.00     0.118 C 
ATOM     14  C   UNL A   1      37.535  34.547  32.677  1.00  0.00     0.123 C 
ATOM     15  C   UNL A   1      37.230  31.716  33.379  1.00  0.00     0.022 C 
ATOM     16  C   UNL A   1      36.220  32.746  33.894  1.00  0.00     0.009 C 
BRANCH  12  17
ATOM     17  C   UNL A   1      39.429  33.864  31.375  1.00  0.00     0.151 A 
ATOM     18  C   UNL A   1      42.743  34.776  28.910  1.00  0.00     0.069 C 
ATOM     19  C   UNL A   1      41.607  34.466  29.830  1.00  0.00     0.060 A 
ATOM     20  C   UNL A   1      41.777  33.649  30.933  1.00  0.00     0.029 A 
ATOM     21  N   UNL A   1      40.392  34.963  29.513  1.00  0.00    -0.154 NA
ATOM     22  C   UNL A   1      40.674  33.361  31.723  1.00  0.00     0.051 A 
ATOM     23  N   UNL A   1      39.297  34.650  30.286  1.00  0.00    -0.133 NA
ENDBRANCH  12  17
ENDBRANCH  10  11
ENDBRANCH   6  10
ENDBRANCH   3   5
ENDBRANCH   2   3
ENDBRANCH   1   2
BRANCH   1  24
ATOM     24  C   UNL A   1      33.891  32.861  28.049  1.00  0.00     0.275 C 
BRANCH  24  25
ATOM     25  O   UNL A   1      35.241  32.405  27.990  1.00  0.00    -0.458 OA
BRANCH  25  26
ATOM     26  C   UNL A   1      35.392  31.081  28.213  1.00  0.00     0.338 C 
ATOM     27  O   UNL A   1      34.707  30.176  27.762  1.00  0.00    -0.246 OA
BRANCH  26  28
ATOM     28  C   UNL A   1      36.412  30.862  29.237  1.00  0.00     0.060 A 
ATOM     29  C   UNL A   1      37.547  31.677  29.162  1.00  0.00     0.016 A 
ATOM     30  C   UNL A   1      36.420  29.609  29.860  1.00  0.00     0.016 A 
ATOM     31  C   UNL A   1      38.764  31.104  29.445  1.00  0.00     0.010 A 
ATOM     32  C   UNL A   1      37.635  29.030  30.109  1.00  0.00     0.010 A 
ATOM     33  C   UNL A   1      38.784  29.752  29.794  1.00  0.00    -0.014 A 
BRANCH  33  34
ATOM     34  C   UNL A   1      40.054  29.069  29.803  1.00  0.00     0.031 A 
ATOM     35  C   UNL A   1      40.628  28.910  31.155  1.00  0.00     0.074 A 
ATOM     36  C   UNL A   1      40.558  28.525  28.681  1.00  0.00     0.049 A 
ATOM     37  N   UNL A   1      41.722  29.413  31.619  1.00  0.00    -0.248 NA
ATOM     38  C   UNL A   1      39.798  28.226  32.161  1.00  0.00     0.031 C 
ATOM     39  C   UNL A   1      39.924  28.360  27.369  1.00  0.00     0.029 A 
ATOM     40  N   UNL A   1      41.748  27.892  28.522  1.00  0.00    -0.354 N 
ATOM     41  C   UNL A   1      41.798  28.977  32.936  1.00  0.00     0.074 A 
ATOM     42  C   UNL A   1      40.518  28.409  33.265  1.00  0.00     0.031 C 
ATOM     43  C   UNL A   1      40.641  27.474  26.637  1.00  0.00     0.029 A 
ATOM     44  C   UNL A   1      41.838  27.116  27.377  1.00  0.00     0.049 A 
ATOM     45  H   UNL A   1      42.486  27.978  29.167  1.00  0.00     0.167 HD
ATOM     46  C   UNL A   1      42.983  28.903  33.597  1.00  0.00     0.037 A 
ATOM     47  C   UNL A   1      42.785  26.168  27.163  1.00  0.00     0.037 A 
ATOM     48  C   UNL A   1      44.004  29.683  32.954  1.00  0.00     0.049 A 
ATOM     49  C   UNL A   1      43.907  26.448  28.105  1.00  0.00     0.074 A 
ATOM     50  C   UNL A   1      44.157  31.031  32.691  1.00  0.00     0.029 A 
ATOM     51  N   UNL A   1      44.883  29.038  32.118  1.00  0.00    -0.354 N 
ATOM     52  N   UNL A   1      44.676  27.501  28.024  1.00  0.00    -0.248 NA
ATOM     53  C   UNL A   1      43.851  25.817  29.418  1.00  0.00     0.031 C 
ATOM     54  C   UNL A   1      44.737  31.090  31.391  1.00  0.00     0.029 A 
ATOM     55  C   UNL A   1      44.957  29.779  30.964  1.00  0.00     0.049 A 
ATOM     56  H   UNL A   1      45.368  28.204  32.310  1.00  0.00     0.167 HD
ATOM     57  C   UNL A   1      44.876  27.901  29.338  1.00  0.00     0.074 A 
ATOM     58  C   UNL A   1      44.387  26.794  30.156  1.00  0.00     0.031 C 
ATOM     59  C   UNL A   1      45.143  29.202  29.654  1.00  0.00     0.037 A 
BRANCH  46  60
ATOM     60  C   UNL A   1      43.277  27.862  34.636  1.00  0.00     0.064 A 
ATOM     61  C   UNL A   1      43.586  28.255  35.948  1.00  0.00     0.173 A 
ATOM     62  C   UNL A   1      43.522  26.506  34.322  1.00  0.00     0.173 A 
ATOM     63  F   UNL A   1      43.427  29.529  36.333  1.00  0.00    -0.203 F 
ATOM     64  C   UNL A   1      44.137  27.360  36.868  1.00  0.00     0.198 A 
ATOM     65  C   UNL A   1      44.013  25.603  35.259  1.00  0.00     0.198 A 
ATOM     66  F   UNL A   1      43.403  26.033  33.075  1.00  0.00    -0.203 F 
ATOM     67  F   UNL A   1      44.520  27.799  38.074  1.00  0.00    -0.200 F 
ATOM     68  C   UNL A   1      44.347  26.036  36.524  1.00  0.00     0.200 A 
ATOM     69  F   UNL A   1      44.230  24.330  34.898  1.00  0.00    -0.200 F 
ATOM     70  F   UNL A   1      44.918  25.189  37.390  1.00  0.00    -0.200 F 
ENDBRANCH  46  60
BRANCH  47  71
ATOM     71  C   UNL A   1      42.586  24.830  26.550  1.00  0.00     0.064 A 
ATOM     72  C   UNL A   1      43.351  24.422  25.446  1.00  0.00     0.173 A 
ATOM     73  C   UNL A   1      41.851  23.823  27.208  1.00  0.00     0.173 A 
ATOM     74  F   UNL A   1      44.116  25.309  24.792  1.00  0.00    -0.203 F 
ATOM     75  C   UNL A   1      43.396  23.083  25.039  1.00  0.00     0.198 A 
ATOM     76  C   UNL A   1      41.892  22.490  26.798  1.00  0.00     0.198 A 
ATOM     77  F   UNL A   1      41.157  24.092  28.323  1.00  0.00    -0.203 F 
ATOM     78  F   UNL A   1      44.185  22.720  24.018  1.00  0.00    -0.200 F 
ATOM     79  C   UNL A   1      42.675  22.117  25.723  1.00  0.00     0.200 A 
ATOM     80  F   UNL A   1      41.221  21.561  27.493  1.00  0.00    -0.200 F 
ATOM     81  F   UNL A   1      42.768  20.826  25.374  1.00  0.00    -0.200 F 
ENDBRANCH  47  71
BRANCH  59  82
ATOM     82  C   UNL A   1      45.414  30.158  28.526  1.00  0.00     0.064 A 
ATOM     83  C   UNL A   1      44.418  30.931  27.901  1.00  0.00     0.173 A 
ATOM     84  C   UNL A   1      46.744  30.428  28.181  1.00  0.00     0.173 A 
ATOM     85  F   UNL A   1      43.131  30.808  28.252  1.00  0.00    -0.203 F 
ATOM     86  C   UNL A   1      44.740  31.896  26.948  1.00  0.00     0.198 A 
ATOM     87  C   UNL A   1      47.066  31.418  27.256  1.00  0.00     0.198 A 
ATOM     88  F   UNL A   1      47.742  29.765  28.787  1.00  0.00    -0.203 F 
ATOM     89  F   UNL A   1      43.768  32.614  26.362  1.00  0.00    -0.200 F 
ATOM     90  C   UNL A   1      46.064  32.145  26.633  1.00  0.00     0.200 A 
ATOM     91  F   UNL A   1      48.351  31.690  26.993  1.00  0.00    -0.200 F 
ATOM     92  F   UNL A   1      46.378  33.105  25.751  1.00  0.00    -0.200 F 
ENDBRANCH  59  82
ENDBRANCH  33  34
ENDBRANCH  26  28
ENDBRANCH  25  26
ENDBRANCH  24  25
ENDBRANCH   1  24
TORSDOF 14
ENDMDL
