MODEL 1
REMARK VINA RESULT:     -14.1      0.000      0.000
REMARK SMILES Cc1ccc(-c2cc(OCC(=O)OCCOC(=O)c3ccc(-c4c5nc(c(-c6c(F)c(F)c(F)c(F)c6F)c6ccc([nH]6)c(-c6c(F)c(F)c(F)c(F)c6F)c6nc(c(-c7c(F)c(F)c(F)c(F)c7F)c7ccc4[nH]7)C=C6)C=C5)cc3)nc(NCc3ccc4c(c3)OCO4)n2)cc1
REMARK SMILES IDX 13 1 11 2 12 3 10 4 9 5 8 6 6 7 7 8 95 9 83 10 82 11 5 12
REMARK SMILES IDX 1 13 2 14 3 15 97 16 4 17 96 18 84 19 85 21 86 22 87 23
REMARK SMILES IDX 91 24 88 25 90 26 89 27 92 28 94 29 93 30 14 31 15 32 16 33
REMARK SMILES IDX 17 34 18 35 19 36 20 37 81 38 21 39 80 40 22 41 23 42 24 43
REMARK SMILES IDX 74 44 25 45 79 46 73 47 75 48 26 49 78 50 72 51 71 52 27 54
REMARK SMILES IDX 59 55 39 56 58 57 40 58 43 59 57 60 76 61 41 62 42 63 56 65
REMARK SMILES IDX 77 66 44 67 28 68 29 69 37 70 30 71 31 72 35 73 38 74 32 75
REMARK SMILES IDX 33 76 36 77 34 78 60 79 61 80 69 81 62 82 63 83 67 84 70 85
REMARK SMILES IDX 64 86 65 87 68 88 66 89 45 90 46 91 54 92 47 93 48 94 52 95
REMARK SMILES IDX 55 96 49 97 50 98 53 99 51 100
REMARK H PARENT 84 20 75 53 43 64
REMARK Flexibility Score: inf
ROOT
ATOM      1  O   UNL A   1      42.534  20.109  25.289  1.00  0.00    -0.460 OA
ENDROOT
BRANCH   1   2
ATOM      2  C   UNL A   1      41.557  20.040  26.367  1.00  0.00     0.344 C 
ATOM      3  O   UNL A   1      42.207  19.592  27.353  1.00  0.00    -0.248 OA
BRANCH   2   4
ATOM      4  C   UNL A   1      39.526  20.839  26.222  1.00  0.00     0.353 C 
BRANCH   4   5
ATOM      5  O   UNL A   1      38.547  21.410  25.116  1.00  0.00    -0.466 OA
BRANCH   5   6
ATOM      6  C   UNL A   1      37.157  21.510  25.273  1.00  0.00     0.219 A 
ATOM      7  C   UNL A   1      35.133  20.373  25.019  1.00  0.00     0.080 A 
ATOM      8  C   UNL A   1      36.417  20.580  24.567  1.00  0.00     0.097 A 
ATOM      9  N   UNL A   1      34.555  21.226  25.866  1.00  0.00    -0.213 NA
ATOM     10  C   UNL A   1      35.260  22.286  26.274  1.00  0.00     0.226 A 
ATOM     11  N   UNL A   1      36.600  22.405  26.116  1.00  0.00    -0.177 NA
BRANCH   7  12
ATOM     12  C   UNL A   1      34.434  19.094  24.811  1.00  0.00     0.000 A 
ATOM     13  C   UNL A   1      32.658  15.201  25.422  1.00  0.00     0.044 C 
ATOM     14  C   UNL A   1      33.232  16.551  25.116  1.00  0.00    -0.051 A 
ATOM     15  C   UNL A   1      34.497  16.681  24.532  1.00  0.00     0.004 A 
ATOM     16  C   UNL A   1      32.508  17.706  25.403  1.00  0.00     0.004 A 
ATOM     17  C   UNL A   1      35.105  17.938  24.411  1.00  0.00     0.010 A 
ATOM     18  C   UNL A   1      33.082  18.963  25.183  1.00  0.00     0.010 A 
ENDBRANCH   7  12
BRANCH  10  19
ATOM     19  N   UNL A   1      34.541  23.307  26.861  1.00  0.00    -0.350 N 
ATOM     20  H   UNL A   1      34.878  23.760  27.667  1.00  0.00     0.164 HD
BRANCH  19  21
ATOM     21  C   UNL A   1      33.268  23.702  26.259  1.00  0.00     0.152 C 
BRANCH  21  22
ATOM     22  C   UNL A   1      33.418  24.506  24.973  1.00  0.00    -0.025 A 
ATOM     23  C   UNL A   1      33.608  25.916  25.045  1.00  0.00     0.009 A 
ATOM     24  C   UNL A   1      33.344  23.902  23.709  1.00  0.00     0.056 A 
ATOM     25  C   UNL A   1      33.644  26.711  23.889  1.00  0.00     0.051 A 
ATOM     26  C   UNL A   1      33.331  24.713  22.597  1.00  0.00     0.166 A 
ATOM     27  C   UNL A   1      33.461  26.079  22.681  1.00  0.00     0.165 A 
ATOM     28  O   UNL A   1      33.115  24.293  21.319  1.00  0.00    -0.454 OA
ATOM     29  O   UNL A   1      33.321  26.679  21.467  1.00  0.00    -0.454 OA
ATOM     30  C   UNL A   1      32.826  25.560  20.698  1.00  0.00     0.468 C 
ENDBRANCH  21  22
ENDBRANCH  19  21
ENDBRANCH  10  19
ENDBRANCH   5   6
ENDBRANCH   4   5
ENDBRANCH   2   4
ENDBRANCH   1   2
BRANCH   1  31
ATOM     31  C   UNL A   1      43.589  21.090  25.377  1.00  0.00     0.274 C 
BRANCH  31  32
ATOM     32  C   UNL A   1      43.016  22.503  25.195  1.00  0.00     0.275 C 
BRANCH  32  33
ATOM     33  O   UNL A   1      43.306  23.489  26.214  1.00  0.00    -0.458 OA
BRANCH  33  34
ATOM     34  C   UNL A   1      42.494  23.914  27.196  1.00  0.00     0.338 C 
ATOM     35  O   UNL A   1      42.724  23.632  28.366  1.00  0.00    -0.246 OA
BRANCH  34  36
ATOM     36  C   UNL A   1      41.168  24.543  26.917  1.00  0.00     0.060 A 
ATOM     37  C   UNL A   1      41.532  26.078  25.985  1.00  0.00     0.016 A 
ATOM     38  C   UNL A   1      39.897  24.568  28.201  1.00  0.00     0.016 A 
ATOM     39  C   UNL A   1      40.899  27.642  26.555  1.00  0.00     0.010 A 
ATOM     40  C   UNL A   1      39.232  26.178  28.741  1.00  0.00     0.010 A 
ATOM     41  C   UNL A   1      39.846  27.689  27.981  1.00  0.00    -0.014 A 
BRANCH  41  42
ATOM     42  C   UNL A   1      40.098  28.752  28.972  1.00  0.00     0.031 A 
ATOM     43  C   UNL A   1      39.137  29.843  28.964  1.00  0.00     0.074 A 
ATOM     44  C   UNL A   1      41.054  28.620  29.934  1.00  0.00     0.049 A 
ATOM     45  N   UNL A   1      39.394  31.011  29.417  1.00  0.00    -0.248 NA
ATOM     46  C   UNL A   1      37.842  29.752  28.300  1.00  0.00     0.031 C 
ATOM     47  C   UNL A   1      41.155  29.217  31.266  1.00  0.00     0.029 A 
ATOM     48  N   UNL A   1      42.234  27.892  29.864  1.00  0.00    -0.354 N 
ATOM     49  C   UNL A   1      38.183  31.648  29.516  1.00  0.00     0.074 A 
ATOM     50  C   UNL A   1      37.323  30.943  28.603  1.00  0.00     0.031 C 
ATOM     51  C   UNL A   1      42.382  28.984  31.783  1.00  0.00     0.029 A 
ATOM     52  C   UNL A   1      43.188  28.337  30.767  1.00  0.00     0.049 A 
ATOM     53  H   UNL A   1      42.378  27.144  29.242  1.00  0.00     0.167 HD
ATOM     54  C   UNL A   1      38.025  32.530  30.543  1.00  0.00     0.037 A 
ATOM     55  C   UNL A   1      44.389  28.750  30.267  1.00  0.00     0.037 A 
ATOM     56  C   UNL A   1      39.296  32.661  31.283  1.00  0.00     0.049 A 
ATOM     57  C   UNL A   1      44.442  30.267  30.243  1.00  0.00     0.074 A 
ATOM     58  C   UNL A   1      39.773  32.183  32.494  1.00  0.00     0.029 A 
ATOM     59  N   UNL A   1      40.429  33.038  30.577  1.00  0.00    -0.354 N 
ATOM     60  N   UNL A   1      43.450  31.036  30.609  1.00  0.00    -0.248 NA
ATOM     61  C   UNL A   1      45.577  31.041  29.762  1.00  0.00     0.031 C 
ATOM     62  C   UNL A   1      41.197  32.330  32.507  1.00  0.00     0.029 A 
ATOM     63  C   UNL A   1      41.589  32.912  31.314  1.00  0.00     0.049 A 
ATOM     64  H   UNL A   1      40.409  33.362  29.647  1.00  0.00     0.167 HD
ATOM     65  C   UNL A   1      43.751  32.353  30.404  1.00  0.00     0.074 A 
ATOM     66  C   UNL A   1      45.089  32.295  29.827  1.00  0.00     0.031 C 
ATOM     67  C   UNL A   1      42.851  33.347  30.712  1.00  0.00     0.037 A 
BRANCH  54  68
ATOM     68  C   UNL A   1      36.694  33.054  31.042  1.00  0.00     0.064 A 
ATOM     69  C   UNL A   1      35.942  33.939  30.240  1.00  0.00     0.173 A 
ATOM     70  C   UNL A   1      36.097  32.757  32.286  1.00  0.00     0.173 A 
ATOM     71  F   UNL A   1      36.343  34.281  29.009  1.00  0.00    -0.203 F 
ATOM     72  C   UNL A   1      34.738  34.509  30.665  1.00  0.00     0.198 A 
ATOM     73  C   UNL A   1      34.908  33.349  32.723  1.00  0.00     0.198 A 
ATOM     74  F   UNL A   1      36.595  31.845  33.121  1.00  0.00    -0.203 F 
ATOM     75  F   UNL A   1      34.076  35.342  29.850  1.00  0.00    -0.200 F 
ATOM     76  C   UNL A   1      34.226  34.224  31.913  1.00  0.00     0.200 A 
ATOM     77  F   UNL A   1      34.427  33.045  33.939  1.00  0.00    -0.200 F 
ATOM     78  F   UNL A   1      33.074  34.771  32.321  1.00  0.00    -0.200 F 
ENDBRANCH  54  68
BRANCH  55  79
ATOM     79  C   UNL A   1      44.898  27.809  29.208  1.00  0.00     0.064 A 
ATOM     80  C   UNL A   1      44.771  28.202  27.853  1.00  0.00     0.173 A 
ATOM     81  C   UNL A   1      45.831  26.800  29.481  1.00  0.00     0.173 A 
ATOM     82  F   UNL A   1      43.884  29.152  27.518  1.00  0.00    -0.203 F 
ATOM     83  C   UNL A   1      45.613  27.706  26.853  1.00  0.00     0.198 A 
ATOM     84  C   UNL A   1      46.662  26.292  28.472  1.00  0.00     0.198 A 
ATOM     85  F   UNL A   1      46.041  26.393  30.740  1.00  0.00    -0.203 F 
ATOM     86  F   UNL A   1      45.534  28.192  25.606  1.00  0.00    -0.200 F 
ATOM     87  C   UNL A   1      46.572  26.762  27.169  1.00  0.00     0.200 A 
ATOM     88  F   UNL A   1      47.639  25.427  28.790  1.00  0.00    -0.200 F 
ATOM     89  F   UNL A   1      47.448  26.343  26.243  1.00  0.00    -0.200 F 
ENDBRANCH  55  79
BRANCH  67  90
ATOM     90  C   UNL A   1      43.027  34.832  30.425  1.00  0.00     0.064 A 
ATOM     91  C   UNL A   1      43.520  35.754  31.354  1.00  0.00     0.173 A 
ATOM     92  C   UNL A   1      42.661  35.406  29.175  1.00  0.00     0.173 A 
ATOM     93  F   UNL A   1      43.664  35.432  32.644  1.00  0.00    -0.203 F 
ATOM     94  C   UNL A   1      43.807  37.080  31.007  1.00  0.00     0.198 A 
ATOM     95  C   UNL A   1      42.906  36.734  28.843  1.00  0.00     0.198 A 
ATOM     96  F   UNL A   1      42.033  34.727  28.210  1.00  0.00    -0.203 F 
ATOM     97  F   UNL A   1      44.359  37.894  31.916  1.00  0.00    -0.200 F 
ATOM     98  C   UNL A   1      43.519  37.563  29.745  1.00  0.00     0.200 A 
ATOM     99  F   UNL A   1      42.543  37.188  27.634  1.00  0.00    -0.200 F 
ATOM    100  F   UNL A   1      43.793  38.830  29.414  1.00  0.00    -0.200 F 
ENDBRANCH  67  90
ENDBRANCH  41  42
ENDBRANCH  34  36
ENDBRANCH  33  34
ENDBRANCH  32  33
ENDBRANCH  31  32
ENDBRANCH   1  31
TORSDOF 17
ENDMDL
MODEL 2
REMARK VINA RESULT:     -14.0      4.287     10.940
REMARK SMILES Cc1ccc(-c2cc(OCC(=O)OCCOC(=O)c3ccc(-c4c5nc(c(-c6c(F)c(F)c(F)c(F)c6F)c6ccc([nH]6)c(-c6c(F)c(F)c(F)c(F)c6F)c6nc(c(-c7c(F)c(F)c(F)c(F)c7F)c7ccc4[nH]7)C=C6)C=C5)cc3)nc(NCc3ccc4c(c3)OCO4)n2)cc1
REMARK SMILES IDX 13 1 11 2 12 3 10 4 9 5 8 6 6 7 7 8 95 9 83 10 82 11 5 12
REMARK SMILES IDX 1 13 2 14 3 15 97 16 4 17 96 18 84 19 85 21 86 22 87 23
REMARK SMILES IDX 91 24 88 25 90 26 89 27 92 28 94 29 93 30 14 31 15 32 16 33
REMARK SMILES IDX 17 34 18 35 19 36 20 37 81 38 21 39 80 40 22 41 23 42 24 43
REMARK SMILES IDX 74 44 25 45 79 46 73 47 75 48 26 49 78 50 72 51 71 52 27 54
REMARK SMILES IDX 59 55 39 56 58 57 40 58 43 59 57 60 76 61 41 62 42 63 56 65
REMARK SMILES IDX 77 66 44 67 28 68 29 69 37 70 30 71 31 72 35 73 38 74 32 75
REMARK SMILES IDX 33 76 36 77 34 78 60 79 61 80 69 81 62 82 63 83 67 84 70 85
REMARK SMILES IDX 64 86 65 87 68 88 66 89 45 90 46 91 54 92 47 93 48 94 52 95
REMARK SMILES IDX 55 96 49 97 50 98 53 99 51 100
REMARK H PARENT 84 20 75 53 43 64
REMARK Flexibility Score: inf
ROOT
ATOM      1  O   UNL A   1      33.538  34.423  29.177  1.00  0.00    -0.460 OA
ENDROOT
BRANCH   1   2
ATOM      2  C   UNL A   1      33.992  33.745  27.972  1.00  0.00     0.344 C 
ATOM      3  O   UNL A   1      34.481  34.666  27.258  1.00  0.00    -0.248 OA
BRANCH   2   4
ATOM      4  C   UNL A   1      34.007  31.572  27.730  1.00  0.00     0.353 C 
BRANCH   4   5
ATOM      5  O   UNL A   1      32.972  30.378  27.626  1.00  0.00    -0.466 OA
BRANCH   5   6
ATOM      6  C   UNL A   1      32.692  29.681  26.442  1.00  0.00     0.219 A 
ATOM      7  C   UNL A   1      31.223  29.531  24.631  1.00  0.00     0.080 A 
ATOM      8  C   UNL A   1      31.402  29.826  25.964  1.00  0.00     0.097 A 
ATOM      9  N   UNL A   1      32.149  28.861  23.944  1.00  0.00    -0.213 NA
ATOM     10  C   UNL A   1      33.264  28.491  24.582  1.00  0.00     0.226 A 
ATOM     11  N   UNL A   1      33.644  28.987  25.784  1.00  0.00    -0.177 NA
BRANCH   7  12
ATOM     12  C   UNL A   1      30.149  30.149  23.838  1.00  0.00     0.000 A 
ATOM     13  C   UNL A   1      27.980  32.506  20.935  1.00  0.00     0.044 C 
ATOM     14  C   UNL A   1      28.643  31.645  21.967  1.00  0.00    -0.051 A 
ATOM     15  C   UNL A   1      28.780  32.081  23.289  1.00  0.00     0.004 A 
ATOM     16  C   UNL A   1      29.128  30.385  21.626  1.00  0.00     0.004 A 
ATOM     17  C   UNL A   1      29.554  31.356  24.206  1.00  0.00     0.010 A 
ATOM     18  C   UNL A   1      29.811  29.619  22.577  1.00  0.00     0.010 A 
ENDBRANCH   7  12
BRANCH  10  19
ATOM     19  N   UNL A   1      34.031  27.528  23.960  1.00  0.00    -0.350 N 
ATOM     20  H   UNL A   1      34.991  27.675  23.800  1.00  0.00     0.164 HD
BRANCH  19  21
ATOM     21  C   UNL A   1      33.388  26.281  23.544  1.00  0.00     0.152 C 
BRANCH  21  22
ATOM     22  C   UNL A   1      33.942  25.041  24.235  1.00  0.00    -0.025 A 
ATOM     23  C   UNL A   1      34.661  24.076  23.474  1.00  0.00     0.009 A 
ATOM     24  C   UNL A   1      33.739  24.803  25.603  1.00  0.00     0.056 A 
ATOM     25  C   UNL A   1      35.096  22.870  24.043  1.00  0.00     0.051 A 
ATOM     26  C   UNL A   1      34.133  23.589  26.120  1.00  0.00     0.166 A 
ATOM     27  C   UNL A   1      34.778  22.641  25.362  1.00  0.00     0.165 A 
ATOM     28  O   UNL A   1      33.872  23.150  27.383  1.00  0.00    -0.454 OA
ATOM     29  O   UNL A   1      34.982  21.487  26.056  1.00  0.00    -0.454 OA
ATOM     30  C   UNL A   1      34.152  21.748  27.209  1.00  0.00     0.468 C 
ENDBRANCH  21  22
ENDBRANCH  19  21
ENDBRANCH  10  19
ENDBRANCH   5   6
ENDBRANCH   4   5
ENDBRANCH   2   4
ENDBRANCH   1   2
BRANCH   1  31
ATOM     31  C   UNL A   1      34.160  34.085  30.435  1.00  0.00     0.274 C 
BRANCH  31  32
ATOM     32  C   UNL A   1      35.666  33.858  30.237  1.00  0.00     0.275 C 
BRANCH  32  33
ATOM     33  O   UNL A   1      36.192  32.536  30.499  1.00  0.00    -0.458 OA
BRANCH  33  34
ATOM     34  C   UNL A   1      37.152  31.887  29.819  1.00  0.00     0.338 C 
ATOM     35  O   UNL A   1      38.182  32.460  29.485  1.00  0.00    -0.246 OA
BRANCH  34  36
ATOM     36  C   UNL A   1      36.934  30.528  29.236  1.00  0.00     0.060 A 
ATOM     37  C   UNL A   1      37.048  29.360  30.643  1.00  0.00     0.016 A 
ATOM     38  C   UNL A   1      37.703  30.093  27.660  1.00  0.00     0.016 A 
ATOM     39  C   UNL A   1      38.177  27.984  30.574  1.00  0.00     0.010 A 
ATOM     40  C   UNL A   1      38.824  28.655  27.602  1.00  0.00     0.010 A 
ATOM     41  C   UNL A   1      39.126  27.707  29.102  1.00  0.00    -0.014 A 
BRANCH  41  42
ATOM     42  C   UNL A   1      40.550  27.364  29.270  1.00  0.00     0.031 A 
ATOM     43  C   UNL A   1      40.928  26.047  28.788  1.00  0.00     0.074 A 
ATOM     44  C   UNL A   1      41.464  28.289  29.681  1.00  0.00     0.049 A 
ATOM     45  N   UNL A   1      41.959  25.413  29.203  1.00  0.00    -0.248 NA
ATOM     46  C   UNL A   1      40.085  25.257  27.897  1.00  0.00     0.031 C 
ATOM     47  C   UNL A   1      42.904  28.378  29.438  1.00  0.00     0.029 A 
ATOM     48  N   UNL A   1      41.248  29.389  30.499  1.00  0.00    -0.354 N 
ATOM     49  C   UNL A   1      42.145  24.381  28.318  1.00  0.00     0.074 A 
ATOM     50  C   UNL A   1      40.858  24.186  27.707  1.00  0.00     0.031 C 
ATOM     51  C   UNL A   1      43.444  29.335  30.224  1.00  0.00     0.029 A 
ATOM     52  C   UNL A   1      42.411  29.831  31.113  1.00  0.00     0.049 A 
ATOM     53  H   UNL A   1      40.368  29.810  30.628  1.00  0.00     0.167 HD
ATOM     54  C   UNL A   1      43.430  24.005  28.062  1.00  0.00     0.037 A 
ATOM     55  C   UNL A   1      42.431  29.868  32.477  1.00  0.00     0.037 A 
ATOM     56  C   UNL A   1      44.353  24.781  28.914  1.00  0.00     0.049 A 
ATOM     57  C   UNL A   1      43.206  28.677  33.012  1.00  0.00     0.074 A 
ATOM     58  C   UNL A   1      45.206  25.854  28.704  1.00  0.00     0.029 A 
ATOM     59  N   UNL A   1      44.170  24.735  30.289  1.00  0.00    -0.354 N 
ATOM     60  N   UNL A   1      43.725  27.746  32.255  1.00  0.00    -0.248 NA
ATOM     61  C   UNL A   1      43.416  28.404  34.426  1.00  0.00     0.031 C 
ATOM     62  C   UNL A   1      45.558  26.405  29.977  1.00  0.00     0.029 A 
ATOM     63  C   UNL A   1      44.936  25.662  30.964  1.00  0.00     0.049 A 
ATOM     64  H   UNL A   1      43.557  24.106  30.736  1.00  0.00     0.167 HD
ATOM     65  C   UNL A   1      44.291  26.759  33.013  1.00  0.00     0.074 A 
ATOM     66  C   UNL A   1      44.028  27.205  34.376  1.00  0.00     0.031 C 
ATOM     67  C   UNL A   1      44.895  25.670  32.429  1.00  0.00     0.037 A 
BRANCH  54  68
ATOM     68  C   UNL A   1      43.870  23.163  26.881  1.00  0.00     0.064 A 
ATOM     69  C   UNL A   1      43.439  21.823  26.776  1.00  0.00     0.173 A 
ATOM     70  C   UNL A   1      44.716  23.579  25.831  1.00  0.00     0.173 A 
ATOM     71  F   UNL A   1      42.590  21.289  27.663  1.00  0.00    -0.203 F 
ATOM     72  C   UNL A   1      43.857  20.971  25.748  1.00  0.00     0.198 A 
ATOM     73  C   UNL A   1      45.157  22.721  24.820  1.00  0.00     0.198 A 
ATOM     74  F   UNL A   1      45.118  24.842  25.693  1.00  0.00    -0.203 F 
ATOM     75  F   UNL A   1      43.407  19.710  25.710  1.00  0.00    -0.200 F 
ATOM     76  C   UNL A   1      44.727  21.416  24.776  1.00  0.00     0.200 A 
ATOM     77  F   UNL A   1      45.997  23.183  23.880  1.00  0.00    -0.200 F 
ATOM     78  F   UNL A   1      45.129  20.601  23.793  1.00  0.00    -0.200 F 
ENDBRANCH  54  68
BRANCH  55  79
ATOM     79  C   UNL A   1      41.155  30.442  33.032  1.00  0.00     0.064 A 
ATOM     80  C   UNL A   1      40.873  31.806  32.776  1.00  0.00     0.173 A 
ATOM     81  C   UNL A   1      40.070  29.641  33.414  1.00  0.00     0.173 A 
ATOM     82  F   UNL A   1      41.869  32.634  32.421  1.00  0.00    -0.203 F 
ATOM     83  C   UNL A   1      39.569  32.309  32.777  1.00  0.00     0.198 A 
ATOM     84  C   UNL A   1      38.765  30.153  33.432  1.00  0.00     0.198 A 
ATOM     85  F   UNL A   1      40.241  28.331  33.640  1.00  0.00    -0.203 F 
ATOM     86  F   UNL A   1      39.337  33.579  32.415  1.00  0.00    -0.200 F 
ATOM     87  C   UNL A   1      38.512  31.474  33.089  1.00  0.00     0.200 A 
ATOM     88  F   UNL A   1      37.732  29.328  33.666  1.00  0.00    -0.200 F 
ATOM     89  F   UNL A   1      37.248  31.915  33.007  1.00  0.00    -0.200 F 
ENDBRANCH  55  79
BRANCH  67  90
ATOM     90  C   UNL A   1      45.455  24.459  33.163  1.00  0.00     0.064 A 
ATOM     91  C   UNL A   1      46.787  24.344  33.574  1.00  0.00     0.173 A 
ATOM     92  C   UNL A   1      44.656  23.319  33.457  1.00  0.00     0.173 A 
ATOM     93  F   UNL A   1      47.723  25.202  33.151  1.00  0.00    -0.203 F 
ATOM     94  C   UNL A   1      47.230  23.285  34.375  1.00  0.00     0.198 A 
ATOM     95  C   UNL A   1      45.106  22.246  34.216  1.00  0.00     0.198 A 
ATOM     96  F   UNL A   1      43.403  23.167  33.017  1.00  0.00    -0.203 F 
ATOM     97  F   UNL A   1      48.497  23.273  34.811  1.00  0.00    -0.200 F 
ATOM     98  C   UNL A   1      46.384  22.247  34.713  1.00  0.00     0.200 A 
ATOM     99  F   UNL A   1      44.279  21.218  34.461  1.00  0.00    -0.200 F 
ATOM    100  F   UNL A   1      46.808  21.234  35.479  1.00  0.00    -0.200 F 
ENDBRANCH  67  90
ENDBRANCH  41  42
ENDBRANCH  34  36
ENDBRANCH  33  34
ENDBRANCH  32  33
ENDBRANCH  31  32
ENDBRANCH   1  31
TORSDOF 17
ENDMDL
MODEL 3
REMARK VINA RESULT:     -13.9      1.683      4.073
REMARK SMILES Cc1ccc(-c2cc(OCC(=O)OCCOC(=O)c3ccc(-c4c5nc(c(-c6c(F)c(F)c(F)c(F)c6F)c6ccc([nH]6)c(-c6c(F)c(F)c(F)c(F)c6F)c6nc(c(-c7c(F)c(F)c(F)c(F)c7F)c7ccc4[nH]7)C=C6)C=C5)cc3)nc(NCc3ccc4c(c3)OCO4)n2)cc1
REMARK SMILES IDX 13 1 11 2 12 3 10 4 9 5 8 6 6 7 7 8 95 9 83 10 82 11 5 12
REMARK SMILES IDX 1 13 2 14 3 15 97 16 4 17 96 18 84 19 85 21 86 22 87 23
REMARK SMILES IDX 91 24 88 25 90 26 89 27 92 28 94 29 93 30 14 31 15 32 16 33
REMARK SMILES IDX 17 34 18 35 19 36 20 37 81 38 21 39 80 40 22 41 23 42 24 43
REMARK SMILES IDX 74 44 25 45 79 46 73 47 75 48 26 49 78 50 72 51 71 52 27 54
REMARK SMILES IDX 59 55 39 56 58 57 40 58 43 59 57 60 76 61 41 62 42 63 56 65
REMARK SMILES IDX 77 66 44 67 28 68 29 69 37 70 30 71 31 72 35 73 38 74 32 75
REMARK SMILES IDX 33 76 36 77 34 78 60 79 61 80 69 81 62 82 63 83 67 84 70 85
REMARK SMILES IDX 64 86 65 87 68 88 66 89 45 90 46 91 54 92 47 93 48 94 52 95
REMARK SMILES IDX 55 96 49 97 50 98 53 99 51 100
REMARK H PARENT 84 20 75 53 43 64
REMARK Flexibility Score: inf
ROOT
ATOM      1  O   UNL A   1      40.934  20.518  25.417  1.00  0.00    -0.460 OA
ENDROOT
BRANCH   1   2
ATOM      2  C   UNL A   1      39.867  20.932  26.317  1.00  0.00     0.344 C 
ATOM      3  O   UNL A   1      40.362  20.805  27.472  1.00  0.00    -0.248 OA
BRANCH   2   4
ATOM      4  C   UNL A   1      37.984  21.819  25.646  1.00  0.00     0.353 C 
BRANCH   4   5
ATOM      5  O   UNL A   1      37.179  23.172  25.813  1.00  0.00    -0.466 OA
BRANCH   5   6
ATOM      6  C   UNL A   1      35.880  23.380  25.327  1.00  0.00     0.219 A 
ATOM      7  C   UNL A   1      34.022  24.793  25.422  1.00  0.00     0.080 A 
ATOM      8  C   UNL A   1      35.102  24.243  26.076  1.00  0.00     0.097 A 
ATOM      9  N   UNL A   1      33.588  24.288  24.266  1.00  0.00    -0.213 NA
ATOM     10  C   UNL A   1      34.236  23.238  23.751  1.00  0.00     0.226 A 
ATOM     11  N   UNL A   1      35.460  22.830  24.168  1.00  0.00    -0.177 NA
BRANCH   7  12
ATOM     12  C   UNL A   1      33.462  26.097  25.811  1.00  0.00     0.000 A 
ATOM     13  C   UNL A   1      31.494  29.945  25.734  1.00  0.00     0.044 C 
ATOM     14  C   UNL A   1      32.183  28.620  25.863  1.00  0.00    -0.051 A 
ATOM     15  C   UNL A   1      33.578  28.524  25.812  1.00  0.00     0.004 A 
ATOM     16  C   UNL A   1      31.440  27.456  26.045  1.00  0.00     0.004 A 
ATOM     17  C   UNL A   1      34.208  27.273  25.753  1.00  0.00     0.010 A 
ATOM     18  C   UNL A   1      32.086  26.215  26.090  1.00  0.00     0.010 A 
ENDBRANCH   7  12
BRANCH  10  19
ATOM     19  N   UNL A   1      33.577  22.540  22.761  1.00  0.00    -0.350 N 
ATOM     20  H   UNL A   1      33.949  22.484  21.852  1.00  0.00     0.164 HD
BRANCH  19  21
ATOM     21  C   UNL A   1      32.312  21.883  23.092  1.00  0.00     0.152 C 
BRANCH  21  22
ATOM     22  C   UNL A   1      32.479  20.492  23.693  1.00  0.00    -0.025 A 
ATOM     23  C   UNL A   1      32.630  20.351  25.102  1.00  0.00     0.009 A 
ATOM     24  C   UNL A   1      32.519  19.339  22.894  1.00  0.00     0.056 A 
ATOM     25  C   UNL A   1      32.893  19.104  25.690  1.00  0.00     0.051 A 
ATOM     26  C   UNL A   1      32.830  18.139  23.494  1.00  0.00     0.166 A 
ATOM     27  C   UNL A   1      33.028  18.024  24.849  1.00  0.00     0.165 A 
ATOM     28  O   UNL A   1      33.054  16.967  22.837  1.00  0.00    -0.454 OA
ATOM     29  O   UNL A   1      33.418  16.768  25.201  1.00  0.00    -0.454 OA
ATOM     30  C   UNL A   1      33.696  16.224  23.891  1.00  0.00     0.468 C 
ENDBRANCH  21  22
ENDBRANCH  19  21
ENDBRANCH  10  19
ENDBRANCH   5   6
ENDBRANCH   4   5
ENDBRANCH   2   4
ENDBRANCH   1   2
BRANCH   1  31
ATOM     31  C   UNL A   1      42.223  20.195  25.979  1.00  0.00     0.274 C 
BRANCH  31  32
ATOM     32  C   UNL A   1      43.191  21.373  25.797  1.00  0.00     0.275 C 
BRANCH  32  33
ATOM     33  O   UNL A   1      43.231  22.384  26.831  1.00  0.00    -0.458 OA
BRANCH  33  34
ATOM     34  C   UNL A   1      42.953  23.692  26.709  1.00  0.00     0.338 C 
ATOM     35  O   UNL A   1      43.822  24.538  26.878  1.00  0.00    -0.246 OA
BRANCH  34  36
ATOM     36  C   UNL A   1      41.552  24.200  26.592  1.00  0.00     0.060 A 
ATOM     37  C   UNL A   1      41.652  25.700  25.546  1.00  0.00     0.016 A 
ATOM     38  C   UNL A   1      40.474  24.202  28.042  1.00  0.00     0.016 A 
ATOM     39  C   UNL A   1      40.975  27.242  26.126  1.00  0.00     0.010 A 
ATOM     40  C   UNL A   1      39.757  25.786  28.595  1.00  0.00     0.010 A 
ATOM     41  C   UNL A   1      40.129  27.292  27.684  1.00  0.00    -0.014 A 
BRANCH  41  42
ATOM     42  C   UNL A   1      40.426  28.428  28.578  1.00  0.00     0.031 A 
ATOM     43  C   UNL A   1      39.416  29.473  28.602  1.00  0.00     0.074 A 
ATOM     44  C   UNL A   1      41.479  28.401  29.442  1.00  0.00     0.049 A 
ATOM     45  N   UNL A   1      39.657  30.679  28.954  1.00  0.00    -0.248 NA
ATOM     46  C   UNL A   1      38.067  29.283  28.081  1.00  0.00     0.031 C 
ATOM     47  C   UNL A   1      41.682  29.089  30.718  1.00  0.00     0.029 A 
ATOM     48  N   UNL A   1      42.680  27.722  29.295  1.00  0.00    -0.354 N 
ATOM     49  C   UNL A   1      38.432  31.267  29.138  1.00  0.00     0.074 A 
ATOM     50  C   UNL A   1      37.522  30.467  28.362  1.00  0.00     0.031 C 
ATOM     51  C   UNL A   1      42.964  28.944  31.120  1.00  0.00     0.029 A 
ATOM     52  C   UNL A   1      43.696  28.267  30.067  1.00  0.00     0.049 A 
ATOM     53  H   UNL A   1      42.798  26.941  28.709  1.00  0.00     0.167 HD
ATOM     54  C   UNL A   1      38.334  32.207  30.120  1.00  0.00     0.037 A 
ATOM     55  C   UNL A   1      44.819  28.698  29.422  1.00  0.00     0.037 A 
ATOM     56  C   UNL A   1      39.664  32.442  30.716  1.00  0.00     0.049 A 
ATOM     57  C   UNL A   1      44.793  30.211  29.300  1.00  0.00     0.074 A 
ATOM     58  C   UNL A   1      40.283  32.065  31.898  1.00  0.00     0.029 A 
ATOM     59  N   UNL A   1      40.701  32.820  29.875  1.00  0.00    -0.354 N 
ATOM     60  N   UNL A   1      43.806  30.958  29.719  1.00  0.00    -0.248 NA
ATOM     61  C   UNL A   1      45.835  31.000  28.659  1.00  0.00     0.031 C 
ATOM     62  C   UNL A   1      41.692  32.275  31.756  1.00  0.00     0.029 A 
ATOM     63  C   UNL A   1      41.933  32.793  30.496  1.00  0.00     0.049 A 
ATOM     64  H   UNL A   1      40.572  33.082  28.935  1.00  0.00     0.167 HD
ATOM     65  C   UNL A   1      44.019  32.271  29.404  1.00  0.00     0.074 A 
ATOM     66  C   UNL A   1      45.294  32.233  28.697  1.00  0.00     0.031 C 
ATOM     67  C   UNL A   1      43.106  33.242  29.742  1.00  0.00     0.037 A 
BRANCH  54  68
ATOM     68  C   UNL A   1      37.034  32.704  30.720  1.00  0.00     0.064 A 
ATOM     69  C   UNL A   1      36.189  33.547  29.967  1.00  0.00     0.173 A 
ATOM     70  C   UNL A   1      36.556  32.421  32.018  1.00  0.00     0.173 A 
ATOM     71  F   UNL A   1      36.473  33.869  28.698  1.00  0.00    -0.203 F 
ATOM     72  C   UNL A   1      35.009  34.092  30.482  1.00  0.00     0.198 A 
ATOM     73  C   UNL A   1      35.391  32.988  32.543  1.00  0.00     0.198 A 
ATOM     74  F   UNL A   1      37.151  31.545  32.826  1.00  0.00    -0.203 F 
ATOM     75  F   UNL A   1      34.254  34.884  29.709  1.00  0.00    -0.200 F 
ATOM     76  C   UNL A   1      34.615  33.823  31.775  1.00  0.00     0.200 A 
ATOM     77  F   UNL A   1      35.025  32.701  33.802  1.00  0.00    -0.200 F 
ATOM     78  F   UNL A   1      33.486  34.346  32.269  1.00  0.00    -0.200 F 
ENDBRANCH  54  68
BRANCH  55  79
ATOM     79  C   UNL A   1      45.267  27.712  28.375  1.00  0.00     0.064 A 
ATOM     80  C   UNL A   1      44.941  27.984  27.025  1.00  0.00     0.173 A 
ATOM     81  C   UNL A   1      46.303  26.796  28.596  1.00  0.00     0.173 A 
ATOM     82  F   UNL A   1      43.946  28.840  26.740  1.00  0.00    -0.203 F 
ATOM     83  C   UNL A   1      45.689  27.470  25.961  1.00  0.00     0.198 A 
ATOM     84  C   UNL A   1      47.040  26.268  27.527  1.00  0.00     0.198 A 
ATOM     85  F   UNL A   1      46.701  26.509  29.843  1.00  0.00    -0.203 F 
ATOM     86  F   UNL A   1      45.417  27.846  24.703  1.00  0.00    -0.200 F 
ATOM     87  C   UNL A   1      46.752  26.624  26.216  1.00  0.00     0.200 A 
ATOM     88  F   UNL A   1      48.116  25.503  27.776  1.00  0.00    -0.200 F 
ATOM     89  F   UNL A   1      47.537  26.194  25.217  1.00  0.00    -0.200 F 
ENDBRANCH  55  79
BRANCH  67  90
ATOM     90  C   UNL A   1      43.177  34.712  29.348  1.00  0.00     0.064 A 
ATOM     91  C   UNL A   1      42.895  35.190  28.064  1.00  0.00     0.173 A 
ATOM     92  C   UNL A   1      43.580  35.720  30.267  1.00  0.00     0.173 A 
ATOM     93  F   UNL A   1      42.756  34.357  27.026  1.00  0.00    -0.203 F 
ATOM     94  C   UNL A   1      42.826  36.559  27.778  1.00  0.00     0.198 A 
ATOM     95  C   UNL A   1      43.554  37.078  29.972  1.00  0.00     0.198 A 
ATOM     96  F   UNL A   1      44.037  35.455  31.496  1.00  0.00    -0.203 F 
ATOM     97  F   UNL A   1      42.466  36.958  26.551  1.00  0.00    -0.200 F 
ATOM     98  C   UNL A   1      43.136  37.502  28.738  1.00  0.00     0.200 A 
ATOM     99  F   UNL A   1      43.935  37.963  30.906  1.00  0.00    -0.200 F 
ATOM    100  F   UNL A   1      43.071  38.810  28.463  1.00  0.00    -0.200 F 
ENDBRANCH  67  90
ENDBRANCH  41  42
ENDBRANCH  34  36
ENDBRANCH  33  34
ENDBRANCH  32  33
ENDBRANCH  31  32
ENDBRANCH   1  31
TORSDOF 17
ENDMDL
