MODEL 1
REMARK VINA RESULT:     -13.6      0.000      0.000
REMARK SMILES Cc1ccc(C(=O)NC2CC2)cc1NC(=O)[C@@H]1[C@@H](C(=O)OCCOC(=O)c2ccc(-c3c4nc(c(-c5c(F)c(F)c(F)c(F)c5F)c5ccc([nH]5)c(-c5c(F)c(F)c(F)c(F)c5F)c5nc(c(-c6c(F)c(F)c(F)c(F)c6F)c6ccc3[nH]6)C=C5)C=C4)cc2)[C@H]2C=C[C@@H]1C2
REMARK SMILES IDX 22 1 21 2 19 3 20 4 18 5 17 6 93 7 90 8 92 9 94 10 91 11
REMARK SMILES IDX 15 12 14 13 16 15 13 16 1 17 2 18 3 19 4 20 12 21 5 22 6 23
REMARK SMILES IDX 7 24 8 25 9 27 10 28 11 29 23 30 24 31 25 32 26 33 27 34
REMARK SMILES IDX 28 35 89 36 29 37 88 38 30 39 31 40 32 41 82 42 33 43 87 44
REMARK SMILES IDX 81 45 83 46 34 47 86 48 80 49 79 50 35 52 67 53 47 54 66 55
REMARK SMILES IDX 48 56 51 57 65 58 84 59 49 60 50 61 64 63 85 64 52 65 36 66
REMARK SMILES IDX 37 67 45 68 38 69 39 70 43 71 46 72 40 73 41 74 44 75 42 76
REMARK SMILES IDX 68 77 69 78 77 79 70 80 71 81 75 82 78 83 72 84 73 85 76 86
REMARK SMILES IDX 74 87 53 88 54 89 62 90 55 91 56 92 60 93 63 94 57 95 58 96
REMARK SMILES IDX 61 97 59 98
REMARK H PARENT 14 14 8 26 83 51 51 62
REMARK Flexibility Score: inf
ROOT
ATOM      1  C   UNL A   1      33.639  28.883  25.809  1.00  0.00     0.274 C 
ENDROOT
BRANCH   1   2
ATOM      2  O   UNL A   1      33.157  27.513  25.739  1.00  0.00    -0.462 OA
BRANCH   2   3
ATOM      3  C   UNL A   1      32.037  27.387  24.951  1.00  0.00     0.310 C 
ATOM      4  O   UNL A   1      31.520  28.365  24.413  1.00  0.00    -0.252 OA
BRANCH   3   5
ATOM      5  C   UNL A   1      31.434  25.969  24.887  1.00  0.00     0.119 C 
ATOM      6  C   UNL A   1      32.248  24.618  25.215  1.00  0.00     0.100 C 
ATOM      7  C   UNL A   1      32.014  23.786  23.916  1.00  0.00     0.025 C 
ATOM      8  C   UNL A   1      31.084  25.732  23.379  1.00  0.00     0.027 C 
ATOM      9  C   UNL A   1      32.903  24.388  22.864  1.00  0.00    -0.027 C 
ATOM     10  C   UNL A   1      30.653  24.278  23.421  1.00  0.00     0.017 C 
ATOM     11  C   UNL A   1      32.352  25.564  22.543  1.00  0.00    -0.027 C 
BRANCH   6  12
ATOM     12  C   UNL A   1      31.747  23.783  26.399  1.00  0.00     0.228 C 
ATOM     13  N   UNL A   1      32.047  22.454  26.619  1.00  0.00    -0.326 N 
ATOM     14  H   UNL A   1      31.536  22.097  27.381  1.00  0.00     0.169 HD
ATOM     15  O   UNL A   1      31.031  24.322  27.251  1.00  0.00    -0.274 OA
BRANCH  13  16
ATOM     16  C   UNL A   1      32.890  21.451  26.053  1.00  0.00     0.044 A 
ATOM     17  C   UNL A   1      35.065  22.747  26.653  1.00  0.00     0.046 C 
ATOM     18  C   UNL A   1      34.300  21.616  26.018  1.00  0.00    -0.027 A 
ATOM     19  C   UNL A   1      35.114  20.670  25.338  1.00  0.00     0.006 A 
ATOM     20  C   UNL A   1      34.559  19.619  24.622  1.00  0.00     0.014 A 
ATOM     21  C   UNL A   1      32.383  20.326  25.412  1.00  0.00     0.040 A 
ATOM     22  C   UNL A   1      33.181  19.483  24.622  1.00  0.00     0.041 A 
BRANCH  22  23
ATOM     23  C   UNL A   1      32.568  18.556  23.638  1.00  0.00     0.251 C 
ATOM     24  O   UNL A   1      32.228  18.971  22.536  1.00  0.00    -0.269 OA
ATOM     25  N   UNL A   1      32.329  17.249  24.030  1.00  0.00    -0.349 N 
ATOM     26  H   UNL A   1      31.797  16.700  23.409  1.00  0.00     0.164 HD
BRANCH  25  27
ATOM     27  C   UNL A   1      32.762  16.604  25.229  1.00  0.00     0.082 C 
ATOM     28  C   UNL A   1      32.892  15.096  25.376  1.00  0.00     0.027 C 
ATOM     29  C   UNL A   1      34.095  15.950  25.371  1.00  0.00     0.027 C 
ENDBRANCH  25  27
ENDBRANCH  22  23
ENDBRANCH  13  16
ENDBRANCH   6  12
ENDBRANCH   3   5
ENDBRANCH   2   3
ENDBRANCH   1   2
BRANCH   1  30
ATOM     30  C   UNL A   1      34.120  29.368  27.190  1.00  0.00     0.275 C 
BRANCH  30  31
ATOM     31  O   UNL A   1      34.765  30.659  27.250  1.00  0.00    -0.458 OA
BRANCH  31  32
ATOM     32  C   UNL A   1      35.623  31.042  28.228  1.00  0.00     0.338 C 
ATOM     33  O   UNL A   1      35.394  31.896  29.057  1.00  0.00    -0.246 OA
BRANCH  32  34
ATOM     34  C   UNL A   1      36.825  30.222  28.335  1.00  0.00     0.060 A 
ATOM     35  C   UNL A   1      36.930  29.449  29.488  1.00  0.00     0.016 A 
ATOM     36  C   UNL A   1      37.767  30.163  27.315  1.00  0.00     0.016 A 
ATOM     37  C   UNL A   1      37.959  28.535  29.601  1.00  0.00     0.010 A 
ATOM     38  C   UNL A   1      38.856  29.328  27.486  1.00  0.00     0.010 A 
ATOM     39  C   UNL A   1      38.968  28.563  28.655  1.00  0.00    -0.014 A 
BRANCH  39  40
ATOM     40  C   UNL A   1      40.228  27.909  28.929  1.00  0.00     0.031 A 
ATOM     41  C   UNL A   1      40.449  26.488  28.546  1.00  0.00     0.074 A 
ATOM     42  C   UNL A   1      41.122  28.606  29.668  1.00  0.00     0.049 A 
ATOM     43  N   UNL A   1      41.268  25.690  29.149  1.00  0.00    -0.248 NA
ATOM     44  C   UNL A   1      39.653  25.798  27.525  1.00  0.00     0.031 C 
ATOM     45  C   UNL A   1      42.555  28.411  29.645  1.00  0.00     0.029 A 
ATOM     46  N   UNL A   1      40.949  29.662  30.566  1.00  0.00    -0.354 N 
ATOM     47  C   UNL A   1      41.378  24.561  28.360  1.00  0.00     0.074 A 
ATOM     48  C   UNL A   1      40.219  24.585  27.506  1.00  0.00     0.031 C 
ATOM     49  C   UNL A   1      43.118  29.187  30.585  1.00  0.00     0.029 A 
ATOM     50  C   UNL A   1      42.059  29.778  31.398  1.00  0.00     0.049 A 
ATOM     51  H   UNL A   1      40.155  30.243  30.606  1.00  0.00     0.167 HD
ATOM     52  C   UNL A   1      42.568  23.889  28.323  1.00  0.00     0.037 A 
ATOM     53  C   UNL A   1      42.072  29.776  32.768  1.00  0.00     0.037 A 
ATOM     54  C   UNL A   1      43.526  24.555  29.194  1.00  0.00     0.049 A 
ATOM     55  C   UNL A   1      42.863  28.567  33.255  1.00  0.00     0.074 A 
ATOM     56  C   UNL A   1      44.453  25.544  28.908  1.00  0.00     0.029 A 
ATOM     57  N   UNL A   1      43.381  24.523  30.574  1.00  0.00    -0.354 N 
ATOM     58  N   UNL A   1      42.974  27.452  32.576  1.00  0.00    -0.248 NA
ATOM     59  C   UNL A   1      43.606  28.531  34.508  1.00  0.00     0.031 C 
ATOM     60  C   UNL A   1      44.878  26.111  30.127  1.00  0.00     0.029 A 
ATOM     61  C   UNL A   1      44.214  25.460  31.153  1.00  0.00     0.049 A 
ATOM     62  H   UNL A   1      42.775  23.923  31.066  1.00  0.00     0.167 HD
ATOM     63  C   UNL A   1      43.906  26.645  33.186  1.00  0.00     0.074 A 
ATOM     64  C   UNL A   1      44.219  27.337  34.422  1.00  0.00     0.031 C 
ATOM     65  C   UNL A   1      44.406  25.519  32.589  1.00  0.00     0.037 A 
BRANCH  52  66
ATOM     66  C   UNL A   1      43.005  22.958  27.204  1.00  0.00     0.064 A 
ATOM     67  C   UNL A   1      42.542  21.620  27.162  1.00  0.00     0.173 A 
ATOM     68  C   UNL A   1      43.914  23.291  26.185  1.00  0.00     0.173 A 
ATOM     69  F   UNL A   1      41.573  21.182  27.977  1.00  0.00    -0.203 F 
ATOM     70  C   UNL A   1      43.053  20.667  26.279  1.00  0.00     0.198 A 
ATOM     71  C   UNL A   1      44.446  22.329  25.312  1.00  0.00     0.198 A 
ATOM     72  F   UNL A   1      44.284  24.560  25.973  1.00  0.00    -0.203 F 
ATOM     73  F   UNL A   1      42.598  19.406  26.326  1.00  0.00    -0.200 F 
ATOM     74  C   UNL A   1      44.031  21.013  25.375  1.00  0.00     0.200 A 
ATOM     75  F   UNL A   1      45.372  22.687  24.412  1.00  0.00    -0.200 F 
ATOM     76  F   UNL A   1      44.551  20.091  24.553  1.00  0.00    -0.200 F 
ENDBRANCH  52  66
BRANCH  53  77
ATOM     77  C   UNL A   1      41.039  30.488  33.593  1.00  0.00     0.064 A 
ATOM     78  C   UNL A   1      41.380  31.694  34.250  1.00  0.00     0.173 A 
ATOM     79  C   UNL A   1      39.677  30.128  33.642  1.00  0.00     0.173 A 
ATOM     80  F   UNL A   1      42.659  32.096  34.302  1.00  0.00    -0.203 F 
ATOM     81  C   UNL A   1      40.407  32.562  34.765  1.00  0.00     0.198 A 
ATOM     82  C   UNL A   1      38.703  30.999  34.161  1.00  0.00     0.198 A 
ATOM     83  F   UNL A   1      39.257  28.984  33.089  1.00  0.00    -0.203 F 
ATOM     84  F   UNL A   1      40.771  33.758  35.252  1.00  0.00    -0.200 F 
ATOM     85  C   UNL A   1      39.066  32.231  34.685  1.00  0.00     0.200 A 
ATOM     86  F   UNL A   1      37.402  30.690  34.052  1.00  0.00    -0.200 F 
ATOM     87  F   UNL A   1      38.127  33.114  35.055  1.00  0.00    -0.200 F 
ENDBRANCH  53  77
BRANCH  65  88
ATOM     88  C   UNL A   1      45.288  24.441  33.191  1.00  0.00     0.064 A 
ATOM     89  C   UNL A   1      46.642  24.611  33.506  1.00  0.00     0.173 A 
ATOM     90  C   UNL A   1      44.728  23.199  33.612  1.00  0.00     0.173 A 
ATOM     91  F   UNL A   1      47.274  25.768  33.278  1.00  0.00    -0.203 F 
ATOM     92  C   UNL A   1      47.388  23.605  34.131  1.00  0.00     0.198 A 
ATOM     93  C   UNL A   1      45.455  22.231  34.296  1.00  0.00     0.198 A 
ATOM     94  F   UNL A   1      43.442  22.882  33.403  1.00  0.00    -0.203 F 
ATOM     95  F   UNL A   1      48.693  23.801  34.362  1.00  0.00    -0.200 F 
ATOM     96  C   UNL A   1      46.794  22.426  34.539  1.00  0.00     0.200 A 
ATOM     97  F   UNL A   1      44.842  21.121  34.729  1.00  0.00    -0.200 F 
ATOM     98  F   UNL A   1      47.502  21.491  35.183  1.00  0.00    -0.200 F 
ENDBRANCH  65  88
ENDBRANCH  39  40
ENDBRANCH  32  34
ENDBRANCH  31  32
ENDBRANCH  30  31
ENDBRANCH   1  30
TORSDOF 15
ENDMDL
MODEL 2
REMARK VINA RESULT:     -13.3      4.397     10.396
REMARK SMILES Cc1ccc(C(=O)NC2CC2)cc1NC(=O)[C@@H]1[C@@H](C(=O)OCCOC(=O)c2ccc(-c3c4nc(c(-c5c(F)c(F)c(F)c(F)c5F)c5ccc([nH]5)c(-c5c(F)c(F)c(F)c(F)c5F)c5nc(c(-c6c(F)c(F)c(F)c(F)c6F)c6ccc3[nH]6)C=C5)C=C4)cc2)[C@H]2C=C[C@@H]1C2
REMARK SMILES IDX 22 1 21 2 19 3 20 4 18 5 17 6 93 7 90 8 92 9 94 10 91 11
REMARK SMILES IDX 15 12 14 13 16 15 13 16 1 17 2 18 3 19 4 20 12 21 5 22 6 23
REMARK SMILES IDX 7 24 8 25 9 27 10 28 11 29 23 30 24 31 25 32 26 33 27 34
REMARK SMILES IDX 28 35 89 36 29 37 88 38 30 39 31 40 32 41 82 42 33 43 87 44
REMARK SMILES IDX 81 45 83 46 34 47 86 48 80 49 79 50 35 52 67 53 47 54 66 55
REMARK SMILES IDX 48 56 51 57 65 58 84 59 49 60 50 61 64 63 85 64 52 65 36 66
REMARK SMILES IDX 37 67 45 68 38 69 39 70 43 71 46 72 40 73 41 74 44 75 42 76
REMARK SMILES IDX 68 77 69 78 77 79 70 80 71 81 75 82 78 83 72 84 73 85 76 86
REMARK SMILES IDX 74 87 53 88 54 89 62 90 55 91 56 92 60 93 63 94 57 95 58 96
REMARK SMILES IDX 61 97 59 98
REMARK H PARENT 14 14 8 26 83 51 51 62
REMARK Flexibility Score: inf
ROOT
ATOM      1  C   UNL A   1      36.013  22.332  24.354  1.00  0.00     0.274 C 
ENDROOT
BRANCH   1   2
ATOM      2  O   UNL A   1      35.077  22.173  25.456  1.00  0.00    -0.462 OA
BRANCH   2   3
ATOM      3  C   UNL A   1      34.200  23.227  25.559  1.00  0.00     0.310 C 
ATOM      4  O   UNL A   1      34.028  23.813  26.627  1.00  0.00    -0.252 OA
BRANCH   3   5
ATOM      5  C   UNL A   1      33.391  23.537  24.284  1.00  0.00     0.119 C 
ATOM      6  C   UNL A   1      32.674  24.947  23.979  1.00  0.00     0.100 C 
ATOM      7  C   UNL A   1      31.205  24.501  23.702  1.00  0.00     0.025 C 
ATOM      8  C   UNL A   1      32.144  22.590  24.340  1.00  0.00     0.027 C 
ATOM      9  C   UNL A   1      30.603  24.176  25.041  1.00  0.00    -0.027 C 
ATOM     10  C   UNL A   1      31.364  23.089  23.138  1.00  0.00     0.017 C 
ATOM     11  C   UNL A   1      31.172  23.031  25.434  1.00  0.00    -0.027 C 
BRANCH   6  12
ATOM     12  C   UNL A   1      33.166  25.718  22.749  1.00  0.00     0.228 C 
ATOM     13  N   UNL A   1      32.740  26.977  22.376  1.00  0.00    -0.326 N 
ATOM     14  H   UNL A   1      33.114  27.231  21.500  1.00  0.00     0.169 HD
ATOM     15  O   UNL A   1      34.028  25.204  22.026  1.00  0.00    -0.274 OA
BRANCH  13  16
ATOM     16  C   UNL A   1      31.911  28.012  22.900  1.00  0.00     0.044 A 
ATOM     17  C   UNL A   1      33.592  28.582  24.802  1.00  0.00     0.046 C 
ATOM     18  C   UNL A   1      32.283  28.725  24.069  1.00  0.00    -0.027 A 
ATOM     19  C   UNL A   1      31.388  29.664  24.651  1.00  0.00     0.006 A 
ATOM     20  C   UNL A   1      30.106  29.846  24.153  1.00  0.00     0.014 A 
ATOM     21  C   UNL A   1      30.657  28.302  22.372  1.00  0.00     0.040 A 
ATOM     22  C   UNL A   1      29.728  29.120  23.037  1.00  0.00     0.041 A 
BRANCH  22  23
ATOM     23  C   UNL A   1      28.289  29.086  22.677  1.00  0.00     0.251 C 
ATOM     24  O   UNL A   1      27.566  28.203  23.127  1.00  0.00    -0.269 OA
ATOM     25  N   UNL A   1      27.818  30.022  21.771  1.00  0.00    -0.349 N 
ATOM     26  H   UNL A   1      26.898  29.888  21.447  1.00  0.00     0.164 HD
BRANCH  25  27
ATOM     27  C   UNL A   1      28.510  31.160  21.253  1.00  0.00     0.082 C 
ATOM     28  C   UNL A   1      27.825  32.296  20.508  1.00  0.00     0.027 C 
ATOM     29  C   UNL A   1      28.403  32.524  21.847  1.00  0.00     0.027 C 
ENDBRANCH  25  27
ENDBRANCH  22  23
ENDBRANCH  13  16
ENDBRANCH   6  12
ENDBRANCH   3   5
ENDBRANCH   2   3
ENDBRANCH   1   2
BRANCH   1  30
ATOM     30  C   UNL A   1      37.259  23.195  24.636  1.00  0.00     0.275 C 
BRANCH  30  31
ATOM     31  O   UNL A   1      37.603  23.426  26.019  1.00  0.00    -0.458 OA
BRANCH  31  32
ATOM     32  C   UNL A   1      38.871  23.438  26.501  1.00  0.00     0.338 C 
ATOM     33  O   UNL A   1      39.683  22.554  26.338  1.00  0.00    -0.246 OA
BRANCH  32  34
ATOM     34  C   UNL A   1      39.274  24.698  27.114  1.00  0.00     0.060 A 
ATOM     35  C   UNL A   1      38.902  24.872  28.444  1.00  0.00     0.016 A 
ATOM     36  C   UNL A   1      40.044  25.634  26.432  1.00  0.00     0.016 A 
ATOM     37  C   UNL A   1      39.370  25.967  29.144  1.00  0.00     0.010 A 
ATOM     38  C   UNL A   1      40.413  26.784  27.106  1.00  0.00     0.010 A 
ATOM     39  C   UNL A   1      40.024  26.963  28.440  1.00  0.00    -0.014 A 
BRANCH  39  40
ATOM     40  C   UNL A   1      40.189  28.271  29.035  1.00  0.00     0.031 A 
ATOM     41  C   UNL A   1      39.109  29.290  28.948  1.00  0.00     0.074 A 
ATOM     42  C   UNL A   1      41.413  28.554  29.537  1.00  0.00     0.049 A 
ATOM     43  N   UNL A   1      39.309  30.567  28.977  1.00  0.00    -0.248 NA
ATOM     44  C   UNL A   1      37.707  28.954  28.680  1.00  0.00     0.031 C 
ATOM     45  C   UNL A   1      41.683  29.519  30.580  1.00  0.00     0.029 A 
ATOM     46  N   UNL A   1      42.672  28.017  29.254  1.00  0.00    -0.354 N 
ATOM     47  C   UNL A   1      38.070  31.161  29.126  1.00  0.00     0.074 A 
ATOM     48  C   UNL A   1      37.121  30.158  28.724  1.00  0.00     0.031 C 
ATOM     49  C   UNL A   1      43.011  29.629  30.744  1.00  0.00     0.029 A 
ATOM     50  C   UNL A   1      43.676  28.883  29.678  1.00  0.00     0.049 A 
ATOM     51  H   UNL A   1      42.828  27.148  28.816  1.00  0.00     0.167 HD
ATOM     52  C   UNL A   1      37.974  32.327  29.835  1.00  0.00     0.037 A 
ATOM     53  C   UNL A   1      44.700  29.396  28.926  1.00  0.00     0.037 A 
ATOM     54  C   UNL A   1      39.296  32.720  30.302  1.00  0.00     0.049 A 
ATOM     55  C   UNL A   1      44.557  30.913  28.863  1.00  0.00     0.074 A 
ATOM     56  C   UNL A   1      39.940  32.433  31.495  1.00  0.00     0.029 A 
ATOM     57  N   UNL A   1      40.265  33.165  29.415  1.00  0.00    -0.354 N 
ATOM     58  N   UNL A   1      43.410  31.537  28.957  1.00  0.00    -0.248 NA
ATOM     59  C   UNL A   1      45.681  31.830  28.723  1.00  0.00     0.031 C 
ATOM     60  C   UNL A   1      41.312  32.717  31.329  1.00  0.00     0.029 A 
ATOM     61  C   UNL A   1      41.497  33.181  30.038  1.00  0.00     0.049 A 
ATOM     62  H   UNL A   1      40.099  33.431  28.482  1.00  0.00     0.167 HD
ATOM     63  C   UNL A   1      43.642  32.889  29.064  1.00  0.00     0.074 A 
ATOM     64  C   UNL A   1      45.070  33.022  28.845  1.00  0.00     0.031 C 
ATOM     65  C   UNL A   1      42.658  33.778  29.407  1.00  0.00     0.037 A 
BRANCH  52  66
ATOM     66  C   UNL A   1      36.700  32.845  30.483  1.00  0.00     0.064 A 
ATOM     67  C   UNL A   1      35.825  33.697  29.765  1.00  0.00     0.173 A 
ATOM     68  C   UNL A   1      36.313  32.599  31.812  1.00  0.00     0.173 A 
ATOM     69  F   UNL A   1      35.978  33.922  28.453  1.00  0.00    -0.203 F 
ATOM     70  C   UNL A   1      34.749  34.357  30.362  1.00  0.00     0.198 A 
ATOM     71  C   UNL A   1      35.246  33.280  32.419  1.00  0.00     0.198 A 
ATOM     72  F   UNL A   1      36.923  31.664  32.550  1.00  0.00    -0.203 F 
ATOM     73  F   UNL A   1      33.989  35.183  29.629  1.00  0.00    -0.200 F 
ATOM     74  C   UNL A   1      34.479  34.175  31.699  1.00  0.00     0.200 A 
ATOM     75  F   UNL A   1      34.971  33.067  33.713  1.00  0.00    -0.200 F 
ATOM     76  F   UNL A   1      33.471  34.837  32.283  1.00  0.00    -0.200 F 
ENDBRANCH  52  66
BRANCH  53  77
ATOM     77  C   UNL A   1      45.454  28.582  27.914  1.00  0.00     0.064 A 
ATOM     78  C   UNL A   1      46.729  28.064  28.243  1.00  0.00     0.173 A 
ATOM     79  C   UNL A   1      44.915  28.148  26.686  1.00  0.00     0.173 A 
ATOM     80  F   UNL A   1      47.346  28.457  29.368  1.00  0.00    -0.203 F 
ATOM     81  C   UNL A   1      47.340  27.055  27.487  1.00  0.00     0.198 A 
ATOM     82  C   UNL A   1      45.531  27.138  25.928  1.00  0.00     0.198 A 
ATOM     83  F   UNL A   1      43.733  28.612  26.261  1.00  0.00    -0.203 F 
ATOM     84  F   UNL A   1      48.482  26.498  27.918  1.00  0.00    -0.200 F 
ATOM     85  C   UNL A   1      46.722  26.565  26.350  1.00  0.00     0.200 A 
ATOM     86  F   UNL A   1      44.913  26.642  24.845  1.00  0.00    -0.200 F 
ATOM     87  F   UNL A   1      47.236  25.511  25.699  1.00  0.00    -0.200 F 
ENDBRANCH  53  77
BRANCH  65  88
ATOM     88  C   UNL A   1      42.706  35.295  29.391  1.00  0.00     0.064 A 
ATOM     89  C   UNL A   1      43.401  36.073  30.324  1.00  0.00     0.173 A 
ATOM     90  C   UNL A   1      42.142  36.025  28.305  1.00  0.00     0.173 A 
ATOM     91  F   UNL A   1      44.081  35.517  31.333  1.00  0.00    -0.203 F 
ATOM     92  C   UNL A   1      43.474  37.467  30.217  1.00  0.00     0.198 A 
ATOM     93  C   UNL A   1      42.276  37.402  28.164  1.00  0.00     0.198 A 
ATOM     94  F   UNL A   1      41.458  35.431  27.317  1.00  0.00    -0.203 F 
ATOM     95  F   UNL A   1      44.107  38.168  31.167  1.00  0.00    -0.200 F 
ATOM     96  C   UNL A   1      42.927  38.128  29.133  1.00  0.00     0.200 A 
ATOM     97  F   UNL A   1      41.786  38.010  27.076  1.00  0.00    -0.200 F 
ATOM     98  F   UNL A   1      43.048  39.456  29.011  1.00  0.00    -0.200 F 
ENDBRANCH  65  88
ENDBRANCH  39  40
ENDBRANCH  32  34
ENDBRANCH  31  32
ENDBRANCH  30  31
ENDBRANCH   1  30
TORSDOF 15
ENDMDL
MODEL 3
REMARK VINA RESULT:     -13.3      4.047      9.472
REMARK SMILES Cc1ccc(C(=O)NC2CC2)cc1NC(=O)[C@@H]1[C@@H](C(=O)OCCOC(=O)c2ccc(-c3c4nc(c(-c5c(F)c(F)c(F)c(F)c5F)c5ccc([nH]5)c(-c5c(F)c(F)c(F)c(F)c5F)c5nc(c(-c6c(F)c(F)c(F)c(F)c6F)c6ccc3[nH]6)C=C5)C=C4)cc2)[C@H]2C=C[C@@H]1C2
REMARK SMILES IDX 22 1 21 2 19 3 20 4 18 5 17 6 93 7 90 8 92 9 94 10 91 11
REMARK SMILES IDX 15 12 14 13 16 15 13 16 1 17 2 18 3 19 4 20 12 21 5 22 6 23
REMARK SMILES IDX 7 24 8 25 9 27 10 28 11 29 23 30 24 31 25 32 26 33 27 34
REMARK SMILES IDX 28 35 89 36 29 37 88 38 30 39 31 40 32 41 82 42 33 43 87 44
REMARK SMILES IDX 81 45 83 46 34 47 86 48 80 49 79 50 35 52 67 53 47 54 66 55
REMARK SMILES IDX 48 56 51 57 65 58 84 59 49 60 50 61 64 63 85 64 52 65 36 66
REMARK SMILES IDX 37 67 45 68 38 69 39 70 43 71 46 72 40 73 41 74 44 75 42 76
REMARK SMILES IDX 68 77 69 78 77 79 70 80 71 81 75 82 78 83 72 84 73 85 76 86
REMARK SMILES IDX 74 87 53 88 54 89 62 90 55 91 56 92 60 93 63 94 57 95 58 96
REMARK SMILES IDX 61 97 59 98
REMARK H PARENT 14 14 8 26 83 51 51 62
REMARK Flexibility Score: inf
ROOT
ATOM      1  C   UNL A   1      35.517  24.056  24.762  1.00  0.00     0.274 C 
ENDROOT
BRANCH   1   2
ATOM      2  O   UNL A   1      35.124  25.355  25.283  1.00  0.00    -0.462 OA
BRANCH   2   3
ATOM      3  C   UNL A   1      33.762  25.472  25.439  1.00  0.00     0.310 C 
ATOM      4  O   UNL A   1      33.213  25.184  26.501  1.00  0.00    -0.252 OA
BRANCH   3   5
ATOM      5  C   UNL A   1      32.988  25.880  24.170  1.00  0.00     0.119 C 
ATOM      6  C   UNL A   1      33.653  26.054  22.713  1.00  0.00     0.100 C 
ATOM      7  C   UNL A   1      33.218  27.505  22.339  1.00  0.00     0.025 C 
ATOM      8  C   UNL A   1      32.495  27.344  24.434  1.00  0.00     0.027 C 
ATOM      9  C   UNL A   1      34.090  28.427  23.146  1.00  0.00    -0.027 C 
ATOM     10  C   UNL A   1      31.894  27.681  23.083  1.00  0.00     0.017 C 
ATOM     11  C   UNL A   1      33.664  28.327  24.410  1.00  0.00    -0.027 C 
BRANCH   6  12
ATOM     12  C   UNL A   1      33.148  25.118  21.609  1.00  0.00     0.228 C 
ATOM     13  N   UNL A   1      32.683  23.834  21.806  1.00  0.00    -0.326 N 
ATOM     14  H   UNL A   1      32.509  23.385  20.947  1.00  0.00     0.169 HD
ATOM     15  O   UNL A   1      33.127  25.526  20.441  1.00  0.00    -0.274 OA
BRANCH  13  16
ATOM     16  C   UNL A   1      32.384  22.973  22.904  1.00  0.00     0.044 A 
ATOM     17  C   UNL A   1      30.276  24.341  23.579  1.00  0.00     0.046 C 
ATOM     18  C   UNL A   1      31.290  23.243  23.768  1.00  0.00    -0.027 A 
ATOM     19  C   UNL A   1      31.083  22.451  24.929  1.00  0.00     0.006 A 
ATOM     20  C   UNL A   1      31.979  21.458  25.298  1.00  0.00     0.014 A 
ATOM     21  C   UNL A   1      33.198  21.902  23.254  1.00  0.00     0.040 A 
ATOM     22  C   UNL A   1      33.069  21.223  24.477  1.00  0.00     0.041 A 
BRANCH  22  23
ATOM     23  C   UNL A   1      34.173  20.382  25.002  1.00  0.00     0.251 C 
ATOM     24  O   UNL A   1      35.110  20.904  25.597  1.00  0.00    -0.269 OA
ATOM     25  N   UNL A   1      34.147  19.023  24.733  1.00  0.00    -0.349 N 
ATOM     26  H   UNL A   1      34.958  18.518  24.971  1.00  0.00     0.164 HD
BRANCH  25  27
ATOM     27  C   UNL A   1      33.082  18.269  24.152  1.00  0.00     0.082 C 
ATOM     28  C   UNL A   1      32.899  18.085  22.653  1.00  0.00     0.027 C 
ATOM     29  C   UNL A   1      33.278  16.940  23.503  1.00  0.00     0.027 C 
ENDBRANCH  25  27
ENDBRANCH  22  23
ENDBRANCH  13  16
ENDBRANCH   6  12
ENDBRANCH   3   5
ENDBRANCH   2   3
ENDBRANCH   1   2
BRANCH   1  30
ATOM     30  C   UNL A   1      37.014  23.703  24.866  1.00  0.00     0.275 C 
BRANCH  30  31
ATOM     31  O   UNL A   1      37.539  23.435  26.184  1.00  0.00    -0.458 OA
BRANCH  31  32
ATOM     32  C   UNL A   1      38.854  23.494  26.511  1.00  0.00     0.338 C 
ATOM     33  O   UNL A   1      39.681  22.660  26.214  1.00  0.00    -0.246 OA
BRANCH  32  34
ATOM     34  C   UNL A   1      39.269  24.751  27.125  1.00  0.00     0.060 A 
ATOM     35  C   UNL A   1      38.909  24.922  28.459  1.00  0.00     0.016 A 
ATOM     36  C   UNL A   1      40.039  25.684  26.440  1.00  0.00     0.016 A 
ATOM     37  C   UNL A   1      39.388  26.012  29.158  1.00  0.00     0.010 A 
ATOM     38  C   UNL A   1      40.420  26.830  27.115  1.00  0.00     0.010 A 
ATOM     39  C   UNL A   1      40.042  27.007  28.453  1.00  0.00    -0.014 A 
BRANCH  39  40
ATOM     40  C   UNL A   1      40.220  28.311  29.050  1.00  0.00     0.031 A 
ATOM     41  C   UNL A   1      39.133  29.326  29.003  1.00  0.00     0.074 A 
ATOM     42  C   UNL A   1      41.458  28.597  29.516  1.00  0.00     0.049 A 
ATOM     43  N   UNL A   1      39.329  30.604  29.034  1.00  0.00    -0.248 NA
ATOM     44  C   UNL A   1      37.725  28.985  28.776  1.00  0.00     0.031 C 
ATOM     45  C   UNL A   1      41.755  29.557  30.557  1.00  0.00     0.029 A 
ATOM     46  N   UNL A   1      42.710  28.068  29.191  1.00  0.00    -0.354 N 
ATOM     47  C   UNL A   1      38.092  31.191  29.225  1.00  0.00     0.074 A 
ATOM     48  C   UNL A   1      37.135  30.186  28.845  1.00  0.00     0.031 C 
ATOM     49  C   UNL A   1      43.087  29.672  30.680  1.00  0.00     0.029 A 
ATOM     50  C   UNL A   1      43.722  28.936  29.590  1.00  0.00     0.049 A 
ATOM     51  H   UNL A   1      42.856  27.203  28.744  1.00  0.00     0.167 HD
ATOM     52  C   UNL A   1      38.012  32.352  29.943  1.00  0.00     0.037 A 
ATOM     53  C   UNL A   1      44.721  29.459  28.811  1.00  0.00     0.037 A 
ATOM     54  C   UNL A   1      39.346  32.748  30.373  1.00  0.00     0.049 A 
ATOM     55  C   UNL A   1      44.569  30.975  28.761  1.00  0.00     0.074 A 
ATOM     56  C   UNL A   1      40.028  32.457  31.543  1.00  0.00     0.029 A 
ATOM     57  N   UNL A   1      40.285  33.203  29.459  1.00  0.00    -0.354 N 
ATOM     58  N   UNL A   1      43.423  31.593  28.895  1.00  0.00    -0.248 NA
ATOM     59  C   UNL A   1      45.683  31.899  28.592  1.00  0.00     0.031 C 
ATOM     60  C   UNL A   1      41.393  32.748  31.337  1.00  0.00     0.029 A 
ATOM     61  C   UNL A   1      41.536  33.222  30.045  1.00  0.00     0.049 A 
ATOM     62  H   UNL A   1      40.089  33.474  28.533  1.00  0.00     0.167 HD
ATOM     63  C   UNL A   1      43.651  32.945  29.003  1.00  0.00     0.074 A 
ATOM     64  C   UNL A   1      45.071  33.087  28.740  1.00  0.00     0.031 C 
ATOM     65  C   UNL A   1      42.674  33.827  29.381  1.00  0.00     0.037 A 
BRANCH  52  66
ATOM     66  C   UNL A   1      36.757  32.860  30.634  1.00  0.00     0.064 A 
ATOM     67  C   UNL A   1      35.850  33.702  29.945  1.00  0.00     0.173 A 
ATOM     68  C   UNL A   1      36.417  32.614  31.976  1.00  0.00     0.173 A 
ATOM     69  F   UNL A   1      35.955  33.925  28.628  1.00  0.00    -0.203 F 
ATOM     70  C   UNL A   1      34.789  34.354  30.576  1.00  0.00     0.198 A 
ATOM     71  C   UNL A   1      35.366  33.287  32.618  1.00  0.00     0.198 A 
ATOM     72  F   UNL A   1      37.061  31.686  32.695  1.00  0.00    -0.203 F 
ATOM     73  F   UNL A   1      33.996  35.171  29.869  1.00  0.00    -0.200 F 
ATOM     74  C   UNL A   1      34.566  34.173  31.922  1.00  0.00     0.200 A 
ATOM     75  F   UNL A   1      35.137  33.074  33.921  1.00  0.00    -0.200 F 
ATOM     76  F   UNL A   1      33.573  34.827  32.539  1.00  0.00    -0.200 F 
ENDBRANCH  52  66
BRANCH  53  77
ATOM     77  C   UNL A   1      45.446  28.655  27.771  1.00  0.00     0.064 A 
ATOM     78  C   UNL A   1      46.759  28.195  28.032  1.00  0.00     0.173 A 
ATOM     79  C   UNL A   1      44.855  28.174  26.585  1.00  0.00     0.173 A 
ATOM     80  F   UNL A   1      47.424  28.635  29.111  1.00  0.00    -0.203 F 
ATOM     81  C   UNL A   1      47.366  27.195  27.260  1.00  0.00     0.198 A 
ATOM     82  C   UNL A   1      45.466  27.174  25.810  1.00  0.00     0.198 A 
ATOM     83  F   UNL A   1      43.632  28.582  26.222  1.00  0.00    -0.203 F 
ATOM     84  F   UNL A   1      48.553  26.693  27.632  1.00  0.00    -0.200 F 
ATOM     85  C   UNL A   1      46.702  26.658  26.171  1.00  0.00     0.200 A 
ATOM     86  F   UNL A   1      44.807  26.631  24.775  1.00  0.00    -0.200 F 
ATOM     87  F   UNL A   1      47.221  25.612  25.510  1.00  0.00    -0.200 F 
ENDBRANCH  53  77
BRANCH  65  88
ATOM     88  C   UNL A   1      42.715  35.345  29.374  1.00  0.00     0.064 A 
ATOM     89  C   UNL A   1      43.410  36.122  30.309  1.00  0.00     0.173 A 
ATOM     90  C   UNL A   1      42.143  36.078  28.294  1.00  0.00     0.173 A 
ATOM     91  F   UNL A   1      44.096  35.563  31.312  1.00  0.00    -0.203 F 
ATOM     92  C   UNL A   1      43.475  37.516  30.209  1.00  0.00     0.198 A 
ATOM     93  C   UNL A   1      42.271  37.457  28.160  1.00  0.00     0.198 A 
ATOM     94  F   UNL A   1      41.458  35.487  27.305  1.00  0.00    -0.203 F 
ATOM     95  F   UNL A   1      44.109  38.215  31.160  1.00  0.00    -0.200 F 
ATOM     96  C   UNL A   1      42.922  38.180  29.130  1.00  0.00     0.200 A 
ATOM     97  F   UNL A   1      41.774  38.069  27.077  1.00  0.00    -0.200 F 
ATOM     98  F   UNL A   1      43.035  39.509  29.015  1.00  0.00    -0.200 F 
ENDBRANCH  65  88
ENDBRANCH  39  40
ENDBRANCH  32  34
ENDBRANCH  31  32
ENDBRANCH  30  31
ENDBRANCH   1  30
TORSDOF 15
ENDMDL
