MODEL 1
REMARK VINA RESULT:     -13.6      0.000      0.000
REMARK SMILES Cc1ccc(-c2cc(Cl)ccc2Cl)c(C(=O)OCCOC(=O)c2ccc(-c3c4nc(c(-c5c(F)c(F)c(F)c(F)c5F)c5ccc([nH]5)c(-c5c(F)c(F)c(F)c(F)c5F)c5nc(c(-c6c(F)c(F)c(F)c(F)c6F)c6ccc3[nH]6)C=C5)C=C4)cc2)c1
REMARK SMILES IDX 19 1 18 2 17 3 15 4 16 5 14 6 1 7 2 8 3 9 86 10 4 11 5 12
REMARK SMILES IDX 6 13 7 14 12 15 8 16 11 17 13 18 9 19 10 20 20 21 21 22
REMARK SMILES IDX 22 23 23 24 24 25 85 26 25 27 84 28 26 29 27 30 28 31 78 32
REMARK SMILES IDX 29 33 83 34 77 35 79 36 30 37 82 38 76 39 75 40 31 42 63 43
REMARK SMILES IDX 43 44 62 45 44 46 47 47 61 48 80 49 45 50 46 51 60 53 81 54
REMARK SMILES IDX 48 55 32 56 33 57 41 58 34 59 35 60 39 61 42 62 36 63 37 64
REMARK SMILES IDX 40 65 38 66 64 67 65 68 73 69 66 70 67 71 71 72 74 73 68 74
REMARK SMILES IDX 69 75 72 76 70 77 49 78 50 79 58 80 51 81 52 82 56 83 59 84
REMARK SMILES IDX 53 85 54 86 57 87 55 88
REMARK H PARENT 79 41 47 52
REMARK Flexibility Score: inf
ROOT
ATOM      1  C   UNL A   1      33.448  30.225  27.232  1.00  0.00     0.275 C 
ENDROOT
BRANCH   1   2
ATOM      2  C   UNL A   1      32.781  29.824  25.901  1.00  0.00     0.275 C 
BRANCH   2   3
ATOM      3  O   UNL A   1      31.577  29.011  26.013  1.00  0.00    -0.458 OA
BRANCH   3   4
ATOM      4  C   UNL A   1      31.817  27.699  25.722  1.00  0.00     0.338 C 
ATOM      5  O   UNL A   1      32.179  26.879  26.562  1.00  0.00    -0.246 OA
BRANCH   4   6
ATOM      6  C   UNL A   1      31.973  27.316  24.298  1.00  0.00     0.068 A 
ATOM      7  C   UNL A   1      34.046  24.314  23.125  1.00  0.00     0.044 C 
ATOM      8  C   UNL A   1      33.129  25.497  23.093  1.00  0.00    -0.050 A 
ATOM      9  C   UNL A   1      32.374  25.783  21.969  1.00  0.00     0.004 A 
ATOM     10  C   UNL A   1      32.975  26.312  24.213  1.00  0.00     0.019 A 
ATOM     11  C   UNL A   1      31.443  26.821  22.004  1.00  0.00     0.010 A 
ATOM     12  C   UNL A   1      31.133  27.555  23.182  1.00  0.00    -0.002 A 
BRANCH  12  13
ATOM     13  C   UNL A   1      29.906  28.402  23.073  1.00  0.00     0.003 A 
ATOM     14  C   UNL A   1      29.950  29.691  22.509  1.00  0.00     0.030 A 
ATOM     15  C   UNL A   1      28.607  27.892  23.384  1.00  0.00     0.049 A 
ATOM     16  C   UNL A   1      28.771  30.428  22.281  1.00  0.00     0.041 A 
ATOM     17  C   UNL A   1      27.438  28.627  23.131  1.00  0.00     0.023 A 
ATOM     18  Cl  UNL A   1      28.353  26.329  24.111  1.00  0.00    -0.084 Cl
ATOM     19  Cl  UNL A   1      28.842  32.009  21.603  1.00  0.00    -0.084 Cl
ATOM     20  C   UNL A   1      27.519  29.900  22.585  1.00  0.00     0.022 A 
ENDBRANCH  12  13
ENDBRANCH   4   6
ENDBRANCH   3   4
ENDBRANCH   2   3
ENDBRANCH   1   2
BRANCH   1  21
ATOM     21  O   UNL A   1      34.692  29.609  27.633  1.00  0.00    -0.458 OA
BRANCH  21  22
ATOM     22  C   UNL A   1      35.775  30.397  27.756  1.00  0.00     0.338 C 
ATOM     23  O   UNL A   1      35.759  31.616  27.660  1.00  0.00    -0.246 OA
BRANCH  22  24
ATOM     24  C   UNL A   1      36.969  29.596  28.068  1.00  0.00     0.060 A 
ATOM     25  C   UNL A   1      38.078  29.704  27.218  1.00  0.00     0.016 A 
ATOM     26  C   UNL A   1      37.057  28.947  29.297  1.00  0.00     0.016 A 
ATOM     27  C   UNL A   1      39.323  29.263  27.622  1.00  0.00     0.010 A 
ATOM     28  C   UNL A   1      38.293  28.542  29.725  1.00  0.00     0.010 A 
ATOM     29  C   UNL A   1      39.404  28.675  28.868  1.00  0.00    -0.014 A 
BRANCH  29  30
ATOM     30  C   UNL A   1      40.546  27.889  29.270  1.00  0.00     0.031 A 
ATOM     31  C   UNL A   1      40.732  26.515  28.790  1.00  0.00     0.074 A 
ATOM     32  C   UNL A   1      41.475  28.719  29.789  1.00  0.00     0.049 A 
ATOM     33  N   UNL A   1      41.718  25.770  29.141  1.00  0.00    -0.248 NA
ATOM     34  C   UNL A   1      39.788  25.806  27.929  1.00  0.00     0.031 C 
ATOM     35  C   UNL A   1      42.920  28.686  29.699  1.00  0.00     0.029 A 
ATOM     36  N   UNL A   1      41.209  29.881  30.538  1.00  0.00    -0.354 N 
ATOM     37  C   UNL A   1      41.752  24.701  28.268  1.00  0.00     0.074 A 
ATOM     38  C   UNL A   1      40.440  24.663  27.686  1.00  0.00     0.031 C 
ATOM     39  C   UNL A   1      43.426  29.591  30.559  1.00  0.00     0.029 A 
ATOM     40  C   UNL A   1      42.322  30.099  31.361  1.00  0.00     0.049 A 
ATOM     41  H   UNL A   1      40.396  30.435  30.491  1.00  0.00     0.167 HD
ATOM     42  C   UNL A   1      42.969  24.138  28.013  1.00  0.00     0.037 A 
ATOM     43  C   UNL A   1      42.179  29.887  32.708  1.00  0.00     0.037 A 
ATOM     44  C   UNL A   1      43.958  24.741  28.910  1.00  0.00     0.049 A 
ATOM     45  C   UNL A   1      42.920  28.646  33.133  1.00  0.00     0.074 A 
ATOM     46  C   UNL A   1      44.845  25.787  28.726  1.00  0.00     0.029 A 
ATOM     47  N   UNL A   1      43.823  24.566  30.284  1.00  0.00    -0.354 N 
ATOM     48  N   UNL A   1      43.145  27.622  32.357  1.00  0.00    -0.248 NA
ATOM     49  C   UNL A   1      43.513  28.510  34.455  1.00  0.00     0.031 C 
ATOM     50  C   UNL A   1      45.159  26.312  30.010  1.00  0.00     0.029 A 
ATOM     51  C   UNL A   1      44.480  25.574  30.967  1.00  0.00     0.049 A 
ATOM     52  H   UNL A   1      43.329  23.830  30.711  1.00  0.00     0.167 HD
ATOM     53  C   UNL A   1      43.967  26.746  33.006  1.00  0.00     0.074 A 
ATOM     54  C   UNL A   1      44.157  27.340  34.320  1.00  0.00     0.031 C 
ATOM     55  C   UNL A   1      44.466  25.617  32.421  1.00  0.00     0.037 A 
BRANCH  42  56
ATOM     56  C   UNL A   1      43.372  23.307  26.804  1.00  0.00     0.064 A 
ATOM     57  C   UNL A   1      43.009  21.937  26.752  1.00  0.00     0.173 A 
ATOM     58  C   UNL A   1      44.168  23.730  25.721  1.00  0.00     0.173 A 
ATOM     59  F   UNL A   1      42.212  21.391  27.681  1.00  0.00    -0.203 F 
ATOM     60  C   UNL A   1      43.454  21.068  25.751  1.00  0.00     0.198 A 
ATOM     61  C   UNL A   1      44.605  22.860  24.712  1.00  0.00     0.198 A 
ATOM     62  F   UNL A   1      44.564  24.996  25.577  1.00  0.00    -0.203 F 
ATOM     63  F   UNL A   1      43.104  19.774  25.790  1.00  0.00    -0.200 F 
ATOM     64  C   UNL A   1      44.259  21.527  24.733  1.00  0.00     0.200 A 
ATOM     65  F   UNL A   1      45.376  23.330  23.720  1.00  0.00    -0.200 F 
ATOM     66  F   UNL A   1      44.691  20.696  23.775  1.00  0.00    -0.200 F 
ENDBRANCH  42  56
BRANCH  43  67
ATOM     67  C   UNL A   1      40.814  30.260  33.192  1.00  0.00     0.064 A 
ATOM     68  C   UNL A   1      40.424  31.607  33.029  1.00  0.00     0.173 A 
ATOM     69  C   UNL A   1      39.808  29.291  33.236  1.00  0.00     0.173 A 
ATOM     70  F   UNL A   1      41.350  32.578  33.031  1.00  0.00    -0.203 F 
ATOM     71  C   UNL A   1      39.123  31.935  32.669  1.00  0.00     0.198 A 
ATOM     72  C   UNL A   1      38.508  29.630  32.883  1.00  0.00     0.198 A 
ATOM     73  F   UNL A   1      40.100  28.002  33.450  1.00  0.00    -0.203 F 
ATOM     74  F   UNL A   1      38.811  33.193  32.325  1.00  0.00    -0.200 F 
ATOM     75  C   UNL A   1      38.182  30.935  32.539  1.00  0.00     0.200 A 
ATOM     76  F   UNL A   1      37.605  28.657  32.747  1.00  0.00    -0.200 F 
ATOM     77  F   UNL A   1      36.987  31.227  32.014  1.00  0.00    -0.200 F 
ENDBRANCH  43  67
BRANCH  55  78
ATOM     78  C   UNL A   1      45.119  24.495  33.179  1.00  0.00     0.064 A 
ATOM     79  C   UNL A   1      46.436  24.554  33.659  1.00  0.00     0.173 A 
ATOM     80  C   UNL A   1      44.375  23.356  33.568  1.00  0.00     0.173 A 
ATOM     81  F   UNL A   1      47.187  25.654  33.514  1.00  0.00    -0.203 F 
ATOM     82  C   UNL A   1      47.010  23.496  34.358  1.00  0.00     0.198 A 
ATOM     83  C   UNL A   1      44.925  22.342  34.343  1.00  0.00     0.198 A 
ATOM     84  F   UNL A   1      43.085  23.203  33.232  1.00  0.00    -0.203 F 
ATOM     85  F   UNL A   1      48.300  23.562  34.712  1.00  0.00    -0.200 F 
ATOM     86  C   UNL A   1      46.253  22.394  34.705  1.00  0.00     0.200 A 
ATOM     87  F   UNL A   1      44.154  21.322  34.744  1.00  0.00    -0.200 F 
ATOM     88  F   UNL A   1      46.798  21.395  35.412  1.00  0.00    -0.200 F 
ENDBRANCH  55  78
ENDBRANCH  29  30
ENDBRANCH  22  24
ENDBRANCH  21  22
ENDBRANCH   1  21
TORSDOF 12
ENDMDL
MODEL 2
REMARK VINA RESULT:     -13.5      4.524     10.370
REMARK SMILES Cc1ccc(-c2cc(Cl)ccc2Cl)c(C(=O)OCCOC(=O)c2ccc(-c3c4nc(c(-c5c(F)c(F)c(F)c(F)c5F)c5ccc([nH]5)c(-c5c(F)c(F)c(F)c(F)c5F)c5nc(c(-c6c(F)c(F)c(F)c(F)c6F)c6ccc3[nH]6)C=C5)C=C4)cc2)c1
REMARK SMILES IDX 19 1 18 2 17 3 15 4 16 5 14 6 1 7 2 8 3 9 86 10 4 11 5 12
REMARK SMILES IDX 6 13 7 14 12 15 8 16 11 17 13 18 9 19 10 20 20 21 21 22
REMARK SMILES IDX 22 23 23 24 24 25 85 26 25 27 84 28 26 29 27 30 28 31 78 32
REMARK SMILES IDX 29 33 83 34 77 35 79 36 30 37 82 38 76 39 75 40 31 42 63 43
REMARK SMILES IDX 43 44 62 45 44 46 47 47 61 48 80 49 45 50 46 51 60 53 81 54
REMARK SMILES IDX 48 55 32 56 33 57 41 58 34 59 35 60 39 61 42 62 36 63 37 64
REMARK SMILES IDX 40 65 38 66 64 67 65 68 73 69 66 70 67 71 71 72 74 73 68 74
REMARK SMILES IDX 69 75 72 76 70 77 49 78 50 79 58 80 51 81 52 82 56 83 59 84
REMARK SMILES IDX 53 85 54 86 57 87 55 88
REMARK H PARENT 79 41 47 52
REMARK Flexibility Score: inf
ROOT
ATOM      1  C   UNL A   1      38.086  22.329  25.730  1.00  0.00     0.275 C 
ENDROOT
BRANCH   1   2
ATOM      2  C   UNL A   1      36.610  21.949  25.497  1.00  0.00     0.275 C 
BRANCH   2   3
ATOM      3  O   UNL A   1      36.189  21.857  24.106  1.00  0.00    -0.458 OA
BRANCH   3   4
ATOM      4  C   UNL A   1      35.118  22.660  23.840  1.00  0.00     0.338 C 
ATOM      5  O   UNL A   1      35.194  23.681  23.161  1.00  0.00    -0.246 OA
BRANCH   4   6
ATOM      6  C   UNL A   1      33.897  22.492  24.665  1.00  0.00     0.068 A 
ATOM      7  C   UNL A   1      31.788  25.419  25.956  1.00  0.00     0.044 C 
ATOM      8  C   UNL A   1      32.233  24.021  25.659  1.00  0.00    -0.050 A 
ATOM      9  C   UNL A   1      31.376  22.949  25.836  1.00  0.00     0.004 A 
ATOM     10  C   UNL A   1      33.505  23.769  25.149  1.00  0.00     0.019 A 
ATOM     11  C   UNL A   1      31.774  21.670  25.444  1.00  0.00     0.010 A 
ATOM     12  C   UNL A   1      32.991  21.405  24.758  1.00  0.00    -0.002 A 
BRANCH  12  13
ATOM     13  C   UNL A   1      33.078  20.035  24.168  1.00  0.00     0.003 A 
ATOM     14  C   UNL A   1      33.639  18.960  24.884  1.00  0.00     0.030 A 
ATOM     15  C   UNL A   1      32.458  19.709  22.922  1.00  0.00     0.049 A 
ATOM     16  C   UNL A   1      33.591  17.645  24.381  1.00  0.00     0.041 A 
ATOM     17  C   UNL A   1      32.397  18.391  22.442  1.00  0.00     0.023 A 
ATOM     18  Cl  UNL A   1      31.735  20.907  21.883  1.00  0.00    -0.084 Cl
ATOM     19  Cl  UNL A   1      34.293  16.342  25.262  1.00  0.00    -0.084 Cl
ATOM     20  C   UNL A   1      32.971  17.358  23.168  1.00  0.00     0.022 A 
ENDBRANCH  12  13
ENDBRANCH   4   6
ENDBRANCH   3   4
ENDBRANCH   2   3
ENDBRANCH   1   2
BRANCH   1  21
ATOM     21  O   UNL A   1      38.419  23.570  26.391  1.00  0.00    -0.458 OA
BRANCH  21  22
ATOM     22  C   UNL A   1      39.511  23.595  27.175  1.00  0.00     0.338 C 
ATOM     23  O   UNL A   1      40.184  22.613  27.455  1.00  0.00    -0.246 OA
BRANCH  22  24
ATOM     24  C   UNL A   1      39.809  24.968  27.610  1.00  0.00     0.060 A 
ATOM     25  C   UNL A   1      40.180  25.906  26.637  1.00  0.00     0.016 A 
ATOM     26  C   UNL A   1      39.497  25.357  28.911  1.00  0.00     0.016 A 
ATOM     27  C   UNL A   1      40.141  27.259  26.908  1.00  0.00     0.010 A 
ATOM     28  C   UNL A   1      39.418  26.697  29.181  1.00  0.00     0.010 A 
ATOM     29  C   UNL A   1      39.772  27.630  28.186  1.00  0.00    -0.014 A 
BRANCH  29  30
ATOM     30  C   UNL A   1      40.006  28.961  28.693  1.00  0.00     0.031 A 
ATOM     31  C   UNL A   1      38.948  29.978  28.681  1.00  0.00     0.074 A 
ATOM     32  C   UNL A   1      41.130  28.943  29.440  1.00  0.00     0.049 A 
ATOM     33  N   UNL A   1      39.118  31.181  29.098  1.00  0.00    -0.248 NA
ATOM     34  C   UNL A   1      37.612  29.773  28.126  1.00  0.00     0.031 C 
ATOM     35  C   UNL A   1      41.460  29.652  30.658  1.00  0.00     0.029 A 
ATOM     36  N   UNL A   1      42.266  28.149  29.192  1.00  0.00    -0.354 N 
ATOM     37  C   UNL A   1      37.865  31.742  29.244  1.00  0.00     0.074 A 
ATOM     38  C   UNL A   1      37.001  30.920  28.447  1.00  0.00     0.031 C 
ATOM     39  C   UNL A   1      42.773  29.484  30.912  1.00  0.00     0.029 A 
ATOM     40  C   UNL A   1      43.360  28.814  29.760  1.00  0.00     0.049 A 
ATOM     41  H   UNL A   1      42.287  27.290  28.711  1.00  0.00     0.167 HD
ATOM     42  C   UNL A   1      37.717  32.703  30.203  1.00  0.00     0.037 A 
ATOM     43  C   UNL A   1      44.278  29.384  28.916  1.00  0.00     0.037 A 
ATOM     44  C   UNL A   1      39.038  33.027  30.746  1.00  0.00     0.049 A 
ATOM     45  C   UNL A   1      44.172  30.887  28.950  1.00  0.00     0.074 A 
ATOM     46  C   UNL A   1      39.705  32.570  31.869  1.00  0.00     0.029 A 
ATOM     47  N   UNL A   1      40.000  33.580  29.906  1.00  0.00    -0.354 N 
ATOM     48  N   UNL A   1      43.076  31.541  29.218  1.00  0.00    -0.248 NA
ATOM     49  C   UNL A   1      45.324  31.751  28.743  1.00  0.00     0.031 C 
ATOM     50  C   UNL A   1      41.098  32.757  31.645  1.00  0.00     0.029 A 
ATOM     51  C   UNL A   1      41.270  33.343  30.401  1.00  0.00     0.049 A 
ATOM     52  H   UNL A   1      39.805  34.071  29.075  1.00  0.00     0.167 HD
ATOM     53  C   UNL A   1      43.366  32.871  29.315  1.00  0.00     0.074 A 
ATOM     54  C   UNL A   1      44.783  32.953  28.996  1.00  0.00     0.031 C 
ATOM     55  C   UNL A   1      42.446  33.811  29.684  1.00  0.00     0.037 A 
BRANCH  42  56
ATOM     56  C   UNL A   1      36.430  33.140  30.887  1.00  0.00     0.064 A 
ATOM     57  C   UNL A   1      35.550  34.021  30.211  1.00  0.00     0.173 A 
ATOM     58  C   UNL A   1      36.031  32.828  32.202  1.00  0.00     0.173 A 
ATOM     59  F   UNL A   1      35.762  34.376  28.935  1.00  0.00    -0.203 F 
ATOM     60  C   UNL A   1      34.420  34.582  30.814  1.00  0.00     0.198 A 
ATOM     61  C   UNL A   1      34.891  33.382  32.803  1.00  0.00     0.198 A 
ATOM     62  F   UNL A   1      36.710  31.977  32.973  1.00  0.00    -0.203 F 
ATOM     63  F   UNL A   1      33.655  35.442  30.124  1.00  0.00    -0.200 F 
ATOM     64  C   UNL A   1      34.093  34.269  32.114  1.00  0.00     0.200 A 
ATOM     65  F   UNL A   1      34.581  33.053  34.066  1.00  0.00    -0.200 F 
ATOM     66  F   UNL A   1      33.014  34.809  32.697  1.00  0.00    -0.200 F 
ENDBRANCH  42  56
BRANCH  43  67
ATOM     67  C   UNL A   1      44.465  28.582  27.667  1.00  0.00     0.064 A 
ATOM     68  C   UNL A   1      45.020  27.292  27.814  1.00  0.00     0.173 A 
ATOM     69  C   UNL A   1      43.635  28.813  26.567  1.00  0.00     0.173 A 
ATOM     70  F   UNL A   1      45.862  27.036  28.827  1.00  0.00    -0.203 F 
ATOM     71  C   UNL A   1      44.561  26.226  27.049  1.00  0.00     0.198 A 
ATOM     72  C   UNL A   1      43.189  27.742  25.803  1.00  0.00     0.198 A 
ATOM     73  F   UNL A   1      43.124  30.028  26.331  1.00  0.00    -0.203 F 
ATOM     74  F   UNL A   1      44.950  24.974  27.329  1.00  0.00    -0.200 F 
ATOM     75  C   UNL A   1      43.601  26.447  26.084  1.00  0.00     0.200 A 
ATOM     76  F   UNL A   1      42.252  27.960  24.879  1.00  0.00    -0.200 F 
ATOM     77  F   UNL A   1      43.028  25.400  25.482  1.00  0.00    -0.200 F 
ENDBRANCH  43  67
BRANCH  55  78
ATOM     78  C   UNL A   1      42.643  35.292  29.516  1.00  0.00     0.064 A 
ATOM     79  C   UNL A   1      43.447  36.063  30.368  1.00  0.00     0.173 A 
ATOM     80  C   UNL A   1      42.122  35.968  28.388  1.00  0.00     0.173 A 
ATOM     81  F   UNL A   1      44.143  35.507  31.370  1.00  0.00    -0.203 F 
ATOM     82  C   UNL A   1      43.608  37.434  30.185  1.00  0.00     0.198 A 
ATOM     83  C   UNL A   1      42.359  37.318  28.158  1.00  0.00     0.198 A 
ATOM     84  F   UNL A   1      41.389  35.336  27.458  1.00  0.00    -0.203 F 
ATOM     85  F   UNL A   1      44.309  38.142  31.080  1.00  0.00    -0.200 F 
ATOM     86  C   UNL A   1      43.070  38.059  29.077  1.00  0.00     0.200 A 
ATOM     87  F   UNL A   1      41.902  37.889  27.036  1.00  0.00    -0.200 F 
ATOM     88  F   UNL A   1      43.260  39.371  28.882  1.00  0.00    -0.200 F 
ENDBRANCH  55  78
ENDBRANCH  29  30
ENDBRANCH  22  24
ENDBRANCH  21  22
ENDBRANCH   1  21
TORSDOF 12
ENDMDL
MODEL 3
REMARK VINA RESULT:     -13.5      4.331     10.061
REMARK SMILES Cc1ccc(-c2cc(Cl)ccc2Cl)c(C(=O)OCCOC(=O)c2ccc(-c3c4nc(c(-c5c(F)c(F)c(F)c(F)c5F)c5ccc([nH]5)c(-c5c(F)c(F)c(F)c(F)c5F)c5nc(c(-c6c(F)c(F)c(F)c(F)c6F)c6ccc3[nH]6)C=C5)C=C4)cc2)c1
REMARK SMILES IDX 19 1 18 2 17 3 15 4 16 5 14 6 1 7 2 8 3 9 86 10 4 11 5 12
REMARK SMILES IDX 6 13 7 14 12 15 8 16 11 17 13 18 9 19 10 20 20 21 21 22
REMARK SMILES IDX 22 23 23 24 24 25 85 26 25 27 84 28 26 29 27 30 28 31 78 32
REMARK SMILES IDX 29 33 83 34 77 35 79 36 30 37 82 38 76 39 75 40 31 42 63 43
REMARK SMILES IDX 43 44 62 45 44 46 47 47 61 48 80 49 45 50 46 51 60 53 81 54
REMARK SMILES IDX 48 55 32 56 33 57 41 58 34 59 35 60 39 61 42 62 36 63 37 64
REMARK SMILES IDX 40 65 38 66 64 67 65 68 73 69 66 70 67 71 71 72 74 73 68 74
REMARK SMILES IDX 69 75 72 76 70 77 49 78 50 79 58 80 51 81 52 82 56 83 59 84
REMARK SMILES IDX 53 85 54 86 57 87 55 88
REMARK H PARENT 79 41 47 52
REMARK Flexibility Score: inf
ROOT
ATOM      1  C   UNL A   1      38.245  22.318  25.780  1.00  0.00     0.275 C 
ENDROOT
BRANCH   1   2
ATOM      2  C   UNL A   1      36.814  22.155  25.228  1.00  0.00     0.275 C 
BRANCH   2   3
ATOM      3  O   UNL A   1      36.082  20.985  25.695  1.00  0.00    -0.458 OA
BRANCH   3   4
ATOM      4  C   UNL A   1      34.732  21.182  25.672  1.00  0.00     0.338 C 
ATOM      5  O   UNL A   1      34.096  21.602  26.636  1.00  0.00    -0.246 OA
BRANCH   4   6
ATOM      6  C   UNL A   1      33.953  20.560  24.573  1.00  0.00     0.068 A 
ATOM      7  C   UNL A   1      33.305  16.793  24.304  1.00  0.00     0.044 C 
ATOM      8  C   UNL A   1      33.250  18.261  24.014  1.00  0.00    -0.050 A 
ATOM      9  C   UNL A   1      32.316  18.777  23.133  1.00  0.00     0.004 A 
ATOM     10  C   UNL A   1      34.104  19.149  24.663  1.00  0.00     0.019 A 
ATOM     11  C   UNL A   1      32.208  20.159  22.966  1.00  0.00     0.010 A 
ATOM     12  C   UNL A   1      32.939  21.099  23.743  1.00  0.00    -0.002 A 
BRANCH  12  13
ATOM     13  C   UNL A   1      32.455  22.507  23.618  1.00  0.00     0.003 A 
ATOM     14  C   UNL A   1      32.843  23.326  22.540  1.00  0.00     0.030 A 
ATOM     15  C   UNL A   1      31.454  23.042  24.488  1.00  0.00     0.049 A 
ATOM     16  C   UNL A   1      32.275  24.601  22.352  1.00  0.00     0.041 A 
ATOM     17  C   UNL A   1      30.879  24.305  24.277  1.00  0.00     0.023 A 
ATOM     18  Cl  UNL A   1      30.866  22.189  25.890  1.00  0.00    -0.084 Cl
ATOM     19  Cl  UNL A   1      32.770  25.596  21.036  1.00  0.00    -0.084 Cl
ATOM     20  C   UNL A   1      31.295  25.090  23.211  1.00  0.00     0.022 A 
ENDBRANCH  12  13
ENDBRANCH   4   6
ENDBRANCH   3   4
ENDBRANCH   2   3
ENDBRANCH   1   2
BRANCH   1  21
ATOM     21  O   UNL A   1      38.698  23.608  26.248  1.00  0.00    -0.458 OA
BRANCH  21  22
ATOM     22  C   UNL A   1      39.629  23.635  27.218  1.00  0.00     0.338 C 
ATOM     23  O   UNL A   1      40.195  22.646  27.663  1.00  0.00    -0.246 OA
BRANCH  22  24
ATOM     24  C   UNL A   1      39.907  25.018  27.636  1.00  0.00     0.060 A 
ATOM     25  C   UNL A   1      40.196  25.964  26.643  1.00  0.00     0.016 A 
ATOM     26  C   UNL A   1      39.651  25.400  28.951  1.00  0.00     0.016 A 
ATOM     27  C   UNL A   1      40.128  27.317  26.915  1.00  0.00     0.010 A 
ATOM     28  C   UNL A   1      39.544  26.738  29.223  1.00  0.00     0.010 A 
ATOM     29  C   UNL A   1      39.816  27.679  28.210  1.00  0.00    -0.014 A 
BRANCH  29  30
ATOM     30  C   UNL A   1      40.034  29.018  28.703  1.00  0.00     0.031 A 
ATOM     31  C   UNL A   1      38.963  30.022  28.682  1.00  0.00     0.074 A 
ATOM     32  C   UNL A   1      41.158  29.022  29.447  1.00  0.00     0.049 A 
ATOM     33  N   UNL A   1      39.118  31.231  29.085  1.00  0.00    -0.248 NA
ATOM     34  C   UNL A   1      37.628  29.794  28.131  1.00  0.00     0.031 C 
ATOM     35  C   UNL A   1      41.481  29.748  30.658  1.00  0.00     0.029 A 
ATOM     36  N   UNL A   1      42.304  28.240  29.206  1.00  0.00    -0.354 N 
ATOM     37  C   UNL A   1      37.858  31.778  29.228  1.00  0.00     0.074 A 
ATOM     38  C   UNL A   1      37.003  30.936  28.440  1.00  0.00     0.031 C 
ATOM     39  C   UNL A   1      42.796  29.599  30.912  1.00  0.00     0.029 A 
ATOM     40  C   UNL A   1      43.390  28.925  29.766  1.00  0.00     0.049 A 
ATOM     41  H   UNL A   1      42.335  27.376  28.734  1.00  0.00     0.167 HD
ATOM     42  C   UNL A   1      37.699  32.747  30.176  1.00  0.00     0.037 A 
ATOM     43  C   UNL A   1      44.299  29.497  28.914  1.00  0.00     0.037 A 
ATOM     44  C   UNL A   1      39.017  33.093  30.714  1.00  0.00     0.049 A 
ATOM     45  C   UNL A   1      44.175  30.999  28.933  1.00  0.00     0.074 A 
ATOM     46  C   UNL A   1      39.692  32.656  31.841  1.00  0.00     0.029 A 
ATOM     47  N   UNL A   1      39.971  33.650  29.867  1.00  0.00    -0.354 N 
ATOM     48  N   UNL A   1      43.071  31.642  29.196  1.00  0.00    -0.248 NA
ATOM     49  C   UNL A   1      45.316  31.875  28.715  1.00  0.00     0.031 C 
ATOM     50  C   UNL A   1      41.081  32.859  31.613  1.00  0.00     0.029 A 
ATOM     51  C   UNL A   1      41.244  33.433  30.362  1.00  0.00     0.049 A 
ATOM     52  H   UNL A   1      39.768  34.129  29.031  1.00  0.00     0.167 HD
ATOM     53  C   UNL A   1      43.344  32.977  29.278  1.00  0.00     0.074 A 
ATOM     54  C   UNL A   1      44.759  33.073  28.956  1.00  0.00     0.031 C 
ATOM     55  C   UNL A   1      42.413  33.909  29.638  1.00  0.00     0.037 A 
BRANCH  42  56
ATOM     56  C   UNL A   1      36.408  33.175  30.858  1.00  0.00     0.064 A 
ATOM     57  C   UNL A   1      35.516  34.038  30.174  1.00  0.00     0.173 A 
ATOM     58  C   UNL A   1      36.015  32.872  32.176  1.00  0.00     0.173 A 
ATOM     59  F   UNL A   1      35.721  34.381  28.894  1.00  0.00    -0.203 F 
ATOM     60  C   UNL A   1      34.380  34.591  30.772  1.00  0.00     0.198 A 
ATOM     61  C   UNL A   1      34.869  33.418  32.773  1.00  0.00     0.198 A 
ATOM     62  F   UNL A   1      36.705  32.037  32.956  1.00  0.00    -0.203 F 
ATOM     63  F   UNL A   1      33.603  35.433  30.075  1.00  0.00    -0.200 F 
ATOM     64  C   UNL A   1      34.059  34.287  32.076  1.00  0.00     0.200 A 
ATOM     65  F   UNL A   1      34.565  33.099  34.040  1.00  0.00    -0.200 F 
ATOM     66  F   UNL A   1      32.974  34.820  32.655  1.00  0.00    -0.200 F 
ENDBRANCH  42  56
BRANCH  43  67
ATOM     67  C   UNL A   1      44.495  28.684  27.674  1.00  0.00     0.064 A 
ATOM     68  C   UNL A   1      45.077  27.408  27.832  1.00  0.00     0.173 A 
ATOM     69  C   UNL A   1      43.654  28.886  26.576  1.00  0.00     0.173 A 
ATOM     70  F   UNL A   1      45.931  27.181  28.842  1.00  0.00    -0.203 F 
ATOM     71  C   UNL A   1      44.635  26.324  27.083  1.00  0.00     0.198 A 
ATOM     72  C   UNL A   1      43.225  27.797  25.828  1.00  0.00     0.198 A 
ATOM     73  F   UNL A   1      43.117  30.087  26.329  1.00  0.00    -0.203 F 
ATOM     74  F   UNL A   1      45.051  25.083  27.375  1.00  0.00    -0.200 F 
ATOM     75  C   UNL A   1      43.665  26.514  26.122  1.00  0.00     0.200 A 
ATOM     76  F   UNL A   1      42.277  27.985  24.907  1.00  0.00    -0.200 F 
ATOM     77  F   UNL A   1      43.110  25.448  25.535  1.00  0.00    -0.200 F 
ENDBRANCH  43  67
BRANCH  55  78
ATOM     78  C   UNL A   1      42.591  35.390  29.455  1.00  0.00     0.064 A 
ATOM     79  C   UNL A   1      43.406  36.176  30.283  1.00  0.00     0.173 A 
ATOM     80  C   UNL A   1      42.038  36.051  28.333  1.00  0.00     0.173 A 
ATOM     81  F   UNL A   1      44.130  35.635  31.273  1.00  0.00    -0.203 F 
ATOM     82  C   UNL A   1      43.549  37.547  30.085  1.00  0.00     0.198 A 
ATOM     83  C   UNL A   1      42.256  37.402  28.088  1.00  0.00     0.198 A 
ATOM     84  F   UNL A   1      41.292  35.405  27.425  1.00  0.00    -0.203 F 
ATOM     85  F   UNL A   1      44.262  38.269  30.959  1.00  0.00    -0.200 F 
ATOM     86  C   UNL A   1      42.980  38.157  28.985  1.00  0.00     0.200 A 
ATOM     87  F   UNL A   1      41.770  37.960  26.972  1.00  0.00    -0.200 F 
ATOM     88  F   UNL A   1      43.152  39.469  28.775  1.00  0.00    -0.200 F 
ENDBRANCH  55  78
ENDBRANCH  29  30
ENDBRANCH  22  24
ENDBRANCH  21  22
ENDBRANCH   1  21
TORSDOF 12
ENDMDL
