MODEL 1
REMARK VINA RESULT:     -11.1      0.000      0.000
REMARK SMILES O=C(CC1(CSC[C@@H]2COc3ccccc32)CC1)OCCOC(=O)c1ccc(-c2c3nc(c(-c4c(F)c(F)c(F)c(F)c4F)c4ccc([nH]4)c(-c4c(F)c(F)c(F)c(F)c4F)c4nc(c(-c5c(F)c(F)c(F)c(F)c5F)c5ccc2[nH]5)C=C4)C=C3)cc1
REMARK SMILES IDX 19 1 2 2 1 3 3 4 4 5 17 6 18 7 5 8 6 9 7 10 8 11 9 12 16 13
REMARK SMILES IDX 10 14 11 15 15 16 12 17 14 18 13 19 20 20 21 21 22 22 23 23
REMARK SMILES IDX 24 24 25 25 26 26 87 27 27 28 86 29 28 30 29 31 30 32 80 33
REMARK SMILES IDX 31 34 85 35 79 36 81 37 32 38 84 39 78 40 77 41 33 43 65 44
REMARK SMILES IDX 45 45 64 46 46 47 49 48 63 49 82 50 47 51 48 52 62 54 83 55
REMARK SMILES IDX 50 56 34 57 35 58 43 59 36 60 37 61 41 62 44 63 38 64 39 65
REMARK SMILES IDX 42 66 40 67 66 68 67 69 75 70 68 71 69 72 73 73 76 74 70 75
REMARK SMILES IDX 71 76 74 77 72 78 51 79 52 80 60 81 53 82 54 83 58 84 61 85
REMARK SMILES IDX 55 86 56 87 59 88 57 89
REMARK H PARENT 81 42 49 53
REMARK Flexibility Score: inf
ROOT
ATOM      1  O   UNL A   1      35.974  21.731  24.860  1.00  0.00    -0.462 OA
ENDROOT
BRANCH   1   2
ATOM      2  C   UNL A   1      35.557  22.545  25.856  1.00  0.00     0.306 C 
ATOM      3  O   UNL A   1      35.118  22.048  26.891  1.00  0.00    -0.252 OA
BRANCH   2   4
ATOM      4  C   UNL A   1      35.580  24.044  25.645  1.00  0.00     0.130 C 
BRANCH   4   5
ATOM      5  C   UNL A   1      34.384  24.708  24.992  1.00  0.00    -0.010 C 
ATOM      6  C   UNL A   1      33.127  24.926  25.824  1.00  0.00     0.009 C 
ATOM      7  C   UNL A   1      34.036  26.081  25.553  1.00  0.00     0.009 C 
BRANCH   5   8
ATOM      8  C   UNL A   1      34.193  24.445  23.512  1.00  0.00     0.077 C 
BRANCH   8   9
ATOM      9  S   UNL A   1      32.579  23.721  23.133  1.00  0.00    -0.161 SA
BRANCH   9  10
ATOM     10  C   UNL A   1      32.952  21.939  23.015  1.00  0.00     0.081 C 
BRANCH  10  11
ATOM     11  C   UNL A   1      32.081  20.945  23.802  1.00  0.00     0.071 C 
ATOM     12  C   UNL A   1      32.196  21.053  25.331  1.00  0.00     0.238 C 
ATOM     13  C   UNL A   1      32.427  19.511  23.634  1.00  0.00     0.001 A 
ATOM     14  O   UNL A   1      32.888  19.904  25.867  1.00  0.00    -0.493 OA
ATOM     15  C   UNL A   1      32.910  19.010  24.831  1.00  0.00     0.122 A 
ATOM     16  C   UNL A   1      32.432  18.738  22.485  1.00  0.00     0.008 A 
ATOM     17  C   UNL A   1      33.434  17.739  24.931  1.00  0.00     0.047 A 
ATOM     18  C   UNL A   1      32.961  17.448  22.564  1.00  0.00     0.001 A 
ATOM     19  C   UNL A   1      33.462  16.952  23.779  1.00  0.00     0.004 A 
ENDBRANCH  10  11
ENDBRANCH   9  10
ENDBRANCH   8   9
ENDBRANCH   5   8
ENDBRANCH   4   5
ENDBRANCH   2   4
ENDBRANCH   1   2
BRANCH   1  20
ATOM     20  C   UNL A   1      36.284  20.332  24.998  1.00  0.00     0.274 C 
BRANCH  20  21
ATOM     21  C   UNL A   1      37.793  20.071  25.020  1.00  0.00     0.275 C 
BRANCH  21  22
ATOM     22  O   UNL A   1      38.525  21.268  25.351  1.00  0.00    -0.458 OA
BRANCH  22  23
ATOM     23  C   UNL A   1      39.576  21.109  26.196  1.00  0.00     0.338 C 
ATOM     24  O   UNL A   1      40.194  20.077  26.395  1.00  0.00    -0.246 OA
BRANCH  23  25
ATOM     25  C   UNL A   1      40.008  22.431  26.723  1.00  0.00     0.060 A 
ATOM     26  C   UNL A   1      39.398  23.577  26.193  1.00  0.00     0.016 A 
ATOM     27  C   UNL A   1      40.953  22.561  27.747  1.00  0.00     0.016 A 
ATOM     28  C   UNL A   1      39.752  24.848  26.657  1.00  0.00     0.010 A 
ATOM     29  C   UNL A   1      41.319  23.837  28.202  1.00  0.00     0.010 A 
ATOM     30  C   UNL A   1      40.741  24.990  27.640  1.00  0.00    -0.014 A 
BRANCH  30  31
ATOM     31  C   UNL A   1      41.306  26.333  27.936  1.00  0.00     0.031 A 
ATOM     32  C   UNL A   1      42.725  26.618  27.523  1.00  0.00     0.074 A 
ATOM     33  C   UNL A   1      40.590  27.292  28.551  1.00  0.00     0.049 A 
ATOM     34  N   UNL A   1      43.436  27.706  27.679  1.00  0.00    -0.248 NA
ATOM     35  C   UNL A   1      43.436  25.525  26.842  1.00  0.00     0.031 C 
ATOM     36  C   UNL A   1      39.200  27.170  28.983  1.00  0.00     0.029 A 
ATOM     37  N   UNL A   1      40.948  28.567  28.925  1.00  0.00    -0.354 N 
ATOM     38  C   UNL A   1      44.670  27.434  27.103  1.00  0.00     0.074 A 
ATOM     39  C   UNL A   1      44.625  26.068  26.628  1.00  0.00     0.031 C 
ATOM     40  C   UNL A   1      38.827  28.319  29.577  1.00  0.00     0.029 A 
ATOM     41  C   UNL A   1      39.955  29.251  29.583  1.00  0.00     0.049 A 
ATOM     42  H   UNL A   1      41.834  28.952  28.738  1.00  0.00     0.167 HD
ATOM     43  C   UNL A   1      45.742  28.248  26.971  1.00  0.00     0.037 A 
ATOM     44  C   UNL A   1      39.965  30.480  30.138  1.00  0.00     0.037 A 
ATOM     45  C   UNL A   1      45.810  29.601  27.450  1.00  0.00     0.049 A 
ATOM     46  C   UNL A   1      41.207  31.337  30.053  1.00  0.00     0.074 A 
ATOM     47  C   UNL A   1      46.855  30.503  27.340  1.00  0.00     0.029 A 
ATOM     48  N   UNL A   1      44.797  30.244  28.141  1.00  0.00    -0.354 N 
ATOM     49  N   UNL A   1      42.349  31.089  29.460  1.00  0.00    -0.248 NA
ATOM     50  C   UNL A   1      41.157  32.648  30.720  1.00  0.00     0.031 C 
ATOM     51  C   UNL A   1      46.491  31.677  28.006  1.00  0.00     0.029 A 
ATOM     52  C   UNL A   1      45.203  31.522  28.492  1.00  0.00     0.049 A 
ATOM     53  H   UNL A   1      43.919  29.852  28.352  1.00  0.00     0.167 HD
ATOM     54  C   UNL A   1      43.133  32.221  29.649  1.00  0.00     0.074 A 
ATOM     55  C   UNL A   1      42.338  33.162  30.408  1.00  0.00     0.031 C 
ATOM     56  C   UNL A   1      44.401  32.459  29.231  1.00  0.00     0.037 A 
BRANCH  43  57
ATOM     57  C   UNL A   1      46.949  27.685  26.287  1.00  0.00     0.064 A 
ATOM     58  C   UNL A   1      47.984  27.078  27.013  1.00  0.00     0.173 A 
ATOM     59  C   UNL A   1      47.052  27.718  24.889  1.00  0.00     0.173 A 
ATOM     60  F   UNL A   1      47.933  27.038  28.354  1.00  0.00    -0.203 F 
ATOM     61  C   UNL A   1      49.088  26.537  26.363  1.00  0.00     0.198 A 
ATOM     62  C   UNL A   1      48.149  27.156  24.242  1.00  0.00     0.198 A 
ATOM     63  F   UNL A   1      46.087  28.287  24.152  1.00  0.00    -0.203 F 
ATOM     64  F   UNL A   1      50.083  25.991  27.078  1.00  0.00    -0.200 F 
ATOM     65  C   UNL A   1      49.167  26.570  24.979  1.00  0.00     0.200 A 
ATOM     66  F   UNL A   1      48.221  27.183  22.904  1.00  0.00    -0.200 F 
ATOM     67  F   UNL A   1      50.229  26.042  24.354  1.00  0.00    -0.200 F 
ENDBRANCH  43  57
BRANCH  44  68
ATOM     68  C   UNL A   1      38.764  30.995  30.848  1.00  0.00     0.064 A 
ATOM     69  C   UNL A   1      38.621  30.839  32.234  1.00  0.00     0.173 A 
ATOM     70  C   UNL A   1      37.704  31.585  30.145  1.00  0.00     0.173 A 
ATOM     71  F   UNL A   1      39.595  30.250  32.945  1.00  0.00    -0.203 F 
ATOM     72  C   UNL A   1      37.452  31.228  32.886  1.00  0.00     0.198 A 
ATOM     73  C   UNL A   1      36.546  31.997  30.802  1.00  0.00     0.198 A 
ATOM     74  F   UNL A   1      37.788  31.752  28.817  1.00  0.00    -0.203 F 
ATOM     75  F   UNL A   1      37.318  31.013  34.202  1.00  0.00    -0.200 F 
ATOM     76  C   UNL A   1      36.417  31.808  32.170  1.00  0.00     0.200 A 
ATOM     77  F   UNL A   1      35.551  32.563  30.107  1.00  0.00    -0.200 F 
ATOM     78  F   UNL A   1      35.289  32.172  32.794  1.00  0.00    -0.200 F 
ENDBRANCH  44  68
BRANCH  56  79
ATOM     79  C   UNL A   1      45.002  33.799  29.544  1.00  0.00     0.064 A 
ATOM     80  C   UNL A   1      45.726  34.023  30.724  1.00  0.00     0.173 A 
ATOM     81  C   UNL A   1      44.902  34.856  28.625  1.00  0.00     0.173 A 
ATOM     82  F   UNL A   1      45.839  33.051  31.641  1.00  0.00    -0.203 F 
ATOM     83  C   UNL A   1      46.312  35.261  30.980  1.00  0.00     0.198 A 
ATOM     84  C   UNL A   1      45.511  36.082  28.872  1.00  0.00     0.198 A 
ATOM     85  F   UNL A   1      44.226  34.690  27.477  1.00  0.00    -0.203 F 
ATOM     86  F   UNL A   1      46.969  35.464  32.130  1.00  0.00    -0.200 F 
ATOM     87  C   UNL A   1      46.211  36.286  30.051  1.00  0.00     0.200 A 
ATOM     88  F   UNL A   1      45.424  37.068  27.967  1.00  0.00    -0.200 F 
ATOM     89  F   UNL A   1      46.787  37.472  30.295  1.00  0.00    -0.200 F 
ENDBRANCH  56  79
ENDBRANCH  30  31
ENDBRANCH  23  25
ENDBRANCH  22  23
ENDBRANCH  21  22
ENDBRANCH  20  21
ENDBRANCH   1  20
TORSDOF 16
ENDMDL
MODEL 2
REMARK VINA RESULT:     -11.1      4.287      6.722
REMARK SMILES O=C(CC1(CSC[C@@H]2COc3ccccc32)CC1)OCCOC(=O)c1ccc(-c2c3nc(c(-c4c(F)c(F)c(F)c(F)c4F)c4ccc([nH]4)c(-c4c(F)c(F)c(F)c(F)c4F)c4nc(c(-c5c(F)c(F)c(F)c(F)c5F)c5ccc2[nH]5)C=C4)C=C3)cc1
REMARK SMILES IDX 19 1 2 2 1 3 3 4 4 5 17 6 18 7 5 8 6 9 7 10 8 11 9 12 16 13
REMARK SMILES IDX 10 14 11 15 15 16 12 17 14 18 13 19 20 20 21 21 22 22 23 23
REMARK SMILES IDX 24 24 25 25 26 26 87 27 27 28 86 29 28 30 29 31 30 32 80 33
REMARK SMILES IDX 31 34 85 35 79 36 81 37 32 38 84 39 78 40 77 41 33 43 65 44
REMARK SMILES IDX 45 45 64 46 46 47 49 48 63 49 82 50 47 51 48 52 62 54 83 55
REMARK SMILES IDX 50 56 34 57 35 58 43 59 36 60 37 61 41 62 44 63 38 64 39 65
REMARK SMILES IDX 42 66 40 67 66 68 67 69 75 70 68 71 69 72 73 73 76 74 70 75
REMARK SMILES IDX 71 76 74 77 72 78 51 79 52 80 60 81 53 82 54 83 58 84 61 85
REMARK SMILES IDX 55 86 56 87 59 88 57 89
REMARK H PARENT 81 42 49 53
REMARK Flexibility Score: inf
ROOT
ATOM      1  O   UNL A   1      32.492  27.435  26.607  1.00  0.00    -0.462 OA
ENDROOT
BRANCH   1   2
ATOM      2  C   UNL A   1      32.057  26.226  26.185  1.00  0.00     0.306 C 
ATOM      3  O   UNL A   1      31.057  25.734  26.703  1.00  0.00    -0.252 OA
BRANCH   2   4
ATOM      4  C   UNL A   1      32.848  25.482  25.130  1.00  0.00     0.130 C 
BRANCH   4   5
ATOM      5  C   UNL A   1      32.580  25.783  23.669  1.00  0.00    -0.010 C 
ATOM      6  C   UNL A   1      33.048  27.117  23.101  1.00  0.00     0.009 C 
ATOM      7  C   UNL A   1      33.829  25.878  22.801  1.00  0.00     0.009 C 
BRANCH   5   8
ATOM      8  C   UNL A   1      31.316  25.191  23.081  1.00  0.00     0.077 C 
BRANCH   8   9
ATOM      9  S   UNL A   1      31.001  23.505  23.655  1.00  0.00    -0.161 SA
BRANCH   9  10
ATOM     10  C   UNL A   1      32.357  22.555  22.887  1.00  0.00     0.081 C 
BRANCH  10  11
ATOM     11  C   UNL A   1      33.234  21.660  23.779  1.00  0.00     0.071 C 
ATOM     12  C   UNL A   1      32.632  21.326  25.153  1.00  0.00     0.238 C 
ATOM     13  C   UNL A   1      34.523  22.252  24.217  1.00  0.00     0.001 A 
ATOM     14  O   UNL A   1      33.357  22.007  26.200  1.00  0.00    -0.493 OA
ATOM     15  C   UNL A   1      34.497  22.452  25.587  1.00  0.00     0.122 A 
ATOM     16  C   UNL A   1      35.591  22.694  23.454  1.00  0.00     0.008 A 
ATOM     17  C   UNL A   1      35.510  23.114  26.247  1.00  0.00     0.047 A 
ATOM     18  C   UNL A   1      36.627  23.368  24.102  1.00  0.00     0.001 A 
ATOM     19  C   UNL A   1      36.585  23.580  25.490  1.00  0.00     0.004 A 
ENDBRANCH  10  11
ENDBRANCH   9  10
ENDBRANCH   8   9
ENDBRANCH   5   8
ENDBRANCH   4   5
ENDBRANCH   2   4
ENDBRANCH   1   2
BRANCH   1  20
ATOM     20  C   UNL A   1      31.658  28.575  26.879  1.00  0.00     0.274 C 
BRANCH  20  21
ATOM     21  C   UNL A   1      31.765  29.646  25.789  1.00  0.00     0.275 C 
BRANCH  21  22
ATOM     22  O   UNL A   1      33.041  30.316  25.841  1.00  0.00    -0.458 OA
BRANCH  22  23
ATOM     23  C   UNL A   1      33.203  31.211  26.849  1.00  0.00     0.338 C 
ATOM     24  O   UNL A   1      32.366  31.996  27.261  1.00  0.00    -0.246 OA
BRANCH  23  25
ATOM     25  C   UNL A   1      34.503  30.975  27.531  1.00  0.00     0.060 A 
ATOM     26  C   UNL A   1      34.875  29.648  27.791  1.00  0.00     0.016 A 
ATOM     27  C   UNL A   1      35.375  32.016  27.872  1.00  0.00     0.016 A 
ATOM     28  C   UNL A   1      36.092  29.361  28.417  1.00  0.00     0.010 A 
ATOM     29  C   UNL A   1      36.589  31.729  28.514  1.00  0.00     0.010 A 
ATOM     30  C   UNL A   1      36.943  30.402  28.816  1.00  0.00    -0.014 A 
BRANCH  30  31
ATOM     31  C   UNL A   1      38.094  30.117  29.713  1.00  0.00     0.031 A 
ATOM     32  C   UNL A   1      39.166  29.181  29.224  1.00  0.00     0.074 A 
ATOM     33  C   UNL A   1      38.205  30.673  30.934  1.00  0.00     0.049 A 
ATOM     34  N   UNL A   1      40.256  28.776  29.825  1.00  0.00    -0.248 NA
ATOM     35  C   UNL A   1      38.981  28.629  27.873  1.00  0.00     0.031 C 
ATOM     36  C   UNL A   1      37.262  31.616  31.529  1.00  0.00     0.029 A 
ATOM     37  N   UNL A   1      39.171  30.509  31.899  1.00  0.00    -0.354 N 
ATOM     38  C   UNL A   1      40.892  27.935  28.922  1.00  0.00     0.074 A 
ATOM     39  C   UNL A   1      40.050  27.858  27.747  1.00  0.00     0.031 C 
ATOM     40  C   UNL A   1      37.688  31.937  32.764  1.00  0.00     0.029 A 
ATOM     41  C   UNL A   1      38.924  31.209  33.055  1.00  0.00     0.049 A 
ATOM     42  H   UNL A   1      39.966  29.943  31.774  1.00  0.00     0.167 HD
ATOM     43  C   UNL A   1      42.075  27.291  29.050  1.00  0.00     0.037 A 
ATOM     44  C   UNL A   1      39.611  31.245  34.215  1.00  0.00     0.037 A 
ATOM     45  C   UNL A   1      42.917  27.344  30.213  1.00  0.00     0.049 A 
ATOM     46  C   UNL A   1      40.884  30.446  34.364  1.00  0.00     0.074 A 
ATOM     47  C   UNL A   1      44.143  26.735  30.419  1.00  0.00     0.029 A 
ATOM     48  N   UNL A   1      42.614  28.036  31.374  1.00  0.00    -0.354 N 
ATOM     49  N   UNL A   1      41.503  29.697  33.484  1.00  0.00    -0.248 NA
ATOM     50  C   UNL A   1      41.554  30.499  35.674  1.00  0.00     0.031 C 
ATOM     51  C   UNL A   1      44.561  27.020  31.722  1.00  0.00     0.029 A 
ATOM     52  C   UNL A   1      43.616  27.843  32.312  1.00  0.00     0.049 A 
ATOM     53  H   UNL A   1      41.807  28.582  31.513  1.00  0.00     0.167 HD
ATOM     54  C   UNL A   1      42.647  29.224  34.120  1.00  0.00     0.074 A 
ATOM     55  C   UNL A   1      42.642  29.774  35.458  1.00  0.00     0.031 C 
ATOM     56  C   UNL A   1      43.614  28.407  33.635  1.00  0.00     0.037 A 
BRANCH  43  57
ATOM     57  C   UNL A   1      42.527  26.452  27.895  1.00  0.00     0.064 A 
ATOM     58  C   UNL A   1      42.089  25.129  27.738  1.00  0.00     0.173 A 
ATOM     59  C   UNL A   1      43.373  26.990  26.915  1.00  0.00     0.173 A 
ATOM     60  F   UNL A   1      41.290  24.569  28.660  1.00  0.00    -0.203 F 
ATOM     61  C   UNL A   1      42.497  24.368  26.648  1.00  0.00     0.198 A 
ATOM     62  C   UNL A   1      43.762  26.231  25.815  1.00  0.00     0.198 A 
ATOM     63  F   UNL A   1      43.817  28.250  27.022  1.00  0.00    -0.203 F 
ATOM     64  F   UNL A   1      42.095  23.093  26.534  1.00  0.00    -0.200 F 
ATOM     65  C   UNL A   1      43.327  24.921  25.685  1.00  0.00     0.200 A 
ATOM     66  F   UNL A   1      44.557  26.769  24.881  1.00  0.00    -0.200 F 
ATOM     67  F   UNL A   1      43.713  24.188  24.630  1.00  0.00    -0.200 F 
ENDBRANCH  43  57
BRANCH  44  68
ATOM     68  C   UNL A   1      39.114  32.055  35.359  1.00  0.00     0.064 A 
ATOM     69  C   UNL A   1      39.460  33.407  35.494  1.00  0.00     0.173 A 
ATOM     70  C   UNL A   1      38.346  31.474  36.379  1.00  0.00     0.173 A 
ATOM     71  F   UNL A   1      40.221  33.998  34.560  1.00  0.00    -0.203 F 
ATOM     72  C   UNL A   1      39.081  34.140  36.617  1.00  0.00     0.198 A 
ATOM     73  C   UNL A   1      37.946  32.215  37.489  1.00  0.00     0.198 A 
ATOM     74  F   UNL A   1      37.993  30.182  36.302  1.00  0.00    -0.203 F 
ATOM     75  F   UNL A   1      39.476  35.413  36.748  1.00  0.00    -0.200 F 
ATOM     76  C   UNL A   1      38.323  33.544  37.612  1.00  0.00     0.200 A 
ATOM     77  F   UNL A   1      37.208  31.636  38.445  1.00  0.00    -0.200 F 
ATOM     78  F   UNL A   1      37.968  34.244  38.698  1.00  0.00    -0.200 F 
ENDBRANCH  44  68
BRANCH  56  79
ATOM     79  C   UNL A   1      44.772  28.083  34.535  1.00  0.00     0.064 A 
ATOM     80  C   UNL A   1      44.774  26.942  35.349  1.00  0.00     0.173 A 
ATOM     81  C   UNL A   1      45.918  28.894  34.537  1.00  0.00     0.173 A 
ATOM     82  F   UNL A   1      43.698  26.143  35.394  1.00  0.00    -0.203 F 
ATOM     83  C   UNL A   1      45.874  26.634  36.147  1.00  0.00     0.198 A 
ATOM     84  C   UNL A   1      47.025  28.569  35.315  1.00  0.00     0.198 A 
ATOM     85  F   UNL A   1      45.970  29.993  33.770  1.00  0.00    -0.203 F 
ATOM     86  F   UNL A   1      45.840  25.558  36.945  1.00  0.00    -0.200 F 
ATOM     87  C   UNL A   1      47.001  27.442  36.124  1.00  0.00     0.200 A 
ATOM     88  F   UNL A   1      48.119  29.344  35.281  1.00  0.00    -0.200 F 
ATOM     89  F   UNL A   1      48.062  27.137  36.883  1.00  0.00    -0.200 F 
ENDBRANCH  56  79
ENDBRANCH  30  31
ENDBRANCH  23  25
ENDBRANCH  22  23
ENDBRANCH  21  22
ENDBRANCH  20  21
ENDBRANCH   1  20
TORSDOF 16
ENDMDL
MODEL 3
REMARK VINA RESULT:     -11.1      4.738      9.878
REMARK SMILES O=C(CC1(CSC[C@@H]2COc3ccccc32)CC1)OCCOC(=O)c1ccc(-c2c3nc(c(-c4c(F)c(F)c(F)c(F)c4F)c4ccc([nH]4)c(-c4c(F)c(F)c(F)c(F)c4F)c4nc(c(-c5c(F)c(F)c(F)c(F)c5F)c5ccc2[nH]5)C=C4)C=C3)cc1
REMARK SMILES IDX 19 1 2 2 1 3 3 4 4 5 17 6 18 7 5 8 6 9 7 10 8 11 9 12 16 13
REMARK SMILES IDX 10 14 11 15 15 16 12 17 14 18 13 19 20 20 21 21 22 22 23 23
REMARK SMILES IDX 24 24 25 25 26 26 87 27 27 28 86 29 28 30 29 31 30 32 80 33
REMARK SMILES IDX 31 34 85 35 79 36 81 37 32 38 84 39 78 40 77 41 33 43 65 44
REMARK SMILES IDX 45 45 64 46 46 47 49 48 63 49 82 50 47 51 48 52 62 54 83 55
REMARK SMILES IDX 50 56 34 57 35 58 43 59 36 60 37 61 41 62 44 63 38 64 39 65
REMARK SMILES IDX 42 66 40 67 66 68 67 69 75 70 68 71 69 72 73 73 76 74 70 75
REMARK SMILES IDX 71 76 74 77 72 78 51 79 52 80 60 81 53 82 54 83 58 84 61 85
REMARK SMILES IDX 55 86 56 87 59 88 57 89
REMARK H PARENT 81 42 49 53
REMARK Flexibility Score: inf
ROOT
ATOM      1  O   UNL A   1      31.250  30.799  25.370  1.00  0.00    -0.462 OA
ENDROOT
BRANCH   1   2
ATOM      2  C   UNL A   1      31.209  29.537  24.884  1.00  0.00     0.306 C 
ATOM      3  O   UNL A   1      30.972  29.362  23.692  1.00  0.00    -0.252 OA
BRANCH   2   4
ATOM      4  C   UNL A   1      31.392  28.374  25.835  1.00  0.00     0.130 C 
BRANCH   4   5
ATOM      5  C   UNL A   1      32.679  27.574  25.770  1.00  0.00    -0.010 C 
ATOM      6  C   UNL A   1      33.943  28.266  25.279  1.00  0.00     0.009 C 
ATOM      7  C   UNL A   1      33.759  28.030  26.744  1.00  0.00     0.009 C 
BRANCH   5   8
ATOM      8  C   UNL A   1      32.538  26.098  25.463  1.00  0.00     0.077 C 
BRANCH   8   9
ATOM      9  S   UNL A   1      30.850  25.636  25.006  1.00  0.00    -0.161 SA
BRANCH   9  10
ATOM     10  C   UNL A   1      31.058  23.952  24.333  1.00  0.00     0.081 C 
BRANCH  10  11
ATOM     11  C   UNL A   1      31.070  22.761  25.307  1.00  0.00     0.071 C 
ATOM     12  C   UNL A   1      30.663  23.099  26.750  1.00  0.00     0.238 C 
ATOM     13  C   UNL A   1      32.400  22.155  25.566  1.00  0.00     0.001 A 
ATOM     14  O   UNL A   1      31.808  23.022  27.627  1.00  0.00    -0.493 OA
ATOM     15  C   UNL A   1      32.760  22.379  26.884  1.00  0.00     0.122 A 
ATOM     16  C   UNL A   1      33.281  21.558  24.679  1.00  0.00     0.008 A 
ATOM     17  C   UNL A   1      34.007  22.043  27.367  1.00  0.00     0.047 A 
ATOM     18  C   UNL A   1      34.550  21.212  25.147  1.00  0.00     0.001 A 
ATOM     19  C   UNL A   1      34.913  21.457  26.482  1.00  0.00     0.004 A 
ENDBRANCH  10  11
ENDBRANCH   9  10
ENDBRANCH   8   9
ENDBRANCH   5   8
ENDBRANCH   4   5
ENDBRANCH   2   4
ENDBRANCH   1   2
BRANCH   1  20
ATOM     20  C   UNL A   1      31.778  31.184  26.652  1.00  0.00     0.274 C 
BRANCH  20  21
ATOM     21  C   UNL A   1      31.708  32.697  26.879  1.00  0.00     0.275 C 
BRANCH  21  22
ATOM     22  O   UNL A   1      33.022  33.291  26.842  1.00  0.00    -0.458 OA
BRANCH  22  23
ATOM     23  C   UNL A   1      33.470  33.817  28.010  1.00  0.00     0.338 C 
ATOM     24  O   UNL A   1      32.900  34.648  28.696  1.00  0.00    -0.246 OA
BRANCH  23  25
ATOM     25  C   UNL A   1      34.690  33.093  28.456  1.00  0.00     0.060 A 
ATOM     26  C   UNL A   1      34.569  31.729  28.757  1.00  0.00     0.016 A 
ATOM     27  C   UNL A   1      35.945  33.709  28.536  1.00  0.00     0.016 A 
ATOM     28  C   UNL A   1      35.683  30.990  29.168  1.00  0.00     0.010 A 
ATOM     29  C   UNL A   1      37.060  32.971  28.962  1.00  0.00     0.010 A 
ATOM     30  C   UNL A   1      36.930  31.614  29.308  1.00  0.00    -0.014 A 
BRANCH  30  31
ATOM     31  C   UNL A   1      38.041  30.906  29.996  1.00  0.00     0.031 A 
ATOM     32  C   UNL A   1      38.318  31.240  31.437  1.00  0.00     0.074 A 
ATOM     33  C   UNL A   1      38.795  29.980  29.374  1.00  0.00     0.049 A 
ATOM     34  N   UNL A   1      39.233  30.763  32.243  1.00  0.00    -0.248 NA
ATOM     35  C   UNL A   1      37.441  32.250  32.051  1.00  0.00     0.031 C 
ATOM     36  C   UNL A   1      38.627  29.534  27.994  1.00  0.00     0.029 A 
ATOM     37  N   UNL A   1      39.866  29.250  29.836  1.00  0.00    -0.354 N 
ATOM     38  C   UNL A   1      39.033  31.403  33.459  1.00  0.00     0.074 A 
ATOM     39  C   UNL A   1      37.934  32.328  33.277  1.00  0.00     0.031 C 
ATOM     40  C   UNL A   1      39.573  28.618  27.714  1.00  0.00     0.029 A 
ATOM     41  C   UNL A   1      40.423  28.424  28.890  1.00  0.00     0.049 A 
ATOM     42  H   UNL A   1      40.202  29.314  30.758  1.00  0.00     0.167 HD
ATOM     43  C   UNL A   1      39.694  31.231  34.627  1.00  0.00     0.037 A 
ATOM     44  C   UNL A   1      41.501  27.618  28.965  1.00  0.00     0.037 A 
ATOM     45  C   UNL A   1      40.795  30.329  34.822  1.00  0.00     0.049 A 
ATOM     46  C   UNL A   1      42.277  27.511  30.257  1.00  0.00     0.074 A 
ATOM     47  C   UNL A   1      41.511  30.081  35.981  1.00  0.00     0.029 A 
ATOM     48  N   UNL A   1      41.350  29.537  33.831  1.00  0.00    -0.354 N 
ATOM     49  N   UNL A   1      42.045  28.080  31.414  1.00  0.00    -0.248 NA
ATOM     50  C   UNL A   1      43.468  26.646  30.248  1.00  0.00     0.031 C 
ATOM     51  C   UNL A   1      42.529  29.172  35.680  1.00  0.00     0.029 A 
ATOM     52  C   UNL A   1      42.420  28.821  34.344  1.00  0.00     0.049 A 
ATOM     53  H   UNL A   1      41.032  29.490  32.900  1.00  0.00     0.167 HD
ATOM     54  C   UNL A   1      43.034  27.615  32.275  1.00  0.00     0.074 A 
ATOM     55  C   UNL A   1      43.866  26.712  31.510  1.00  0.00     0.031 C 
ATOM     56  C   UNL A   1      43.233  27.910  33.583  1.00  0.00     0.037 A 
BRANCH  43  57
ATOM     57  C   UNL A   1      39.248  32.057  35.794  1.00  0.00     0.064 A 
ATOM     58  C   UNL A   1      38.330  31.561  36.730  1.00  0.00     0.173 A 
ATOM     59  C   UNL A   1      39.774  33.340  35.998  1.00  0.00     0.173 A 
ATOM     60  F   UNL A   1      37.790  30.343  36.566  1.00  0.00    -0.203 F 
ATOM     61  C   UNL A   1      37.942  32.329  37.823  1.00  0.00     0.198 A 
ATOM     62  C   UNL A   1      39.400  34.097  37.104  1.00  0.00     0.198 A 
ATOM     63  F   UNL A   1      40.656  33.856  35.129  1.00  0.00    -0.203 F 
ATOM     64  F   UNL A   1      37.037  31.850  38.690  1.00  0.00    -0.200 F 
ATOM     65  C   UNL A   1      38.482  33.592  38.013  1.00  0.00     0.200 A 
ATOM     66  F   UNL A   1      39.928  35.314  37.291  1.00  0.00    -0.200 F 
ATOM     67  F   UNL A   1      38.113  34.328  39.071  1.00  0.00    -0.200 F 
ENDBRANCH  43  57
BRANCH  44  68
ATOM     68  C   UNL A   1      41.945  26.843  27.775  1.00  0.00     0.064 A 
ATOM     69  C   UNL A   1      41.469  25.545  27.538  1.00  0.00     0.173 A 
ATOM     70  C   UNL A   1      42.909  27.355  26.895  1.00  0.00     0.173 A 
ATOM     71  F   UNL A   1      40.570  25.000  28.372  1.00  0.00    -0.203 F 
ATOM     72  C   UNL A   1      41.961  24.779  26.483  1.00  0.00     0.198 A 
ATOM     73  C   UNL A   1      43.381  26.597  25.825  1.00  0.00     0.198 A 
ATOM     74  F   UNL A   1      43.401  28.588  27.081  1.00  0.00    -0.203 F 
ATOM     75  F   UNL A   1      41.532  23.521  26.315  1.00  0.00    -0.200 F 
ATOM     76  C   UNL A   1      42.914  25.306  25.626  1.00  0.00     0.200 A 
ATOM     77  F   UNL A   1      44.297  27.113  24.996  1.00  0.00    -0.200 F 
ATOM     78  F   UNL A   1      43.395  24.567  24.618  1.00  0.00    -0.200 F 
ENDBRANCH  44  68
BRANCH  56  79
ATOM     79  C   UNL A   1      44.368  27.228  34.291  1.00  0.00     0.064 A 
ATOM     80  C   UNL A   1      44.213  25.969  34.887  1.00  0.00     0.173 A 
ATOM     81  C   UNL A   1      45.642  27.817  34.322  1.00  0.00     0.173 A 
ATOM     82  F   UNL A   1      43.013  25.370  34.896  1.00  0.00    -0.203 F 
ATOM     83  C   UNL A   1      45.288  25.332  35.504  1.00  0.00     0.198 A 
ATOM     84  C   UNL A   1      46.719  27.166  34.916  1.00  0.00     0.198 A 
ATOM     85  F   UNL A   1      45.845  29.018  33.759  1.00  0.00    -0.203 F 
ATOM     86  F   UNL A   1      45.108  24.145  36.098  1.00  0.00    -0.200 F 
ATOM     87  C   UNL A   1      46.541  25.926  35.511  1.00  0.00     0.200 A 
ATOM     88  F   UNL A   1      47.933  27.737  34.910  1.00  0.00    -0.200 F 
ATOM     89  F   UNL A   1      47.575  25.306  36.095  1.00  0.00    -0.200 F 
ENDBRANCH  56  79
ENDBRANCH  30  31
ENDBRANCH  23  25
ENDBRANCH  22  23
ENDBRANCH  21  22
ENDBRANCH  20  21
ENDBRANCH   1  20
TORSDOF 16
ENDMDL
