MODEL 1
REMARK VINA RESULT:     -12.4      0.000      0.000
REMARK SMILES COc1ccc(NC(=O)NCc2ccc(C(=O)OCCOC(=O)c3ccc(-c4c5nc(c(-c6c(F)c(F)c(F)c(F)c6F)c6ccc([nH]6)c(-c6c(F)c(F)c(F)c(F)c6F)c6nc(c(-c7c(F)c(F)c(F)c(F)c7F)c7ccc4[nH]7)C=C6)C=C5)cc3)cc2)c(OC)c1
REMARK SMILES IDX 19 1 18 2 16 3 17 4 15 5 12 6 13 7 88 8 14 9 87 10 11 11
REMARK SMILES IDX 10 12 7 13 8 14 9 16 6 18 3 19 4 20 92 21 5 22 89 23 2 24
REMARK SMILES IDX 1 25 90 26 91 27 20 28 21 29 22 30 23 31 24 32 25 33 86 34
REMARK SMILES IDX 26 35 85 36 27 37 28 38 29 39 79 40 30 41 84 42 78 43 80 44
REMARK SMILES IDX 31 45 83 46 77 47 76 48 32 50 64 51 44 52 63 53 45 54 48 55
REMARK SMILES IDX 62 56 81 57 46 58 47 59 61 61 82 62 49 63 33 64 34 65 42 66
REMARK SMILES IDX 35 67 36 68 40 69 43 70 37 71 38 72 41 73 39 74 65 75 66 76
REMARK SMILES IDX 74 77 67 78 68 79 72 80 75 81 69 82 70 83 73 84 71 85 50 86
REMARK SMILES IDX 51 87 59 88 52 89 53 90 57 91 60 92 54 93 55 94 58 95 56 96
REMARK H PARENT 7 15 10 17 80 49 48 60
REMARK Flexibility Score: inf
ROOT
ATOM      1  C   UNL A   1      31.650  28.699  25.813  1.00  0.00     0.275 C 
ENDROOT
BRANCH   1   2
ATOM      2  O   UNL A   1      31.576  28.241  24.447  1.00  0.00    -0.458 OA
BRANCH   2   3
ATOM      3  C   UNL A   1      30.371  27.762  24.078  1.00  0.00     0.338 C 
ATOM      4  O   UNL A   1      29.464  28.390  23.546  1.00  0.00    -0.246 OA
BRANCH   3   5
ATOM      5  C   UNL A   1      30.296  26.305  24.283  1.00  0.00     0.060 A 
ATOM      6  C   UNL A   1      30.715  23.609  24.870  1.00  0.00    -0.029 A 
ATOM      7  C   UNL A   1      30.440  24.523  25.895  1.00  0.00     0.006 A 
ATOM      8  C   UNL A   1      30.657  24.032  23.537  1.00  0.00     0.006 A 
ATOM      9  C   UNL A   1      30.252  25.857  25.600  1.00  0.00     0.016 A 
ATOM     10  C   UNL A   1      30.437  25.387  23.241  1.00  0.00     0.016 A 
BRANCH   6  11
ATOM     11  C   UNL A   1      31.366  22.352  25.361  1.00  0.00     0.153 C 
BRANCH  11  12
ATOM     12  N   UNL A   1      31.711  22.198  26.738  1.00  0.00    -0.334 N 
ATOM     13  N   UNL A   1      33.855  23.259  26.852  1.00  0.00    -0.305 N 
ATOM     14  C   UNL A   1      32.803  22.615  27.410  1.00  0.00     0.319 C 
ATOM     15  H   UNL A   1      34.639  23.257  27.448  1.00  0.00     0.172 HD
ATOM     16  O   UNL A   1      32.884  22.286  28.598  1.00  0.00    -0.248 OA
ATOM     17  H   UNL A   1      31.049  21.711  27.280  1.00  0.00     0.165 HD
BRANCH  13  18
ATOM     18  C   UNL A   1      34.121  23.933  25.641  1.00  0.00     0.085 A 
ATOM     19  C   UNL A   1      34.159  25.059  23.064  1.00  0.00     0.122 A 
ATOM     20  C   UNL A   1      34.028  25.870  24.191  1.00  0.00     0.049 A 
ATOM     21  C   UNL A   1      34.434  23.705  23.235  1.00  0.00     0.095 A 
ATOM     22  C   UNL A   1      34.049  25.315  25.476  1.00  0.00     0.034 A 
ATOM     23  C   UNL A   1      34.472  23.155  24.526  1.00  0.00     0.146 A 
BRANCH  19  24
ATOM     24  O   UNL A   1      34.019  25.704  21.865  1.00  0.00    -0.497 OA
ATOM     25  C   UNL A   1      33.477  27.020  21.902  1.00  0.00     0.278 C 
ENDBRANCH  19  24
BRANCH  23  26
ATOM     26  O   UNL A   1      34.772  21.831  24.743  1.00  0.00    -0.494 OA
ATOM     27  C   UNL A   1      36.170  21.607  24.940  1.00  0.00     0.278 C 
ENDBRANCH  23  26
ENDBRANCH  13  18
ENDBRANCH  11  12
ENDBRANCH   6  11
ENDBRANCH   3   5
ENDBRANCH   2   3
ENDBRANCH   1   2
BRANCH   1  28
ATOM     28  C   UNL A   1      32.075  30.167  25.878  1.00  0.00     0.275 C 
BRANCH  28  29
ATOM     29  O   UNL A   1      32.339  30.589  27.234  1.00  0.00    -0.458 OA
BRANCH  29  30
ATOM     30  C   UNL A   1      33.116  31.687  27.347  1.00  0.00     0.338 C 
ATOM     31  O   UNL A   1      32.771  32.854  27.247  1.00  0.00    -0.246 OA
BRANCH  30  32
ATOM     32  C   UNL A   1      34.507  31.335  27.672  1.00  0.00     0.060 A 
ATOM     33  C   UNL A   1      34.801  30.002  27.932  1.00  0.00     0.016 A 
ATOM     34  C   UNL A   1      35.425  32.326  28.014  1.00  0.00     0.016 A 
ATOM     35  C   UNL A   1      35.898  29.676  28.723  1.00  0.00     0.010 A 
ATOM     36  C   UNL A   1      36.625  31.968  28.645  1.00  0.00     0.010 A 
ATOM     37  C   UNL A   1      36.851  30.645  29.070  1.00  0.00    -0.014 A 
BRANCH  37  38
ATOM     38  C   UNL A   1      38.055  30.266  29.874  1.00  0.00     0.031 A 
ATOM     39  C   UNL A   1      39.126  29.367  29.299  1.00  0.00     0.074 A 
ATOM     40  C   UNL A   1      38.205  30.738  31.130  1.00  0.00     0.049 A 
ATOM     41  N   UNL A   1      40.148  28.802  29.898  1.00  0.00    -0.248 NA
ATOM     42  C   UNL A   1      39.027  29.043  27.868  1.00  0.00     0.031 C 
ATOM     43  C   UNL A   1      37.276  31.640  31.815  1.00  0.00     0.029 A 
ATOM     44  N   UNL A   1      39.199  30.534  32.058  1.00  0.00    -0.354 N 
ATOM     45  C   UNL A   1      40.771  28.012  28.936  1.00  0.00     0.074 A 
ATOM     46  C   UNL A   1      40.002  28.157  27.718  1.00  0.00     0.031 C 
ATOM     47  C   UNL A   1      37.768  31.957  33.019  1.00  0.00     0.029 A 
ATOM     48  C   UNL A   1      38.983  31.189  33.247  1.00  0.00     0.049 A 
ATOM     49  H   UNL A   1      39.990  29.973  31.887  1.00  0.00     0.167 HD
ATOM     50  C   UNL A   1      41.880  27.241  29.057  1.00  0.00     0.037 A 
ATOM     51  C   UNL A   1      39.648  31.143  34.416  1.00  0.00     0.037 A 
ATOM     52  C   UNL A   1      42.671  27.139  30.260  1.00  0.00     0.049 A 
ATOM     53  C   UNL A   1      40.848  30.250  34.537  1.00  0.00     0.074 A 
ATOM     54  C   UNL A   1      43.826  26.406  30.475  1.00  0.00     0.029 A 
ATOM     55  N   UNL A   1      42.394  27.798  31.450  1.00  0.00    -0.354 N 
ATOM     56  N   UNL A   1      41.404  29.483  33.632  1.00  0.00    -0.248 NA
ATOM     57  C   UNL A   1      41.506  30.208  35.849  1.00  0.00     0.031 C 
ATOM     58  C   UNL A   1      44.214  26.574  31.808  1.00  0.00     0.029 A 
ATOM     59  C   UNL A   1      43.342  27.470  32.407  1.00  0.00     0.049 A 
ATOM     60  H   UNL A   1      41.636  28.409  31.592  1.00  0.00     0.167 HD
ATOM     61  C   UNL A   1      42.489  28.885  34.256  1.00  0.00     0.074 A 
ATOM     62  C   UNL A   1      42.527  29.399  35.610  1.00  0.00     0.031 C 
ATOM     63  C   UNL A   1      43.373  27.988  33.752  1.00  0.00     0.037 A 
BRANCH  50  64
ATOM     64  C   UNL A   1      42.290  26.409  27.871  1.00  0.00     0.064 A 
ATOM     65  C   UNL A   1      43.275  26.829  26.964  1.00  0.00     0.173 A 
ATOM     66  C   UNL A   1      41.706  25.149  27.657  1.00  0.00     0.173 A 
ATOM     67  F   UNL A   1      43.863  28.026  27.113  1.00  0.00    -0.203 F 
ATOM     68  C   UNL A   1      43.630  26.041  25.871  1.00  0.00     0.198 A 
ATOM     69  C   UNL A   1      42.091  24.346  26.585  1.00  0.00     0.198 A 
ATOM     70  F   UNL A   1      40.768  24.687  28.497  1.00  0.00    -0.203 F 
ATOM     71  F   UNL A   1      44.531  26.491  24.986  1.00  0.00    -0.200 F 
ATOM     72  C   UNL A   1      43.043  24.798  25.686  1.00  0.00     0.200 A 
ATOM     73  F   UNL A   1      41.535  23.138  26.421  1.00  0.00    -0.200 F 
ATOM     74  F   UNL A   1      43.392  24.039  24.638  1.00  0.00    -0.200 F 
ENDBRANCH  50  64
BRANCH  51  75
ATOM     75  C   UNL A   1      39.162  31.937  35.577  1.00  0.00     0.064 A 
ATOM     76  C   UNL A   1      39.548  33.274  35.750  1.00  0.00     0.173 A 
ATOM     77  C   UNL A   1      38.297  31.381  36.533  1.00  0.00     0.173 A 
ATOM     78  F   UNL A   1      40.390  33.846  34.878  1.00  0.00    -0.203 F 
ATOM     79  C   UNL A   1      39.103  34.015  36.842  1.00  0.00     0.198 A 
ATOM     80  C   UNL A   1      37.822  32.135  37.602  1.00  0.00     0.198 A 
ATOM     81  F   UNL A   1      37.893  30.107  36.413  1.00  0.00    -0.203 F 
ATOM     82  F   UNL A   1      39.526  35.276  37.010  1.00  0.00    -0.200 F 
ATOM     83  C   UNL A   1      38.233  33.449  37.762  1.00  0.00     0.200 A 
ATOM     84  F   UNL A   1      36.964  31.590  38.474  1.00  0.00    -0.200 F 
ATOM     85  F   UNL A   1      37.795  34.168  38.805  1.00  0.00    -0.200 F 
ENDBRANCH  51  75
BRANCH  63  86
ATOM     86  C   UNL A   1      44.487  27.548  34.658  1.00  0.00     0.064 A 
ATOM     87  C   UNL A   1      45.702  28.246  34.735  1.00  0.00     0.173 A 
ATOM     88  C   UNL A   1      44.335  26.408  35.463  1.00  0.00     0.173 A 
ATOM     89  F   UNL A   1      45.907  29.332  33.974  1.00  0.00    -0.203 F 
ATOM     90  C   UNL A   1      46.738  27.795  35.550  1.00  0.00     0.198 A 
ATOM     91  C   UNL A   1      45.358  25.983  36.306  1.00  0.00     0.198 A 
ATOM     92  F   UNL A   1      43.193  25.706  35.434  1.00  0.00    -0.203 F 
ATOM     93  F   UNL A   1      47.913  28.437  35.553  1.00  0.00    -0.200 F 
ATOM     94  C   UNL A   1      46.562  26.668  36.340  1.00  0.00     0.200 A 
ATOM     95  F   UNL A   1      45.180  24.902  37.079  1.00  0.00    -0.200 F 
ATOM     96  F   UNL A   1      47.559  26.234  37.123  1.00  0.00    -0.200 F 
ENDBRANCH  63  86
ENDBRANCH  37  38
ENDBRANCH  30  32
ENDBRANCH  29  30
ENDBRANCH  28  29
ENDBRANCH   1  28
TORSDOF 16
ENDMDL
MODEL 2
REMARK VINA RESULT:     -12.2      0.969      2.374
REMARK SMILES COc1ccc(NC(=O)NCc2ccc(C(=O)OCCOC(=O)c3ccc(-c4c5nc(c(-c6c(F)c(F)c(F)c(F)c6F)c6ccc([nH]6)c(-c6c(F)c(F)c(F)c(F)c6F)c6nc(c(-c7c(F)c(F)c(F)c(F)c7F)c7ccc4[nH]7)C=C6)C=C5)cc3)cc2)c(OC)c1
REMARK SMILES IDX 19 1 18 2 16 3 17 4 15 5 12 6 13 7 88 8 14 9 87 10 11 11
REMARK SMILES IDX 10 12 7 13 8 14 9 16 6 18 3 19 4 20 92 21 5 22 89 23 2 24
REMARK SMILES IDX 1 25 90 26 91 27 20 28 21 29 22 30 23 31 24 32 25 33 86 34
REMARK SMILES IDX 26 35 85 36 27 37 28 38 29 39 79 40 30 41 84 42 78 43 80 44
REMARK SMILES IDX 31 45 83 46 77 47 76 48 32 50 64 51 44 52 63 53 45 54 48 55
REMARK SMILES IDX 62 56 81 57 46 58 47 59 61 61 82 62 49 63 33 64 34 65 42 66
REMARK SMILES IDX 35 67 36 68 40 69 43 70 37 71 38 72 41 73 39 74 65 75 66 76
REMARK SMILES IDX 74 77 67 78 68 79 72 80 75 81 69 82 70 83 73 84 71 85 50 86
REMARK SMILES IDX 51 87 59 88 52 89 53 90 57 91 60 92 54 93 55 94 58 95 56 96
REMARK H PARENT 7 15 10 17 80 49 48 60
REMARK Flexibility Score: inf
ROOT
ATOM      1  C   UNL A   1      32.815  29.400  24.657  1.00  0.00     0.275 C 
ENDROOT
BRANCH   1   2
ATOM      2  O   UNL A   1      32.175  28.889  23.471  1.00  0.00    -0.458 OA
BRANCH   2   3
ATOM      3  C   UNL A   1      32.931  28.042  22.743  1.00  0.00     0.338 C 
ATOM      4  O   UNL A   1      34.002  28.294  22.206  1.00  0.00    -0.246 OA
BRANCH   3   5
ATOM      5  C   UNL A   1      32.365  26.682  22.760  1.00  0.00     0.060 A 
ATOM      6  C   UNL A   1      31.423  24.129  23.376  1.00  0.00    -0.029 A 
ATOM      7  C   UNL A   1      30.658  25.261  23.686  1.00  0.00     0.006 A 
ATOM      8  C   UNL A   1      32.608  24.277  22.646  1.00  0.00     0.006 A 
ATOM      9  C   UNL A   1      31.138  26.520  23.395  1.00  0.00     0.016 A 
ATOM     10  C   UNL A   1      33.078  25.563  22.328  1.00  0.00     0.016 A 
BRANCH   6  11
ATOM     11  C   UNL A   1      31.029  22.918  24.167  1.00  0.00     0.153 C 
BRANCH  11  12
ATOM     12  N   UNL A   1      30.384  23.050  25.433  1.00  0.00    -0.334 N 
ATOM     13  N   UNL A   1      32.182  22.662  26.968  1.00  0.00    -0.305 N 
ATOM     14  C   UNL A   1      30.893  22.959  26.679  1.00  0.00     0.319 C 
ATOM     15  H   UNL A   1      32.292  22.405  27.912  1.00  0.00     0.172 HD
ATOM     16  O   UNL A   1      30.091  23.049  27.615  1.00  0.00    -0.248 OA
ATOM     17  H   UNL A   1      29.419  23.237  25.391  1.00  0.00     0.165 HD
BRANCH  13  18
ATOM     18  C   UNL A   1      33.408  22.627  26.271  1.00  0.00     0.085 A 
ATOM     19  C   UNL A   1      36.073  22.715  25.375  1.00  0.00     0.122 A 
ATOM     20  C   UNL A   1      35.394  21.500  25.464  1.00  0.00     0.049 A 
ATOM     21  C   UNL A   1      35.368  23.898  25.577  1.00  0.00     0.095 A 
ATOM     22  C   UNL A   1      34.055  21.459  25.872  1.00  0.00     0.034 A 
ATOM     23  C   UNL A   1      34.021  23.854  25.969  1.00  0.00     0.146 A 
BRANCH  19  24
ATOM     24  O   UNL A   1      37.402  22.615  25.065  1.00  0.00    -0.497 OA
ATOM     25  C   UNL A   1      38.327  22.817  26.129  1.00  0.00     0.278 C 
ENDBRANCH  19  24
BRANCH  23  26
ATOM     26  O   UNL A   1      33.279  24.997  26.148  1.00  0.00    -0.494 OA
ATOM     27  C   UNL A   1      34.021  26.186  25.867  1.00  0.00     0.278 C 
ENDBRANCH  23  26
ENDBRANCH  13  18
ENDBRANCH  11  12
ENDBRANCH   6  11
ENDBRANCH   3   5
ENDBRANCH   2   3
ENDBRANCH   1   2
BRANCH   1  28
ATOM     28  C   UNL A   1      31.781  29.825  25.702  1.00  0.00     0.275 C 
BRANCH  28  29
ATOM     29  O   UNL A   1      32.374  29.982  27.010  1.00  0.00    -0.458 OA
BRANCH  29  30
ATOM     30  C   UNL A   1      33.029  31.147  27.201  1.00  0.00     0.338 C 
ATOM     31  O   UNL A   1      32.565  32.275  27.160  1.00  0.00    -0.246 OA
BRANCH  30  32
ATOM     32  C   UNL A   1      34.445  30.922  27.534  1.00  0.00     0.060 A 
ATOM     33  C   UNL A   1      34.884  29.611  27.673  1.00  0.00     0.016 A 
ATOM     34  C   UNL A   1      35.235  31.970  27.999  1.00  0.00     0.016 A 
ATOM     35  C   UNL A   1      35.994  29.334  28.464  1.00  0.00     0.010 A 
ATOM     36  C   UNL A   1      36.455  31.689  28.630  1.00  0.00     0.010 A 
ATOM     37  C   UNL A   1      36.823  30.364  28.932  1.00  0.00    -0.014 A 
BRANCH  37  38
ATOM     38  C   UNL A   1      38.046  30.045  29.734  1.00  0.00     0.031 A 
ATOM     39  C   UNL A   1      39.134  29.155  29.176  1.00  0.00     0.074 A 
ATOM     40  C   UNL A   1      38.198  30.563  30.971  1.00  0.00     0.049 A 
ATOM     41  N   UNL A   1      40.177  28.637  29.782  1.00  0.00    -0.248 NA
ATOM     42  C   UNL A   1      39.027  28.779  27.759  1.00  0.00     0.031 C 
ATOM     43  C   UNL A   1      37.253  31.463  31.637  1.00  0.00     0.029 A 
ATOM     44  N   UNL A   1      39.208  30.417  31.893  1.00  0.00    -0.354 N 
ATOM     45  C   UNL A   1      40.810  27.832  28.839  1.00  0.00     0.074 A 
ATOM     46  C   UNL A   1      40.024  27.915  27.626  1.00  0.00     0.031 C 
ATOM     47  C   UNL A   1      37.750  31.834  32.823  1.00  0.00     0.029 A 
ATOM     48  C   UNL A   1      38.988  31.106  33.062  1.00  0.00     0.049 A 
ATOM     49  H   UNL A   1      40.011  29.872  31.731  1.00  0.00     0.167 HD
ATOM     50  C   UNL A   1      41.941  27.094  28.972  1.00  0.00     0.037 A 
ATOM     51  C   UNL A   1      39.667  31.118  34.223  1.00  0.00     0.037 A 
ATOM     52  C   UNL A   1      42.748  27.055  30.168  1.00  0.00     0.049 A 
ATOM     53  C   UNL A   1      40.892  30.261  34.359  1.00  0.00     0.074 A 
ATOM     54  C   UNL A   1      43.925  26.360  30.393  1.00  0.00     0.029 A 
ATOM     55  N   UNL A   1      42.467  27.747  31.338  1.00  0.00    -0.354 N 
ATOM     56  N   UNL A   1      41.458  29.478  33.474  1.00  0.00    -0.248 NA
ATOM     57  C   UNL A   1      41.566  30.282  35.664  1.00  0.00     0.031 C 
ATOM     58  C   UNL A   1      44.323  26.584  31.715  1.00  0.00     0.029 A 
ATOM     59  C   UNL A   1      43.434  27.476  32.294  1.00  0.00     0.049 A 
ATOM     60  H   UNL A   1      41.695  28.342  31.469  1.00  0.00     0.167 HD
ATOM     61  C   UNL A   1      42.566  28.931  34.104  1.00  0.00     0.074 A 
ATOM     62  C   UNL A   1      42.605  29.492  35.439  1.00  0.00     0.031 C 
ATOM     63  C   UNL A   1      43.468  28.041  33.620  1.00  0.00     0.037 A 
BRANCH  50  64
ATOM     64  C   UNL A   1      42.359  26.234  27.809  1.00  0.00     0.064 A 
ATOM     65  C   UNL A   1      41.788  24.976  27.562  1.00  0.00     0.173 A 
ATOM     66  C   UNL A   1      43.330  26.695  26.905  1.00  0.00     0.173 A 
ATOM     67  F   UNL A   1      40.860  24.481  28.395  1.00  0.00    -0.203 F 
ATOM     68  C   UNL A   1      42.199  24.199  26.481  1.00  0.00     0.198 A 
ATOM     69  C   UNL A   1      43.712  25.931  25.803  1.00  0.00     0.198 A 
ATOM     70  F   UNL A   1      43.904  27.895  27.081  1.00  0.00    -0.203 F 
ATOM     71  F   UNL A   1      41.681  22.976  26.302  1.00  0.00    -0.200 F 
ATOM     72  C   UNL A   1      43.156  24.680  25.599  1.00  0.00     0.200 A 
ATOM     73  F   UNL A   1      44.622  26.408  24.943  1.00  0.00    -0.200 F 
ATOM     74  F   UNL A   1      43.544  23.933  24.556  1.00  0.00    -0.200 F 
ENDBRANCH  50  64
BRANCH  51  75
ATOM     75  C   UNL A   1      39.174  31.938  35.363  1.00  0.00     0.064 A 
ATOM     76  C   UNL A   1      39.484  33.301  35.459  1.00  0.00     0.173 A 
ATOM     77  C   UNL A   1      38.377  31.379  36.374  1.00  0.00     0.173 A 
ATOM     78  F   UNL A   1      40.260  33.878  34.531  1.00  0.00    -0.203 F 
ATOM     79  C   UNL A   1      39.032  34.069  36.531  1.00  0.00     0.198 A 
ATOM     80  C   UNL A   1      37.893  32.156  37.424  1.00  0.00     0.198 A 
ATOM     81  F   UNL A   1      38.046  30.080  36.329  1.00  0.00    -0.203 F 
ATOM     82  F   UNL A   1      39.384  35.358  36.623  1.00  0.00    -0.200 F 
ATOM     83  C   UNL A   1      38.229  33.498  37.507  1.00  0.00     0.200 A 
ATOM     84  F   UNL A   1      37.099  31.605  38.351  1.00  0.00    -0.200 F 
ATOM     85  F   UNL A   1      37.784  34.240  38.530  1.00  0.00    -0.200 F 
ENDBRANCH  51  75
BRANCH  63  86
ATOM     86  C   UNL A   1      44.603  27.661  34.527  1.00  0.00     0.064 A 
ATOM     87  C   UNL A   1      44.533  26.547  35.377  1.00  0.00     0.173 A 
ATOM     88  C   UNL A   1      45.780  28.426  34.545  1.00  0.00     0.173 A 
ATOM     89  F   UNL A   1      43.424  25.793  35.413  1.00  0.00    -0.203 F 
ATOM     90  C   UNL A   1      45.581  26.238  36.242  1.00  0.00     0.198 A 
ATOM     91  C   UNL A   1      46.841  28.091  35.382  1.00  0.00     0.198 A 
ATOM     92  F   UNL A   1      45.903  29.497  33.748  1.00  0.00    -0.203 F 
ATOM     93  F   UNL A   1      45.462  25.212  37.095  1.00  0.00    -0.200 F 
ATOM     94  C   UNL A   1      46.736  27.006  36.238  1.00  0.00     0.200 A 
ATOM     95  F   UNL A   1      47.962  28.826  35.365  1.00  0.00    -0.200 F 
ATOM     96  F   UNL A   1      47.743  26.709  37.071  1.00  0.00    -0.200 F 
ENDBRANCH  63  86
ENDBRANCH  37  38
ENDBRANCH  30  32
ENDBRANCH  29  30
ENDBRANCH  28  29
ENDBRANCH   1  28
TORSDOF 16
ENDMDL
MODEL 3
REMARK VINA RESULT:     -12.2      4.210      9.584
REMARK SMILES COc1ccc(NC(=O)NCc2ccc(C(=O)OCCOC(=O)c3ccc(-c4c5nc(c(-c6c(F)c(F)c(F)c(F)c6F)c6ccc([nH]6)c(-c6c(F)c(F)c(F)c(F)c6F)c6nc(c(-c7c(F)c(F)c(F)c(F)c7F)c7ccc4[nH]7)C=C6)C=C5)cc3)cc2)c(OC)c1
REMARK SMILES IDX 19 1 18 2 16 3 17 4 15 5 12 6 13 7 88 8 14 9 87 10 11 11
REMARK SMILES IDX 10 12 7 13 8 14 9 16 6 18 3 19 4 20 92 21 5 22 89 23 2 24
REMARK SMILES IDX 1 25 90 26 91 27 20 28 21 29 22 30 23 31 24 32 25 33 86 34
REMARK SMILES IDX 26 35 85 36 27 37 28 38 29 39 79 40 30 41 84 42 78 43 80 44
REMARK SMILES IDX 31 45 83 46 77 47 76 48 32 50 64 51 44 52 63 53 45 54 48 55
REMARK SMILES IDX 62 56 81 57 46 58 47 59 61 61 82 62 49 63 33 64 34 65 42 66
REMARK SMILES IDX 35 67 36 68 40 69 43 70 37 71 38 72 41 73 39 74 65 75 66 76
REMARK SMILES IDX 74 77 67 78 68 79 72 80 75 81 69 82 70 83 73 84 71 85 50 86
REMARK SMILES IDX 51 87 59 88 52 89 53 90 57 91 60 92 54 93 55 94 58 95 56 96
REMARK H PARENT 7 15 10 17 80 49 48 60
REMARK Flexibility Score: inf
ROOT
ATOM      1  C   UNL A   1      35.815  20.726  25.053  1.00  0.00     0.275 C 
ENDROOT
BRANCH   1   2
ATOM      2  O   UNL A   1      34.985  21.374  24.067  1.00  0.00    -0.458 OA
BRANCH   2   3
ATOM      3  C   UNL A   1      33.664  21.343  24.334  1.00  0.00     0.338 C 
ATOM      4  O   UNL A   1      33.104  20.660  25.182  1.00  0.00    -0.246 OA
BRANCH   3   5
ATOM      5  C   UNL A   1      32.941  22.352  23.542  1.00  0.00     0.060 A 
ATOM      6  C   UNL A   1      31.864  24.655  22.389  1.00  0.00    -0.029 A 
ATOM      7  C   UNL A   1      33.164  24.242  22.068  1.00  0.00     0.006 A 
ATOM      8  C   UNL A   1      31.063  23.840  23.197  1.00  0.00     0.006 A 
ATOM      9  C   UNL A   1      33.696  23.114  22.655  1.00  0.00     0.016 A 
ATOM     10  C   UNL A   1      31.602  22.675  23.770  1.00  0.00     0.016 A 
BRANCH   6  11
ATOM     11  C   UNL A   1      31.612  26.100  22.084  1.00  0.00     0.153 C 
BRANCH  11  12
ATOM     12  N   UNL A   1      32.658  26.934  21.585  1.00  0.00    -0.334 N 
ATOM     13  N   UNL A   1      33.744  27.654  23.595  1.00  0.00    -0.305 N 
ATOM     14  C   UNL A   1      33.619  27.609  22.247  1.00  0.00     0.319 C 
ATOM     15  H   UNL A   1      34.343  28.382  23.880  1.00  0.00     0.172 HD
ATOM     16  O   UNL A   1      34.368  28.320  21.569  1.00  0.00    -0.248 OA
ATOM     17  H   UNL A   1      32.681  27.031  20.606  1.00  0.00     0.165 HD
BRANCH  13  18
ATOM     18  C   UNL A   1      33.243  26.929  24.697  1.00  0.00     0.085 A 
ATOM     19  C   UNL A   1      31.880  25.272  26.517  1.00  0.00     0.122 A 
ATOM     20  C   UNL A   1      33.207  25.013  26.176  1.00  0.00     0.049 A 
ATOM     21  C   UNL A   1      31.289  26.452  26.073  1.00  0.00     0.095 A 
ATOM     22  C   UNL A   1      33.899  25.859  25.301  1.00  0.00     0.034 A 
ATOM     23  C   UNL A   1      31.991  27.307  25.210  1.00  0.00     0.146 A 
BRANCH  19  24
ATOM     24  O   UNL A   1      31.284  24.319  27.296  1.00  0.00    -0.497 OA
ATOM     25  C   UNL A   1      31.898  23.035  27.324  1.00  0.00     0.278 C 
ENDBRANCH  19  24
BRANCH  23  26
ATOM     26  O   UNL A   1      31.457  28.497  24.774  1.00  0.00    -0.494 OA
ATOM     27  C   UNL A   1      31.838  29.605  25.592  1.00  0.00     0.278 C 
ENDBRANCH  23  26
ENDBRANCH  13  18
ENDBRANCH  11  12
ENDBRANCH   6  11
ENDBRANCH   3   5
ENDBRANCH   2   3
ENDBRANCH   1   2
BRANCH   1  28
ATOM     28  C   UNL A   1      36.687  21.744  25.792  1.00  0.00     0.275 C 
BRANCH  28  29
ATOM     29  O   UNL A   1      37.983  21.889  25.170  1.00  0.00    -0.458 OA
BRANCH  29  30
ATOM     30  C   UNL A   1      39.032  21.600  25.969  1.00  0.00     0.338 C 
ATOM     31  O   UNL A   1      39.614  20.533  26.073  1.00  0.00    -0.246 OA
BRANCH  30  32
ATOM     32  C   UNL A   1      39.478  22.783  26.724  1.00  0.00     0.060 A 
ATOM     33  C   UNL A   1      39.008  24.028  26.326  1.00  0.00     0.016 A 
ATOM     34  C   UNL A   1      40.564  22.696  27.593  1.00  0.00     0.016 A 
ATOM     35  C   UNL A   1      39.747  25.171  26.615  1.00  0.00     0.010 A 
ATOM     36  C   UNL A   1      41.190  23.870  28.035  1.00  0.00     0.010 A 
ATOM     37  C   UNL A   1      40.834  25.123  27.501  1.00  0.00    -0.014 A 
BRANCH  37  38
ATOM     38  C   UNL A   1      41.583  26.373  27.845  1.00  0.00     0.031 A 
ATOM     39  C   UNL A   1      40.944  27.462  28.677  1.00  0.00     0.074 A 
ATOM     40  C   UNL A   1      42.854  26.537  27.422  1.00  0.00     0.049 A 
ATOM     41  N   UNL A   1      41.375  28.675  28.933  1.00  0.00    -0.248 NA
ATOM     42  C   UNL A   1      39.640  27.158  29.285  1.00  0.00     0.031 C 
ATOM     43  C   UNL A   1      43.621  25.565  26.638  1.00  0.00     0.029 A 
ATOM     44  N   UNL A   1      43.736  27.578  27.596  1.00  0.00    -0.354 N 
ATOM     45  C   UNL A   1      40.373  29.292  29.675  1.00  0.00     0.074 A 
ATOM     46  C   UNL A   1      39.303  28.326  29.813  1.00  0.00     0.031 C 
ATOM     47  C   UNL A   1      44.865  26.023  26.452  1.00  0.00     0.029 A 
ATOM     48  C   UNL A   1      44.954  27.371  26.993  1.00  0.00     0.049 A 
ATOM     49  H   UNL A   1      43.517  28.391  28.105  1.00  0.00     0.167 HD
ATOM     50  C   UNL A   1      40.347  30.546  30.193  1.00  0.00     0.037 A 
ATOM     51  C   UNL A   1      46.013  28.187  26.836  1.00  0.00     0.037 A 
ATOM     52  C   UNL A   1      41.437  31.486  30.095  1.00  0.00     0.049 A 
ATOM     53  C   UNL A   1      45.944  29.583  27.383  1.00  0.00     0.074 A 
ATOM     54  C   UNL A   1      41.519  32.770  30.609  1.00  0.00     0.029 A 
ATOM     55  N   UNL A   1      42.640  31.243  29.446  1.00  0.00    -0.354 N 
ATOM     56  N   UNL A   1      44.978  30.165  28.050  1.00  0.00    -0.248 NA
ATOM     57  C   UNL A   1      47.112  30.440  27.143  1.00  0.00     0.031 C 
ATOM     58  C   UNL A   1      42.744  33.323  30.222  1.00  0.00     0.029 A 
ATOM     59  C   UNL A   1      43.458  32.359  29.527  1.00  0.00     0.049 A 
ATOM     60  H   UNL A   1      42.876  30.401  28.995  1.00  0.00     0.167 HD
ATOM     61  C   UNL A   1      45.428  31.447  28.330  1.00  0.00     0.074 A 
ATOM     62  C   UNL A   1      46.765  31.548  27.781  1.00  0.00     0.031 C 
ATOM     63  C   UNL A   1      44.789  32.451  28.981  1.00  0.00     0.037 A 
BRANCH  50  64
ATOM     64  C   UNL A   1      39.087  30.995  30.883  1.00  0.00     0.064 A 
ATOM     65  C   UNL A   1      38.012  31.567  30.185  1.00  0.00     0.173 A 
ATOM     66  C   UNL A   1      38.940  30.818  32.269  1.00  0.00     0.173 A 
ATOM     67  F   UNL A   1      38.096  31.767  28.862  1.00  0.00    -0.203 F 
ATOM     68  C   UNL A   1      36.859  31.979  30.852  1.00  0.00     0.198 A 
ATOM     69  C   UNL A   1      37.771  31.197  32.927  1.00  0.00     0.198 A 
ATOM     70  F   UNL A   1      39.928  30.265  32.989  1.00  0.00    -0.203 F 
ATOM     71  F   UNL A   1      35.872  32.578  30.171  1.00  0.00    -0.200 F 
ATOM     72  C   UNL A   1      36.737  31.788  32.220  1.00  0.00     0.200 A 
ATOM     73  F   UNL A   1      37.650  30.992  34.245  1.00  0.00    -0.200 F 
ATOM     74  F   UNL A   1      35.624  32.179  32.857  1.00  0.00    -0.200 F 
ENDBRANCH  50  64
BRANCH  51  75
ATOM     75  C   UNL A   1      47.210  27.713  26.090  1.00  0.00     0.064 A 
ATOM     76  C   UNL A   1      48.328  27.205  26.766  1.00  0.00     0.173 A 
ATOM     77  C   UNL A   1      47.259  27.751  24.688  1.00  0.00     0.173 A 
ATOM     78  F   UNL A   1      48.340  27.167  28.106  1.00  0.00    -0.203 F 
ATOM     79  C   UNL A   1      49.454  26.771  26.070  1.00  0.00     0.198 A 
ATOM     80  C   UNL A   1      48.369  27.280  23.991  1.00  0.00     0.198 A 
ATOM     81  F   UNL A   1      46.215  28.224  23.991  1.00  0.00    -0.203 F 
ATOM     82  F   UNL A   1      50.527  26.335  26.743  1.00  0.00    -0.200 F 
ATOM     83  C   UNL A   1      49.470  26.799  24.683  1.00  0.00     0.200 A 
ATOM     84  F   UNL A   1      48.370  27.289  22.652  1.00  0.00    -0.200 F 
ATOM     85  F   UNL A   1      50.549  26.369  24.014  1.00  0.00    -0.200 F 
ENDBRANCH  51  75
BRANCH  63  86
ATOM     86  C   UNL A   1      45.553  33.728  29.178  1.00  0.00     0.064 A 
ATOM     87  C   UNL A   1      45.473  34.791  28.265  1.00  0.00     0.173 A 
ATOM     88  C   UNL A   1      46.380  33.892  30.301  1.00  0.00     0.173 A 
ATOM     89  F   UNL A   1      44.712  34.680  27.165  1.00  0.00    -0.203 F 
ATOM     90  C   UNL A   1      46.224  35.950  28.445  1.00  0.00     0.198 A 
ATOM     91  C   UNL A   1      47.098  35.067  30.499  1.00  0.00     0.198 A 
ATOM     92  F   UNL A   1      46.489  32.911  31.209  1.00  0.00    -0.203 F 
ATOM     93  F   UNL A   1      46.186  36.921  27.523  1.00  0.00    -0.200 F 
ATOM     94  C   UNL A   1      47.031  36.090  29.565  1.00  0.00     0.200 A 
ATOM     95  F   UNL A   1      47.865  35.206  31.590  1.00  0.00    -0.200 F 
ATOM     96  F   UNL A   1      47.753  37.205  29.737  1.00  0.00    -0.200 F 
ENDBRANCH  63  86
ENDBRANCH  37  38
ENDBRANCH  30  32
ENDBRANCH  29  30
ENDBRANCH  28  29
ENDBRANCH   1  28
TORSDOF 16
ENDMDL
