MODEL 1
REMARK VINA RESULT:     -12.5      0.000      0.000
REMARK SMILES C[C@@H]1CN(S(=O)(=O)c2cccc(C(=O)N3CCC[C@@H]3C(=O)OCCOC(=O)c3ccc(-c4c5nc(c(-c6c(F)c(F)c(F)c(F)c6F)c6ccc([nH]6)c(-c6c(F)c(F)c(F)c(F)c6F)c6nc(c(-c7c(F)c(F)c(F)c(F)c7F)c7ccc4[nH]7)C=C6)C=C5)cc3)c2)C[C@H](C)O1
REMARK SMILES IDX 23 1 22 2 20 3 21 4 19 5 15 6 16 7 17 8 18 9 13 10 14 11
REMARK SMILES IDX 12 12 8 13 9 14 91 15 10 16 11 17 5 18 6 19 7 20 4 21 1 22
REMARK SMILES IDX 2 23 3 24 95 25 93 26 92 27 94 28 24 29 25 30 26 31 27 32
REMARK SMILES IDX 28 33 29 34 90 35 30 36 89 37 31 38 32 39 33 40 83 41 34 42
REMARK SMILES IDX 88 43 82 44 84 45 35 46 87 47 81 48 80 49 36 51 68 52 48 53
REMARK SMILES IDX 67 54 49 55 52 56 66 57 85 58 50 59 51 60 65 62 86 63 53 64
REMARK SMILES IDX 37 65 38 66 46 67 39 68 40 69 44 70 47 71 41 72 42 73 45 74
REMARK SMILES IDX 43 75 69 76 70 77 78 78 71 79 72 80 76 81 79 82 73 83 74 84
REMARK SMILES IDX 77 85 75 86 54 87 55 88 63 89 56 90 57 91 61 92 64 93 58 94
REMARK SMILES IDX 59 95 62 96 60 97
REMARK H PARENT 84 50 52 61
REMARK Flexibility Score: inf
ROOT
ATOM      1  C   UNL A   1      32.972  29.488  25.319  1.00  0.00     0.274 C 
ENDROOT
BRANCH   1   2
ATOM      2  O   UNL A   1      32.751  28.123  25.738  1.00  0.00    -0.461 OA
BRANCH   2   3
ATOM      3  C   UNL A   1      33.168  27.172  24.856  1.00  0.00     0.328 C 
ATOM      4  O   UNL A   1      34.011  26.320  25.119  1.00  0.00    -0.250 OA
BRANCH   3   5
ATOM      5  C   UNL A   1      32.535  27.302  23.463  1.00  0.00     0.195 C 
ATOM      6  N   UNL A   1      31.592  26.241  23.151  1.00  0.00    -0.325 N 
ATOM      7  C   UNL A   1      31.463  26.157  21.711  1.00  0.00     0.121 C 
ATOM      8  C   UNL A   1      32.899  26.309  21.257  1.00  0.00     0.024 C 
ATOM      9  C   UNL A   1      33.505  27.291  22.268  1.00  0.00     0.039 C 
BRANCH   6  10
ATOM     10  C   UNL A   1      30.514  25.999  23.978  1.00  0.00     0.254 C 
ATOM     11  O   UNL A   1      29.639  26.817  24.218  1.00  0.00    -0.269 OA
BRANCH  10  12
ATOM     12  C   UNL A   1      30.648  24.726  24.750  1.00  0.00     0.041 A 
ATOM     13  C   UNL A   1      31.655  22.532  24.988  1.00  0.00     0.083 A 
ATOM     14  C   UNL A   1      31.182  22.446  26.296  1.00  0.00     0.022 A 
ATOM     15  C   UNL A   1      31.354  23.648  24.212  1.00  0.00     0.035 A 
ATOM     16  C   UNL A   1      30.432  23.503  26.828  1.00  0.00     0.002 A 
ATOM     17  C   UNL A   1      30.171  24.646  26.061  1.00  0.00     0.014 A 
BRANCH  13  18
ATOM     18  S   UNL A   1      32.471  21.171  24.197  1.00  0.00     0.243 S 
ATOM     19  O   UNL A   1      32.156  21.253  22.785  1.00  0.00    -0.207 OA
ATOM     20  O   UNL A   1      32.160  19.976  24.955  1.00  0.00    -0.207 OA
BRANCH  18  21
ATOM     21  N   UNL A   1      34.172  21.450  24.359  1.00  0.00    -0.193 NA
ATOM     22  C   UNL A   1      37.267  20.457  24.963  1.00  0.00     0.040 C 
ATOM     23  C   UNL A   1      36.290  21.313  25.761  1.00  0.00     0.130 C 
ATOM     24  C   UNL A   1      34.810  20.895  25.604  1.00  0.00     0.134 C 
ATOM     25  O   UNL A   1      36.529  22.708  25.549  1.00  0.00    -0.373 OA
ATOM     26  C   UNL A   1      35.911  23.271  24.386  1.00  0.00     0.130 C 
ATOM     27  C   UNL A   1      34.418  22.942  24.321  1.00  0.00     0.134 C 
ATOM     28  C   UNL A   1      36.653  22.937  23.097  1.00  0.00     0.040 C 
ENDBRANCH  18  21
ENDBRANCH  13  18
ENDBRANCH  10  12
ENDBRANCH   6  10
ENDBRANCH   3   5
ENDBRANCH   2   3
ENDBRANCH   1   2
BRANCH   1  29
ATOM     29  C   UNL A   1      32.053  30.468  26.059  1.00  0.00     0.275 C 
BRANCH  29  30
ATOM     30  O   UNL A   1      32.567  30.799  27.363  1.00  0.00    -0.458 OA
BRANCH  30  31
ATOM     31  C   UNL A   1      33.393  31.871  27.396  1.00  0.00     0.338 C 
ATOM     32  O   UNL A   1      33.108  33.028  27.136  1.00  0.00    -0.246 OA
BRANCH  31  33
ATOM     33  C   UNL A   1      34.683  31.493  27.997  1.00  0.00     0.060 A 
ATOM     34  C   UNL A   1      34.804  30.186  28.474  1.00  0.00     0.016 A 
ATOM     35  C   UNL A   1      35.734  32.399  28.146  1.00  0.00     0.016 A 
ATOM     36  C   UNL A   1      35.977  29.765  29.086  1.00  0.00     0.010 A 
ATOM     37  C   UNL A   1      36.913  31.982  28.775  1.00  0.00     0.010 A 
ATOM     38  C   UNL A   1      37.036  30.664  29.251  1.00  0.00    -0.014 A 
BRANCH  38  39
ATOM     39  C   UNL A   1      38.244  30.202  29.969  1.00  0.00     0.031 A 
ATOM     40  C   UNL A   1      38.493  30.651  31.377  1.00  0.00     0.074 A 
ATOM     41  C   UNL A   1      39.065  29.315  29.380  1.00  0.00     0.049 A 
ATOM     42  N   UNL A   1      39.470  30.333  32.187  1.00  0.00    -0.248 NA
ATOM     43  C   UNL A   1      37.510  31.579  31.953  1.00  0.00     0.031 C 
ATOM     44  C   UNL A   1      38.891  28.776  28.032  1.00  0.00     0.029 A 
ATOM     45  N   UNL A   1      40.199  28.701  29.847  1.00  0.00    -0.354 N 
ATOM     46  C   UNL A   1      39.228  31.029  33.362  1.00  0.00     0.074 A 
ATOM     47  C   UNL A   1      38.021  31.800  33.156  1.00  0.00     0.031 C 
ATOM     48  C   UNL A   1      39.881  27.902  27.783  1.00  0.00     0.029 A 
ATOM     49  C   UNL A   1      40.771  27.845  28.939  1.00  0.00     0.049 A 
ATOM     50  H   UNL A   1      40.568  28.859  30.746  1.00  0.00     0.167 HD
ATOM     51  C   UNL A   1      39.950  31.022  34.509  1.00  0.00     0.037 A 
ATOM     52  C   UNL A   1      41.892  27.107  29.030  1.00  0.00     0.037 A 
ATOM     53  C   UNL A   1      41.145  30.244  34.711  1.00  0.00     0.049 A 
ATOM     54  C   UNL A   1      42.690  27.139  30.304  1.00  0.00     0.074 A 
ATOM     55  C   UNL A   1      41.942  30.160  35.839  1.00  0.00     0.029 A 
ATOM     56  N   UNL A   1      41.716  29.414  33.757  1.00  0.00    -0.354 N 
ATOM     57  N   UNL A   1      42.453  27.799  31.412  1.00  0.00    -0.248 NA
ATOM     58  C   UNL A   1      43.910  26.320  30.341  1.00  0.00     0.031 C 
ATOM     59  C   UNL A   1      43.018  29.311  35.555  1.00  0.00     0.029 A 
ATOM     60  C   UNL A   1      42.867  28.829  34.263  1.00  0.00     0.049 A 
ATOM     61  H   UNL A   1      41.358  29.263  32.852  1.00  0.00     0.167 HD
ATOM     62  C   UNL A   1      43.483  27.469  32.281  1.00  0.00     0.074 A 
ATOM     63  C   UNL A   1      44.335  26.529  31.579  1.00  0.00     0.031 C 
ATOM     64  C   UNL A   1      43.706  27.905  33.545  1.00  0.00     0.037 A 
BRANCH  51  65
ATOM     65  C   UNL A   1      39.482  31.912  35.620  1.00  0.00     0.064 A 
ATOM     66  C   UNL A   1      39.915  33.241  35.736  1.00  0.00     0.173 A 
ATOM     67  C   UNL A   1      38.571  31.432  36.574  1.00  0.00     0.173 A 
ATOM     68  F   UNL A   1      40.799  33.741  34.860  1.00  0.00    -0.203 F 
ATOM     69  C   UNL A   1      39.473  34.049  36.781  1.00  0.00     0.198 A 
ATOM     70  C   UNL A   1      38.112  32.250  37.602  1.00  0.00     0.198 A 
ATOM     71  F   UNL A   1      38.125  30.169  36.506  1.00  0.00    -0.203 F 
ATOM     72  F   UNL A   1      39.936  35.302  36.900  1.00  0.00    -0.200 F 
ATOM     73  C   UNL A   1      38.568  33.555  37.710  1.00  0.00     0.200 A 
ATOM     74  F   UNL A   1      37.233  31.773  38.495  1.00  0.00    -0.200 F 
ATOM     75  F   UNL A   1      38.144  34.334  38.715  1.00  0.00    -0.200 F 
ENDBRANCH  51  65
BRANCH  52  76
ATOM     76  C   UNL A   1      42.324  26.283  27.874  1.00  0.00     0.064 A 
ATOM     77  C   UNL A   1      41.792  25.006  27.652  1.00  0.00     0.173 A 
ATOM     78  C   UNL A   1      43.275  26.763  26.959  1.00  0.00     0.173 A 
ATOM     79  F   UNL A   1      40.901  24.495  28.514  1.00  0.00    -0.203 F 
ATOM     80  C   UNL A   1      42.201  24.235  26.566  1.00  0.00     0.198 A 
ATOM     81  C   UNL A   1      43.664  26.002  25.859  1.00  0.00     0.198 A 
ATOM     82  F   UNL A   1      43.817  27.977  27.130  1.00  0.00    -0.203 F 
ATOM     83  F   UNL A   1      41.706  23.002  26.399  1.00  0.00    -0.200 F 
ATOM     84  C   UNL A   1      43.131  24.737  25.666  1.00  0.00     0.200 A 
ATOM     85  F   UNL A   1      44.555  26.495  24.989  1.00  0.00    -0.200 F 
ATOM     86  F   UNL A   1      43.519  23.997  24.619  1.00  0.00    -0.200 F 
ENDBRANCH  52  76
BRANCH  64  87
ATOM     87  C   UNL A   1      44.913  27.358  34.249  1.00  0.00     0.064 A 
ATOM     88  C   UNL A   1      44.852  26.170  34.993  1.00  0.00     0.173 A 
ATOM     89  C   UNL A   1      46.147  28.020  34.166  1.00  0.00     0.173 A 
ATOM     90  F   UNL A   1      43.691  25.509  35.114  1.00  0.00    -0.203 F 
ATOM     91  C   UNL A   1      45.976  25.682  35.654  1.00  0.00     0.198 A 
ATOM     92  C   UNL A   1      47.275  27.515  34.806  1.00  0.00     0.198 A 
ATOM     93  F   UNL A   1      46.259  29.156  33.462  1.00  0.00    -0.203 F 
ATOM     94  F   UNL A   1      45.882  24.574  36.401  1.00  0.00    -0.200 F 
ATOM     95  C   UNL A   1      47.186  26.351  35.557  1.00  0.00     0.200 A 
ATOM     96  F   UNL A   1      48.446  28.157  34.704  1.00  0.00    -0.200 F 
ATOM     97  F   UNL A   1      48.267  25.881  36.196  1.00  0.00    -0.200 F 
ENDBRANCH  64  87
ENDBRANCH  38  39
ENDBRANCH  31  33
ENDBRANCH  30  31
ENDBRANCH  29  30
ENDBRANCH   1  29
TORSDOF 15
ENDMDL
MODEL 2
REMARK VINA RESULT:     -12.5      4.038      9.632
REMARK SMILES C[C@@H]1CN(S(=O)(=O)c2cccc(C(=O)N3CCC[C@@H]3C(=O)OCCOC(=O)c3ccc(-c4c5nc(c(-c6c(F)c(F)c(F)c(F)c6F)c6ccc([nH]6)c(-c6c(F)c(F)c(F)c(F)c6F)c6nc(c(-c7c(F)c(F)c(F)c(F)c7F)c7ccc4[nH]7)C=C6)C=C5)cc3)c2)C[C@H](C)O1
REMARK SMILES IDX 23 1 22 2 20 3 21 4 19 5 15 6 16 7 17 8 18 9 13 10 14 11
REMARK SMILES IDX 12 12 8 13 9 14 91 15 10 16 11 17 5 18 6 19 7 20 4 21 1 22
REMARK SMILES IDX 2 23 3 24 95 25 93 26 92 27 94 28 24 29 25 30 26 31 27 32
REMARK SMILES IDX 28 33 29 34 90 35 30 36 89 37 31 38 32 39 33 40 83 41 34 42
REMARK SMILES IDX 88 43 82 44 84 45 35 46 87 47 81 48 80 49 36 51 68 52 48 53
REMARK SMILES IDX 67 54 49 55 52 56 66 57 85 58 50 59 51 60 65 62 86 63 53 64
REMARK SMILES IDX 37 65 38 66 46 67 39 68 40 69 44 70 47 71 41 72 42 73 45 74
REMARK SMILES IDX 43 75 69 76 70 77 78 78 71 79 72 80 76 81 79 82 73 83 74 84
REMARK SMILES IDX 77 85 75 86 54 87 55 88 63 89 56 90 57 91 61 92 64 93 58 94
REMARK SMILES IDX 59 95 62 96 60 97
REMARK H PARENT 84 50 52 61
REMARK Flexibility Score: inf
ROOT
ATOM      1  C   UNL A   1      35.848  20.634  24.966  1.00  0.00     0.274 C 
ENDROOT
BRANCH   1   2
ATOM      2  O   UNL A   1      35.398  21.848  24.321  1.00  0.00    -0.461 OA
BRANCH   2   3
ATOM      3  C   UNL A   1      34.738  22.722  25.131  1.00  0.00     0.328 C 
ATOM      4  O   UNL A   1      35.150  23.846  25.401  1.00  0.00    -0.250 OA
BRANCH   3   5
ATOM      5  C   UNL A   1      33.451  22.149  25.742  1.00  0.00     0.195 C 
ATOM      6  N   UNL A   1      32.242  22.577  25.060  1.00  0.00    -0.325 N 
ATOM      7  C   UNL A   1      31.128  22.427  25.972  1.00  0.00     0.121 C 
ATOM      8  C   UNL A   1      31.713  22.942  27.270  1.00  0.00     0.024 C 
ATOM      9  C   UNL A   1      33.180  22.496  27.217  1.00  0.00     0.039 C 
BRANCH   6  10
ATOM     10  C   UNL A   1      32.087  22.356  23.706  1.00  0.00     0.254 C 
ATOM     11  O   UNL A   1      32.166  21.256  23.178  1.00  0.00    -0.269 OA
BRANCH  10  12
ATOM     12  C   UNL A   1      32.062  23.620  22.909  1.00  0.00     0.041 A 
ATOM     13  C   UNL A   1      31.358  25.932  22.697  1.00  0.00     0.083 A 
ATOM     14  C   UNL A   1      32.226  26.107  21.620  1.00  0.00     0.022 A 
ATOM     15  C   UNL A   1      31.251  24.686  23.308  1.00  0.00     0.035 A 
ATOM     16  C   UNL A   1      33.008  25.029  21.183  1.00  0.00     0.002 A 
ATOM     17  C   UNL A   1      32.933  23.790  21.830  1.00  0.00     0.014 A 
BRANCH  13  18
ATOM     18  S   UNL A   1      30.225  27.199  23.201  1.00  0.00     0.243 S 
ATOM     19  O   UNL A   1      29.049  26.532  23.720  1.00  0.00    -0.207 OA
ATOM     20  O   UNL A   1      30.116  28.146  22.110  1.00  0.00    -0.207 OA
BRANCH  18  21
ATOM     21  N   UNL A   1      30.969  28.031  24.526  1.00  0.00    -0.193 NA
ATOM     22  C   UNL A   1      31.774  30.769  26.194  1.00  0.00     0.040 C 
ATOM     23  C   UNL A   1      32.601  29.790  25.368  1.00  0.00     0.130 C 
ATOM     24  C   UNL A   1      31.849  29.195  24.156  1.00  0.00     0.134 C 
ATOM     25  O   UNL A   1      33.235  28.814  26.200  1.00  0.00    -0.373 OA
ATOM     26  C   UNL A   1      32.430  27.681  26.546  1.00  0.00     0.130 C 
ATOM     27  C   UNL A   1      31.795  27.038  25.311  1.00  0.00     0.134 C 
ATOM     28  C   UNL A   1      31.422  27.980  27.648  1.00  0.00     0.040 C 
ENDBRANCH  18  21
ENDBRANCH  13  18
ENDBRANCH  10  12
ENDBRANCH   6  10
ENDBRANCH   3   5
ENDBRANCH   2   3
ENDBRANCH   1   2
BRANCH   1  29
ATOM     29  C   UNL A   1      37.378  20.547  25.012  1.00  0.00     0.275 C 
BRANCH  29  30
ATOM     30  O   UNL A   1      37.941  21.525  25.907  1.00  0.00    -0.458 OA
BRANCH  30  31
ATOM     31  C   UNL A   1      39.229  21.303  26.258  1.00  0.00     0.338 C 
ATOM     32  O   UNL A   1      39.878  20.286  26.072  1.00  0.00    -0.246 OA
BRANCH  31  33
ATOM     33  C   UNL A   1      39.843  22.553  26.736  1.00  0.00     0.060 A 
ATOM     34  C   UNL A   1      39.436  23.738  26.119  1.00  0.00     0.016 A 
ATOM     35  C   UNL A   1      40.830  22.573  27.723  1.00  0.00     0.016 A 
ATOM     36  C   UNL A   1      39.994  24.953  26.491  1.00  0.00     0.010 A 
ATOM     37  C   UNL A   1      41.405  23.796  28.090  1.00  0.00     0.010 A 
ATOM     38  C   UNL A   1      40.992  24.989  27.471  1.00  0.00    -0.014 A 
BRANCH  38  39
ATOM     39  C   UNL A   1      41.613  26.292  27.792  1.00  0.00     0.031 A 
ATOM     40  C   UNL A   1      42.988  26.609  27.286  1.00  0.00     0.074 A 
ATOM     41  C   UNL A   1      40.905  27.215  28.467  1.00  0.00     0.049 A 
ATOM     42  N   UNL A   1      43.691  27.704  27.427  1.00  0.00    -0.248 NA
ATOM     43  C   UNL A   1      43.660  25.556  26.512  1.00  0.00     0.031 C 
ATOM     44  C   UNL A   1      39.543  27.030  28.965  1.00  0.00     0.029 A 
ATOM     45  N   UNL A   1      41.228  28.497  28.834  1.00  0.00    -0.354 N 
ATOM     46  C   UNL A   1      44.892  27.468  26.774  1.00  0.00     0.074 A 
ATOM     47  C   UNL A   1      44.830  26.121  26.248  1.00  0.00     0.031 C 
ATOM     48  C   UNL A   1      39.142  28.162  29.566  1.00  0.00     0.029 A 
ATOM     49  C   UNL A   1      40.229  29.137  29.521  1.00  0.00     0.049 A 
ATOM     50  H   UNL A   1      42.094  28.917  28.624  1.00  0.00     0.167 HD
ATOM     51  C   UNL A   1      45.948  28.304  26.626  1.00  0.00     0.037 A 
ATOM     52  C   UNL A   1      40.200  30.369  30.063  1.00  0.00     0.037 A 
ATOM     53  C   UNL A   1      45.999  29.647  27.144  1.00  0.00     0.049 A 
ATOM     54  C   UNL A   1      41.396  31.266  29.909  1.00  0.00     0.074 A 
ATOM     55  C   UNL A   1      47.019  30.576  27.038  1.00  0.00     0.029 A 
ATOM     56  N   UNL A   1      44.981  30.252  27.867  1.00  0.00    -0.354 N 
ATOM     57  N   UNL A   1      42.528  31.036  29.288  1.00  0.00    -0.248 NA
ATOM     58  C   UNL A   1      41.310  32.595  30.529  1.00  0.00     0.031 C 
ATOM     59  C   UNL A   1      46.635  31.729  27.733  1.00  0.00     0.029 A 
ATOM     60  C   UNL A   1      45.356  31.536  28.233  1.00  0.00     0.049 A 
ATOM     61  H   UNL A   1      44.119  29.831  28.089  1.00  0.00     0.167 HD
ATOM     62  C   UNL A   1      43.283  32.191  29.430  1.00  0.00     0.074 A 
ATOM     63  C   UNL A   1      42.471  33.131  30.177  1.00  0.00     0.031 C 
ATOM     64  C   UNL A   1      44.537  32.451  28.985  1.00  0.00     0.037 A 
BRANCH  51  65
ATOM     65  C   UNL A   1      47.149  27.771  25.905  1.00  0.00     0.064 A 
ATOM     66  C   UNL A   1      48.224  27.184  26.590  1.00  0.00     0.173 A 
ATOM     67  C   UNL A   1      47.217  27.833  24.505  1.00  0.00     0.173 A 
ATOM     68  F   UNL A   1      48.214  27.117  27.929  1.00  0.00    -0.203 F 
ATOM     69  C   UNL A   1      49.333  26.702  25.900  1.00  0.00     0.198 A 
ATOM     70  C   UNL A   1      48.317  27.328  23.817  1.00  0.00     0.198 A 
ATOM     71  F   UNL A   1      46.215  28.384  23.803  1.00  0.00    -0.203 F 
ATOM     72  F   UNL A   1      50.370  26.187  26.577  1.00  0.00    -0.200 F 
ATOM     73  C   UNL A   1      49.377  26.769  24.515  1.00  0.00     0.200 A 
ATOM     74  F   UNL A   1      48.354  27.387  22.479  1.00  0.00    -0.200 F 
ATOM     75  F   UNL A   1      50.446  26.305  23.853  1.00  0.00    -0.200 F 
ENDBRANCH  51  65
BRANCH  52  76
ATOM     76  C   UNL A   1      38.995  30.816  30.805  1.00  0.00     0.064 A 
ATOM     77  C   UNL A   1      37.933  31.452  30.150  1.00  0.00     0.173 A 
ATOM     78  C   UNL A   1      38.879  30.606  32.188  1.00  0.00     0.173 A 
ATOM     79  F   UNL A   1      38.010  31.699  28.834  1.00  0.00    -0.203 F 
ATOM     80  C   UNL A   1      36.804  31.872  30.851  1.00  0.00     0.198 A 
ATOM     81  C   UNL A   1      37.739  31.003  32.883  1.00  0.00     0.198 A 
ATOM     82  F   UNL A   1      39.870  30.005  32.861  1.00  0.00    -0.203 F 
ATOM     83  F   UNL A   1      35.819  32.514  30.208  1.00  0.00    -0.200 F 
ATOM     84  C   UNL A   1      36.704  31.640  32.215  1.00  0.00     0.200 A 
ATOM     85  F   UNL A   1      37.644  30.768  34.199  1.00  0.00    -0.200 F 
ATOM     86  F   UNL A   1      35.616  32.038  32.888  1.00  0.00    -0.200 F 
ENDBRANCH  52  76
BRANCH  64  87
ATOM     87  C   UNL A   1      45.096  33.810  29.287  1.00  0.00     0.064 A 
ATOM     88  C   UNL A   1      45.837  34.056  30.452  1.00  0.00     0.173 A 
ATOM     89  C   UNL A   1      44.902  34.875  28.394  1.00  0.00     0.173 A 
ATOM     90  F   UNL A   1      46.037  33.073  31.343  1.00  0.00    -0.203 F 
ATOM     91  C   UNL A   1      46.337  35.326  30.728  1.00  0.00     0.198 A 
ATOM     92  C   UNL A   1      45.426  36.137  28.660  1.00  0.00     0.198 A 
ATOM     93  F   UNL A   1      44.206  34.690  27.263  1.00  0.00    -0.203 F 
ATOM     94  F   UNL A   1      46.998  35.549  31.872  1.00  0.00    -0.200 F 
ATOM     95  C   UNL A   1      46.135  36.363  29.831  1.00  0.00     0.200 A 
ATOM     96  F   UNL A   1      45.238  37.136  27.787  1.00  0.00    -0.200 F 
ATOM     97  F   UNL A   1      46.616  37.585  30.099  1.00  0.00    -0.200 F 
ENDBRANCH  64  87
ENDBRANCH  38  39
ENDBRANCH  31  33
ENDBRANCH  30  31
ENDBRANCH  29  30
ENDBRANCH   1  29
TORSDOF 15
ENDMDL
MODEL 3
REMARK VINA RESULT:     -12.4      1.062      2.111
REMARK SMILES C[C@@H]1CN(S(=O)(=O)c2cccc(C(=O)N3CCC[C@@H]3C(=O)OCCOC(=O)c3ccc(-c4c5nc(c(-c6c(F)c(F)c(F)c(F)c6F)c6ccc([nH]6)c(-c6c(F)c(F)c(F)c(F)c6F)c6nc(c(-c7c(F)c(F)c(F)c(F)c7F)c7ccc4[nH]7)C=C6)C=C5)cc3)c2)C[C@H](C)O1
REMARK SMILES IDX 23 1 22 2 20 3 21 4 19 5 15 6 16 7 17 8 18 9 13 10 14 11
REMARK SMILES IDX 12 12 8 13 9 14 91 15 10 16 11 17 5 18 6 19 7 20 4 21 1 22
REMARK SMILES IDX 2 23 3 24 95 25 93 26 92 27 94 28 24 29 25 30 26 31 27 32
REMARK SMILES IDX 28 33 29 34 90 35 30 36 89 37 31 38 32 39 33 40 83 41 34 42
REMARK SMILES IDX 88 43 82 44 84 45 35 46 87 47 81 48 80 49 36 51 68 52 48 53
REMARK SMILES IDX 67 54 49 55 52 56 66 57 85 58 50 59 51 60 65 62 86 63 53 64
REMARK SMILES IDX 37 65 38 66 46 67 39 68 40 69 44 70 47 71 41 72 42 73 45 74
REMARK SMILES IDX 43 75 69 76 70 77 78 78 71 79 72 80 76 81 79 82 73 83 74 84
REMARK SMILES IDX 77 85 75 86 54 87 55 88 63 89 56 90 57 91 61 92 64 93 58 94
REMARK SMILES IDX 59 95 62 96 60 97
REMARK H PARENT 84 50 52 61
REMARK Flexibility Score: inf
ROOT
ATOM      1  C   UNL A   1      33.522  29.271  25.604  1.00  0.00     0.274 C 
ENDROOT
BRANCH   1   2
ATOM      2  O   UNL A   1      32.858  28.017  25.876  1.00  0.00    -0.461 OA
BRANCH   2   3
ATOM      3  C   UNL A   1      32.272  27.427  24.797  1.00  0.00     0.328 C 
ATOM      4  O   UNL A   1      32.895  26.842  23.916  1.00  0.00    -0.250 OA
BRANCH   3   5
ATOM      5  C   UNL A   1      30.749  27.619  24.738  1.00  0.00     0.195 C 
ATOM      6  N   UNL A   1      30.011  26.379  24.572  1.00  0.00    -0.325 N 
ATOM      7  C   UNL A   1      28.708  26.694  24.026  1.00  0.00     0.121 C 
ATOM      8  C   UNL A   1      29.048  27.738  22.984  1.00  0.00     0.024 C 
ATOM      9  C   UNL A   1      30.216  28.515  23.605  1.00  0.00     0.039 C 
BRANCH   6  10
ATOM     10  C   UNL A   1      30.176  25.342  25.469  1.00  0.00     0.254 C 
ATOM     11  O   UNL A   1      29.844  25.396  26.645  1.00  0.00    -0.269 OA
BRANCH  10  12
ATOM     12  C   UNL A   1      31.024  24.236  24.932  1.00  0.00     0.041 A 
ATOM     13  C   UNL A   1      32.491  22.349  25.347  1.00  0.00     0.083 A 
ATOM     14  C   UNL A   1      32.386  21.961  24.012  1.00  0.00     0.022 A 
ATOM     15  C   UNL A   1      31.846  23.500  25.789  1.00  0.00     0.035 A 
ATOM     16  C   UNL A   1      31.601  22.720  23.135  1.00  0.00     0.002 A 
ATOM     17  C   UNL A   1      30.915  23.852  23.593  1.00  0.00     0.014 A 
BRANCH  13  18
ATOM     18  S   UNL A   1      33.589  21.532  26.474  1.00  0.00     0.243 S 
ATOM     19  O   UNL A   1      33.478  20.111  26.217  1.00  0.00    -0.207 OA
ATOM     20  O   UNL A   1      33.334  22.066  27.797  1.00  0.00    -0.207 OA
BRANCH  18  21
ATOM     21  N   UNL A   1      35.196  22.008  26.034  1.00  0.00    -0.193 NA
ATOM     22  C   UNL A   1      37.863  23.941  26.302  1.00  0.00     0.040 C 
ATOM     23  C   UNL A   1      36.801  23.803  25.218  1.00  0.00     0.130 C 
ATOM     24  C   UNL A   1      35.390  23.474  25.754  1.00  0.00     0.134 C 
ATOM     25  O   UNL A   1      37.242  22.940  24.165  1.00  0.00    -0.373 OA
ATOM     26  C   UNL A   1      37.045  21.540  24.391  1.00  0.00     0.130 C 
ATOM     27  C   UNL A   1      35.605  21.229  24.804  1.00  0.00     0.134 C 
ATOM     28  C   UNL A   1      38.079  20.937  25.333  1.00  0.00     0.040 C 
ENDBRANCH  18  21
ENDBRANCH  13  18
ENDBRANCH  10  12
ENDBRANCH   6  10
ENDBRANCH   3   5
ENDBRANCH   2   3
ENDBRANCH   1   2
BRANCH   1  29
ATOM     29  C   UNL A   1      32.612  30.472  25.886  1.00  0.00     0.275 C 
BRANCH  29  30
ATOM     30  O   UNL A   1      32.681  30.882  27.265  1.00  0.00    -0.458 OA
BRANCH  30  31
ATOM     31  C   UNL A   1      33.439  31.979  27.497  1.00  0.00     0.338 C 
ATOM     32  O   UNL A   1      33.088  33.145  27.423  1.00  0.00    -0.246 OA
BRANCH  31  33
ATOM     33  C   UNL A   1      34.738  31.583  28.066  1.00  0.00     0.060 A 
ATOM     34  C   UNL A   1      34.813  30.321  28.661  1.00  0.00     0.016 A 
ATOM     35  C   UNL A   1      35.845  32.433  28.070  1.00  0.00     0.016 A 
ATOM     36  C   UNL A   1      35.994  29.890  29.250  1.00  0.00     0.010 A 
ATOM     37  C   UNL A   1      37.033  32.006  28.676  1.00  0.00     0.010 A 
ATOM     38  C   UNL A   1      37.109  30.735  29.272  1.00  0.00    -0.014 A 
BRANCH  38  39
ATOM     39  C   UNL A   1      38.328  30.270  29.968  1.00  0.00     0.031 A 
ATOM     40  C   UNL A   1      38.601  30.714  31.374  1.00  0.00     0.074 A 
ATOM     41  C   UNL A   1      39.140  29.385  29.363  1.00  0.00     0.049 A 
ATOM     42  N   UNL A   1      39.591  30.392  32.167  1.00  0.00    -0.248 NA
ATOM     43  C   UNL A   1      37.627  31.640  31.969  1.00  0.00     0.031 C 
ATOM     44  C   UNL A   1      38.944  28.850  28.016  1.00  0.00     0.029 A 
ATOM     45  N   UNL A   1      40.281  28.769  29.809  1.00  0.00    -0.354 N 
ATOM     46  C   UNL A   1      39.368  31.085  33.348  1.00  0.00     0.074 A 
ATOM     47  C   UNL A   1      38.157  31.857  33.164  1.00  0.00     0.031 C 
ATOM     48  C   UNL A   1      39.930  27.977  27.747  1.00  0.00     0.029 A 
ATOM     49  C   UNL A   1      40.838  27.916  28.889  1.00  0.00     0.049 A 
ATOM     50  H   UNL A   1      40.664  28.924  30.703  1.00  0.00     0.167 HD
ATOM     51  C   UNL A   1      40.108  31.073  34.483  1.00  0.00     0.037 A 
ATOM     52  C   UNL A   1      41.961  27.178  28.959  1.00  0.00     0.037 A 
ATOM     53  C   UNL A   1      41.306  30.295  34.662  1.00  0.00     0.049 A 
ATOM     54  C   UNL A   1      42.779  27.205  30.220  1.00  0.00     0.074 A 
ATOM     55  C   UNL A   1      42.121  30.207  35.778  1.00  0.00     0.029 A 
ATOM     56  N   UNL A   1      41.862  29.468  33.696  1.00  0.00    -0.354 N 
ATOM     57  N   UNL A   1      42.561  27.862  31.334  1.00  0.00    -0.248 NA
ATOM     58  C   UNL A   1      43.999  26.387  30.234  1.00  0.00     0.031 C 
ATOM     59  C   UNL A   1      43.192  29.359  35.472  1.00  0.00     0.029 A 
ATOM     60  C   UNL A   1      43.021  28.882  34.182  1.00  0.00     0.049 A 
ATOM     61  H   UNL A   1      41.488  29.320  32.797  1.00  0.00     0.167 HD
ATOM     62  C   UNL A   1      43.604  27.528  32.185  1.00  0.00     0.074 A 
ATOM     63  C   UNL A   1      44.445  26.591  31.467  1.00  0.00     0.031 C 
ATOM     64  C   UNL A   1      43.848  27.960  33.447  1.00  0.00     0.037 A 
BRANCH  51  65
ATOM     65  C   UNL A   1      39.658  31.960  35.605  1.00  0.00     0.064 A 
ATOM     66  C   UNL A   1      38.699  31.542  36.540  1.00  0.00     0.173 A 
ATOM     67  C   UNL A   1      40.209  33.242  35.756  1.00  0.00     0.173 A 
ATOM     68  F   UNL A   1      38.130  30.333  36.428  1.00  0.00    -0.203 F 
ATOM     69  C   UNL A   1      38.291  32.385  37.570  1.00  0.00     0.198 A 
ATOM     70  C   UNL A   1      39.816  34.072  36.801  1.00  0.00     0.198 A 
ATOM     71  F   UNL A   1      41.130  33.688  34.889  1.00  0.00    -0.203 F 
ATOM     72  F   UNL A   1      37.340  31.983  38.425  1.00  0.00    -0.200 F 
ATOM     73  C   UNL A   1      38.853  33.647  37.704  1.00  0.00     0.200 A 
ATOM     74  F   UNL A   1      40.365  35.288  36.933  1.00  0.00    -0.200 F 
ATOM     75  F   UNL A   1      38.458  34.457  38.696  1.00  0.00    -0.200 F 
ENDBRANCH  51  65
BRANCH  52  76
ATOM     76  C   UNL A   1      42.374  26.358  27.793  1.00  0.00     0.064 A 
ATOM     77  C   UNL A   1      43.314  26.831  26.868  1.00  0.00     0.173 A 
ATOM     78  C   UNL A   1      41.841  25.076  27.587  1.00  0.00     0.173 A 
ATOM     79  F   UNL A   1      43.830  28.061  27.008  1.00  0.00    -0.203 F 
ATOM     80  C   UNL A   1      43.698  26.057  25.774  1.00  0.00     0.198 A 
ATOM     81  C   UNL A   1      42.246  24.293  26.508  1.00  0.00     0.198 A 
ATOM     82  F   UNL A   1      40.936  24.580  28.443  1.00  0.00    -0.203 F 
ATOM     83  F   UNL A   1      44.569  26.549  24.882  1.00  0.00    -0.200 F 
ATOM     84  C   UNL A   1      43.170  24.787  25.600  1.00  0.00     0.200 A 
ATOM     85  F   UNL A   1      41.739  23.063  26.349  1.00  0.00    -0.200 F 
ATOM     86  F   UNL A   1      43.544  24.041  24.551  1.00  0.00    -0.200 F 
ENDBRANCH  52  76
BRANCH  64  87
ATOM     87  C   UNL A   1      45.066  27.410  34.129  1.00  0.00     0.064 A 
ATOM     88  C   UNL A   1      45.017  26.219  34.868  1.00  0.00     0.173 A 
ATOM     89  C   UNL A   1      46.298  28.073  34.030  1.00  0.00     0.173 A 
ATOM     90  F   UNL A   1      43.859  25.556  35.004  1.00  0.00    -0.203 F 
ATOM     91  C   UNL A   1      46.152  25.729  35.510  1.00  0.00     0.198 A 
ATOM     92  C   UNL A   1      47.436  27.566  34.650  1.00  0.00     0.198 A 
ATOM     93  F   UNL A   1      46.398  29.213  33.330  1.00  0.00    -0.203 F 
ATOM     94  F   UNL A   1      46.071  24.616  36.253  1.00  0.00    -0.200 F 
ATOM     95  C   UNL A   1      47.360  26.399  35.397  1.00  0.00     0.200 A 
ATOM     96  F   UNL A   1      48.605  28.210  34.533  1.00  0.00    -0.200 F 
ATOM     97  F   UNL A   1      48.450  25.926  36.016  1.00  0.00    -0.200 F 
ENDBRANCH  64  87
ENDBRANCH  38  39
ENDBRANCH  31  33
ENDBRANCH  30  31
ENDBRANCH  29  30
ENDBRANCH   1  29
TORSDOF 15
ENDMDL
