MODEL 1
REMARK VINA RESULT:     -10.3      0.000      0.000
REMARK SMILES CCC[NH+]1CCC([NH2+]CC(C)(C)C(=O)OCCOC(=O)c2ccc(-c3c4nc(c(-c5c(F)c(F)c(F)c(F)c5F)c5ccc([nH]5)c(-c5c(F)c(F)c(F)c(F)c5F)c5nc(c(-c6c(F)c(F)c(F)c(F)c6F)c6ccc3[nH]6)C=C5)C=C4)cc2)CC1
REMARK SMILES IDX 15 1 13 2 14 3 10 4 11 5 12 6 9 7 8 8 7 11 4 12 5 13 85 14
REMARK SMILES IDX 6 16 84 17 3 18 2 19 1 20 16 21 17 22 18 23 19 24 20 25
REMARK SMILES IDX 21 26 22 27 83 28 23 29 82 30 24 31 25 32 26 33 76 34 27 35
REMARK SMILES IDX 81 36 75 37 77 38 28 39 80 40 74 41 73 42 29 44 61 45 41 46
REMARK SMILES IDX 60 47 42 48 45 49 59 50 78 51 43 52 44 53 58 55 79 56 46 57
REMARK SMILES IDX 30 58 31 59 39 60 32 61 33 62 37 63 40 64 34 65 35 66 38 67
REMARK SMILES IDX 36 68 62 69 63 70 71 71 64 72 65 73 69 74 72 75 66 76 67 77
REMARK SMILES IDX 70 78 68 79 47 80 48 81 56 82 49 83 50 84 54 85 57 86 51 87
REMARK SMILES IDX 52 88 55 89 53 90
REMARK H PARENT 8 9 8 10 4 15 77 43 45 54
REMARK Flexibility Score: inf
ROOT
ATOM      1  O   UNL A   1      33.383  34.543  30.089  1.00  0.00    -0.461 OA
ENDROOT
BRANCH   1   2
ATOM      2  C   UNL A   1      32.834  35.741  30.402  1.00  0.00     0.317 C 
ATOM      3  O   UNL A   1      32.359  36.443  29.525  1.00  0.00    -0.251 OA
BRANCH   2   4
ATOM      4  C   UNL A   1      32.815  36.147  31.878  1.00  0.00     0.111 C 
ATOM      5  C   UNL A   1      31.427  36.091  32.528  1.00  0.00     0.029 C 
ATOM      6  C   UNL A   1      33.275  37.623  31.876  1.00  0.00     0.029 C 
BRANCH   4   7
ATOM      7  C   UNL A   1      33.842  35.283  32.733  1.00  0.00     0.279 C 
BRANCH   7   8
ATOM      8  N   UNL A   1      33.674  33.847  33.114  1.00  0.00    -0.343 N 
ATOM      9  H   UNL A   1      33.024  33.806  33.900  1.00  0.00     0.346 HD
ATOM     10  H   UNL A   1      33.341  33.375  32.274  1.00  0.00     0.346 HD
BRANCH   8  11
ATOM     11  C   UNL A   1      34.904  33.140  33.509  1.00  0.00     0.193 C 
ATOM     12  N   UNL A   1      37.768  32.537  33.849  1.00  0.00    -0.335 N 
ATOM     13  C   UNL A   1      36.887  31.634  33.092  1.00  0.00     0.268 C 
ATOM     14  C   UNL A   1      37.045  33.399  34.771  1.00  0.00     0.268 C 
ATOM     15  H   UNL A   1      38.175  33.127  33.125  1.00  0.00     0.348 HD
ATOM     16  C   UNL A   1      35.673  32.356  32.429  1.00  0.00     0.126 C 
ATOM     17  C   UNL A   1      35.911  34.136  34.091  1.00  0.00     0.126 C 
BRANCH  12  18
ATOM     18  C   UNL A   1      38.911  31.883  34.513  1.00  0.00     0.261 C 
BRANCH  18  19
ATOM     19  C   UNL A   1      38.949  31.766  36.055  1.00  0.00     0.058 C 
ATOM     20  C   UNL A   1      38.130  30.626  36.637  1.00  0.00     0.010 C 
ENDBRANCH  18  19
ENDBRANCH  12  18
ENDBRANCH   8  11
ENDBRANCH   7   8
ENDBRANCH   4   7
ENDBRANCH   2   4
ENDBRANCH   1   2
BRANCH   1  21
ATOM     21  C   UNL A   1      34.406  34.628  29.057  1.00  0.00     0.274 C 
BRANCH  21  22
ATOM     22  C   UNL A   1      34.710  33.354  28.221  1.00  0.00     0.275 C 
BRANCH  22  23
ATOM     23  O   UNL A   1      34.542  32.091  28.917  1.00  0.00    -0.458 OA
BRANCH  23  24
ATOM     24  C   UNL A   1      34.584  30.975  28.140  1.00  0.00     0.338 C 
ATOM     25  O   UNL A   1      33.759  30.654  27.296  1.00  0.00    -0.246 OA
BRANCH  24  26
ATOM     26  C   UNL A   1      35.872  30.244  28.270  1.00  0.00     0.060 A 
ATOM     27  C   UNL A   1      36.143  29.672  29.517  1.00  0.00     0.016 A 
ATOM     28  C   UNL A   1      36.864  30.230  27.293  1.00  0.00     0.016 A 
ATOM     29  C   UNL A   1      37.351  29.032  29.788  1.00  0.00     0.010 A 
ATOM     30  C   UNL A   1      38.114  29.642  27.583  1.00  0.00     0.010 A 
ATOM     31  C   UNL A   1      38.368  29.043  28.834  1.00  0.00    -0.014 A 
BRANCH  31  32
ATOM     32  C   UNL A   1      39.734  28.607  29.236  1.00  0.00     0.031 A 
ATOM     33  C   UNL A   1      40.512  29.464  30.199  1.00  0.00     0.074 A 
ATOM     34  C   UNL A   1      40.253  27.429  28.841  1.00  0.00     0.049 A 
ATOM     35  N   UNL A   1      41.752  29.358  30.604  1.00  0.00    -0.248 NA
ATOM     36  C   UNL A   1      39.779  30.590  30.799  1.00  0.00     0.031 C 
ATOM     37  C   UNL A   1      39.561  26.430  28.032  1.00  0.00     0.029 A 
ATOM     38  N   UNL A   1      41.491  26.873  29.073  1.00  0.00    -0.354 N 
ATOM     39  C   UNL A   1      41.955  30.412  31.485  1.00  0.00     0.074 A 
ATOM     40  C   UNL A   1      40.712  31.151  31.554  1.00  0.00     0.031 C 
ATOM     41  C   UNL A   1      40.390  25.393  27.814  1.00  0.00     0.029 A 
ATOM     42  C   UNL A   1      41.689  25.679  28.421  1.00  0.00     0.049 A 
ATOM     43  H   UNL A   1      42.170  27.291  29.650  1.00  0.00     0.167 HD
ATOM     44  C   UNL A   1      43.076  30.738  32.169  1.00  0.00     0.037 A 
ATOM     45  C   UNL A   1      42.804  24.930  28.293  1.00  0.00     0.037 A 
ATOM     46  C   UNL A   1      44.311  29.999  32.104  1.00  0.00     0.049 A 
ATOM     47  C   UNL A   1      44.084  25.388  28.955  1.00  0.00     0.074 A 
ATOM     48  C   UNL A   1      45.516  30.274  32.727  1.00  0.00     0.029 A 
ATOM     49  N   UNL A   1      44.496  28.837  31.372  1.00  0.00    -0.354 N 
ATOM     50  N   UNL A   1      44.292  26.420  29.737  1.00  0.00    -0.248 NA
ATOM     51  C   UNL A   1      45.288  24.580  28.708  1.00  0.00     0.031 C 
ATOM     52  C   UNL A   1      46.446  29.309  32.328  1.00  0.00     0.029 A 
ATOM     53  C   UNL A   1      45.802  28.394  31.510  1.00  0.00     0.049 A 
ATOM     54  H   UNL A   1      43.803  28.392  30.834  1.00  0.00     0.167 HD
ATOM     55  C   UNL A   1      45.632  26.362  30.103  1.00  0.00     0.074 A 
ATOM     56  C   UNL A   1      46.188  25.187  29.468  1.00  0.00     0.031 C 
ATOM     57  C   UNL A   1      46.338  27.208  30.893  1.00  0.00     0.037 A 
BRANCH  44  58
ATOM     58  C   UNL A   1      43.041  31.985  33.006  1.00  0.00     0.064 A 
ATOM     59  C   UNL A   1      43.368  33.243  32.480  1.00  0.00     0.173 A 
ATOM     60  C   UNL A   1      42.645  31.918  34.351  1.00  0.00     0.173 A 
ATOM     61  F   UNL A   1      43.769  33.359  31.204  1.00  0.00    -0.203 F 
ATOM     62  C   UNL A   1      43.324  34.385  33.276  1.00  0.00     0.198 A 
ATOM     63  C   UNL A   1      42.570  33.066  35.135  1.00  0.00     0.198 A 
ATOM     64  F   UNL A   1      42.317  30.740  34.902  1.00  0.00    -0.203 F 
ATOM     65  F   UNL A   1      43.686  35.570  32.766  1.00  0.00    -0.200 F 
ATOM     66  C   UNL A   1      42.917  34.297  34.600  1.00  0.00     0.200 A 
ATOM     67  F   UNL A   1      42.163  32.980  36.409  1.00  0.00    -0.200 F 
ATOM     68  F   UNL A   1      42.867  35.398  35.362  1.00  0.00    -0.200 F 
ENDBRANCH  44  58
BRANCH  45  69
ATOM     69  C   UNL A   1      42.800  23.699  27.452  1.00  0.00     0.064 A 
ATOM     70  C   UNL A   1      42.401  22.458  27.975  1.00  0.00     0.173 A 
ATOM     71  C   UNL A   1      43.266  23.721  26.129  1.00  0.00     0.173 A 
ATOM     72  F   UNL A   1      41.982  22.372  29.246  1.00  0.00    -0.203 F 
ATOM     73  C   UNL A   1      42.496  21.291  27.219  1.00  0.00     0.198 A 
ATOM     74  C   UNL A   1      43.327  22.559  25.361  1.00  0.00     0.198 A 
ATOM     75  F   UNL A   1      43.677  24.874  25.579  1.00  0.00    -0.203 F 
ATOM     76  F   UNL A   1      42.177  20.112  27.769  1.00  0.00    -0.200 F 
ATOM     77  C   UNL A   1      42.954  21.343  25.911  1.00  0.00     0.200 A 
ATOM     78  F   UNL A   1      43.764  22.616  24.096  1.00  0.00    -0.200 F 
ATOM     79  F   UNL A   1      43.055  20.219  25.188  1.00  0.00    -0.200 F 
ENDBRANCH  45  69
BRANCH  57  80
ATOM     80  C   UNL A   1      47.776  26.865  31.175  1.00  0.00     0.064 A 
ATOM     81  C   UNL A   1      48.830  27.406  30.425  1.00  0.00     0.173 A 
ATOM     82  C   UNL A   1      48.102  26.021  32.249  1.00  0.00     0.173 A 
ATOM     83  F   UNL A   1      48.574  28.207  29.381  1.00  0.00    -0.203 F 
ATOM     84  C   UNL A   1      50.154  27.093  30.723  1.00  0.00     0.198 A 
ATOM     85  C   UNL A   1      49.427  25.739  32.565  1.00  0.00     0.198 A 
ATOM     86  F   UNL A   1      47.133  25.483  33.006  1.00  0.00    -0.203 F 
ATOM     87  F   UNL A   1      51.143  27.583  29.961  1.00  0.00    -0.200 F 
ATOM     88  C   UNL A   1      50.452  26.268  31.797  1.00  0.00     0.200 A 
ATOM     89  F   UNL A   1      49.714  24.956  33.614  1.00  0.00    -0.200 F 
ATOM     90  F   UNL A   1      51.728  25.979  32.088  1.00  0.00    -0.200 F 
ENDBRANCH  57  80
ENDBRANCH  31  32
ENDBRANCH  24  26
ENDBRANCH  23  24
ENDBRANCH  22  23
ENDBRANCH  21  22
ENDBRANCH   1  21
TORSDOF 16
ENDMDL
MODEL 2
REMARK VINA RESULT:     -10.1      4.320     10.025
REMARK SMILES CCC[NH+]1CCC([NH2+]CC(C)(C)C(=O)OCCOC(=O)c2ccc(-c3c4nc(c(-c5c(F)c(F)c(F)c(F)c5F)c5ccc([nH]5)c(-c5c(F)c(F)c(F)c(F)c5F)c5nc(c(-c6c(F)c(F)c(F)c(F)c6F)c6ccc3[nH]6)C=C5)C=C4)cc2)CC1
REMARK SMILES IDX 15 1 13 2 14 3 10 4 11 5 12 6 9 7 8 8 7 11 4 12 5 13 85 14
REMARK SMILES IDX 6 16 84 17 3 18 2 19 1 20 16 21 17 22 18 23 19 24 20 25
REMARK SMILES IDX 21 26 22 27 83 28 23 29 82 30 24 31 25 32 26 33 76 34 27 35
REMARK SMILES IDX 81 36 75 37 77 38 28 39 80 40 74 41 73 42 29 44 61 45 41 46
REMARK SMILES IDX 60 47 42 48 45 49 59 50 78 51 43 52 44 53 58 55 79 56 46 57
REMARK SMILES IDX 30 58 31 59 39 60 32 61 33 62 37 63 40 64 34 65 35 66 38 67
REMARK SMILES IDX 36 68 62 69 63 70 71 71 64 72 65 73 69 74 72 75 66 76 67 77
REMARK SMILES IDX 70 78 68 79 47 80 48 81 56 82 49 83 50 84 54 85 57 86 51 87
REMARK SMILES IDX 52 88 55 89 53 90
REMARK H PARENT 8 9 8 10 4 15 77 43 45 54
REMARK Flexibility Score: inf
ROOT
ATOM      1  O   UNL A   1      32.092  27.561  25.734  1.00  0.00    -0.461 OA
ENDROOT
BRANCH   1   2
ATOM      2  C   UNL A   1      32.807  26.434  25.508  1.00  0.00     0.317 C 
ATOM      3  O   UNL A   1      34.017  26.435  25.664  1.00  0.00    -0.251 OA
BRANCH   2   4
ATOM      4  C   UNL A   1      32.037  25.180  25.084  1.00  0.00     0.111 C 
ATOM      5  C   UNL A   1      30.952  24.743  26.077  1.00  0.00     0.029 C 
ATOM      6  C   UNL A   1      33.109  24.067  25.039  1.00  0.00     0.029 C 
BRANCH   4   7
ATOM      7  C   UNL A   1      31.400  25.349  23.636  1.00  0.00     0.279 C 
BRANCH   7   8
ATOM      8  N   UNL A   1      31.656  26.481  22.693  1.00  0.00    -0.343 N 
ATOM      9  H   UNL A   1      32.458  27.006  23.044  1.00  0.00     0.346 HD
ATOM     10  H   UNL A   1      31.807  26.052  21.781  1.00  0.00     0.346 HD
BRANCH   8  11
ATOM     11  C   UNL A   1      30.542  27.427  22.510  1.00  0.00     0.193 C 
ATOM     12  N   UNL A   1      28.828  29.795  22.873  1.00  0.00    -0.335 N 
ATOM     13  C   UNL A   1      28.306  28.438  23.100  1.00  0.00     0.268 C 
ATOM     14  C   UNL A   1      30.006  29.819  22.021  1.00  0.00     0.268 C 
ATOM     15  H   UNL A   1      29.110  30.095  23.805  1.00  0.00     0.348 HD
ATOM     16  C   UNL A   1      29.398  27.414  23.540  1.00  0.00     0.126 C 
ATOM     17  C   UNL A   1      31.076  28.862  22.504  1.00  0.00     0.126 C 
BRANCH  12  18
ATOM     18  C   UNL A   1      27.827  30.783  22.428  1.00  0.00     0.261 C 
BRANCH  18  19
ATOM     19  C   UNL A   1      28.284  32.127  21.813  1.00  0.00     0.058 C 
ATOM     20  C   UNL A   1      28.799  33.151  22.811  1.00  0.00     0.010 C 
ENDBRANCH  18  19
ENDBRANCH  12  18
ENDBRANCH   8  11
ENDBRANCH   7   8
ENDBRANCH   4   7
ENDBRANCH   2   4
ENDBRANCH   1   2
BRANCH   1  21
ATOM     21  C   UNL A   1      32.825  28.781  25.426  1.00  0.00     0.274 C 
BRANCH  21  22
ATOM     22  C   UNL A   1      32.216  30.135  25.885  1.00  0.00     0.275 C 
BRANCH  22  23
ATOM     23  O   UNL A   1      32.521  30.533  27.247  1.00  0.00    -0.458 OA
BRANCH  23  24
ATOM     24  C   UNL A   1      33.280  31.653  27.383  1.00  0.00     0.338 C 
ATOM     25  O   UNL A   1      32.884  32.807  27.293  1.00  0.00    -0.246 OA
BRANCH  24  26
ATOM     26  C   UNL A   1      34.654  31.350  27.863  1.00  0.00     0.060 A 
ATOM     27  C   UNL A   1      34.882  30.050  28.327  1.00  0.00     0.016 A 
ATOM     28  C   UNL A   1      35.655  32.305  28.017  1.00  0.00     0.016 A 
ATOM     29  C   UNL A   1      36.104  29.667  28.877  1.00  0.00     0.010 A 
ATOM     30  C   UNL A   1      36.872  31.941  28.634  1.00  0.00     0.010 A 
ATOM     31  C   UNL A   1      37.102  30.620  29.072  1.00  0.00    -0.014 A 
BRANCH  31  32
ATOM     32  C   UNL A   1      38.283  30.263  29.908  1.00  0.00     0.031 A 
ATOM     33  C   UNL A   1      39.319  29.334  29.334  1.00  0.00     0.074 A 
ATOM     34  C   UNL A   1      38.497  30.817  31.116  1.00  0.00     0.049 A 
ATOM     35  N   UNL A   1      40.364  28.788  29.903  1.00  0.00    -0.248 NA
ATOM     36  C   UNL A   1      39.159  28.986  27.913  1.00  0.00     0.031 C 
ATOM     37  C   UNL A   1      37.660  31.841  31.736  1.00  0.00     0.029 A 
ATOM     38  N   UNL A   1      39.492  30.594  32.040  1.00  0.00    -0.354 N 
ATOM     39  C   UNL A   1      40.971  28.017  28.921  1.00  0.00     0.074 A 
ATOM     40  C   UNL A   1      40.176  28.160  27.719  1.00  0.00     0.031 C 
ATOM     41  C   UNL A   1      38.163  32.142  32.947  1.00  0.00     0.029 A 
ATOM     42  C   UNL A   1      39.324  31.293  33.211  1.00  0.00     0.049 A 
ATOM     43  H   UNL A   1      40.253  29.991  31.877  1.00  0.00     0.167 HD
ATOM     44  C   UNL A   1      42.085  27.254  29.013  1.00  0.00     0.037 A 
ATOM     45  C   UNL A   1      40.001  31.220  34.376  1.00  0.00     0.037 A 
ATOM     46  C   UNL A   1      42.878  27.117  30.208  1.00  0.00     0.049 A 
ATOM     47  C   UNL A   1      41.160  30.257  34.499  1.00  0.00     0.074 A 
ATOM     48  C   UNL A   1      44.002  26.334  30.414  1.00  0.00     0.029 A 
ATOM     49  N   UNL A   1      42.632  27.782  31.398  1.00  0.00    -0.354 N 
ATOM     50  N   UNL A   1      41.696  29.480  33.588  1.00  0.00    -0.248 NA
ATOM     51  C   UNL A   1      41.805  30.155  35.818  1.00  0.00     0.031 C 
ATOM     52  C   UNL A   1      44.401  26.483  31.745  1.00  0.00     0.029 A 
ATOM     53  C   UNL A   1      43.567  27.410  32.350  1.00  0.00     0.049 A 
ATOM     54  H   UNL A   1      41.899  28.423  31.546  1.00  0.00     0.167 HD
ATOM     55  C   UNL A   1      42.756  28.831  34.211  1.00  0.00     0.074 A 
ATOM     56  C   UNL A   1      42.798  29.312  35.574  1.00  0.00     0.031 C 
ATOM     57  C   UNL A   1      43.616  27.916  33.698  1.00  0.00     0.037 A 
BRANCH  44  58
ATOM     58  C   UNL A   1      42.484  26.457  27.804  1.00  0.00     0.064 A 
ATOM     59  C   UNL A   1      41.915  25.208  27.515  1.00  0.00     0.173 A 
ATOM     60  C   UNL A   1      43.432  26.971  26.905  1.00  0.00     0.173 A 
ATOM     61  F   UNL A   1      41.015  24.666  28.351  1.00  0.00    -0.203 F 
ATOM     62  C   UNL A   1      42.299  24.491  26.384  1.00  0.00     0.198 A 
ATOM     63  C   UNL A   1      43.789  26.266  25.759  1.00  0.00     0.198 A 
ATOM     64  F   UNL A   1      44.003  28.163  27.131  1.00  0.00    -0.203 F 
ATOM     65  F   UNL A   1      41.777  23.279  26.153  1.00  0.00    -0.200 F 
ATOM     66  C   UNL A   1      43.229  25.024  25.503  1.00  0.00     0.200 A 
ATOM     67  F   UNL A   1      44.677  26.789  24.902  1.00  0.00    -0.200 F 
ATOM     68  F   UNL A   1      43.591  24.336  24.412  1.00  0.00    -0.200 F 
ENDBRANCH  44  58
BRANCH  45  69
ATOM     69  C   UNL A   1      39.574  32.026  35.555  1.00  0.00     0.064 A 
ATOM     70  C   UNL A   1      38.609  31.549  36.457  1.00  0.00     0.173 A 
ATOM     71  C   UNL A   1      40.067  33.324  35.764  1.00  0.00     0.173 A 
ATOM     72  F   UNL A   1      38.077  30.331  36.283  1.00  0.00    -0.203 F 
ATOM     73  C   UNL A   1      38.136  32.346  37.498  1.00  0.00     0.198 A 
ATOM     74  C   UNL A   1      39.619  34.107  36.827  1.00  0.00     0.198 A 
ATOM     75  F   UNL A   1      40.978  33.841  34.926  1.00  0.00    -0.203 F 
ATOM     76  F   UNL A   1      37.163  31.891  38.298  1.00  0.00    -0.200 F 
ATOM     77  C   UNL A   1      38.645  33.622  37.686  1.00  0.00     0.200 A 
ATOM     78  F   UNL A   1      40.119  35.337  37.008  1.00  0.00    -0.200 F 
ATOM     79  F   UNL A   1      38.183  34.392  38.681  1.00  0.00    -0.200 F 
ENDBRANCH  45  69
BRANCH  57  80
ATOM     80  C   UNL A   1      44.722  27.420  34.589  1.00  0.00     0.064 A 
ATOM     81  C   UNL A   1      45.947  28.092  34.698  1.00  0.00     0.173 A 
ATOM     82  C   UNL A   1      44.527  26.281  35.387  1.00  0.00     0.173 A 
ATOM     83  F   UNL A   1      46.192  29.178  33.950  1.00  0.00    -0.203 F 
ATOM     84  C   UNL A   1      46.946  27.627  35.551  1.00  0.00     0.198 A 
ATOM     85  C   UNL A   1      45.513  25.839  36.263  1.00  0.00     0.198 A 
ATOM     86  F   UNL A   1      43.369  25.605  35.330  1.00  0.00    -0.203 F 
ATOM     87  F   UNL A   1      48.129  28.257  35.601  1.00  0.00    -0.200 F 
ATOM     88  C   UNL A   1      46.725  26.507  36.339  1.00  0.00     0.200 A 
ATOM     89  F   UNL A   1      45.290  24.768  37.037  1.00  0.00    -0.200 F 
ATOM     90  F   UNL A   1      47.683  26.069  37.167  1.00  0.00    -0.200 F 
ENDBRANCH  57  80
ENDBRANCH  31  32
ENDBRANCH  24  26
ENDBRANCH  23  24
ENDBRANCH  22  23
ENDBRANCH  21  22
ENDBRANCH   1  21
TORSDOF 16
ENDMDL
MODEL 3
REMARK VINA RESULT:     -10.1      4.110      9.888
REMARK SMILES CCC[NH+]1CCC([NH2+]CC(C)(C)C(=O)OCCOC(=O)c2ccc(-c3c4nc(c(-c5c(F)c(F)c(F)c(F)c5F)c5ccc([nH]5)c(-c5c(F)c(F)c(F)c(F)c5F)c5nc(c(-c6c(F)c(F)c(F)c(F)c6F)c6ccc3[nH]6)C=C5)C=C4)cc2)CC1
REMARK SMILES IDX 15 1 13 2 14 3 10 4 11 5 12 6 9 7 8 8 7 11 4 12 5 13 85 14
REMARK SMILES IDX 6 16 84 17 3 18 2 19 1 20 16 21 17 22 18 23 19 24 20 25
REMARK SMILES IDX 21 26 22 27 83 28 23 29 82 30 24 31 25 32 26 33 76 34 27 35
REMARK SMILES IDX 81 36 75 37 77 38 28 39 80 40 74 41 73 42 29 44 61 45 41 46
REMARK SMILES IDX 60 47 42 48 45 49 59 50 78 51 43 52 44 53 58 55 79 56 46 57
REMARK SMILES IDX 30 58 31 59 39 60 32 61 33 62 37 63 40 64 34 65 35 66 38 67
REMARK SMILES IDX 36 68 62 69 63 70 71 71 64 72 65 73 69 74 72 75 66 76 67 77
REMARK SMILES IDX 70 78 68 79 47 80 48 81 56 82 49 83 50 84 54 85 57 86 51 87
REMARK SMILES IDX 52 88 55 89 53 90
REMARK H PARENT 8 9 8 10 4 15 77 43 45 54
REMARK Flexibility Score: inf
ROOT
ATOM      1  O   UNL A   1      31.528  27.722  25.400  1.00  0.00    -0.461 OA
ENDROOT
BRANCH   1   2
ATOM      2  C   UNL A   1      31.488  26.959  24.283  1.00  0.00     0.317 C 
ATOM      3  O   UNL A   1      32.237  27.202  23.350  1.00  0.00    -0.251 OA
BRANCH   2   4
ATOM      4  C   UNL A   1      30.501  25.790  24.259  1.00  0.00     0.111 C 
ATOM      5  C   UNL A   1      30.779  24.755  23.160  1.00  0.00     0.029 C 
ATOM      6  C   UNL A   1      29.134  26.445  23.953  1.00  0.00     0.029 C 
BRANCH   4   7
ATOM      7  C   UNL A   1      30.425  25.062  25.672  1.00  0.00     0.279 C 
BRANCH   7   8
ATOM      8  N   UNL A   1      31.483  25.087  26.728  1.00  0.00    -0.343 N 
ATOM      9  H   UNL A   1      31.915  26.011  26.716  1.00  0.00     0.346 HD
ATOM     10  H   UNL A   1      31.007  24.862  27.601  1.00  0.00     0.346 HD
BRANCH   8  11
ATOM     11  C   UNL A   1      32.554  24.086  26.587  1.00  0.00     0.193 C 
ATOM     12  N   UNL A   1      34.694  22.469  25.371  1.00  0.00    -0.335 N 
ATOM     13  C   UNL A   1      33.480  21.837  25.912  1.00  0.00     0.268 C 
ATOM     14  C   UNL A   1      34.944  23.791  25.922  1.00  0.00     0.268 C 
ATOM     15  H   UNL A   1      34.479  22.578  24.381  1.00  0.00     0.348 HD
ATOM     16  C   UNL A   1      32.225  22.762  25.873  1.00  0.00     0.126 C 
ATOM     17  C   UNL A   1      33.730  24.690  25.816  1.00  0.00     0.126 C 
BRANCH  12  18
ATOM     18  C   UNL A   1      35.908  21.632  25.419  1.00  0.00     0.261 C 
BRANCH  18  19
ATOM     19  C   UNL A   1      36.976  21.751  24.307  1.00  0.00     0.058 C 
ATOM     20  C   UNL A   1      36.712  22.830  23.270  1.00  0.00     0.010 C 
ENDBRANCH  18  19
ENDBRANCH  12  18
ENDBRANCH   8  11
ENDBRANCH   7   8
ENDBRANCH   4   7
ENDBRANCH   2   4
ENDBRANCH   1   2
BRANCH   1  21
ATOM     21  C   UNL A   1      31.505  29.151  25.125  1.00  0.00     0.274 C 
BRANCH  21  22
ATOM     22  C   UNL A   1      32.689  30.015  25.643  1.00  0.00     0.275 C 
BRANCH  22  23
ATOM     23  O   UNL A   1      32.537  30.553  26.983  1.00  0.00    -0.458 OA
BRANCH  23  24
ATOM     24  C   UNL A   1      33.245  31.682  27.253  1.00  0.00     0.338 C 
ATOM     25  O   UNL A   1      32.808  32.825  27.252  1.00  0.00    -0.246 OA
BRANCH  24  26
ATOM     26  C   UNL A   1      34.610  31.384  27.761  1.00  0.00     0.060 A 
ATOM     27  C   UNL A   1      34.829  30.091  28.246  1.00  0.00     0.016 A 
ATOM     28  C   UNL A   1      35.610  32.342  27.919  1.00  0.00     0.016 A 
ATOM     29  C   UNL A   1      36.041  29.715  28.823  1.00  0.00     0.010 A 
ATOM     30  C   UNL A   1      36.815  31.985  28.562  1.00  0.00     0.010 A 
ATOM     31  C   UNL A   1      37.037  30.670  29.022  1.00  0.00    -0.014 A 
BRANCH  31  32
ATOM     32  C   UNL A   1      38.202  30.323  29.883  1.00  0.00     0.031 A 
ATOM     33  C   UNL A   1      39.259  29.404  29.331  1.00  0.00     0.074 A 
ATOM     34  C   UNL A   1      38.385  30.878  31.096  1.00  0.00     0.049 A 
ATOM     35  N   UNL A   1      40.297  28.868  29.923  1.00  0.00    -0.248 NA
ATOM     36  C   UNL A   1      39.133  29.055  27.907  1.00  0.00     0.031 C 
ATOM     37  C   UNL A   1      37.526  31.895  31.697  1.00  0.00     0.029 A 
ATOM     38  N   UNL A   1      39.363  30.664  32.040  1.00  0.00    -0.354 N 
ATOM     39  C   UNL A   1      40.931  28.102  28.953  1.00  0.00     0.074 A 
ATOM     40  C   UNL A   1      40.161  28.238  27.735  1.00  0.00     0.031 C 
ATOM     41  C   UNL A   1      38.000  32.200  32.919  1.00  0.00     0.029 A 
ATOM     42  C   UNL A   1      39.163  31.361  33.208  1.00  0.00     0.049 A 
ATOM     43  H   UNL A   1      40.132  30.068  31.894  1.00  0.00     0.167 HD
ATOM     44  C   UNL A   1      42.051  27.349  29.069  1.00  0.00     0.037 A 
ATOM     45  C   UNL A   1      39.815  31.294  34.387  1.00  0.00     0.037 A 
ATOM     46  C   UNL A   1      42.819  27.219  30.281  1.00  0.00     0.049 A 
ATOM     47  C   UNL A   1      40.980  30.342  34.535  1.00  0.00     0.074 A 
ATOM     48  C   UNL A   1      43.945  26.447  30.511  1.00  0.00     0.029 A 
ATOM     49  N   UNL A   1      42.541  27.882  31.466  1.00  0.00    -0.354 N 
ATOM     50  N   UNL A   1      41.542  29.570  33.635  1.00  0.00    -0.248 NA
ATOM     51  C   UNL A   1      41.598  30.245  35.867  1.00  0.00     0.031 C 
ATOM     52  C   UNL A   1      44.314  26.599  31.850  1.00  0.00     0.029 A 
ATOM     53  C   UNL A   1      43.459  27.518  32.438  1.00  0.00     0.049 A 
ATOM     54  H   UNL A   1      41.800  28.515  31.598  1.00  0.00     0.167 HD
ATOM     55  C   UNL A   1      42.595  28.930  34.281  1.00  0.00     0.074 A 
ATOM     56  C   UNL A   1      42.604  29.411  35.645  1.00  0.00     0.031 C 
ATOM     57  C   UNL A   1      43.474  28.024  33.786  1.00  0.00     0.037 A 
BRANCH  44  58
ATOM     58  C   UNL A   1      42.482  26.557  27.869  1.00  0.00     0.064 A 
ATOM     59  C   UNL A   1      41.942  25.297  27.576  1.00  0.00     0.173 A 
ATOM     60  C   UNL A   1      43.434  27.086  26.982  1.00  0.00     0.173 A 
ATOM     61  F   UNL A   1      41.041  24.739  28.400  1.00  0.00    -0.203 F 
ATOM     62  C   UNL A   1      42.357  24.584  26.453  1.00  0.00     0.198 A 
ATOM     63  C   UNL A   1      43.822  26.385  25.844  1.00  0.00     0.198 A 
ATOM     64  F   UNL A   1      43.978  28.290  27.213  1.00  0.00    -0.203 F 
ATOM     65  F   UNL A   1      41.862  23.361  26.218  1.00  0.00    -0.200 F 
ATOM     66  C   UNL A   1      43.289  25.132  25.584  1.00  0.00     0.200 A 
ATOM     67  F   UNL A   1      44.712  26.923  24.998  1.00  0.00    -0.200 F 
ATOM     68  F   UNL A   1      43.681  24.448  24.500  1.00  0.00    -0.200 F 
ENDBRANCH  44  58
BRANCH  45  69
ATOM     69  C   UNL A   1      39.356  32.096  35.557  1.00  0.00     0.064 A 
ATOM     70  C   UNL A   1      39.869  33.378  35.811  1.00  0.00     0.173 A 
ATOM     71  C   UNL A   1      38.449  31.567  36.489  1.00  0.00     0.173 A 
ATOM     72  F   UNL A   1      40.767  33.916  34.975  1.00  0.00    -0.203 F 
ATOM     73  C   UNL A   1      39.515  34.082  36.962  1.00  0.00     0.198 A 
ATOM     74  C   UNL A   1      38.069  32.287  37.620  1.00  0.00     0.198 A 
ATOM     75  F   UNL A   1      37.938  30.340  36.309  1.00  0.00    -0.203 F 
ATOM     76  F   UNL A   1      40.077  35.272  37.214  1.00  0.00    -0.200 F 
ATOM     77  C   UNL A   1      38.612  33.539  37.862  1.00  0.00     0.200 A 
ATOM     78  F   UNL A   1      37.190  31.760  38.483  1.00  0.00    -0.200 F 
ATOM     79  F   UNL A   1      38.281  34.212  38.972  1.00  0.00    -0.200 F 
ENDBRANCH  45  69
BRANCH  57  80
ATOM     80  C   UNL A   1      44.565  27.537  34.701  1.00  0.00     0.064 A 
ATOM     81  C   UNL A   1      45.791  28.207  34.818  1.00  0.00     0.173 A 
ATOM     82  C   UNL A   1      44.355  26.410  35.513  1.00  0.00     0.173 A 
ATOM     83  F   UNL A   1      46.051  29.280  34.057  1.00  0.00    -0.203 F 
ATOM     84  C   UNL A   1      46.776  27.751  35.692  1.00  0.00     0.198 A 
ATOM     85  C   UNL A   1      45.327  25.979  36.409  1.00  0.00     0.198 A 
ATOM     86  F   UNL A   1      43.195  25.737  35.448  1.00  0.00    -0.203 F 
ATOM     87  F   UNL A   1      47.960  28.378  35.750  1.00  0.00    -0.200 F 
ATOM     88  C   UNL A   1      46.539  26.644  36.493  1.00  0.00     0.200 A 
ATOM     89  F   UNL A   1      45.089  24.920  37.196  1.00  0.00    -0.200 F 
ATOM     90  F   UNL A   1      47.484  26.215  37.342  1.00  0.00    -0.200 F 
ENDBRANCH  57  80
ENDBRANCH  31  32
ENDBRANCH  24  26
ENDBRANCH  23  24
ENDBRANCH  22  23
ENDBRANCH  21  22
ENDBRANCH   1  21
TORSDOF 16
ENDMDL
