MODEL 1
REMARK VINA RESULT:     -10.8      0.000      0.000
REMARK SMILES COc1ccc(C[N@@H+](CC(=O)OCCOC(=O)c2ccc(-c3c4nc(c(-c5c(F)c(F)c(F)c(F)c5F)c5ccc([nH]5)c(-c5c(F)c(F)c(F)c(F)c5F)c5nc(c(-c6c(F)c(F)c(F)c(F)c6F)c6ccc3[nH]6)C=C5)C=C4)cc2)C(C)(C)C)cc1C#N
REMARK SMILES IDX 13 1 12 2 10 3 11 4 9 5 8 6 7 8 6 9 3 10 4 11 86 12 5 13
REMARK SMILES IDX 85 14 2 15 1 16 87 17 88 18 81 19 82 20 83 21 84 22 14 23
REMARK SMILES IDX 15 24 16 25 17 26 18 27 19 28 80 29 20 30 79 31 21 32 22 33
REMARK SMILES IDX 23 34 73 35 24 36 78 37 72 38 74 39 25 40 77 41 71 42 70 43
REMARK SMILES IDX 26 45 58 46 38 47 57 48 39 49 42 50 56 51 75 52 40 53 41 54
REMARK SMILES IDX 55 56 76 57 43 58 27 59 28 60 36 61 29 62 30 63 34 64 37 65
REMARK SMILES IDX 31 66 32 67 35 68 33 69 59 70 60 71 68 72 61 73 62 74 66 75
REMARK SMILES IDX 69 76 63 77 64 78 67 79 65 80 44 81 45 82 53 83 46 84 47 85
REMARK SMILES IDX 51 86 54 87 48 88 49 89 52 90 50 91
REMARK H PARENT 8 7 74 44 42 55
REMARK Flexibility Score: inf
ROOT
ATOM      1  C   UNL A   1      31.395  31.824  26.875  1.00  0.00     0.274 C 
ENDROOT
BRANCH   1   2
ATOM      2  O   UNL A   1      31.758  30.841  25.865  1.00  0.00    -0.458 OA
BRANCH   2   3
ATOM      3  C   UNL A   1      32.222  29.632  26.288  1.00  0.00     0.361 C 
ATOM      4  O   UNL A   1      31.769  29.053  27.276  1.00  0.00    -0.245 OA
BRANCH   3   5
ATOM      5  C   UNL A   1      33.330  28.973  25.424  1.00  0.00     0.387 C 
BRANCH   5   6
ATOM      6  N   UNL A   1      33.120  27.653  24.750  1.00  0.00    -0.318 N 
ATOM      7  H   UNL A   1      32.118  27.478  24.676  1.00  0.00     0.349 HD
BRANCH   6   8
ATOM      8  C   UNL A   1      33.674  26.601  25.611  1.00  0.00     0.299 C 
BRANCH   8   9
ATOM      9  C   UNL A   1      32.732  25.506  26.009  1.00  0.00     0.008 A 
ATOM     10  C   UNL A   1      31.025  23.331  26.351  1.00  0.00     0.136 A 
ATOM     11  C   UNL A   1      30.498  24.624  26.234  1.00  0.00     0.048 A 
ATOM     12  C   UNL A   1      32.408  23.121  26.317  1.00  0.00     0.094 A 
ATOM     13  C   UNL A   1      31.350  25.716  26.083  1.00  0.00     0.013 A 
ATOM     14  C   UNL A   1      33.255  24.217  26.184  1.00  0.00     0.033 A 
BRANCH  10  15
ATOM     15  O   UNL A   1      30.110  22.313  26.387  1.00  0.00    -0.495 OA
ATOM     16  C   UNL A   1      29.112  22.538  27.382  1.00  0.00     0.278 C 
ENDBRANCH  10  15
BRANCH  12  17
ATOM     17  C   UNL A   1      33.012  21.821  26.313  1.00  0.00     0.103 C 
ATOM     18  N   UNL A   1      33.449  20.749  26.294  1.00  0.00    -0.192 NA
ENDBRANCH  12  17
ENDBRANCH   8   9
ENDBRANCH   6   8
BRANCH   6  19
ATOM     19  C   UNL A   1      33.156  27.547  23.245  1.00  0.00     0.090 C 
ATOM     20  C   UNL A   1      34.083  28.552  22.499  1.00  0.00     0.078 C 
ATOM     21  C   UNL A   1      33.672  26.150  22.777  1.00  0.00     0.078 C 
ATOM     22  C   UNL A   1      31.735  27.538  22.606  1.00  0.00     0.078 C 
ENDBRANCH   6  19
ENDBRANCH   5   6
ENDBRANCH   3   5
ENDBRANCH   2   3
ENDBRANCH   1   2
BRANCH   1  23
ATOM     23  C   UNL A   1      32.563  32.802  27.174  1.00  0.00     0.275 C 
BRANCH  23  24
ATOM     24  O   UNL A   1      32.147  34.105  27.675  1.00  0.00    -0.458 OA
BRANCH  24  25
ATOM     25  C   UNL A   1      32.956  34.526  28.656  1.00  0.00     0.338 C 
ATOM     26  O   UNL A   1      32.704  35.455  29.398  1.00  0.00    -0.246 OA
BRANCH  25  27
ATOM     27  C   UNL A   1      34.223  33.888  28.949  1.00  0.00     0.060 A 
ATOM     28  C   UNL A   1      34.123  32.878  29.916  1.00  0.00     0.016 A 
ATOM     29  C   UNL A   1      35.426  34.552  28.724  1.00  0.00     0.016 A 
ATOM     30  C   UNL A   1      35.214  32.569  30.704  1.00  0.00     0.010 A 
ATOM     31  C   UNL A   1      36.563  34.128  29.419  1.00  0.00     0.010 A 
ATOM     32  C   UNL A   1      36.464  33.120  30.396  1.00  0.00    -0.014 A 
BRANCH  32  33
ATOM     33  C   UNL A   1      37.666  32.481  30.976  1.00  0.00     0.031 A 
ATOM     34  C   UNL A   1      38.402  31.382  30.280  1.00  0.00     0.074 A 
ATOM     35  C   UNL A   1      38.051  32.918  32.192  1.00  0.00     0.049 A 
ATOM     36  N   UNL A   1      39.378  30.640  30.736  1.00  0.00    -0.248 NA
ATOM     37  C   UNL A   1      37.987  31.057  28.909  1.00  0.00     0.031 C 
ATOM     38  C   UNL A   1      37.398  33.997  32.946  1.00  0.00     0.029 A 
ATOM     39  N   UNL A   1      39.073  32.524  33.013  1.00  0.00    -0.354 N 
ATOM     40  C   UNL A   1      39.676  29.738  29.725  1.00  0.00     0.074 A 
ATOM     41  C   UNL A   1      38.765  30.016  28.633  1.00  0.00     0.031 C 
ATOM     42  C   UNL A   1      38.054  34.204  34.089  1.00  0.00     0.029 A 
ATOM     43  C   UNL A   1      39.095  33.199  34.208  1.00  0.00     0.049 A 
ATOM     44  H   UNL A   1      39.724  31.827  32.770  1.00  0.00     0.167 HD
ATOM     45  C   UNL A   1      40.622  28.768  29.728  1.00  0.00     0.037 A 
ATOM     46  C   UNL A   1      39.830  32.996  35.314  1.00  0.00     0.037 A 
ATOM     47  C   UNL A   1      41.516  28.521  30.835  1.00  0.00     0.049 A 
ATOM     48  C   UNL A   1      40.826  31.881  35.302  1.00  0.00     0.074 A 
ATOM     49  C   UNL A   1      42.529  27.583  30.932  1.00  0.00     0.029 A 
ATOM     50  N   UNL A   1      41.497  29.213  32.040  1.00  0.00    -0.354 N 
ATOM     51  N   UNL A   1      41.104  31.034  34.341  1.00  0.00    -0.248 NA
ATOM     52  C   UNL A   1      41.609  31.688  36.525  1.00  0.00     0.031 C 
ATOM     53  C   UNL A   1      43.071  27.657  32.219  1.00  0.00     0.029 A 
ATOM     54  C   UNL A   1      42.458  28.698  32.898  1.00  0.00     0.049 A 
ATOM     55  H   UNL A   1      40.891  29.958  32.254  1.00  0.00     0.167 HD
ATOM     56  C   UNL A   1      42.113  30.223  34.831  1.00  0.00     0.074 A 
ATOM     57  C   UNL A   1      42.410  30.695  36.169  1.00  0.00     0.031 C 
ATOM     58  C   UNL A   1      42.737  29.181  34.229  1.00  0.00     0.037 A 
BRANCH  45  59
ATOM     59  C   UNL A   1      40.719  27.871  28.525  1.00  0.00     0.064 A 
ATOM     60  C   UNL A   1      40.027  26.654  28.443  1.00  0.00     0.173 A 
ATOM     61  C   UNL A   1      41.474  28.267  27.408  1.00  0.00     0.173 A 
ATOM     62  F   UNL A   1      39.295  26.222  29.481  1.00  0.00    -0.203 F 
ATOM     63  C   UNL A   1      40.106  25.857  27.303  1.00  0.00     0.198 A 
ATOM     64  C   UNL A   1      41.523  27.485  26.256  1.00  0.00     0.198 A 
ATOM     65  F   UNL A   1      42.151  29.425  27.425  1.00  0.00    -0.203 F 
ATOM     66  F   UNL A   1      39.473  24.677  27.267  1.00  0.00    -0.200 F 
ATOM     67  C   UNL A   1      40.847  26.277  26.207  1.00  0.00     0.200 A 
ATOM     68  F   UNL A   1      42.224  27.904  25.193  1.00  0.00    -0.200 F 
ATOM     69  F   UNL A   1      40.910  25.516  25.106  1.00  0.00    -0.200 F 
ENDBRANCH  45  59
BRANCH  46  70
ATOM     70  C   UNL A   1      39.605  33.844  36.512  1.00  0.00     0.064 A 
ATOM     71  C   UNL A   1      38.801  33.399  37.567  1.00  0.00     0.173 A 
ATOM     72  C   UNL A   1      40.216  35.103  36.640  1.00  0.00     0.173 A 
ATOM     73  F   UNL A   1      38.191  32.208  37.489  1.00  0.00    -0.203 F 
ATOM     74  C   UNL A   1      38.593  34.191  38.695  1.00  0.00     0.198 A 
ATOM     75  C   UNL A   1      40.042  35.874  37.785  1.00  0.00     0.198 A 
ATOM     76  F   UNL A   1      41.013  35.567  35.667  1.00  0.00    -0.203 F 
ATOM     77  F   UNL A   1      37.779  33.764  39.668  1.00  0.00    -0.200 F 
ATOM     78  C   UNL A   1      39.221  35.424  38.807  1.00  0.00     0.200 A 
ATOM     79  F   UNL A   1      40.674  37.050  37.900  1.00  0.00    -0.200 F 
ATOM     80  F   UNL A   1      39.029  36.179  39.896  1.00  0.00    -0.200 F 
ENDBRANCH  46  70
BRANCH  58  81
ATOM     81  C   UNL A   1      43.838  28.515  35.001  1.00  0.00     0.064 A 
ATOM     82  C   UNL A   1      43.603  27.397  35.815  1.00  0.00     0.173 A 
ATOM     83  C   UNL A   1      45.153  28.994  34.907  1.00  0.00     0.173 A 
ATOM     84  F   UNL A   1      42.358  26.913  35.956  1.00  0.00    -0.203 F 
ATOM     85  C   UNL A   1      44.638  26.807  36.535  1.00  0.00     0.198 A 
ATOM     86  C   UNL A   1      46.193  28.374  35.594  1.00  0.00     0.198 A 
ATOM     87  F   UNL A   1      45.435  30.058  34.139  1.00  0.00    -0.203 F 
ATOM     88  F   UNL A   1      44.377  25.782  37.359  1.00  0.00    -0.200 F 
ATOM     89  C   UNL A   1      45.932  27.289  36.415  1.00  0.00     0.200 A 
ATOM     90  F   UNL A   1      47.446  28.830  35.461  1.00  0.00    -0.200 F 
ATOM     91  F   UNL A   1      46.928  26.713  37.101  1.00  0.00    -0.200 F 
ENDBRANCH  58  81
ENDBRANCH  32  33
ENDBRANCH  25  27
ENDBRANCH  24  25
ENDBRANCH  23  24
ENDBRANCH   1  23
TORSDOF 17
ENDMDL
MODEL 2
REMARK VINA RESULT:     -10.7      4.868     10.355
REMARK SMILES COc1ccc(C[N@@H+](CC(=O)OCCOC(=O)c2ccc(-c3c4nc(c(-c5c(F)c(F)c(F)c(F)c5F)c5ccc([nH]5)c(-c5c(F)c(F)c(F)c(F)c5F)c5nc(c(-c6c(F)c(F)c(F)c(F)c6F)c6ccc3[nH]6)C=C5)C=C4)cc2)C(C)(C)C)cc1C#N
REMARK SMILES IDX 13 1 12 2 10 3 11 4 9 5 8 6 7 8 6 9 3 10 4 11 86 12 5 13
REMARK SMILES IDX 85 14 2 15 1 16 87 17 88 18 81 19 82 20 83 21 84 22 14 23
REMARK SMILES IDX 15 24 16 25 17 26 18 27 19 28 80 29 20 30 79 31 21 32 22 33
REMARK SMILES IDX 23 34 73 35 24 36 78 37 72 38 74 39 25 40 77 41 71 42 70 43
REMARK SMILES IDX 26 45 58 46 38 47 57 48 39 49 42 50 56 51 75 52 40 53 41 54
REMARK SMILES IDX 55 56 76 57 43 58 27 59 28 60 36 61 29 62 30 63 34 64 37 65
REMARK SMILES IDX 31 66 32 67 35 68 33 69 59 70 60 71 68 72 61 73 62 74 66 75
REMARK SMILES IDX 69 76 63 77 64 78 67 79 65 80 44 81 45 82 53 83 46 84 47 85
REMARK SMILES IDX 51 86 54 87 48 88 49 89 52 90 50 91
REMARK H PARENT 8 7 74 44 42 55
REMARK Flexibility Score: inf
ROOT
ATOM      1  C   UNL A   1      35.559  21.528  25.558  1.00  0.00     0.274 C 
ENDROOT
BRANCH   1   2
ATOM      2  O   UNL A   1      34.775  21.578  24.333  1.00  0.00    -0.458 OA
BRANCH   2   3
ATOM      3  C   UNL A   1      34.623  22.787  23.721  1.00  0.00     0.361 C 
ATOM      4  O   UNL A   1      35.538  23.344  23.112  1.00  0.00    -0.245 OA
BRANCH   3   5
ATOM      5  C   UNL A   1      33.207  23.419  23.775  1.00  0.00     0.387 C 
BRANCH   5   6
ATOM      6  N   UNL A   1      32.676  24.051  25.024  1.00  0.00    -0.318 N 
ATOM      7  H   UNL A   1      31.785  24.499  24.811  1.00  0.00     0.349 HD
BRANCH   6   8
ATOM      8  C   UNL A   1      33.601  25.115  25.433  1.00  0.00     0.299 C 
BRANCH   8   9
ATOM      9  C   UNL A   1      33.011  26.485  25.580  1.00  0.00     0.008 A 
ATOM     10  C   UNL A   1      32.078  29.108  25.469  1.00  0.00     0.136 A 
ATOM     11  C   UNL A   1      33.178  28.789  26.276  1.00  0.00     0.048 A 
ATOM     12  C   UNL A   1      31.428  28.114  24.728  1.00  0.00     0.094 A 
ATOM     13  C   UNL A   1      33.635  27.474  26.349  1.00  0.00     0.013 A 
ATOM     14  C   UNL A   1      31.877  26.801  24.819  1.00  0.00     0.033 A 
BRANCH  10  15
ATOM     15  O   UNL A   1      31.770  30.438  25.376  1.00  0.00    -0.495 OA
ATOM     16  C   UNL A   1      31.785  31.071  26.655  1.00  0.00     0.278 C 
ENDBRANCH  10  15
BRANCH  12  17
ATOM     17  C   UNL A   1      30.375  28.384  23.794  1.00  0.00     0.103 C 
ATOM     18  N   UNL A   1      29.498  28.553  23.057  1.00  0.00    -0.192 NA
ENDBRANCH  12  17
ENDBRANCH   8   9
ENDBRANCH   6   8
BRANCH   6  19
ATOM     19  C   UNL A   1      31.916  23.228  26.036  1.00  0.00     0.090 C 
ATOM     20  C   UNL A   1      30.542  23.795  26.500  1.00  0.00     0.078 C 
ATOM     21  C   UNL A   1      31.565  21.812  25.482  1.00  0.00     0.078 C 
ATOM     22  C   UNL A   1      32.786  22.830  27.265  1.00  0.00     0.078 C 
ENDBRANCH   6  19
ENDBRANCH   5   6
ENDBRANCH   3   5
ENDBRANCH   2   3
ENDBRANCH   1   2
BRANCH   1  23
ATOM     23  C   UNL A   1      36.940  20.857  25.332  1.00  0.00     0.275 C 
BRANCH  23  24
ATOM     24  O   UNL A   1      38.041  21.791  25.133  1.00  0.00    -0.458 OA
BRANCH  24  25
ATOM     25  C   UNL A   1      38.946  21.687  26.114  1.00  0.00     0.338 C 
ATOM     26  O   UNL A   1      39.394  20.632  26.520  1.00  0.00    -0.246 OA
BRANCH  25  27
ATOM     27  C   UNL A   1      39.508  22.841  26.783  1.00  0.00     0.060 A 
ATOM     28  C   UNL A   1      39.232  24.050  26.128  1.00  0.00     0.016 A 
ATOM     29  C   UNL A   1      40.613  22.715  27.622  1.00  0.00     0.016 A 
ATOM     30  C   UNL A   1      40.095  25.119  26.263  1.00  0.00     0.010 A 
ATOM     31  C   UNL A   1      41.394  23.846  27.872  1.00  0.00     0.010 A 
ATOM     32  C   UNL A   1      41.124  25.058  27.209  1.00  0.00    -0.014 A 
BRANCH  32  33
ATOM     33  C   UNL A   1      41.766  26.326  27.620  1.00  0.00     0.031 A 
ATOM     34  C   UNL A   1      41.048  27.364  28.421  1.00  0.00     0.074 A 
ATOM     35  C   UNL A   1      43.034  26.521  27.202  1.00  0.00     0.049 A 
ATOM     36  N   UNL A   1      41.440  28.575  28.724  1.00  0.00    -0.248 NA
ATOM     37  C   UNL A   1      39.717  27.015  28.936  1.00  0.00     0.031 C 
ATOM     38  C   UNL A   1      43.821  25.557  26.421  1.00  0.00     0.029 A 
ATOM     39  N   UNL A   1      43.887  27.578  27.366  1.00  0.00    -0.354 N 
ATOM     40  C   UNL A   1      40.397  29.147  29.436  1.00  0.00     0.074 A 
ATOM     41  C   UNL A   1      39.344  28.153  29.509  1.00  0.00     0.031 C 
ATOM     42  C   UNL A   1      45.045  26.046  26.212  1.00  0.00     0.029 A 
ATOM     43  C   UNL A   1      45.093  27.400  26.734  1.00  0.00     0.049 A 
ATOM     44  H   UNL A   1      43.660  28.383  27.885  1.00  0.00     0.167 HD
ATOM     45  C   UNL A   1      40.337  30.391  29.969  1.00  0.00     0.037 A 
ATOM     46  C   UNL A   1      46.110  28.253  26.535  1.00  0.00     0.037 A 
ATOM     47  C   UNL A   1      41.408  31.355  29.880  1.00  0.00     0.049 A 
ATOM     48  C   UNL A   1      45.988  29.636  27.088  1.00  0.00     0.074 A 
ATOM     49  C   UNL A   1      41.464  32.634  30.407  1.00  0.00     0.029 A 
ATOM     50  N   UNL A   1      42.610  31.148  29.214  1.00  0.00    -0.354 N 
ATOM     51  N   UNL A   1      44.999  30.169  27.764  1.00  0.00    -0.248 NA
ATOM     52  C   UNL A   1      47.116  30.540  26.851  1.00  0.00     0.031 C 
ATOM     53  C   UNL A   1      42.663  33.225  29.997  1.00  0.00     0.029 A 
ATOM     54  C   UNL A   1      43.397  32.288  29.287  1.00  0.00     0.049 A 
ATOM     55  H   UNL A   1      42.865  30.314  28.756  1.00  0.00     0.167 HD
ATOM     56  C   UNL A   1      45.395  31.463  28.057  1.00  0.00     0.074 A 
ATOM     57  C   UNL A   1      46.724  31.625  27.502  1.00  0.00     0.031 C 
ATOM     58  C   UNL A   1      44.718  32.430  28.725  1.00  0.00     0.037 A 
BRANCH  45  59
ATOM     59  C   UNL A   1      39.065  30.806  30.656  1.00  0.00     0.064 A 
ATOM     60  C   UNL A   1      37.961  31.302  29.947  1.00  0.00     0.173 A 
ATOM     61  C   UNL A   1      38.929  30.649  32.045  1.00  0.00     0.173 A 
ATOM     62  F   UNL A   1      38.035  31.479  28.620  1.00  0.00    -0.203 F 
ATOM     63  C   UNL A   1      36.782  31.647  30.604  1.00  0.00     0.198 A 
ATOM     64  C   UNL A   1      37.737  30.962  32.694  1.00  0.00     0.198 A 
ATOM     65  F   UNL A   1      39.950  30.172  32.775  1.00  0.00    -0.203 F 
ATOM     66  F   UNL A   1      35.757  32.162  29.911  1.00  0.00    -0.200 F 
ATOM     67  C   UNL A   1      36.668  31.469  31.975  1.00  0.00     0.200 A 
ATOM     68  F   UNL A   1      37.625  30.770  34.016  1.00  0.00    -0.200 F 
ATOM     69  F   UNL A   1      35.527  31.788  32.603  1.00  0.00    -0.200 F 
ENDBRANCH  45  59
BRANCH  46  70
ATOM     70  C   UNL A   1      47.292  27.818  25.748  1.00  0.00     0.064 A 
ATOM     71  C   UNL A   1      47.269  27.833  24.348  1.00  0.00     0.173 A 
ATOM     72  C   UNL A   1      48.479  27.408  26.377  1.00  0.00     0.173 A 
ATOM     73  F   UNL A   1      46.157  28.210  23.701  1.00  0.00    -0.203 F 
ATOM     74  C   UNL A   1      48.378  27.430  23.607  1.00  0.00     0.198 A 
ATOM     75  C   UNL A   1      49.600  27.046  25.636  1.00  0.00     0.198 A 
ATOM     76  F   UNL A   1      48.561  27.394  27.716  1.00  0.00    -0.203 F 
ATOM     77  F   UNL A   1      48.312  27.406  22.270  1.00  0.00    -0.200 F 
ATOM     78  C   UNL A   1      49.545  27.045  24.252  1.00  0.00     0.200 A 
ATOM     79  F   UNL A   1      50.733  26.704  26.264  1.00  0.00    -0.200 F 
ATOM     80  F   UNL A   1      50.614  26.669  23.538  1.00  0.00    -0.200 F 
ENDBRANCH  46  70
BRANCH  58  81
ATOM     81  C   UNL A   1      45.432  33.733  28.931  1.00  0.00     0.064 A 
ATOM     82  C   UNL A   1      46.263  33.958  30.039  1.00  0.00     0.173 A 
ATOM     83  C   UNL A   1      45.297  34.767  27.993  1.00  0.00     0.173 A 
ATOM     84  F   UNL A   1      46.411  33.009  30.977  1.00  0.00    -0.203 F 
ATOM     85  C   UNL A   1      46.903  35.182  30.217  1.00  0.00     0.198 A 
ATOM     86  C   UNL A   1      45.972  35.973  28.151  1.00  0.00     0.198 A 
ATOM     87  F   UNL A   1      44.517  34.604  26.912  1.00  0.00    -0.203 F 
ATOM     88  F   UNL A   1      47.637  35.397  31.317  1.00  0.00    -0.200 F 
ATOM     89  C   UNL A   1      46.764  36.183  29.268  1.00  0.00     0.200 A 
ATOM     90  F   UNL A   1      45.852  36.932  27.223  1.00  0.00    -0.200 F 
ATOM     91  F   UNL A   1      47.388  37.357  29.436  1.00  0.00    -0.200 F 
ENDBRANCH  58  81
ENDBRANCH  32  33
ENDBRANCH  25  27
ENDBRANCH  24  25
ENDBRANCH  23  24
ENDBRANCH   1  23
TORSDOF 17
ENDMDL
MODEL 3
REMARK VINA RESULT:     -10.6      4.854     10.338
REMARK SMILES COc1ccc(C[N@@H+](CC(=O)OCCOC(=O)c2ccc(-c3c4nc(c(-c5c(F)c(F)c(F)c(F)c5F)c5ccc([nH]5)c(-c5c(F)c(F)c(F)c(F)c5F)c5nc(c(-c6c(F)c(F)c(F)c(F)c6F)c6ccc3[nH]6)C=C5)C=C4)cc2)C(C)(C)C)cc1C#N
REMARK SMILES IDX 13 1 12 2 10 3 11 4 9 5 8 6 7 8 6 9 3 10 4 11 86 12 5 13
REMARK SMILES IDX 85 14 2 15 1 16 87 17 88 18 81 19 82 20 83 21 84 22 14 23
REMARK SMILES IDX 15 24 16 25 17 26 18 27 19 28 80 29 20 30 79 31 21 32 22 33
REMARK SMILES IDX 23 34 73 35 24 36 78 37 72 38 74 39 25 40 77 41 71 42 70 43
REMARK SMILES IDX 26 45 58 46 38 47 57 48 39 49 42 50 56 51 75 52 40 53 41 54
REMARK SMILES IDX 55 56 76 57 43 58 27 59 28 60 36 61 29 62 30 63 34 64 37 65
REMARK SMILES IDX 31 66 32 67 35 68 33 69 59 70 60 71 68 72 61 73 62 74 66 75
REMARK SMILES IDX 69 76 63 77 64 78 67 79 65 80 44 81 45 82 53 83 46 84 47 85
REMARK SMILES IDX 51 86 54 87 48 88 49 89 52 90 50 91
REMARK H PARENT 8 7 74 44 42 55
REMARK Flexibility Score: inf
ROOT
ATOM      1  C   UNL A   1      35.937  22.321  25.468  1.00  0.00     0.274 C 
ENDROOT
BRANCH   1   2
ATOM      2  O   UNL A   1      34.876  22.007  24.523  1.00  0.00    -0.458 OA
BRANCH   2   3
ATOM      3  C   UNL A   1      34.521  22.963  23.620  1.00  0.00     0.361 C 
ATOM      4  O   UNL A   1      35.252  23.304  22.688  1.00  0.00    -0.245 OA
BRANCH   3   5
ATOM      5  C   UNL A   1      33.105  23.579  23.781  1.00  0.00     0.387 C 
BRANCH   5   6
ATOM      6  N   UNL A   1      32.607  24.067  25.106  1.00  0.00    -0.318 N 
ATOM      7  H   UNL A   1      31.695  24.503  24.973  1.00  0.00     0.349 HD
BRANCH   6   8
ATOM      8  C   UNL A   1      33.516  25.117  25.583  1.00  0.00     0.299 C 
BRANCH   8   9
ATOM      9  C   UNL A   1      32.938  26.495  25.690  1.00  0.00     0.008 A 
ATOM     10  C   UNL A   1      32.030  29.123  25.503  1.00  0.00     0.136 A 
ATOM     11  C   UNL A   1      33.117  28.814  26.331  1.00  0.00     0.048 A 
ATOM     12  C   UNL A   1      31.379  28.118  24.780  1.00  0.00     0.094 A 
ATOM     13  C   UNL A   1      33.561  27.498  26.441  1.00  0.00     0.013 A 
ATOM     14  C   UNL A   1      31.815  26.802  24.908  1.00  0.00     0.033 A 
BRANCH  10  15
ATOM     15  O   UNL A   1      31.735  30.454  25.375  1.00  0.00    -0.495 OA
ATOM     16  C   UNL A   1      31.779  31.125  26.632  1.00  0.00     0.278 C 
ENDBRANCH  10  15
BRANCH  12  17
ATOM     17  C   UNL A   1      30.339  28.373  23.827  1.00  0.00     0.103 C 
ATOM     18  N   UNL A   1      29.508  28.527  23.036  1.00  0.00    -0.192 NA
ENDBRANCH  12  17
ENDBRANCH   8   9
ENDBRANCH   6   8
BRANCH   6  19
ATOM     19  C   UNL A   1      31.915  23.124  26.059  1.00  0.00     0.090 C 
ATOM     20  C   UNL A   1      32.659  22.813  27.392  1.00  0.00     0.078 C 
ATOM     21  C   UNL A   1      30.536  23.685  26.526  1.00  0.00     0.078 C 
ATOM     22  C   UNL A   1      31.452  21.804  25.373  1.00  0.00     0.078 C 
ENDBRANCH   6  19
ENDBRANCH   5   6
ENDBRANCH   3   5
ENDBRANCH   2   3
ENDBRANCH   1   2
BRANCH   1  23
ATOM     23  C   UNL A   1      36.961  21.161  25.592  1.00  0.00     0.275 C 
BRANCH  23  24
ATOM     24  O   UNL A   1      38.303  21.487  25.128  1.00  0.00    -0.458 OA
BRANCH  24  25
ATOM     25  C   UNL A   1      39.189  21.424  26.131  1.00  0.00     0.338 C 
ATOM     26  O   UNL A   1      39.662  20.390  26.560  1.00  0.00    -0.246 OA
BRANCH  25  27
ATOM     27  C   UNL A   1      39.698  22.604  26.798  1.00  0.00     0.060 A 
ATOM     28  C   UNL A   1      39.393  23.796  26.124  1.00  0.00     0.016 A 
ATOM     29  C   UNL A   1      40.790  22.524  27.659  1.00  0.00     0.016 A 
ATOM     30  C   UNL A   1      40.217  24.895  26.264  1.00  0.00     0.010 A 
ATOM     31  C   UNL A   1      41.527  23.685  27.912  1.00  0.00     0.010 A 
ATOM     32  C   UNL A   1      41.229  24.879  27.230  1.00  0.00    -0.014 A 
BRANCH  32  33
ATOM     33  C   UNL A   1      41.819  26.173  27.639  1.00  0.00     0.031 A 
ATOM     34  C   UNL A   1      41.057  27.186  28.432  1.00  0.00     0.074 A 
ATOM     35  C   UNL A   1      43.081  26.415  27.228  1.00  0.00     0.049 A 
ATOM     36  N   UNL A   1      41.400  28.411  28.732  1.00  0.00    -0.248 NA
ATOM     37  C   UNL A   1      39.737  26.787  28.941  1.00  0.00     0.031 C 
ATOM     38  C   UNL A   1      43.909  25.479  26.455  1.00  0.00     0.029 A 
ATOM     39  N   UNL A   1      43.892  27.504  27.392  1.00  0.00    -0.354 N 
ATOM     40  C   UNL A   1      40.331  28.946  29.436  1.00  0.00     0.074 A 
ATOM     41  C   UNL A   1      39.318  27.913  29.507  1.00  0.00     0.031 C 
ATOM     42  C   UNL A   1      45.114  26.014  26.251  1.00  0.00     0.029 A 
ATOM     43  C   UNL A   1      45.107  27.371  26.767  1.00  0.00     0.049 A 
ATOM     44  H   UNL A   1      43.630  28.302  27.906  1.00  0.00     0.167 HD
ATOM     45  C   UNL A   1      40.221  30.189  29.963  1.00  0.00     0.037 A 
ATOM     46  C   UNL A   1      46.092  28.262  26.570  1.00  0.00     0.037 A 
ATOM     47  C   UNL A   1      41.255  31.193  29.876  1.00  0.00     0.049 A 
ATOM     48  C   UNL A   1      45.913  29.642  27.117  1.00  0.00     0.074 A 
ATOM     49  C   UNL A   1      41.257  32.476  30.398  1.00  0.00     0.029 A 
ATOM     50  N   UNL A   1      42.467  31.030  29.217  1.00  0.00    -0.354 N 
ATOM     51  N   UNL A   1      44.900  30.139  27.785  1.00  0.00    -0.248 NA
ATOM     52  C   UNL A   1      47.007  30.587  26.882  1.00  0.00     0.031 C 
ATOM     53  C   UNL A   1      42.435  33.110  29.992  1.00  0.00     0.029 A 
ATOM     54  C   UNL A   1      43.209  32.200  29.290  1.00  0.00     0.049 A 
ATOM     55  H   UNL A   1      42.757  30.205  28.765  1.00  0.00     0.167 HD
ATOM     56  C   UNL A   1      45.244  31.448  28.075  1.00  0.00     0.074 A 
ATOM     57  C   UNL A   1      46.569  31.659  27.526  1.00  0.00     0.031 C 
ATOM     58  C   UNL A   1      44.527  32.391  28.735  1.00  0.00     0.037 A 
BRANCH  45  59
ATOM     59  C   UNL A   1      38.930  30.557  30.642  1.00  0.00     0.064 A 
ATOM     60  C   UNL A   1      38.762  30.456  32.031  1.00  0.00     0.173 A 
ATOM     61  C   UNL A   1      37.861  31.076  29.893  1.00  0.00     0.173 A 
ATOM     62  F   UNL A   1      39.747  29.962  32.796  1.00  0.00    -0.203 F 
ATOM     63  C   UNL A   1      37.567  30.836  32.640  1.00  0.00     0.198 A 
ATOM     64  C   UNL A   1      36.681  31.487  30.509  1.00  0.00     0.198 A 
ATOM     65  F   UNL A   1      37.967  31.203  28.561  1.00  0.00    -0.203 F 
ATOM     66  F   UNL A   1      37.414  30.687  33.963  1.00  0.00    -0.200 F 
ATOM     67  C   UNL A   1      36.532  31.359  31.879  1.00  0.00     0.200 A 
ATOM     68  F   UNL A   1      35.690  32.011  29.773  1.00  0.00    -0.200 F 
ATOM     69  F   UNL A   1      35.388  31.737  32.469  1.00  0.00    -0.200 F 
ENDBRANCH  45  59
BRANCH  46  70
ATOM     70  C   UNL A   1      47.294  27.869  25.791  1.00  0.00     0.064 A 
ATOM     71  C   UNL A   1      48.470  27.472  26.436  1.00  0.00     0.173 A 
ATOM     72  C   UNL A   1      47.281  27.853  24.387  1.00  0.00     0.173 A 
ATOM     73  F   UNL A   1      48.535  27.478  27.776  1.00  0.00    -0.203 F 
ATOM     74  C   UNL A   1      49.598  27.098  25.708  1.00  0.00     0.198 A 
ATOM     75  C   UNL A   1      48.393  27.438  23.661  1.00  0.00     0.198 A 
ATOM     76  F   UNL A   1      46.171  28.204  23.720  1.00  0.00    -0.203 F 
ATOM     77  F   UNL A   1      50.727  26.771  26.349  1.00  0.00    -0.200 F 
ATOM     78  C   UNL A   1      49.555  27.073  24.321  1.00  0.00     0.200 A 
ATOM     79  F   UNL A   1      48.336  27.388  22.323  1.00  0.00    -0.200 F 
ATOM     80  F   UNL A   1      50.636  26.702  23.622  1.00  0.00    -0.200 F 
ENDBRANCH  46  70
BRANCH  58  81
ATOM     81  C   UNL A   1      45.189  33.721  28.940  1.00  0.00     0.064 A 
ATOM     82  C   UNL A   1      45.026  34.779  28.033  1.00  0.00     0.173 A 
ATOM     83  C   UNL A   1      45.984  33.946  30.074  1.00  0.00     0.173 A 
ATOM     84  F   UNL A   1      44.293  34.610  26.921  1.00  0.00    -0.203 F 
ATOM     85  C   UNL A   1      45.664  36.000  28.237  1.00  0.00     0.198 A 
ATOM     86  C   UNL A   1      46.584  35.181  30.296  1.00  0.00     0.198 A 
ATOM     87  F   UNL A   1      46.170  32.969  30.976  1.00  0.00    -0.203 F 
ATOM     88  F   UNL A   1      45.548  36.973  27.323  1.00  0.00    -0.200 F 
ATOM     89  C   UNL A   1      46.432  36.203  29.372  1.00  0.00     0.200 A 
ATOM     90  F   UNL A   1      47.311  35.380  31.405  1.00  0.00    -0.200 F 
ATOM     91  F   UNL A   1      47.037  37.381  29.571  1.00  0.00    -0.200 F 
ENDBRANCH  58  81
ENDBRANCH  32  33
ENDBRANCH  25  27
ENDBRANCH  24  25
ENDBRANCH  23  24
ENDBRANCH   1  23
TORSDOF 17
ENDMDL
