MODEL 1
REMARK VINA RESULT:     -10.8      0.000      0.000
REMARK SMILES O=C(OCCOC(=O)[C@@H]1CCCC[C@@H]1Sc1ccncc1)c1ccc(-c2c3nc(c(-c4c(F)c(F)c(F)c(F)c4F)c4ccc([nH]4)c(-c4c(F)c(F)c(F)c(F)c4F)c4nc(c(-c5c(F)c(F)c(F)c(F)c5F)c5ccc2[nH]5)C=C4)C=C3)cc1
REMARK SMILES IDX 4 1 3 2 2 3 1 4 22 5 23 6 84 7 24 8 83 9 25 10 26 11 27 12
REMARK SMILES IDX 77 13 28 14 82 15 76 16 78 17 29 18 81 19 75 20 74 21 30 23
REMARK SMILES IDX 62 24 42 25 61 26 43 27 46 28 60 29 79 30 44 31 45 32 59 34
REMARK SMILES IDX 80 35 47 36 31 37 32 38 40 39 33 40 34 41 38 42 41 43 35 44
REMARK SMILES IDX 36 45 39 46 37 47 63 48 64 49 72 50 65 51 66 52 70 53 73 54
REMARK SMILES IDX 67 55 68 56 71 57 69 58 48 59 49 60 57 61 50 62 51 63 55 64
REMARK SMILES IDX 58 65 52 66 53 67 56 68 54 69 5 70 6 71 7 72 8 73 9 74 10 75
REMARK SMILES IDX 14 76 11 77 13 78 12 79 15 80 16 81 17 82 21 83 18 84 20 85
REMARK SMILES IDX 19 86
REMARK H PARENT 78 22 46 33
REMARK Flexibility Score: inf
ROOT
ATOM      1  C   UNL A   1      34.485  33.380  27.961  1.00  0.00     0.275 C 
ENDROOT
BRANCH   1   2
ATOM      2  O   UNL A   1      33.895  32.076  28.070  1.00  0.00    -0.458 OA
BRANCH   2   3
ATOM      3  C   UNL A   1      34.462  30.868  27.843  1.00  0.00     0.338 C 
ATOM      4  O   UNL A   1      33.792  30.001  27.283  1.00  0.00    -0.246 OA
BRANCH   3   5
ATOM      5  C   UNL A   1      35.786  30.455  28.423  1.00  0.00     0.060 A 
ATOM      6  C   UNL A   1      35.994  29.747  29.609  1.00  0.00     0.016 A 
ATOM      7  C   UNL A   1      36.904  30.678  27.596  1.00  0.00     0.016 A 
ATOM      8  C   UNL A   1      37.221  29.140  29.890  1.00  0.00     0.010 A 
ATOM      9  C   UNL A   1      38.115  30.023  27.840  1.00  0.00     0.010 A 
ATOM     10  C   UNL A   1      38.280  29.241  28.992  1.00  0.00    -0.014 A 
BRANCH  10  11
ATOM     11  C   UNL A   1      39.617  28.739  29.385  1.00  0.00     0.031 A 
ATOM     12  C   UNL A   1      40.335  29.513  30.449  1.00  0.00     0.074 A 
ATOM     13  C   UNL A   1      40.146  27.611  28.869  1.00  0.00     0.049 A 
ATOM     14  N   UNL A   1      41.519  29.325  30.964  1.00  0.00    -0.248 NA
ATOM     15  C   UNL A   1      39.628  30.691  30.984  1.00  0.00     0.031 C 
ATOM     16  C   UNL A   1      39.528  26.766  27.847  1.00  0.00     0.029 A 
ATOM     17  N   UNL A   1      41.328  26.971  29.151  1.00  0.00    -0.354 N 
ATOM     18  C   UNL A   1      41.696  30.376  31.853  1.00  0.00     0.074 A 
ATOM     19  C   UNL A   1      40.560  31.252  31.727  1.00  0.00     0.031 C 
ATOM     20  C   UNL A   1      40.328  25.712  27.599  1.00  0.00     0.029 A 
ATOM     21  C   UNL A   1      41.523  25.814  28.432  1.00  0.00     0.049 A 
ATOM     22  H   UNL A   1      41.979  27.311  29.807  1.00  0.00     0.167 HD
ATOM     23  C   UNL A   1      42.690  30.564  32.748  1.00  0.00     0.037 A 
ATOM     24  C   UNL A   1      42.551  24.941  28.460  1.00  0.00     0.037 A 
ATOM     25  C   UNL A   1      43.788  29.660  32.903  1.00  0.00     0.049 A 
ATOM     26  C   UNL A   1      43.678  25.195  29.436  1.00  0.00     0.074 A 
ATOM     27  C   UNL A   1      44.851  29.733  33.780  1.00  0.00     0.029 A 
ATOM     28  N   UNL A   1      43.954  28.503  32.153  1.00  0.00    -0.354 N 
ATOM     29  N   UNL A   1      43.817  26.167  30.307  1.00  0.00    -0.248 NA
ATOM     30  C   UNL A   1      44.783  24.226  29.443  1.00  0.00     0.031 C 
ATOM     31  C   UNL A   1      45.689  28.644  33.525  1.00  0.00     0.029 A 
ATOM     32  C   UNL A   1      45.117  27.861  32.533  1.00  0.00     0.049 A 
ATOM     33  H   UNL A   1      43.335  28.188  31.454  1.00  0.00     0.167 HD
ATOM     34  C   UNL A   1      45.000  25.910  30.987  1.00  0.00     0.074 A 
ATOM     35  C   UNL A   1      45.534  24.679  30.438  1.00  0.00     0.031 C 
ATOM     36  C   UNL A   1      45.598  26.622  31.975  1.00  0.00     0.037 A 
BRANCH  23  37
ATOM     37  C   UNL A   1      42.603  31.802  33.589  1.00  0.00     0.064 A 
ATOM     38  C   UNL A   1      41.904  31.821  34.809  1.00  0.00     0.173 A 
ATOM     39  C   UNL A   1      43.135  33.010  33.120  1.00  0.00     0.173 A 
ATOM     40  F   UNL A   1      41.342  30.697  35.283  1.00  0.00    -0.203 F 
ATOM     41  C   UNL A   1      41.683  33.014  35.489  1.00  0.00     0.198 A 
ATOM     42  C   UNL A   1      42.949  34.195  33.826  1.00  0.00     0.198 A 
ATOM     43  F   UNL A   1      43.805  33.047  31.959  1.00  0.00    -0.203 F 
ATOM     44  F   UNL A   1      40.921  33.023  36.592  1.00  0.00    -0.200 F 
ATOM     45  C   UNL A   1      42.208  34.200  34.999  1.00  0.00     0.200 A 
ATOM     46  F   UNL A   1      43.459  35.340  33.353  1.00  0.00    -0.200 F 
ATOM     47  F   UNL A   1      41.978  35.352  35.643  1.00  0.00    -0.200 F 
ENDBRANCH  23  37
BRANCH  24  48
ATOM     48  C   UNL A   1      42.574  23.746  27.567  1.00  0.00     0.064 A 
ATOM     49  C   UNL A   1      42.121  22.493  28.011  1.00  0.00     0.173 A 
ATOM     50  C   UNL A   1      43.098  23.815  26.267  1.00  0.00     0.173 A 
ATOM     51  F   UNL A   1      41.626  22.362  29.250  1.00  0.00    -0.203 F 
ATOM     52  C   UNL A   1      42.224  21.356  27.207  1.00  0.00     0.198 A 
ATOM     53  C   UNL A   1      43.173  22.684  25.453  1.00  0.00     0.198 A 
ATOM     54  F   UNL A   1      43.543  24.985  25.784  1.00  0.00    -0.203 F 
ATOM     55  F   UNL A   1      41.837  20.165  27.682  1.00  0.00    -0.200 F 
ATOM     56  C   UNL A   1      42.748  21.453  25.927  1.00  0.00     0.200 A 
ATOM     57  F   UNL A   1      43.668  22.787  24.211  1.00  0.00    -0.200 F 
ATOM     58  F   UNL A   1      42.852  20.363  25.157  1.00  0.00    -0.200 F 
ENDBRANCH  24  48
BRANCH  36  59
ATOM     59  C   UNL A   1      46.866  26.071  32.559  1.00  0.00     0.064 A 
ATOM     60  C   UNL A   1      46.854  25.201  33.658  1.00  0.00     0.173 A 
ATOM     61  C   UNL A   1      48.099  26.345  31.948  1.00  0.00     0.173 A 
ATOM     62  F   UNL A   1      45.700  24.917  34.282  1.00  0.00    -0.203 F 
ATOM     63  C   UNL A   1      48.033  24.636  34.132  1.00  0.00     0.198 A 
ATOM     64  C   UNL A   1      49.271  25.751  32.402  1.00  0.00     0.198 A 
ATOM     65  F   UNL A   1      48.160  27.165  30.886  1.00  0.00    -0.203 F 
ATOM     66  F   UNL A   1      48.005  23.836  35.206  1.00  0.00    -0.200 F 
ATOM     67  C   UNL A   1      49.238  24.902  33.497  1.00  0.00     0.200 A 
ATOM     68  F   UNL A   1      50.430  25.992  31.773  1.00  0.00    -0.200 F 
ATOM     69  F   UNL A   1      50.370  24.337  33.941  1.00  0.00    -0.200 F 
ENDBRANCH  36  59
ENDBRANCH  10  11
ENDBRANCH   3   5
ENDBRANCH   2   3
ENDBRANCH   1   2
BRANCH   1  70
ATOM     70  C   UNL A   1      34.598  34.125  29.299  1.00  0.00     0.274 C 
BRANCH  70  71
ATOM     71  O   UNL A   1      35.742  33.743  30.091  1.00  0.00    -0.462 OA
BRANCH  71  72
ATOM     72  C   UNL A   1      35.478  32.960  31.185  1.00  0.00     0.310 C 
ATOM     73  O   UNL A   1      34.450  32.309  31.312  1.00  0.00    -0.252 OA
BRANCH  72  74
ATOM     74  C   UNL A   1      36.629  33.026  32.195  1.00  0.00     0.112 C 
ATOM     75  C   UNL A   1      36.563  31.892  33.217  1.00  0.00     0.016 C 
ATOM     76  C   UNL A   1      36.760  34.375  32.931  1.00  0.00     0.066 C 
ATOM     77  C   UNL A   1      37.807  31.830  34.101  1.00  0.00     0.001 C 
ATOM     78  C   UNL A   1      38.054  34.325  33.780  1.00  0.00     0.016 C 
ATOM     79  C   UNL A   1      38.092  33.162  34.779  1.00  0.00     0.001 C 
BRANCH  76  80
ATOM     80  S   UNL A   1      35.282  34.615  34.016  1.00  0.00    -0.122 SA
BRANCH  80  81
ATOM     81  C   UNL A   1      34.133  35.590  33.101  1.00  0.00     0.011 A 
ATOM     82  C   UNL A   1      32.953  35.139  32.529  1.00  0.00     0.035 A 
ATOM     83  C   UNL A   1      34.512  36.918  32.911  1.00  0.00     0.035 A 
ATOM     84  C   UNL A   1      32.223  36.027  31.757  1.00  0.00     0.112 A 
ATOM     85  C   UNL A   1      33.713  37.732  32.136  1.00  0.00     0.112 A 
ATOM     86  N   UNL A   1      32.577  37.312  31.546  1.00  0.00    -0.265 NA
ENDBRANCH  80  81
ENDBRANCH  76  80
ENDBRANCH  72  74
ENDBRANCH  71  72
ENDBRANCH  70  71
ENDBRANCH   1  70
TORSDOF 13
ENDMDL
MODEL 2
REMARK VINA RESULT:     -10.6      3.935      6.399
REMARK SMILES O=C(OCCOC(=O)[C@@H]1CCCC[C@@H]1Sc1ccncc1)c1ccc(-c2c3nc(c(-c4c(F)c(F)c(F)c(F)c4F)c4ccc([nH]4)c(-c4c(F)c(F)c(F)c(F)c4F)c4nc(c(-c5c(F)c(F)c(F)c(F)c5F)c5ccc2[nH]5)C=C4)C=C3)cc1
REMARK SMILES IDX 4 1 3 2 2 3 1 4 22 5 23 6 84 7 24 8 83 9 25 10 26 11 27 12
REMARK SMILES IDX 77 13 28 14 82 15 76 16 78 17 29 18 81 19 75 20 74 21 30 23
REMARK SMILES IDX 62 24 42 25 61 26 43 27 46 28 60 29 79 30 44 31 45 32 59 34
REMARK SMILES IDX 80 35 47 36 31 37 32 38 40 39 33 40 34 41 38 42 41 43 35 44
REMARK SMILES IDX 36 45 39 46 37 47 63 48 64 49 72 50 65 51 66 52 70 53 73 54
REMARK SMILES IDX 67 55 68 56 71 57 69 58 48 59 49 60 57 61 50 62 51 63 55 64
REMARK SMILES IDX 58 65 52 66 53 67 56 68 54 69 5 70 6 71 7 72 8 73 9 74 10 75
REMARK SMILES IDX 14 76 11 77 13 78 12 79 15 80 16 81 17 82 21 83 18 84 20 85
REMARK SMILES IDX 19 86
REMARK H PARENT 78 22 46 33
REMARK Flexibility Score: inf
ROOT
ATOM      1  C   UNL A   1      31.329  32.010  26.839  1.00  0.00     0.275 C 
ENDROOT
BRANCH   1   2
ATOM      2  O   UNL A   1      32.370  32.996  26.786  1.00  0.00    -0.458 OA
BRANCH   2   3
ATOM      3  C   UNL A   1      33.115  33.499  27.798  1.00  0.00     0.338 C 
ATOM      4  O   UNL A   1      32.786  34.578  28.291  1.00  0.00    -0.246 OA
BRANCH   3   5
ATOM      5  C   UNL A   1      34.440  32.922  28.214  1.00  0.00     0.060 A 
ATOM      6  C   UNL A   1      35.651  33.609  28.325  1.00  0.00     0.016 A 
ATOM      7  C   UNL A   1      34.401  31.594  28.681  1.00  0.00     0.016 A 
ATOM      8  C   UNL A   1      36.736  33.065  29.019  1.00  0.00     0.010 A 
ATOM      9  C   UNL A   1      35.459  31.069  29.429  1.00  0.00     0.010 A 
ATOM     10  C   UNL A   1      36.637  31.808  29.609  1.00  0.00    -0.014 A 
BRANCH  10  11
ATOM     11  C   UNL A   1      37.846  31.180  30.190  1.00  0.00     0.031 A 
ATOM     12  C   UNL A   1      38.137  31.493  31.627  1.00  0.00     0.074 A 
ATOM     13  C   UNL A   1      38.619  30.320  29.495  1.00  0.00     0.049 A 
ATOM     14  N   UNL A   1      39.132  31.112  32.381  1.00  0.00    -0.248 NA
ATOM     15  C   UNL A   1      37.185  32.394  32.300  1.00  0.00     0.031 C 
ATOM     16  C   UNL A   1      38.419  29.925  28.102  1.00  0.00     0.029 A 
ATOM     17  N   UNL A   1      39.728  29.607  29.881  1.00  0.00    -0.354 N 
ATOM     18  C   UNL A   1      38.930  31.752  33.595  1.00  0.00     0.074 A 
ATOM     19  C   UNL A   1      37.794  32.626  33.445  1.00  0.00     0.031 C 
ATOM     20  C   UNL A   1      39.362  29.031  27.753  1.00  0.00     0.029 A 
ATOM     21  C   UNL A   1      40.245  28.800  28.894  1.00  0.00     0.049 A 
ATOM     22  H   UNL A   1      40.119  29.669  30.782  1.00  0.00     0.167 HD
ATOM     23  C   UNL A   1      39.594  31.581  34.759  1.00  0.00     0.037 A 
ATOM     24  C   UNL A   1      41.306  27.967  28.924  1.00  0.00     0.037 A 
ATOM     25  C   UNL A   1      40.688  30.671  34.912  1.00  0.00     0.049 A 
ATOM     26  C   UNL A   1      42.066  27.825  30.224  1.00  0.00     0.074 A 
ATOM     27  C   UNL A   1      41.434  30.399  36.040  1.00  0.00     0.029 A 
ATOM     28  N   UNL A   1      41.186  29.876  33.887  1.00  0.00    -0.354 N 
ATOM     29  N   UNL A   1      41.841  28.399  31.383  1.00  0.00    -0.248 NA
ATOM     30  C   UNL A   1      43.215  26.910  30.227  1.00  0.00     0.031 C 
ATOM     31  C   UNL A   1      42.420  29.473  35.685  1.00  0.00     0.029 A 
ATOM     32  C   UNL A   1      42.248  29.124  34.353  1.00  0.00     0.049 A 
ATOM     33  H   UNL A   1      40.835  29.852  32.968  1.00  0.00     0.167 HD
ATOM     34  C   UNL A   1      42.794  27.893  32.257  1.00  0.00     0.074 A 
ATOM     35  C   UNL A   1      43.591  26.950  31.498  1.00  0.00     0.031 C 
ATOM     36  C   UNL A   1      42.998  28.178  33.567  1.00  0.00     0.037 A 
BRANCH  23  37
ATOM     37  C   UNL A   1      39.135  32.416  35.916  1.00  0.00     0.064 A 
ATOM     38  C   UNL A   1      39.642  33.708  36.143  1.00  0.00     0.173 A 
ATOM     39  C   UNL A   1      38.259  31.880  36.868  1.00  0.00     0.173 A 
ATOM     40  F   UNL A   1      40.515  34.252  35.279  1.00  0.00    -0.203 F 
ATOM     41  C   UNL A   1      39.341  34.400  37.312  1.00  0.00     0.198 A 
ATOM     42  C   UNL A   1      37.926  32.593  38.016  1.00  0.00     0.198 A 
ATOM     43  F   UNL A   1      37.752  30.649  36.702  1.00  0.00    -0.203 F 
ATOM     44  F   UNL A   1      39.923  35.583  37.556  1.00  0.00    -0.200 F 
ATOM     45  C   UNL A   1      38.482  33.843  38.246  1.00  0.00     0.200 A 
ATOM     46  F   UNL A   1      37.094  32.055  38.917  1.00  0.00    -0.200 F 
ATOM     47  F   UNL A   1      38.209  34.501  39.381  1.00  0.00    -0.200 F 
ENDBRANCH  23  37
BRANCH  24  48
ATOM     48  C   UNL A   1      41.713  27.192  27.717  1.00  0.00     0.064 A 
ATOM     49  C   UNL A   1      41.219  25.899  27.477  1.00  0.00     0.173 A 
ATOM     50  C   UNL A   1      42.649  27.702  26.803  1.00  0.00     0.173 A 
ATOM     51  F   UNL A   1      40.337  25.353  28.325  1.00  0.00    -0.203 F 
ATOM     52  C   UNL A   1      41.668  25.139  26.395  1.00  0.00     0.198 A 
ATOM     53  C   UNL A   1      43.074  26.952  25.705  1.00  0.00     0.198 A 
ATOM     54  F   UNL A   1      43.154  28.931  26.976  1.00  0.00    -0.203 F 
ATOM     55  F   UNL A   1      41.220  23.888  26.227  1.00  0.00    -0.200 F 
ATOM     56  C   UNL A   1      42.593  25.667  25.509  1.00  0.00     0.200 A 
ATOM     57  F   UNL A   1      43.959  27.474  24.844  1.00  0.00    -0.200 F 
ATOM     58  F   UNL A   1      43.029  24.936  24.474  1.00  0.00    -0.200 F 
ENDBRANCH  24  48
BRANCH  36  59
ATOM     59  C   UNL A   1      44.092  27.433  34.278  1.00  0.00     0.064 A 
ATOM     60  C   UNL A   1      45.378  27.972  34.417  1.00  0.00     0.173 A 
ATOM     61  C   UNL A   1      43.815  26.210  34.906  1.00  0.00     0.173 A 
ATOM     62  F   UNL A   1      45.692  29.134  33.825  1.00  0.00    -0.203 F 
ATOM     63  C   UNL A   1      46.354  27.303  35.150  1.00  0.00     0.198 A 
ATOM     64  C   UNL A   1      44.782  25.562  35.668  1.00  0.00     0.198 A 
ATOM     65  F   UNL A   1      42.594  25.660  34.810  1.00  0.00    -0.203 F 
ATOM     66  F   UNL A   1      47.588  27.816  35.240  1.00  0.00    -0.200 F 
ATOM     67  C   UNL A   1      46.052  26.107  35.784  1.00  0.00     0.200 A 
ATOM     68  F   UNL A   1      44.481  24.419  36.297  1.00  0.00    -0.200 F 
ATOM     69  F   UNL A   1      46.987  25.477  36.509  1.00  0.00    -0.200 F 
ENDBRANCH  36  59
ENDBRANCH  10  11
ENDBRANCH   3   5
ENDBRANCH   2   3
ENDBRANCH   1   2
BRANCH   1  70
ATOM     70  C   UNL A   1      31.520  30.851  25.851  1.00  0.00     0.274 C 
BRANCH  70  71
ATOM     71  O   UNL A   1      31.983  29.628  26.459  1.00  0.00    -0.462 OA
BRANCH  71  72
ATOM     72  C   UNL A   1      32.681  28.778  25.640  1.00  0.00     0.310 C 
ATOM     73  O   UNL A   1      33.431  29.165  24.755  1.00  0.00    -0.252 OA
BRANCH  72  74
ATOM     74  C   UNL A   1      32.384  27.316  25.988  1.00  0.00     0.112 C 
ATOM     75  C   UNL A   1      33.481  26.373  25.497  1.00  0.00     0.016 C 
ATOM     76  C   UNL A   1      31.012  26.806  25.501  1.00  0.00     0.066 C 
ATOM     77  C   UNL A   1      33.297  24.946  26.010  1.00  0.00     0.001 C 
ATOM     78  C   UNL A   1      30.808  25.381  26.072  1.00  0.00     0.016 C 
ATOM     79  C   UNL A   1      31.917  24.396  25.683  1.00  0.00     0.001 C 
BRANCH  76  80
ATOM     80  S   UNL A   1      31.004  26.770  23.653  1.00  0.00    -0.122 SA
BRANCH  80  81
ATOM     81  C   UNL A   1      29.873  28.015  23.125  1.00  0.00     0.011 A 
ATOM     82  C   UNL A   1      28.494  27.981  23.267  1.00  0.00     0.035 A 
ATOM     83  C   UNL A   1      30.457  29.090  22.456  1.00  0.00     0.035 A 
ATOM     84  C   UNL A   1      27.756  29.004  22.698  1.00  0.00     0.112 A 
ATOM     85  C   UNL A   1      29.639  30.071  21.934  1.00  0.00     0.112 A 
ATOM     86  N   UNL A   1      28.296  30.047  22.034  1.00  0.00    -0.265 NA
ENDBRANCH  80  81
ENDBRANCH  76  80
ENDBRANCH  72  74
ENDBRANCH  71  72
ENDBRANCH  70  71
ENDBRANCH   1  70
TORSDOF 13
ENDMDL
MODEL 3
REMARK VINA RESULT:     -10.6      3.884      6.205
REMARK SMILES O=C(OCCOC(=O)[C@@H]1CCCC[C@@H]1Sc1ccncc1)c1ccc(-c2c3nc(c(-c4c(F)c(F)c(F)c(F)c4F)c4ccc([nH]4)c(-c4c(F)c(F)c(F)c(F)c4F)c4nc(c(-c5c(F)c(F)c(F)c(F)c5F)c5ccc2[nH]5)C=C4)C=C3)cc1
REMARK SMILES IDX 4 1 3 2 2 3 1 4 22 5 23 6 84 7 24 8 83 9 25 10 26 11 27 12
REMARK SMILES IDX 77 13 28 14 82 15 76 16 78 17 29 18 81 19 75 20 74 21 30 23
REMARK SMILES IDX 62 24 42 25 61 26 43 27 46 28 60 29 79 30 44 31 45 32 59 34
REMARK SMILES IDX 80 35 47 36 31 37 32 38 40 39 33 40 34 41 38 42 41 43 35 44
REMARK SMILES IDX 36 45 39 46 37 47 63 48 64 49 72 50 65 51 66 52 70 53 73 54
REMARK SMILES IDX 67 55 68 56 71 57 69 58 48 59 49 60 57 61 50 62 51 63 55 64
REMARK SMILES IDX 58 65 52 66 53 67 56 68 54 69 5 70 6 71 7 72 8 73 9 74 10 75
REMARK SMILES IDX 14 76 11 77 13 78 12 79 15 80 16 81 17 82 21 83 18 84 20 85
REMARK SMILES IDX 19 86
REMARK H PARENT 78 22 46 33
REMARK Flexibility Score: inf
ROOT
ATOM      1  C   UNL A   1      31.771  30.013  26.646  1.00  0.00     0.275 C 
ENDROOT
BRANCH   1   2
ATOM      2  O   UNL A   1      33.006  30.716  26.444  1.00  0.00    -0.458 OA
BRANCH   2   3
ATOM      3  C   UNL A   1      33.721  31.447  27.332  1.00  0.00     0.338 C 
ATOM      4  O   UNL A   1      33.314  32.568  27.633  1.00  0.00    -0.246 OA
BRANCH   3   5
ATOM      5  C   UNL A   1      35.092  31.054  27.808  1.00  0.00     0.060 A 
ATOM      6  C   UNL A   1      36.181  31.906  28.009  1.00  0.00     0.016 A 
ATOM      7  C   UNL A   1      35.225  29.719  28.237  1.00  0.00     0.016 A 
ATOM      8  C   UNL A   1      37.295  31.502  28.750  1.00  0.00     0.010 A 
ATOM      9  C   UNL A   1      36.307  29.328  29.031  1.00  0.00     0.010 A 
ATOM     10  C   UNL A   1      37.352  30.224  29.299  1.00  0.00    -0.014 A 
BRANCH  10  11
ATOM     11  C   UNL A   1      38.607  29.759  29.932  1.00  0.00     0.031 A 
ATOM     12  C   UNL A   1      38.873  30.245  31.326  1.00  0.00     0.074 A 
ATOM     13  C   UNL A   1      39.446  28.894  29.326  1.00  0.00     0.049 A 
ATOM     14  N   UNL A   1      39.895  30.025  32.107  1.00  0.00    -0.248 NA
ATOM     15  C   UNL A   1      37.851  31.134  31.909  1.00  0.00     0.031 C 
ATOM     16  C   UNL A   1      39.277  28.339  27.984  1.00  0.00     0.029 A 
ATOM     17  N   UNL A   1      40.608  28.316  29.775  1.00  0.00    -0.354 N 
ATOM     18  C   UNL A   1      39.643  30.773  33.248  1.00  0.00     0.074 A 
ATOM     19  C   UNL A   1      38.441  31.534  33.017  1.00  0.00     0.031 C 
ATOM     20  C   UNL A   1      40.289  27.490  27.724  1.00  0.00     0.029 A 
ATOM     21  C   UNL A   1      41.187  27.452  28.874  1.00  0.00     0.049 A 
ATOM     22  H   UNL A   1      40.993  28.504  30.662  1.00  0.00     0.167 HD
ATOM     23  C   UNL A   1      40.318  30.779  34.418  1.00  0.00     0.037 A 
ATOM     24  C   UNL A   1      42.311  26.714  28.984  1.00  0.00     0.037 A 
ATOM     25  C   UNL A   1      41.481  29.980  34.657  1.00  0.00     0.049 A 
ATOM     26  C   UNL A   1      43.080  26.771  30.285  1.00  0.00     0.074 A 
ATOM     27  C   UNL A   1      42.247  29.890  35.800  1.00  0.00     0.029 A 
ATOM     28  N   UNL A   1      42.041  29.123  33.718  1.00  0.00    -0.354 N 
ATOM     29  N   UNL A   1      42.810  27.446  31.378  1.00  0.00    -0.248 NA
ATOM     30  C   UNL A   1      44.299  25.955  30.374  1.00  0.00     0.031 C 
ATOM     31  C   UNL A   1      43.303  29.012  35.537  1.00  0.00     0.029 A 
ATOM     32  C   UNL A   1      43.159  28.512  34.251  1.00  0.00     0.049 A 
ATOM     33  H   UNL A   1      41.693  28.974  32.809  1.00  0.00     0.167 HD
ATOM     34  C   UNL A   1      43.801  27.112  32.292  1.00  0.00     0.074 A 
ATOM     35  C   UNL A   1      44.670  26.160  31.630  1.00  0.00     0.031 C 
ATOM     36  C   UNL A   1      43.983  27.549  33.563  1.00  0.00     0.037 A 
BRANCH  23  37
ATOM     37  C   UNL A   1      39.795  31.694  35.484  1.00  0.00     0.064 A 
ATOM     38  C   UNL A   1      38.744  31.312  36.337  1.00  0.00     0.173 A 
ATOM     39  C   UNL A   1      40.277  33.005  35.585  1.00  0.00     0.173 A 
ATOM     40  F   UNL A   1      38.221  30.078  36.253  1.00  0.00    -0.203 F 
ATOM     41  C   UNL A   1      38.154  32.229  37.201  1.00  0.00     0.198 A 
ATOM     42  C   UNL A   1      39.712  33.908  36.482  1.00  0.00     0.198 A 
ATOM     43  F   UNL A   1      41.275  33.422  34.790  1.00  0.00    -0.203 F 
ATOM     44  F   UNL A   1      37.083  31.872  37.924  1.00  0.00    -0.200 F 
ATOM     45  C   UNL A   1      38.640  33.525  37.274  1.00  0.00     0.200 A 
ATOM     46  F   UNL A   1      40.184  35.159  36.554  1.00  0.00    -0.200 F 
ATOM     47  F   UNL A   1      38.058  34.414  38.091  1.00  0.00    -0.200 F 
ENDBRANCH  23  37
BRANCH  24  48
ATOM     48  C   UNL A   1      42.779  25.850  27.862  1.00  0.00     0.064 A 
ATOM     49  C   UNL A   1      43.686  26.325  26.901  1.00  0.00     0.173 A 
ATOM     50  C   UNL A   1      42.288  24.546  27.691  1.00  0.00     0.173 A 
ATOM     51  F   UNL A   1      44.175  27.570  27.002  1.00  0.00    -0.203 F 
ATOM     52  C   UNL A   1      44.055  25.548  25.802  1.00  0.00     0.198 A 
ATOM     53  C   UNL A   1      42.681  23.758  26.607  1.00  0.00     0.198 A 
ATOM     54  F   UNL A   1      41.422  24.033  28.577  1.00  0.00    -0.203 F 
ATOM     55  F   UNL A   1      44.877  26.053  24.872  1.00  0.00    -0.200 F 
ATOM     56  C   UNL A   1      43.554  24.264  25.657  1.00  0.00     0.200 A 
ATOM     57  F   UNL A   1      42.204  22.512  26.481  1.00  0.00    -0.200 F 
ATOM     58  F   UNL A   1      43.903  23.519  24.600  1.00  0.00    -0.200 F 
ENDBRANCH  24  48
BRANCH  36  59
ATOM     59  C   UNL A   1      45.132  26.974  34.339  1.00  0.00     0.064 A 
ATOM     60  C   UNL A   1      46.381  27.608  34.384  1.00  0.00     0.173 A 
ATOM     61  C   UNL A   1      44.946  25.824  35.120  1.00  0.00     0.173 A 
ATOM     62  F   UNL A   1      46.609  28.705  33.645  1.00  0.00    -0.203 F 
ATOM     63  C   UNL A   1      47.409  27.103  35.175  1.00  0.00     0.198 A 
ATOM     64  C   UNL A   1      45.964  25.341  35.937  1.00  0.00     0.198 A 
ATOM     65  F   UNL A   1      43.765  25.187  35.118  1.00  0.00    -0.203 F 
ATOM     66  F   UNL A   1      48.606  27.702  35.176  1.00  0.00    -0.200 F 
ATOM     67  C   UNL A   1      47.195  25.978  35.959  1.00  0.00     0.200 A 
ATOM     68  F   UNL A   1      45.748  24.269  36.710  1.00  0.00    -0.200 F 
ATOM     69  F   UNL A   1      48.179  25.507  36.738  1.00  0.00    -0.200 F 
ENDBRANCH  36  59
ENDBRANCH  10  11
ENDBRANCH   3   5
ENDBRANCH   2   3
ENDBRANCH   1   2
BRANCH   1  70
ATOM     70  C   UNL A   1      31.946  28.616  27.258  1.00  0.00     0.274 C 
BRANCH  70  71
ATOM     71  O   UNL A   1      32.428  27.622  26.330  1.00  0.00    -0.462 OA
BRANCH  71  72
ATOM     72  C   UNL A   1      31.494  26.733  25.866  1.00  0.00     0.310 C 
ATOM     73  O   UNL A   1      30.499  26.413  26.501  1.00  0.00    -0.252 OA
BRANCH  72  74
ATOM     74  C   UNL A   1      31.875  26.215  24.475  1.00  0.00     0.112 C 
ATOM     75  C   UNL A   1      33.344  26.479  24.145  1.00  0.00     0.016 C 
ATOM     76  C   UNL A   1      30.988  26.741  23.329  1.00  0.00     0.066 C 
ATOM     77  C   UNL A   1      33.784  25.794  22.854  1.00  0.00     0.001 C 
ATOM     78  C   UNL A   1      31.402  26.000  22.034  1.00  0.00     0.016 C 
ATOM     79  C   UNL A   1      32.886  26.157  21.681  1.00  0.00     0.001 C 
BRANCH  76  80
ATOM     80  S   UNL A   1      31.255  28.561  23.147  1.00  0.00    -0.122 SA
BRANCH  80  81
ATOM     81  C   UNL A   1      29.662  29.315  23.184  1.00  0.00     0.011 A 
ATOM     82  C   UNL A   1      29.398  30.658  23.406  1.00  0.00     0.035 A 
ATOM     83  C   UNL A   1      28.594  28.433  23.027  1.00  0.00     0.035 A 
ATOM     84  C   UNL A   1      28.076  31.055  23.501  1.00  0.00     0.112 A 
ATOM     85  C   UNL A   1      27.308  28.924  23.126  1.00  0.00     0.112 A 
ATOM     86  N   UNL A   1      27.025  30.218  23.369  1.00  0.00    -0.265 NA
ENDBRANCH  80  81
ENDBRANCH  76  80
ENDBRANCH  72  74
ENDBRANCH  71  72
ENDBRANCH  70  71
ENDBRANCH   1  70
TORSDOF 13
ENDMDL
