MODEL 1
REMARK VINA RESULT:     -11.2      0.000      0.000
REMARK SMILES NC(=O)C[C@@H](CC(=O)OCCOC(=O)c1ccc(-c2c3nc(c(-c4c(F)c(F)c(F)c(F)c4F)c4ccc([nH]4)c(-c4c(F)c(F)c(F)c(F)c4F)c4nc(c(-c5c(F)c(F)c(F)c(F)c5F)c5ccc2[nH]5)C=C4)C=C3)cc1)c1cccc(Br)c1
REMARK SMILES IDX 10 1 9 2 7 3 8 4 6 5 5 6 4 7 2 8 1 9 3 12 78 13 79 14 84 15
REMARK SMILES IDX 80 16 82 17 81 18 83 19 11 20 12 21 13 22 14 23 15 24 16 25
REMARK SMILES IDX 77 26 17 27 76 28 18 29 19 30 20 31 70 32 21 33 75 34 69 35
REMARK SMILES IDX 71 36 22 37 74 38 68 39 67 40 23 42 55 43 35 44 54 45 36 46
REMARK SMILES IDX 39 47 53 48 72 49 37 50 38 51 52 53 73 54 40 55 24 56 25 57
REMARK SMILES IDX 33 58 26 59 27 60 31 61 34 62 28 63 29 64 32 65 30 66 56 67
REMARK SMILES IDX 57 68 65 69 58 70 59 71 63 72 66 73 60 74 61 75 64 76 62 77
REMARK SMILES IDX 41 78 42 79 50 80 43 81 44 82 48 83 51 84 45 85 46 86 49 87
REMARK SMILES IDX 47 88
REMARK H PARENT 1 10 1 11 71 41 39 52
REMARK Flexibility Score: inf
ROOT
ATOM      1  C   UNL A   1      31.790  29.038  24.698  1.00  0.00     0.274 C 
ENDROOT
BRANCH   1   2
ATOM      2  O   UNL A   1      31.057  27.876  25.139  1.00  0.00    -0.462 OA
BRANCH   2   3
ATOM      3  C   UNL A   1      31.594  27.195  26.180  1.00  0.00     0.306 C 
ATOM      4  O   UNL A   1      31.145  27.210  27.322  1.00  0.00    -0.252 OA
BRANCH   3   5
ATOM      5  C   UNL A   1      32.844  26.414  25.842  1.00  0.00     0.131 C 
BRANCH   5   6
ATOM      6  C   UNL A   1      32.773  24.889  25.627  1.00  0.00     0.039 C 
BRANCH   6   7
ATOM      7  C   UNL A   1      32.150  24.106  26.800  1.00  0.00     0.108 C 
BRANCH   7   8
ATOM      8  C   UNL A   1      30.810  23.528  26.408  1.00  0.00     0.218 C 
ATOM      9  N   UNL A   1      29.745  24.362  26.567  1.00  0.00    -0.370 N 
ATOM     10  H   UNL A   1      28.839  24.054  26.332  1.00  0.00     0.159 HD
ATOM     11  H   UNL A   1      29.880  25.272  26.917  1.00  0.00     0.159 HD
ATOM     12  O   UNL A   1      30.676  22.415  25.915  1.00  0.00    -0.275 OA
ENDBRANCH   7   8
ENDBRANCH   6   7
BRANCH   6  13
ATOM     13  C   UNL A   1      34.079  24.322  25.073  1.00  0.00    -0.043 A 
ATOM     14  C   UNL A   1      34.058  23.666  23.825  1.00  0.00     0.004 A 
ATOM     15  C   UNL A   1      35.298  24.382  25.763  1.00  0.00     0.019 A 
ATOM     16  C   UNL A   1      35.211  23.093  23.285  1.00  0.00     0.001 A 
ATOM     17  C   UNL A   1      36.447  23.794  25.224  1.00  0.00     0.018 A 
ATOM     18  C   UNL A   1      36.411  23.154  23.988  1.00  0.00     0.016 A 
ATOM     19  Br  UNL A   1      38.070  23.849  26.196  1.00  0.00    -0.051 Br
ENDBRANCH   6  13
ENDBRANCH   5   6
ENDBRANCH   3   5
ENDBRANCH   2   3
ENDBRANCH   1   2
BRANCH   1  20
ATOM     20  C   UNL A   1      31.812  30.105  25.787  1.00  0.00     0.275 C 
BRANCH  20  21
ATOM     21  O   UNL A   1      33.175  30.400  26.128  1.00  0.00    -0.458 OA
BRANCH  21  22
ATOM     22  C   UNL A   1      33.346  31.406  27.017  1.00  0.00     0.338 C 
ATOM     23  O   UNL A   1      32.656  32.399  27.154  1.00  0.00    -0.246 OA
BRANCH  22  24
ATOM     24  C   UNL A   1      34.576  31.170  27.788  1.00  0.00     0.060 A 
ATOM     25  C   UNL A   1      35.531  32.176  27.958  1.00  0.00     0.016 A 
ATOM     26  C   UNL A   1      34.798  29.891  28.298  1.00  0.00     0.016 A 
ATOM     27  C   UNL A   1      36.732  31.892  28.607  1.00  0.00     0.010 A 
ATOM     28  C   UNL A   1      35.971  29.626  29.002  1.00  0.00     0.010 A 
ATOM     29  C   UNL A   1      36.954  30.619  29.147  1.00  0.00    -0.014 A 
BRANCH  29  30
ATOM     30  C   UNL A   1      38.207  30.304  29.876  1.00  0.00     0.031 A 
ATOM     31  C   UNL A   1      39.204  29.355  29.278  1.00  0.00     0.074 A 
ATOM     32  C   UNL A   1      38.416  30.831  31.095  1.00  0.00     0.049 A 
ATOM     33  N   UNL A   1      40.261  28.809  29.826  1.00  0.00    -0.248 NA
ATOM     34  C   UNL A   1      38.977  28.955  27.881  1.00  0.00     0.031 C 
ATOM     35  C   UNL A   1      37.529  31.781  31.766  1.00  0.00     0.029 A 
ATOM     36  N   UNL A   1      39.431  30.627  31.995  1.00  0.00    -0.354 N 
ATOM     37  C   UNL A   1      40.804  27.978  28.857  1.00  0.00     0.074 A 
ATOM     38  C   UNL A   1      39.959  28.085  27.685  1.00  0.00     0.031 C 
ATOM     39  C   UNL A   1      38.039  32.082  32.971  1.00  0.00     0.029 A 
ATOM     40  C   UNL A   1      39.252  31.297  33.180  1.00  0.00     0.049 A 
ATOM     41  H   UNL A   1      40.211  30.057  31.809  1.00  0.00     0.167 HD
ATOM     42  C   UNL A   1      41.906  27.196  28.942  1.00  0.00     0.037 A 
ATOM     43  C   UNL A   1      39.963  31.253  34.321  1.00  0.00     0.037 A 
ATOM     44  C   UNL A   1      42.752  27.113  30.105  1.00  0.00     0.049 A 
ATOM     45  C   UNL A   1      41.162  30.353  34.402  1.00  0.00     0.074 A 
ATOM     46  C   UNL A   1      43.904  26.367  30.286  1.00  0.00     0.029 A 
ATOM     47  N   UNL A   1      42.535  27.806  31.288  1.00  0.00    -0.354 N 
ATOM     48  N   UNL A   1      41.659  29.558  33.487  1.00  0.00    -0.248 NA
ATOM     49  C   UNL A   1      41.891  30.336  35.677  1.00  0.00     0.031 C 
ATOM     50  C   UNL A   1      44.365  26.583  31.589  1.00  0.00     0.029 A 
ATOM     51  C   UNL A   1      43.523  27.493  32.207  1.00  0.00     0.049 A 
ATOM     52  H   UNL A   1      41.788  28.428  31.449  1.00  0.00     0.167 HD
ATOM     53  C   UNL A   1      42.765  28.953  34.068  1.00  0.00     0.074 A 
ATOM     54  C   UNL A   1      42.875  29.488  35.410  1.00  0.00     0.031 C 
ATOM     55  C   UNL A   1      43.610  28.035  33.539  1.00  0.00     0.037 A 
BRANCH  42  56
ATOM     56  C   UNL A   1      42.247  26.343  27.756  1.00  0.00     0.064 A 
ATOM     57  C   UNL A   1      43.189  26.750  26.801  1.00  0.00     0.173 A 
ATOM     58  C   UNL A   1      41.647  25.086  27.593  1.00  0.00     0.173 A 
ATOM     59  F   UNL A   1      43.779  27.950  26.904  1.00  0.00    -0.203 F 
ATOM     60  C   UNL A   1      43.505  25.935  25.715  1.00  0.00     0.198 A 
ATOM     61  C   UNL A   1      41.981  24.265  26.520  1.00  0.00     0.198 A 
ATOM     62  F   UNL A   1      40.740  24.649  28.480  1.00  0.00    -0.203 F 
ATOM     63  F   UNL A   1      44.381  26.360  24.794  1.00  0.00    -0.200 F 
ATOM     64  C   UNL A   1      42.906  24.692  25.579  1.00  0.00     0.200 A 
ATOM     65  F   UNL A   1      41.407  23.060  26.394  1.00  0.00    -0.200 F 
ATOM     66  F   UNL A   1      43.215  23.908  24.537  1.00  0.00    -0.200 F 
ENDBRANCH  42  56
BRANCH  43  67
ATOM     67  C   UNL A   1      39.535  32.074  35.481  1.00  0.00     0.064 A 
ATOM     68  C   UNL A   1      40.016  33.378  35.655  1.00  0.00     0.173 A 
ATOM     69  C   UNL A   1      38.613  31.585  36.420  1.00  0.00     0.173 A 
ATOM     70  F   UNL A   1      40.915  33.878  34.796  1.00  0.00    -0.203 F 
ATOM     71  C   UNL A   1      39.593  34.163  36.726  1.00  0.00     0.198 A 
ATOM     72  C   UNL A   1      38.172  32.379  37.474  1.00  0.00     0.198 A 
ATOM     73  F   UNL A   1      38.124  30.343  36.296  1.00  0.00    -0.203 F 
ATOM     74  F   UNL A   1      40.088  35.397  36.884  1.00  0.00    -0.200 F 
ATOM     75  C   UNL A   1      38.664  33.666  37.629  1.00  0.00     0.200 A 
ATOM     76  F   UNL A   1      37.266  31.900  38.337  1.00  0.00    -0.200 F 
ATOM     77  F   UNL A   1      38.248  34.427  38.650  1.00  0.00    -0.200 F 
ENDBRANCH  43  67
BRANCH  55  78
ATOM     78  C   UNL A   1      44.737  27.571  34.410  1.00  0.00     0.064 A 
ATOM     79  C   UNL A   1      44.614  26.434  35.222  1.00  0.00     0.173 A 
ATOM     80  C   UNL A   1      45.962  28.255  34.413  1.00  0.00     0.173 A 
ATOM     81  F   UNL A   1      43.455  25.759  35.265  1.00  0.00    -0.203 F 
ATOM     82  C   UNL A   1      45.670  26.012  36.023  1.00  0.00     0.198 A 
ATOM     83  C   UNL A   1      47.022  27.817  35.199  1.00  0.00     0.198 A 
ATOM     84  F   UNL A   1      46.127  29.346  33.649  1.00  0.00    -0.203 F 
ATOM     85  F   UNL A   1      45.518  24.949  36.825  1.00  0.00    -0.200 F 
ATOM     86  C   UNL A   1      46.875  26.700  36.007  1.00  0.00     0.200 A 
ATOM     87  F   UNL A   1      48.188  28.479  35.176  1.00  0.00    -0.200 F 
ATOM     88  F   UNL A   1      47.891  26.291  36.779  1.00  0.00    -0.200 F 
ENDBRANCH  55  78
ENDBRANCH  29  30
ENDBRANCH  22  24
ENDBRANCH  21  22
ENDBRANCH  20  21
ENDBRANCH   1  20
TORSDOF 15
ENDMDL
MODEL 2
REMARK VINA RESULT:     -10.9      4.443      9.500
REMARK SMILES NC(=O)C[C@@H](CC(=O)OCCOC(=O)c1ccc(-c2c3nc(c(-c4c(F)c(F)c(F)c(F)c4F)c4ccc([nH]4)c(-c4c(F)c(F)c(F)c(F)c4F)c4nc(c(-c5c(F)c(F)c(F)c(F)c5F)c5ccc2[nH]5)C=C4)C=C3)cc1)c1cccc(Br)c1
REMARK SMILES IDX 10 1 9 2 7 3 8 4 6 5 5 6 4 7 2 8 1 9 3 12 78 13 79 14 84 15
REMARK SMILES IDX 80 16 82 17 81 18 83 19 11 20 12 21 13 22 14 23 15 24 16 25
REMARK SMILES IDX 77 26 17 27 76 28 18 29 19 30 20 31 70 32 21 33 75 34 69 35
REMARK SMILES IDX 71 36 22 37 74 38 68 39 67 40 23 42 55 43 35 44 54 45 36 46
REMARK SMILES IDX 39 47 53 48 72 49 37 50 38 51 52 53 73 54 40 55 24 56 25 57
REMARK SMILES IDX 33 58 26 59 27 60 31 61 34 62 28 63 29 64 32 65 30 66 56 67
REMARK SMILES IDX 57 68 65 69 58 70 59 71 63 72 66 73 60 74 61 75 64 76 62 77
REMARK SMILES IDX 41 78 42 79 50 80 43 81 44 82 48 83 51 84 45 85 46 86 49 87
REMARK SMILES IDX 47 88
REMARK H PARENT 1 10 1 11 71 41 39 52
REMARK Flexibility Score: inf
ROOT
ATOM      1  C   UNL A   1      35.048  20.947  25.267  1.00  0.00     0.274 C 
ENDROOT
BRANCH   1   2
ATOM      2  O   UNL A   1      34.574  22.264  25.619  1.00  0.00    -0.462 OA
BRANCH   2   3
ATOM      3  C   UNL A   1      33.998  22.974  24.620  1.00  0.00     0.306 C 
ATOM      4  O   UNL A   1      33.243  22.498  23.777  1.00  0.00    -0.252 OA
BRANCH   3   5
ATOM      5  C   UNL A   1      34.383  24.436  24.585  1.00  0.00     0.131 C 
BRANCH   5   6
ATOM      6  C   UNL A   1      33.342  25.505  24.196  1.00  0.00     0.039 C 
BRANCH   6   7
ATOM      7  C   UNL A   1      33.574  26.149  22.814  1.00  0.00     0.108 C 
BRANCH   7   8
ATOM      8  C   UNL A   1      32.816  25.403  21.741  1.00  0.00     0.218 C 
ATOM      9  N   UNL A   1      31.678  24.780  22.154  1.00  0.00    -0.370 N 
ATOM     10  H   UNL A   1      31.131  24.274  21.510  1.00  0.00     0.159 HD
ATOM     11  H   UNL A   1      31.401  24.836  23.097  1.00  0.00     0.159 HD
ATOM     12  O   UNL A   1      33.147  25.402  20.562  1.00  0.00    -0.275 OA
ENDBRANCH   7   8
ENDBRANCH   6   7
BRANCH   6  13
ATOM     13  C   UNL A   1      33.057  26.477  25.339  1.00  0.00    -0.043 A 
ATOM     14  C   UNL A   1      31.760  26.514  25.891  1.00  0.00     0.004 A 
ATOM     15  C   UNL A   1      34.011  27.372  25.845  1.00  0.00     0.019 A 
ATOM     16  C   UNL A   1      31.428  27.408  26.911  1.00  0.00     0.001 A 
ATOM     17  C   UNL A   1      33.669  28.276  26.857  1.00  0.00     0.018 A 
ATOM     18  C   UNL A   1      32.384  28.295  27.394  1.00  0.00     0.016 A 
ATOM     19  Br  UNL A   1      34.962  29.503  27.491  1.00  0.00    -0.051 Br
ENDBRANCH   6  13
ENDBRANCH   5   6
ENDBRANCH   3   5
ENDBRANCH   2   3
ENDBRANCH   1   2
BRANCH   1  20
ATOM     20  C   UNL A   1      36.532  20.986  24.916  1.00  0.00     0.275 C 
BRANCH  20  21
ATOM     21  O   UNL A   1      37.213  21.839  25.849  1.00  0.00    -0.458 OA
BRANCH  21  22
ATOM     22  C   UNL A   1      38.532  21.588  26.008  1.00  0.00     0.338 C 
ATOM     23  O   UNL A   1      39.112  20.531  25.841  1.00  0.00    -0.246 OA
BRANCH  22  24
ATOM     24  C   UNL A   1      39.202  22.801  26.504  1.00  0.00     0.060 A 
ATOM     25  C   UNL A   1      38.761  24.076  26.139  1.00  0.00     0.016 A 
ATOM     26  C   UNL A   1      40.334  22.647  27.303  1.00  0.00     0.016 A 
ATOM     27  C   UNL A   1      39.477  25.201  26.542  1.00  0.00     0.010 A 
ATOM     28  C   UNL A   1      41.013  23.776  27.758  1.00  0.00     0.010 A 
ATOM     29  C   UNL A   1      40.600  25.060  27.368  1.00  0.00    -0.014 A 
BRANCH  29  30
ATOM     30  C   UNL A   1      41.356  26.245  27.842  1.00  0.00     0.031 A 
ATOM     31  C   UNL A   1      40.651  27.331  28.600  1.00  0.00     0.074 A 
ATOM     32  C   UNL A   1      42.662  26.363  27.541  1.00  0.00     0.049 A 
ATOM     33  N   UNL A   1      41.081  28.520  28.938  1.00  0.00    -0.248 NA
ATOM     34  C   UNL A   1      39.271  27.047  29.025  1.00  0.00     0.031 C 
ATOM     35  C   UNL A   1      43.457  25.362  26.830  1.00  0.00     0.029 A 
ATOM     36  N   UNL A   1      43.544  27.385  27.779  1.00  0.00    -0.354 N 
ATOM     37  C   UNL A   1      40.019  29.139  29.582  1.00  0.00     0.074 A 
ATOM     38  C   UNL A   1      38.919  28.197  29.586  1.00  0.00     0.031 C 
ATOM     39  C   UNL A   1      44.712  25.818  26.692  1.00  0.00     0.029 A 
ATOM     40  C   UNL A   1      44.791  27.165  27.247  1.00  0.00     0.049 A 
ATOM     41  H   UNL A   1      43.308  28.197  28.282  1.00  0.00     0.167 HD
ATOM     42  C   UNL A   1      39.971  30.382  30.118  1.00  0.00     0.037 A 
ATOM     43  C   UNL A   1      45.863  27.974  27.176  1.00  0.00     0.037 A 
ATOM     44  C   UNL A   1      41.078  31.303  30.128  1.00  0.00     0.049 A 
ATOM     45  C   UNL A   1      45.774  29.360  27.749  1.00  0.00     0.074 A 
ATOM     46  C   UNL A   1      41.138  32.578  30.664  1.00  0.00     0.029 A 
ATOM     47  N   UNL A   1      42.324  31.043  29.575  1.00  0.00    -0.354 N 
ATOM     48  N   UNL A   1      44.761  29.943  28.341  1.00  0.00    -0.248 NA
ATOM     49  C   UNL A   1      46.972  30.201  27.632  1.00  0.00     0.031 C 
ATOM     50  C   UNL A   1      42.410  33.102  30.406  1.00  0.00     0.029 A 
ATOM     51  C   UNL A   1      43.154  32.139  29.743  1.00  0.00     0.049 A 
ATOM     52  H   UNL A   1      42.579  30.204  29.128  1.00  0.00     0.167 HD
ATOM     53  C   UNL A   1      45.199  31.215  28.679  1.00  0.00     0.074 A 
ATOM     54  C   UNL A   1      46.577  31.312  28.240  1.00  0.00     0.031 C 
ATOM     55  C   UNL A   1      44.521  32.215  29.294  1.00  0.00     0.037 A 
BRANCH  42  56
ATOM     56  C   UNL A   1      38.670  30.831  30.713  1.00  0.00     0.064 A 
ATOM     57  C   UNL A   1      38.439  30.795  32.095  1.00  0.00     0.173 A 
ATOM     58  C   UNL A   1      37.653  31.339  29.890  1.00  0.00     0.173 A 
ATOM     59  F   UNL A   1      39.373  30.304  32.923  1.00  0.00    -0.203 F 
ATOM     60  C   UNL A   1      37.229  31.234  32.631  1.00  0.00     0.198 A 
ATOM     61  C   UNL A   1      36.455  31.798  30.429  1.00  0.00     0.198 A 
ATOM     62  F   UNL A   1      37.825  31.397  28.560  1.00  0.00    -0.203 F 
ATOM     63  F   UNL A   1      37.015  31.155  33.951  1.00  0.00    -0.200 F 
ATOM     64  C   UNL A   1      36.241  31.740  31.798  1.00  0.00     0.200 A 
ATOM     65  F   UNL A   1      35.505  32.294  29.625  1.00  0.00    -0.200 F 
ATOM     66  F   UNL A   1      35.081  32.166  32.315  1.00  0.00    -0.200 F 
ENDBRANCH  42  56
BRANCH  43  67
ATOM     67  C   UNL A   1      47.102  27.491  26.517  1.00  0.00     0.064 A 
ATOM     68  C   UNL A   1      48.102  26.841  27.253  1.00  0.00     0.173 A 
ATOM     69  C   UNL A   1      47.296  27.638  25.135  1.00  0.00     0.173 A 
ATOM     70  F   UNL A   1      47.969  26.699  28.579  1.00  0.00    -0.203 F 
ATOM     71  C   UNL A   1      49.252  26.359  26.632  1.00  0.00     0.198 A 
ATOM     72  C   UNL A   1      48.434  27.133  24.512  1.00  0.00     0.198 A 
ATOM     73  F   UNL A   1      46.367  28.251  24.388  1.00  0.00    -0.203 F 
ATOM     74  F   UNL A   1      50.205  25.766  27.362  1.00  0.00    -0.200 F 
ATOM     75  C   UNL A   1      49.413  26.497  25.260  1.00  0.00     0.200 A 
ATOM     76  F   UNL A   1      48.580  27.256  23.186  1.00  0.00    -0.200 F 
ATOM     77  F   UNL A   1      50.513  26.020  24.663  1.00  0.00    -0.200 F 
ENDBRANCH  43  67
BRANCH  55  78
ATOM     78  C   UNL A   1      45.269  33.488  29.544  1.00  0.00     0.064 A 
ATOM     79  C   UNL A   1      46.020  33.678  30.714  1.00  0.00     0.173 A 
ATOM     80  C   UNL A   1      45.257  34.519  28.593  1.00  0.00     0.173 A 
ATOM     81  F   UNL A   1      46.046  32.726  31.659  1.00  0.00    -0.203 F 
ATOM     82  C   UNL A   1      46.713  34.864  30.931  1.00  0.00     0.198 A 
ATOM     83  C   UNL A   1      45.969  35.694  28.804  1.00  0.00     0.198 A 
ATOM     84  F   UNL A   1      44.555  34.381  27.457  1.00  0.00    -0.203 F 
ATOM     85  F   UNL A   1      47.389  35.043  32.075  1.00  0.00    -0.200 F 
ATOM     86  C   UNL A   1      46.692  35.869  29.975  1.00  0.00     0.200 A 
ATOM     87  F   UNL A   1      45.953  36.661  27.876  1.00  0.00    -0.200 F 
ATOM     88  F   UNL A   1      47.361  37.010  30.186  1.00  0.00    -0.200 F 
ENDBRANCH  55  78
ENDBRANCH  29  30
ENDBRANCH  22  24
ENDBRANCH  21  22
ENDBRANCH  20  21
ENDBRANCH   1  20
TORSDOF 15
ENDMDL
MODEL 3
REMARK VINA RESULT:     -10.9      1.315      2.288
REMARK SMILES NC(=O)C[C@@H](CC(=O)OCCOC(=O)c1ccc(-c2c3nc(c(-c4c(F)c(F)c(F)c(F)c4F)c4ccc([nH]4)c(-c4c(F)c(F)c(F)c(F)c4F)c4nc(c(-c5c(F)c(F)c(F)c(F)c5F)c5ccc2[nH]5)C=C4)C=C3)cc1)c1cccc(Br)c1
REMARK SMILES IDX 10 1 9 2 7 3 8 4 6 5 5 6 4 7 2 8 1 9 3 12 78 13 79 14 84 15
REMARK SMILES IDX 80 16 82 17 81 18 83 19 11 20 12 21 13 22 14 23 15 24 16 25
REMARK SMILES IDX 77 26 17 27 76 28 18 29 19 30 20 31 70 32 21 33 75 34 69 35
REMARK SMILES IDX 71 36 22 37 74 38 68 39 67 40 23 42 55 43 35 44 54 45 36 46
REMARK SMILES IDX 39 47 53 48 72 49 37 50 38 51 52 53 73 54 40 55 24 56 25 57
REMARK SMILES IDX 33 58 26 59 27 60 31 61 34 62 28 63 29 64 32 65 30 66 56 67
REMARK SMILES IDX 57 68 65 69 58 70 59 71 63 72 66 73 60 74 61 75 64 76 62 77
REMARK SMILES IDX 41 78 42 79 50 80 43 81 44 82 48 83 51 84 45 85 46 86 49 87
REMARK SMILES IDX 47 88
REMARK H PARENT 1 10 1 11 71 41 39 52
REMARK Flexibility Score: inf
ROOT
ATOM      1  C   UNL A   1      31.373  28.529  25.376  1.00  0.00     0.274 C 
ENDROOT
BRANCH   1   2
ATOM      2  O   UNL A   1      31.869  27.877  26.564  1.00  0.00    -0.462 OA
BRANCH   2   3
ATOM      3  C   UNL A   1      32.280  26.596  26.409  1.00  0.00     0.306 C 
ATOM      4  O   UNL A   1      31.668  25.617  26.826  1.00  0.00    -0.252 OA
BRANCH   3   5
ATOM      5  C   UNL A   1      33.603  26.442  25.693  1.00  0.00     0.131 C 
BRANCH   5   6
ATOM      6  C   UNL A   1      33.670  25.726  24.329  1.00  0.00     0.039 C 
BRANCH   6   7
ATOM      7  C   UNL A   1      32.430  25.933  23.436  1.00  0.00     0.108 C 
BRANCH   7   8
ATOM      8  C   UNL A   1      32.815  25.933  21.975  1.00  0.00     0.218 C 
ATOM      9  N   UNL A   1      31.849  25.504  21.116  1.00  0.00    -0.370 N 
ATOM     10  H   UNL A   1      32.027  25.476  20.148  1.00  0.00     0.159 HD
ATOM     11  H   UNL A   1      30.972  25.221  21.464  1.00  0.00     0.159 HD
ATOM     12  O   UNL A   1      33.890  26.350  21.562  1.00  0.00    -0.275 OA
ENDBRANCH   7   8
ENDBRANCH   6   7
BRANCH   6  13
ATOM     13  C   UNL A   1      34.159  24.284  24.456  1.00  0.00    -0.043 A 
ATOM     14  C   UNL A   1      35.536  24.049  24.650  1.00  0.00     0.004 A 
ATOM     15  C   UNL A   1      33.312  23.172  24.348  1.00  0.00     0.019 A 
ATOM     16  C   UNL A   1      36.048  22.752  24.734  1.00  0.00     0.001 A 
ATOM     17  C   UNL A   1      33.833  21.875  24.419  1.00  0.00     0.018 A 
ATOM     18  C   UNL A   1      35.195  21.660  24.615  1.00  0.00     0.016 A 
ATOM     19  Br  UNL A   1      32.675  20.391  24.225  1.00  0.00    -0.051 Br
ENDBRANCH   6  13
ENDBRANCH   5   6
ENDBRANCH   3   5
ENDBRANCH   2   3
ENDBRANCH   1   2
BRANCH   1  20
ATOM     20  C   UNL A   1      31.776  30.000  25.362  1.00  0.00     0.275 C 
BRANCH  20  21
ATOM     21  O   UNL A   1      33.070  30.138  25.969  1.00  0.00    -0.458 OA
BRANCH  21  22
ATOM     22  C   UNL A   1      33.189  31.153  26.856  1.00  0.00     0.338 C 
ATOM     23  O   UNL A   1      32.463  32.123  26.975  1.00  0.00    -0.246 OA
BRANCH  22  24
ATOM     24  C   UNL A   1      34.412  30.964  27.651  1.00  0.00     0.060 A 
ATOM     25  C   UNL A   1      35.259  32.034  27.949  1.00  0.00     0.016 A 
ATOM     26  C   UNL A   1      34.741  29.669  28.053  1.00  0.00     0.016 A 
ATOM     27  C   UNL A   1      36.461  31.806  28.616  1.00  0.00     0.010 A 
ATOM     28  C   UNL A   1      35.913  29.451  28.776  1.00  0.00     0.010 A 
ATOM     29  C   UNL A   1      36.790  30.514  29.048  1.00  0.00    -0.014 A 
BRANCH  29  30
ATOM     30  C   UNL A   1      38.044  30.252  29.795  1.00  0.00     0.031 A 
ATOM     31  C   UNL A   1      39.088  29.344  29.212  1.00  0.00     0.074 A 
ATOM     32  C   UNL A   1      38.214  30.788  31.016  1.00  0.00     0.049 A 
ATOM     33  N   UNL A   1      40.158  28.844  29.776  1.00  0.00    -0.248 NA
ATOM     34  C   UNL A   1      38.897  28.934  27.813  1.00  0.00     0.031 C 
ATOM     35  C   UNL A   1      37.279  31.701  31.674  1.00  0.00     0.029 A 
ATOM     36  N   UNL A   1      39.223  30.627  31.930  1.00  0.00    -0.354 N 
ATOM     37  C   UNL A   1      40.749  28.034  28.815  1.00  0.00     0.074 A 
ATOM     38  C   UNL A   1      39.917  28.105  27.632  1.00  0.00     0.031 C 
ATOM     39  C   UNL A   1      37.760  32.024  32.884  1.00  0.00     0.029 A 
ATOM     40  C   UNL A   1      39.001  31.291  33.111  1.00  0.00     0.049 A 
ATOM     41  H   UNL A   1      40.029  30.089  31.757  1.00  0.00     0.167 HD
ATOM     42  C   UNL A   1      41.881  27.299  28.917  1.00  0.00     0.037 A 
ATOM     43  C   UNL A   1      39.696  31.276  34.263  1.00  0.00     0.037 A 
ATOM     44  C   UNL A   1      42.713  27.252  30.092  1.00  0.00     0.049 A 
ATOM     45  C   UNL A   1      40.931  30.427  34.362  1.00  0.00     0.074 A 
ATOM     46  C   UNL A   1      43.893  26.555  30.290  1.00  0.00     0.029 A 
ATOM     47  N   UNL A   1      42.451  27.936  31.270  1.00  0.00    -0.354 N 
ATOM     48  N   UNL A   1      41.473  29.652  33.455  1.00  0.00    -0.248 NA
ATOM     49  C   UNL A   1      41.642  30.442  35.647  1.00  0.00     0.031 C 
ATOM     50  C   UNL A   1      44.326  26.791  31.599  1.00  0.00     0.029 A 
ATOM     51  C   UNL A   1      43.438  27.666  32.205  1.00  0.00     0.049 A 
ATOM     52  H   UNL A   1      41.677  28.527  31.421  1.00  0.00     0.167 HD
ATOM     53  C   UNL A   1      42.594  29.094  34.052  1.00  0.00     0.074 A 
ATOM     54  C   UNL A   1      42.664  29.634  35.395  1.00  0.00     0.031 C 
ATOM     55  C   UNL A   1      43.484  28.212  33.537  1.00  0.00     0.037 A 
BRANCH  42  56
ATOM     56  C   UNL A   1      42.273  26.460  27.737  1.00  0.00     0.064 A 
ATOM     57  C   UNL A   1      43.235  26.891  26.813  1.00  0.00     0.173 A 
ATOM     58  C   UNL A   1      41.703  25.192  27.551  1.00  0.00     0.173 A 
ATOM     59  F   UNL A   1      43.798  28.102  26.939  1.00  0.00    -0.203 F 
ATOM     60  C   UNL A   1      43.599  26.089  25.732  1.00  0.00     0.198 A 
ATOM     61  C   UNL A   1      42.086  24.384  26.483  1.00  0.00     0.198 A 
ATOM     62  F   UNL A   1      40.780  24.732  28.408  1.00  0.00    -0.203 F 
ATOM     63  F   UNL A   1      44.492  26.536  24.839  1.00  0.00    -0.200 F 
ATOM     64  C   UNL A   1      43.028  24.835  25.572  1.00  0.00     0.200 A 
ATOM     65  F   UNL A   1      41.540  23.169  26.334  1.00  0.00    -0.200 F 
ATOM     66  F   UNL A   1      43.383  24.063  24.535  1.00  0.00    -0.200 F 
ENDBRANCH  42  56
BRANCH  43  67
ATOM     67  C   UNL A   1      39.219  32.080  35.416  1.00  0.00     0.064 A 
ATOM     68  C   UNL A   1      38.424  31.502  36.414  1.00  0.00     0.173 A 
ATOM     69  C   UNL A   1      39.573  33.430  35.560  1.00  0.00     0.173 A 
ATOM     70  F   UNL A   1      38.041  30.222  36.306  1.00  0.00    -0.203 F 
ATOM     71  C   UNL A   1      37.999  32.245  37.513  1.00  0.00     0.198 A 
ATOM     72  C   UNL A   1      39.170  34.164  36.671  1.00  0.00     0.198 A 
ATOM     73  F   UNL A   1      40.334  34.027  34.631  1.00  0.00    -0.203 F 
ATOM     74  F   UNL A   1      37.217  31.677  38.441  1.00  0.00    -0.200 F 
ATOM     75  C   UNL A   1      38.380  33.573  37.646  1.00  0.00     0.200 A 
ATOM     76  F   UNL A   1      39.551  35.442  36.802  1.00  0.00    -0.200 F 
ATOM     77  F   UNL A   1      37.982  34.282  38.710  1.00  0.00    -0.200 F 
ENDBRANCH  43  67
BRANCH  55  78
ATOM     78  C   UNL A   1      44.617  27.795  34.423  1.00  0.00     0.064 A 
ATOM     79  C   UNL A   1      45.809  28.533  34.483  1.00  0.00     0.173 A 
ATOM     80  C   UNL A   1      44.501  26.661  35.241  1.00  0.00     0.173 A 
ATOM     81  F   UNL A   1      45.971  29.614  33.706  1.00  0.00    -0.203 F 
ATOM     82  C   UNL A   1      46.852  28.136  35.314  1.00  0.00     0.198 A 
ATOM     83  C   UNL A   1      45.538  26.281  36.086  1.00  0.00     0.198 A 
ATOM     84  F   UNL A   1      43.379  25.926  35.220  1.00  0.00    -0.203 F 
ATOM     85  F   UNL A   1      47.999  28.831  35.325  1.00  0.00    -0.200 F 
ATOM     86  C   UNL A   1      46.714  27.015  36.119  1.00  0.00     0.200 A 
ATOM     87  F   UNL A   1      45.400  25.201  36.869  1.00  0.00    -0.200 F 
ATOM     88  F   UNL A   1      47.720  26.636  36.919  1.00  0.00    -0.200 F 
ENDBRANCH  55  78
ENDBRANCH  29  30
ENDBRANCH  22  24
ENDBRANCH  21  22
ENDBRANCH  20  21
ENDBRANCH   1  20
TORSDOF 15
ENDMDL
