MODEL 1
REMARK VINA RESULT:     -12.3      0.000      0.000
REMARK SMILES Cn1c(C[N@@H+]2CCOC[C@H]2CC(=O)OCCOC(=O)c2ccc(-c3c4nc(c(-c5c(F)c(F)c(F)c(F)c5F)c5ccc([nH]5)c(-c5c(F)c(F)c(F)c(F)c5F)c5nc(c(-c6c(F)c(F)c(F)c(F)c6F)c6ccc3[nH]6)C=C5)C=C4)cc2)nc2ccccc21
REMARK SMILES IDX 15 1 14 2 12 3 13 4 11 5 10 6 5 7 6 8 7 10 9 11 8 12 4 13
REMARK SMILES IDX 3 14 1 15 2 16 89 17 83 18 84 19 88 20 85 21 87 22 86 23
REMARK SMILES IDX 16 24 17 25 18 26 19 27 20 28 21 29 82 30 22 31 81 32 23 33
REMARK SMILES IDX 24 34 25 35 75 36 26 37 80 38 74 39 76 40 27 41 79 42 73 43
REMARK SMILES IDX 72 44 28 46 60 47 40 48 59 49 41 50 44 51 58 52 77 53 42 54
REMARK SMILES IDX 43 55 57 57 78 58 45 59 29 60 30 61 38 62 31 63 32 64 36 65
REMARK SMILES IDX 39 66 33 67 34 68 37 69 35 70 61 71 62 72 70 73 63 74 64 75
REMARK SMILES IDX 68 76 71 77 65 78 66 79 69 80 67 81 46 82 47 83 55 84 48 85
REMARK SMILES IDX 49 86 53 87 56 88 50 89 51 90 54 91 52 92
REMARK H PARENT 5 9 76 45 44 56
REMARK Flexibility Score: inf
ROOT
ATOM      1  C   UNL A   1      31.565  28.436  25.986  1.00  0.00     0.274 C 
ENDROOT
BRANCH   1   2
ATOM      2  O   UNL A   1      32.782  27.758  26.337  1.00  0.00    -0.462 OA
BRANCH   2   3
ATOM      3  C   UNL A   1      33.292  26.937  25.389  1.00  0.00     0.312 C 
ATOM      4  O   UNL A   1      33.640  27.301  24.269  1.00  0.00    -0.252 OA
BRANCH   3   5
ATOM      5  C   UNL A   1      33.319  25.490  25.788  1.00  0.00     0.190 C 
BRANCH   5   6
ATOM      6  C   UNL A   1      32.571  24.469  24.893  1.00  0.00     0.221 C 
ATOM      7  N   UNL A   1      32.835  23.076  25.310  1.00  0.00    -0.322 N 
ATOM      8  C   UNL A   1      32.215  22.775  26.614  1.00  0.00     0.291 C 
ATOM      9  H   UNL A   1      33.845  23.022  25.444  1.00  0.00     0.348 HD
ATOM     10  C   UNL A   1      30.827  23.406  26.895  1.00  0.00     0.221 C 
ATOM     11  C   UNL A   1      31.067  24.807  25.013  1.00  0.00     0.225 C 
ATOM     12  O   UNL A   1      30.671  24.740  26.388  1.00  0.00    -0.369 OA
BRANCH   7  13
ATOM     13  C   UNL A   1      32.625  22.041  24.271  1.00  0.00     0.339 C 
BRANCH  13  14
ATOM     14  C   UNL A   1      32.983  20.629  24.649  1.00  0.00     0.165 A 
ATOM     15  C   UNL A   1      35.513  20.823  24.716  1.00  0.00     0.152 C 
ATOM     16  N   UNL A   1      34.261  20.109  24.728  1.00  0.00    -0.326 N 
ATOM     17  C   UNL A   1      34.155  18.733  24.735  1.00  0.00     0.068 A 
ATOM     18  N   UNL A   1      32.101  19.680  24.909  1.00  0.00    -0.227 NA
ATOM     19  C   UNL A   1      32.791  18.500  24.854  1.00  0.00     0.089 A 
ATOM     20  C   UNL A   1      35.086  17.693  24.623  1.00  0.00     0.028 A 
ATOM     21  C   UNL A   1      32.300  17.187  24.840  1.00  0.00     0.030 A 
ATOM     22  C   UNL A   1      34.578  16.387  24.580  1.00  0.00     0.002 A 
ATOM     23  C   UNL A   1      33.207  16.135  24.680  1.00  0.00     0.002 A 
ENDBRANCH  13  14
ENDBRANCH   7  13
ENDBRANCH   5   6
ENDBRANCH   3   5
ENDBRANCH   2   3
ENDBRANCH   1   2
BRANCH   1  24
ATOM     24  C   UNL A   1      31.777  29.944  25.829  1.00  0.00     0.275 C 
BRANCH  24  25
ATOM     25  O   UNL A   1      33.156  30.321  25.995  1.00  0.00    -0.458 OA
BRANCH  25  26
ATOM     26  C   UNL A   1      33.395  31.267  26.931  1.00  0.00     0.338 C 
ATOM     27  O   UNL A   1      32.654  32.172  27.287  1.00  0.00    -0.246 OA
BRANCH  26  28
ATOM     28  C   UNL A   1      34.683  30.999  27.587  1.00  0.00     0.060 A 
ATOM     29  C   UNL A   1      34.975  29.687  27.973  1.00  0.00     0.016 A 
ATOM     30  C   UNL A   1      35.561  32.042  27.887  1.00  0.00     0.016 A 
ATOM     31  C   UNL A   1      36.151  29.408  28.665  1.00  0.00     0.010 A 
ATOM     32  C   UNL A   1      36.739  31.761  28.584  1.00  0.00     0.010 A 
ATOM     33  C   UNL A   1      37.036  30.446  28.985  1.00  0.00    -0.014 A 
BRANCH  33  34
ATOM     34  C   UNL A   1      38.253  30.170  29.781  1.00  0.00     0.031 A 
ATOM     35  C   UNL A   1      39.302  29.249  29.238  1.00  0.00     0.074 A 
ATOM     36  C   UNL A   1      38.407  30.738  30.991  1.00  0.00     0.049 A 
ATOM     37  N   UNL A   1      40.369  28.766  29.823  1.00  0.00    -0.248 NA
ATOM     38  C   UNL A   1      39.125  28.806  27.846  1.00  0.00     0.031 C 
ATOM     39  C   UNL A   1      37.476  31.684  31.603  1.00  0.00     0.029 A 
ATOM     40  N   UNL A   1      39.396  30.583  31.929  1.00  0.00    -0.354 N 
ATOM     41  C   UNL A   1      40.979  27.950  28.881  1.00  0.00     0.074 A 
ATOM     42  C   UNL A   1      40.156  27.988  27.690  1.00  0.00     0.031 C 
ATOM     43  C   UNL A   1      37.929  32.014  32.823  1.00  0.00     0.029 A 
ATOM     44  C   UNL A   1      39.154  31.267  33.094  1.00  0.00     0.049 A 
ATOM     45  H   UNL A   1      40.202  30.036  31.780  1.00  0.00     0.167 HD
ATOM     46  C   UNL A   1      42.123  27.235  29.002  1.00  0.00     0.037 A 
ATOM     47  C   UNL A   1      39.827  31.259  34.261  1.00  0.00     0.037 A 
ATOM     48  C   UNL A   1      42.937  27.204  30.190  1.00  0.00     0.049 A 
ATOM     49  C   UNL A   1      41.063  30.412  34.392  1.00  0.00     0.074 A 
ATOM     50  C   UNL A   1      44.112  26.510  30.416  1.00  0.00     0.029 A 
ATOM     51  N   UNL A   1      42.655  27.904  31.355  1.00  0.00    -0.354 N 
ATOM     52  N   UNL A   1      41.626  29.628  33.504  1.00  0.00    -0.248 NA
ATOM     53  C   UNL A   1      41.753  30.443  35.688  1.00  0.00     0.031 C 
ATOM     54  C   UNL A   1      44.522  26.760  31.730  1.00  0.00     0.029 A 
ATOM     55  C   UNL A   1      43.627  27.646  32.309  1.00  0.00     0.049 A 
ATOM     56  H   UNL A   1      41.880  28.496  31.485  1.00  0.00     0.167 HD
ATOM     57  C   UNL A   1      42.745  29.090  34.125  1.00  0.00     0.074 A 
ATOM     58  C   UNL A   1      42.788  29.647  35.462  1.00  0.00     0.031 C 
ATOM     59  C   UNL A   1      43.654  28.213  33.633  1.00  0.00     0.037 A 
BRANCH  46  60
ATOM     60  C   UNL A   1      42.543  26.402  27.828  1.00  0.00     0.064 A 
ATOM     61  C   UNL A   1      42.052  25.103  27.632  1.00  0.00     0.173 A 
ATOM     62  C   UNL A   1      43.435  26.917  26.876  1.00  0.00     0.173 A 
ATOM     63  F   UNL A   1      41.211  24.557  28.523  1.00  0.00    -0.203 F 
ATOM     64  C   UNL A   1      42.458  24.341  26.540  1.00  0.00     0.198 A 
ATOM     65  C   UNL A   1      43.820  26.163  25.771  1.00  0.00     0.198 A 
ATOM     66  F   UNL A   1      43.932  28.155  27.016  1.00  0.00    -0.203 F 
ATOM     67  F   UNL A   1      42.014  23.084  26.397  1.00  0.00    -0.200 F 
ATOM     68  C   UNL A   1      43.336  24.873  25.607  1.00  0.00     0.200 A 
ATOM     69  F   UNL A   1      44.662  26.681  24.867  1.00  0.00    -0.200 F 
ATOM     70  F   UNL A   1      43.726  24.139  24.555  1.00  0.00    -0.200 F 
ENDBRANCH  46  60
BRANCH  47  71
ATOM     71  C   UNL A   1      39.323  32.060  35.404  1.00  0.00     0.064 A 
ATOM     72  C   UNL A   1      38.494  31.489  36.378  1.00  0.00     0.173 A 
ATOM     73  C   UNL A   1      39.669  33.412  35.550  1.00  0.00     0.173 A 
ATOM     74  F   UNL A   1      38.115  30.208  36.266  1.00  0.00    -0.203 F 
ATOM     75  C   UNL A   1      38.021  32.243  37.450  1.00  0.00     0.198 A 
ATOM     76  C   UNL A   1      39.217  34.158  36.637  1.00  0.00     0.198 A 
ATOM     77  F   UNL A   1      40.459  34.006  34.643  1.00  0.00    -0.203 F 
ATOM     78  F   UNL A   1      37.197  31.683  38.347  1.00  0.00    -0.200 F 
ATOM     79  C   UNL A   1      38.389  33.574  37.583  1.00  0.00     0.200 A 
ATOM     80  F   UNL A   1      39.583  35.440  36.767  1.00  0.00    -0.200 F 
ATOM     81  F   UNL A   1      37.938  34.295  38.619  1.00  0.00    -0.200 F 
ENDBRANCH  47  71
BRANCH  59  82
ATOM     82  C   UNL A   1      44.789  27.826  34.533  1.00  0.00     0.064 A 
ATOM     83  C   UNL A   1      45.979  28.568  34.575  1.00  0.00     0.173 A 
ATOM     84  C   UNL A   1      44.669  26.722  35.392  1.00  0.00     0.173 A 
ATOM     85  F   UNL A   1      46.146  29.622  33.763  1.00  0.00    -0.203 F 
ATOM     86  C   UNL A   1      47.016  28.206  35.431  1.00  0.00     0.198 A 
ATOM     87  C   UNL A   1      45.698  26.379  36.263  1.00  0.00     0.198 A 
ATOM     88  F   UNL A   1      43.549  25.985  35.392  1.00  0.00    -0.203 F 
ATOM     89  F   UNL A   1      48.160  28.904  35.427  1.00  0.00    -0.200 F 
ATOM     90  C   UNL A   1      46.873  27.116  36.278  1.00  0.00     0.200 A 
ATOM     91  F   UNL A   1      45.553  25.332  37.088  1.00  0.00    -0.200 F 
ATOM     92  F   UNL A   1      47.869  26.773  37.104  1.00  0.00    -0.200 F 
ENDBRANCH  59  82
ENDBRANCH  33  34
ENDBRANCH  26  28
ENDBRANCH  25  26
ENDBRANCH  24  25
ENDBRANCH   1  24
TORSDOF 14
ENDMDL
MODEL 2
REMARK VINA RESULT:     -12.2      1.364      1.965
REMARK SMILES Cn1c(C[N@@H+]2CCOC[C@H]2CC(=O)OCCOC(=O)c2ccc(-c3c4nc(c(-c5c(F)c(F)c(F)c(F)c5F)c5ccc([nH]5)c(-c5c(F)c(F)c(F)c(F)c5F)c5nc(c(-c6c(F)c(F)c(F)c(F)c6F)c6ccc3[nH]6)C=C5)C=C4)cc2)nc2ccccc21
REMARK SMILES IDX 15 1 14 2 12 3 13 4 11 5 10 6 5 7 6 8 7 10 9 11 8 12 4 13
REMARK SMILES IDX 3 14 1 15 2 16 89 17 83 18 84 19 88 20 85 21 87 22 86 23
REMARK SMILES IDX 16 24 17 25 18 26 19 27 20 28 21 29 82 30 22 31 81 32 23 33
REMARK SMILES IDX 24 34 25 35 75 36 26 37 80 38 74 39 76 40 27 41 79 42 73 43
REMARK SMILES IDX 72 44 28 46 60 47 40 48 59 49 41 50 44 51 58 52 77 53 42 54
REMARK SMILES IDX 43 55 57 57 78 58 45 59 29 60 30 61 38 62 31 63 32 64 36 65
REMARK SMILES IDX 39 66 33 67 34 68 37 69 35 70 61 71 62 72 70 73 63 74 64 75
REMARK SMILES IDX 68 76 71 77 65 78 66 79 69 80 67 81 46 82 47 83 55 84 48 85
REMARK SMILES IDX 49 86 53 87 56 88 50 89 51 90 54 91 52 92
REMARK H PARENT 5 9 76 45 44 56
REMARK Flexibility Score: inf
ROOT
ATOM      1  C   UNL A   1      32.037  29.274  24.829  1.00  0.00     0.274 C 
ENDROOT
BRANCH   1   2
ATOM      2  O   UNL A   1      31.235  29.327  23.639  1.00  0.00    -0.462 OA
BRANCH   2   3
ATOM      3  C   UNL A   1      30.729  28.145  23.216  1.00  0.00     0.312 C 
ATOM      4  O   UNL A   1      30.559  27.843  22.038  1.00  0.00    -0.252 OA
BRANCH   3   5
ATOM      5  C   UNL A   1      30.292  27.238  24.329  1.00  0.00     0.190 C 
BRANCH   5   6
ATOM      6  C   UNL A   1      30.470  25.710  24.141  1.00  0.00     0.221 C 
ATOM      7  N   UNL A   1      31.818  25.371  23.639  1.00  0.00    -0.322 N 
ATOM      8  C   UNL A   1      32.855  25.625  24.656  1.00  0.00     0.291 C 
ATOM      9  H   UNL A   1      31.990  26.022  22.872  1.00  0.00     0.348 HD
ATOM     10  C   UNL A   1      32.488  25.308  26.128  1.00  0.00     0.221 C 
ATOM     11  C   UNL A   1      30.220  25.071  25.527  1.00  0.00     0.225 C 
ATOM     12  O   UNL A   1      31.133  25.626  26.481  1.00  0.00    -0.369 OA
BRANCH   7  13
ATOM     13  C   UNL A   1      31.938  24.068  22.944  1.00  0.00     0.339 C 
BRANCH  13  14
ATOM     14  C   UNL A   1      33.173  23.259  23.245  1.00  0.00     0.165 A 
ATOM     15  C   UNL A   1      32.177  21.491  24.768  1.00  0.00     0.152 C 
ATOM     16  N   UNL A   1      33.256  22.205  24.133  1.00  0.00    -0.326 N 
ATOM     17  C   UNL A   1      34.592  21.983  24.398  1.00  0.00     0.068 A 
ATOM     18  N   UNL A   1      34.364  23.497  22.724  1.00  0.00    -0.227 NA
ATOM     19  C   UNL A   1      35.256  22.804  23.496  1.00  0.00     0.089 A 
ATOM     20  C   UNL A   1      35.272  21.191  25.331  1.00  0.00     0.028 A 
ATOM     21  C   UNL A   1      36.656  22.879  23.515  1.00  0.00     0.030 A 
ATOM     22  C   UNL A   1      36.670  21.299  25.358  1.00  0.00     0.002 A 
ATOM     23  C   UNL A   1      37.353  22.132  24.470  1.00  0.00     0.002 A 
ENDBRANCH  13  14
ENDBRANCH   7  13
ENDBRANCH   5   6
ENDBRANCH   3   5
ENDBRANCH   2   3
ENDBRANCH   1   2
BRANCH   1  24
ATOM     24  C   UNL A   1      31.781  30.473  25.746  1.00  0.00     0.275 C 
BRANCH  24  25
ATOM     25  O   UNL A   1      32.577  30.423  26.944  1.00  0.00    -0.458 OA
BRANCH  25  26
ATOM     26  C   UNL A   1      33.237  31.561  27.255  1.00  0.00     0.338 C 
ATOM     27  O   UNL A   1      32.838  32.712  27.147  1.00  0.00    -0.246 OA
BRANCH  26  28
ATOM     28  C   UNL A   1      34.527  31.231  27.878  1.00  0.00     0.060 A 
ATOM     29  C   UNL A   1      34.721  29.933  28.363  1.00  0.00     0.016 A 
ATOM     30  C   UNL A   1      35.507  32.209  28.050  1.00  0.00     0.016 A 
ATOM     31  C   UNL A   1      35.900  29.604  29.026  1.00  0.00     0.010 A 
ATOM     32  C   UNL A   1      36.689  31.878  28.720  1.00  0.00     0.010 A 
ATOM     33  C   UNL A   1      36.887  30.579  29.219  1.00  0.00    -0.014 A 
BRANCH  33  34
ATOM     34  C   UNL A   1      38.113  30.258  29.986  1.00  0.00     0.031 A 
ATOM     35  C   UNL A   1      39.115  29.301  29.415  1.00  0.00     0.074 A 
ATOM     36  C   UNL A   1      38.316  30.816  31.192  1.00  0.00     0.049 A 
ATOM     37  N   UNL A   1      40.178  28.780  29.973  1.00  0.00    -0.248 NA
ATOM     38  C   UNL A   1      38.888  28.869  28.027  1.00  0.00     0.031 C 
ATOM     39  C   UNL A   1      37.434  31.793  31.828  1.00  0.00     0.029 A 
ATOM     40  N   UNL A   1      39.322  30.624  32.105  1.00  0.00    -0.354 N 
ATOM     41  C   UNL A   1      40.736  27.945  29.015  1.00  0.00     0.074 A 
ATOM     42  C   UNL A   1      39.886  28.015  27.845  1.00  0.00     0.031 C 
ATOM     43  C   UNL A   1      37.928  32.104  33.037  1.00  0.00     0.029 A 
ATOM     44  C   UNL A   1      39.132  31.312  33.278  1.00  0.00     0.049 A 
ATOM     45  H   UNL A   1      40.103  30.049  31.936  1.00  0.00     0.167 HD
ATOM     46  C   UNL A   1      41.856  27.189  29.107  1.00  0.00     0.037 A 
ATOM     47  C   UNL A   1      39.832  31.278  34.428  1.00  0.00     0.037 A 
ATOM     48  C   UNL A   1      42.697  27.127  30.274  1.00  0.00     0.049 A 
ATOM     49  C   UNL A   1      41.040  30.387  34.527  1.00  0.00     0.074 A 
ATOM     50  C   UNL A   1      43.852  26.391  30.470  1.00  0.00     0.029 A 
ATOM     51  N   UNL A   1      42.469  27.833  31.448  1.00  0.00    -0.354 N 
ATOM     52  N   UNL A   1      41.554  29.586  33.624  1.00  0.00    -0.248 NA
ATOM     53  C   UNL A   1      41.762  30.390  35.806  1.00  0.00     0.031 C 
ATOM     54  C   UNL A   1      44.303  26.623  31.775  1.00  0.00     0.029 A 
ATOM     55  C   UNL A   1      43.453  27.538  32.377  1.00  0.00     0.049 A 
ATOM     56  H   UNL A   1      41.718  28.452  31.597  1.00  0.00     0.167 HD
ATOM     57  C   UNL A   1      42.668  29.007  34.216  1.00  0.00     0.074 A 
ATOM     58  C   UNL A   1      42.763  29.558  35.553  1.00  0.00     0.031 C 
ATOM     59  C   UNL A   1      43.533  28.100  33.701  1.00  0.00     0.037 A 
BRANCH  46  60
ATOM     60  C   UNL A   1      42.219  26.346  27.921  1.00  0.00     0.064 A 
ATOM     61  C   UNL A   1      41.612  25.102  27.688  1.00  0.00     0.173 A 
ATOM     62  C   UNL A   1      43.171  26.795  26.995  1.00  0.00     0.173 A 
ATOM     63  F   UNL A   1      40.708  24.620  28.554  1.00  0.00    -0.203 F 
ATOM     64  C   UNL A   1      41.965  24.329  26.586  1.00  0.00     0.198 A 
ATOM     65  C   UNL A   1      43.504  26.031  25.880  1.00  0.00     0.198 A 
ATOM     66  F   UNL A   1      43.779  27.978  27.171  1.00  0.00    -0.203 F 
ATOM     67  F   UNL A   1      41.408  23.123  26.408  1.00  0.00    -0.200 F 
ATOM     68  C   UNL A   1      42.906  24.796  25.680  1.00  0.00     0.200 A 
ATOM     69  F   UNL A   1      44.406  26.488  25.001  1.00  0.00    -0.200 F 
ATOM     70  F   UNL A   1      43.244  24.050  24.618  1.00  0.00    -0.200 F 
ENDBRANCH  46  60
BRANCH  47  71
ATOM     71  C   UNL A   1      39.385  32.093  35.584  1.00  0.00     0.064 A 
ATOM     72  C   UNL A   1      38.514  31.567  36.547  1.00  0.00     0.173 A 
ATOM     73  C   UNL A   1      39.827  33.414  35.755  1.00  0.00     0.173 A 
ATOM     74  F   UNL A   1      38.045  30.318  36.412  1.00  0.00    -0.203 F 
ATOM     75  C   UNL A   1      38.095  32.333  37.632  1.00  0.00     0.198 A 
ATOM     76  C   UNL A   1      39.427  34.171  36.854  1.00  0.00     0.198 A 
ATOM     77  F   UNL A   1      40.660  33.964  34.859  1.00  0.00    -0.203 F 
ATOM     78  F   UNL A   1      37.231  31.819  38.518  1.00  0.00    -0.200 F 
ATOM     79  C   UNL A   1      38.557  33.632  37.788  1.00  0.00     0.200 A 
ATOM     80  F   UNL A   1      39.885  35.421  37.007  1.00  0.00    -0.200 F 
ATOM     81  F   UNL A   1      38.158  34.365  38.837  1.00  0.00    -0.200 F 
ENDBRANCH  47  71
BRANCH  59  82
ATOM     82  C   UNL A   1      44.675  27.671  34.573  1.00  0.00     0.064 A 
ATOM     83  C   UNL A   1      45.886  28.378  34.597  1.00  0.00     0.173 A 
ATOM     84  C   UNL A   1      44.541  26.561  35.422  1.00  0.00     0.173 A 
ATOM     85  F   UNL A   1      46.067  29.436  33.793  1.00  0.00    -0.203 F 
ATOM     86  C   UNL A   1      46.930  27.977  35.427  1.00  0.00     0.198 A 
ATOM     87  C   UNL A   1      45.578  26.179  36.267  1.00  0.00     0.198 A 
ATOM     88  F   UNL A   1      43.400  25.856  35.438  1.00  0.00    -0.203 F 
ATOM     89  F   UNL A   1      48.093  28.642  35.406  1.00  0.00    -0.200 F 
ATOM     90  C   UNL A   1      46.773  26.882  36.265  1.00  0.00     0.200 A 
ATOM     91  F   UNL A   1      45.421  25.127  37.084  1.00  0.00    -0.200 F 
ATOM     92  F   UNL A   1      47.777  26.501  37.066  1.00  0.00    -0.200 F 
ENDBRANCH  59  82
ENDBRANCH  33  34
ENDBRANCH  26  28
ENDBRANCH  25  26
ENDBRANCH  24  25
ENDBRANCH   1  24
TORSDOF 14
ENDMDL
MODEL 3
REMARK VINA RESULT:     -12.2      4.356      9.990
REMARK SMILES Cn1c(C[N@@H+]2CCOC[C@H]2CC(=O)OCCOC(=O)c2ccc(-c3c4nc(c(-c5c(F)c(F)c(F)c(F)c5F)c5ccc([nH]5)c(-c5c(F)c(F)c(F)c(F)c5F)c5nc(c(-c6c(F)c(F)c(F)c(F)c6F)c6ccc3[nH]6)C=C5)C=C4)cc2)nc2ccccc21
REMARK SMILES IDX 15 1 14 2 12 3 13 4 11 5 10 6 5 7 6 8 7 10 9 11 8 12 4 13
REMARK SMILES IDX 3 14 1 15 2 16 89 17 83 18 84 19 88 20 85 21 87 22 86 23
REMARK SMILES IDX 16 24 17 25 18 26 19 27 20 28 21 29 82 30 22 31 81 32 23 33
REMARK SMILES IDX 24 34 25 35 75 36 26 37 80 38 74 39 76 40 27 41 79 42 73 43
REMARK SMILES IDX 72 44 28 46 60 47 40 48 59 49 41 50 44 51 58 52 77 53 42 54
REMARK SMILES IDX 43 55 57 57 78 58 45 59 29 60 30 61 38 62 31 63 32 64 36 65
REMARK SMILES IDX 39 66 33 67 34 68 37 69 35 70 61 71 62 72 70 73 63 74 64 75
REMARK SMILES IDX 68 76 71 77 65 78 66 79 69 80 67 81 46 82 47 83 55 84 48 85
REMARK SMILES IDX 49 86 53 87 56 88 50 89 51 90 54 91 52 92
REMARK H PARENT 5 9 76 45 44 56
REMARK Flexibility Score: inf
ROOT
ATOM      1  C   UNL A   1      35.990  20.258  25.003  1.00  0.00     0.274 C 
ENDROOT
BRANCH   1   2
ATOM      2  O   UNL A   1      35.282  21.080  25.944  1.00  0.00    -0.462 OA
BRANCH   2   3
ATOM      3  C   UNL A   1      33.979  21.311  25.659  1.00  0.00     0.312 C 
ATOM      4  O   UNL A   1      33.067  21.255  26.481  1.00  0.00    -0.252 OA
BRANCH   3   5
ATOM      5  C   UNL A   1      33.708  21.557  24.203  1.00  0.00     0.190 C 
BRANCH   5   6
ATOM      6  C   UNL A   1      32.506  22.459  23.823  1.00  0.00     0.221 C 
ATOM      7  N   UNL A   1      32.376  23.614  24.736  1.00  0.00    -0.322 N 
ATOM      8  C   UNL A   1      33.483  24.573  24.556  1.00  0.00     0.291 C 
ATOM      9  H   UNL A   1      32.472  23.227  25.675  1.00  0.00     0.348 HD
ATOM     10  C   UNL A   1      33.990  24.797  23.108  1.00  0.00     0.221 C 
ATOM     11  C   UNL A   1      32.757  22.926  22.371  1.00  0.00     0.225 C 
ATOM     12  O   UNL A   1      34.014  23.611  22.300  1.00  0.00    -0.369 OA
BRANCH   7  13
ATOM     13  C   UNL A   1      31.030  24.228  24.810  1.00  0.00     0.339 C 
BRANCH  13  14
ATOM     14  C   UNL A   1      30.973  25.663  25.263  1.00  0.00     0.165 A 
ATOM     15  C   UNL A   1      30.589  26.810  23.033  1.00  0.00     0.152 C 
ATOM     16  N   UNL A   1      30.887  26.771  24.443  1.00  0.00    -0.326 N 
ATOM     17  C   UNL A   1      31.228  27.877  25.193  1.00  0.00     0.068 A 
ATOM     18  N   UNL A   1      31.050  26.050  26.525  1.00  0.00    -0.227 NA
ATOM     19  C   UNL A   1      31.318  27.391  26.491  1.00  0.00     0.089 A 
ATOM     20  C   UNL A   1      31.491  29.216  24.874  1.00  0.00     0.028 A 
ATOM     21  C   UNL A   1      31.707  28.244  27.533  1.00  0.00     0.030 A 
ATOM     22  C   UNL A   1      31.907  30.049  25.922  1.00  0.00     0.002 A 
ATOM     23  C   UNL A   1      32.020  29.572  27.230  1.00  0.00     0.002 A 
ENDBRANCH  13  14
ENDBRANCH   7  13
ENDBRANCH   5   6
ENDBRANCH   3   5
ENDBRANCH   2   3
ENDBRANCH   1   2
BRANCH   1  24
ATOM     24  C   UNL A   1      37.415  20.764  24.761  1.00  0.00     0.275 C 
BRANCH  24  25
ATOM     25  O   UNL A   1      37.905  21.557  25.859  1.00  0.00    -0.458 OA
BRANCH  25  26
ATOM     26  C   UNL A   1      39.178  21.306  26.238  1.00  0.00     0.338 C 
ATOM     27  O   UNL A   1      39.794  20.253  26.145  1.00  0.00    -0.246 OA
BRANCH  26  28
ATOM     28  C   UNL A   1      39.809  22.549  26.703  1.00  0.00     0.060 A 
ATOM     29  C   UNL A   1      39.384  23.761  26.149  1.00  0.00     0.016 A 
ATOM     30  C   UNL A   1      40.860  22.515  27.621  1.00  0.00     0.016 A 
ATOM     31  C   UNL A   1      40.011  24.951  26.509  1.00  0.00     0.010 A 
ATOM     32  C   UNL A   1      41.491  23.710  27.978  1.00  0.00     0.010 A 
ATOM     33  C   UNL A   1      41.077  24.932  27.417  1.00  0.00    -0.014 A 
BRANCH  33  34
ATOM     34  C   UNL A   1      41.796  26.182  27.752  1.00  0.00     0.031 A 
ATOM     35  C   UNL A   1      41.100  27.250  28.540  1.00  0.00     0.074 A 
ATOM     36  C   UNL A   1      43.063  26.360  27.338  1.00  0.00     0.049 A 
ATOM     37  N   UNL A   1      41.492  28.466  28.819  1.00  0.00    -0.248 NA
ATOM     38  C   UNL A   1      39.778  26.902  29.084  1.00  0.00     0.031 C 
ATOM     39  C   UNL A   1      43.856  25.375  26.605  1.00  0.00     0.029 A 
ATOM     40  N   UNL A   1      43.898  27.441  27.462  1.00  0.00    -0.354 N 
ATOM     41  C   UNL A   1      40.462  29.036  29.554  1.00  0.00     0.074 A 
ATOM     42  C   UNL A   1      39.418  28.039  29.665  1.00  0.00     0.031 C 
ATOM     43  C   UNL A   1      45.059  25.903  26.328  1.00  0.00     0.029 A 
ATOM     44  C   UNL A   1      45.101  27.277  26.822  1.00  0.00     0.049 A 
ATOM     45  H   UNL A   1      43.658  28.256  27.961  1.00  0.00     0.167 HD
ATOM     46  C   UNL A   1      40.397  30.279  30.088  1.00  0.00     0.037 A 
ATOM     47  C   UNL A   1      46.107  28.151  26.625  1.00  0.00     0.037 A 
ATOM     48  C   UNL A   1      41.441  31.265  29.976  1.00  0.00     0.049 A 
ATOM     49  C   UNL A   1      45.987  29.546  27.177  1.00  0.00     0.074 A 
ATOM     50  C   UNL A   1      41.472  32.554  30.477  1.00  0.00     0.029 A 
ATOM     51  N   UNL A   1      42.644  31.065  29.312  1.00  0.00    -0.354 N 
ATOM     52  N   UNL A   1      45.003  30.085  27.857  1.00  0.00    -0.248 NA
ATOM     53  C   UNL A   1      47.115  30.454  26.930  1.00  0.00     0.031 C 
ATOM     54  C   UNL A   1      42.678  33.147  30.086  1.00  0.00     0.029 A 
ATOM     55  C   UNL A   1      43.417  32.213  29.378  1.00  0.00     0.049 A 
ATOM     56  H   UNL A   1      42.908  30.231  28.861  1.00  0.00     0.167 HD
ATOM     57  C   UNL A   1      45.400  31.386  28.136  1.00  0.00     0.074 A 
ATOM     58  C   UNL A   1      46.720  31.551  27.562  1.00  0.00     0.031 C 
ATOM     59  C   UNL A   1      44.731  32.356  28.805  1.00  0.00     0.037 A 
BRANCH  46  60
ATOM     60  C   UNL A   1      39.139  30.652  30.816  1.00  0.00     0.064 A 
ATOM     61  C   UNL A   1      38.036  31.203  30.146  1.00  0.00     0.173 A 
ATOM     62  C   UNL A   1      39.029  30.439  32.197  1.00  0.00     0.173 A 
ATOM     63  F   UNL A   1      38.098  31.444  28.828  1.00  0.00    -0.203 F 
ATOM     64  C   UNL A   1      36.879  31.550  30.838  1.00  0.00     0.198 A 
ATOM     65  C   UNL A   1      37.861  30.763  32.882  1.00  0.00     0.198 A 
ATOM     66  F   UNL A   1      40.055  29.913  32.884  1.00  0.00    -0.203 F 
ATOM     67  F   UNL A   1      35.855  32.119  30.187  1.00  0.00    -0.200 F 
ATOM     68  C   UNL A   1      36.790  31.324  32.204  1.00  0.00     0.200 A 
ATOM     69  F   UNL A   1      37.774  30.537  34.200  1.00  0.00    -0.200 F 
ATOM     70  F   UNL A   1      35.675  31.658  32.869  1.00  0.00    -0.200 F 
ENDBRANCH  46  60
BRANCH  47  71
ATOM     71  C   UNL A   1      47.299  27.736  25.844  1.00  0.00     0.064 A 
ATOM     72  C   UNL A   1      47.299  27.783  24.444  1.00  0.00     0.173 A 
ATOM     73  C   UNL A   1      48.466  27.293  26.485  1.00  0.00     0.173 A 
ATOM     74  F   UNL A   1      46.196  28.174  23.788  1.00  0.00    -0.203 F 
ATOM     75  C   UNL A   1      48.418  27.392  23.713  1.00  0.00     0.198 A 
ATOM     76  C   UNL A   1      49.593  26.927  25.753  1.00  0.00     0.198 A 
ATOM     77  F   UNL A   1      48.515  27.229  27.823  1.00  0.00    -0.203 F 
ATOM     78  F   UNL A   1      48.379  27.408  22.374  1.00  0.00    -0.200 F 
ATOM     79  C   UNL A   1      49.566  26.972  24.368  1.00  0.00     0.200 A 
ATOM     80  F   UNL A   1      50.705  26.532  26.389  1.00  0.00    -0.200 F 
ATOM     81  F   UNL A   1      50.645  26.603  23.662  1.00  0.00    -0.200 F 
ENDBRANCH  47  71
BRANCH  59  82
ATOM     82  C   UNL A   1      45.428  33.672  28.980  1.00  0.00     0.064 A 
ATOM     83  C   UNL A   1      46.281  33.912  30.068  1.00  0.00     0.173 A 
ATOM     84  C   UNL A   1      45.271  34.690  28.027  1.00  0.00     0.173 A 
ATOM     85  F   UNL A   1      46.450  32.975  31.012  1.00  0.00    -0.203 F 
ATOM     86  C   UNL A   1      46.935  35.133  30.206  1.00  0.00     0.198 A 
ATOM     87  C   UNL A   1      45.947  35.900  28.156  1.00  0.00     0.198 A 
ATOM     88  F   UNL A   1      44.471  34.507  26.967  1.00  0.00    -0.203 F 
ATOM     89  F   UNL A   1      47.713  35.357  31.273  1.00  0.00    -0.200 F 
ATOM     90  C   UNL A   1      46.772  36.124  29.248  1.00  0.00     0.200 A 
ATOM     91  F   UNL A   1      45.796  36.851  27.224  1.00  0.00    -0.200 F 
ATOM     92  F   UNL A   1      47.407  37.296  29.380  1.00  0.00    -0.200 F 
ENDBRANCH  59  82
ENDBRANCH  33  34
ENDBRANCH  26  28
ENDBRANCH  25  26
ENDBRANCH  24  25
ENDBRANCH   1  24
TORSDOF 14
ENDMDL
