MODEL 1
REMARK VINA RESULT:     -12.2      0.000      0.000
REMARK SMILES Cc1ccccc1O[C@@H](C)C(=O)Oc1ccccc1C(=O)OCCOC(=O)c1ccc(-c2c3nc(c(-c4c(F)c(F)c(F)c(F)c4F)c4ccc([nH]4)c(-c4c(F)c(F)c(F)c(F)c4F)c4nc(c(-c5c(F)c(F)c(F)c(F)c5F)c5ccc2[nH]5)C=C4)C=C3)cc1
REMARK SMILES IDX 22 1 20 2 21 3 19 4 14 5 15 6 16 7 18 8 17 9 13 10 11 11
REMARK SMILES IDX 12 12 9 13 10 14 8 15 7 16 1 17 2 18 3 19 4 20 6 21 5 22
REMARK SMILES IDX 23 23 24 24 25 25 26 26 27 27 28 28 29 29 90 30 30 31 89 32
REMARK SMILES IDX 31 33 32 34 33 35 83 36 34 37 88 38 82 39 84 40 35 41 87 42
REMARK SMILES IDX 81 43 80 44 36 46 68 47 48 48 67 49 49 50 52 51 66 52 85 53
REMARK SMILES IDX 50 54 51 55 65 57 86 58 53 59 37 60 38 61 46 62 39 63 40 64
REMARK SMILES IDX 44 65 47 66 41 67 42 68 45 69 43 70 69 71 70 72 78 73 71 74
REMARK SMILES IDX 72 75 76 76 79 77 73 78 74 79 77 80 75 81 54 82 55 83 63 84
REMARK SMILES IDX 56 85 57 86 61 87 64 88 58 89 59 90 62 91 60 92
REMARK H PARENT 84 45 52 56
REMARK Flexibility Score: inf
ROOT
ATOM      1  O   UNL A   1      33.816  34.859  28.608  1.00  0.00    -0.458 OA
ENDROOT
BRANCH   1   2
ATOM      2  C   UNL A   1      33.218  33.668  27.929  1.00  0.00     0.342 C 
ATOM      3  O   UNL A   1      32.073  34.163  27.643  1.00  0.00    -0.246 OA
BRANCH   2   4
ATOM      4  C   UNL A   1      34.076  31.740  27.560  1.00  0.00     0.102 A 
ATOM      5  C   UNL A   1      33.401  30.372  26.930  1.00  0.00     0.145 A 
ATOM      6  C   UNL A   1      33.930  29.053  26.798  1.00  0.00     0.048 A 
ATOM      7  C   UNL A   1      35.215  28.791  27.224  1.00  0.00     0.004 A 
ATOM      8  C   UNL A   1      35.462  31.166  27.870  1.00  0.00     0.019 A 
ATOM      9  C   UNL A   1      35.969  29.829  27.740  1.00  0.00     0.001 A 
BRANCH   5  10
ATOM     10  O   UNL A   1      31.846  30.217  26.579  1.00  0.00    -0.423 OA
BRANCH  10  11
ATOM     11  C   UNL A   1      31.082  30.652  25.471  1.00  0.00     0.352 C 
ATOM     12  O   UNL A   1      30.655  31.808  25.432  1.00  0.00    -0.247 OA
BRANCH  11  13
ATOM     13  C   UNL A   1      30.780  29.640  24.274  1.00  0.00     0.280 C 
ATOM     14  C   UNL A   1      29.761  29.388  23.160  1.00  0.00     0.066 C 
BRANCH  13  15
ATOM     15  O   UNL A   1      31.163  28.340  24.652  1.00  0.00    -0.479 OA
BRANCH  15  16
ATOM     16  C   UNL A   1      31.868  27.524  23.826  1.00  0.00     0.123 A 
ATOM     17  C   UNL A   1      34.044  28.786  23.083  1.00  0.00     0.048 C 
ATOM     18  C   UNL A   1      33.025  27.698  23.045  1.00  0.00    -0.009 A 
ATOM     19  C   UNL A   1      33.357  26.693  22.124  1.00  0.00     0.007 A 
ATOM     20  C   UNL A   1      32.613  25.526  22.031  1.00  0.00     0.001 A 
ATOM     21  C   UNL A   1      31.189  26.305  23.785  1.00  0.00     0.047 A 
ATOM     22  C   UNL A   1      31.551  25.313  22.893  1.00  0.00     0.004 A 
ENDBRANCH  15  16
ENDBRANCH  13  15
ENDBRANCH  11  13
ENDBRANCH  10  11
ENDBRANCH   5  10
ENDBRANCH   2   4
ENDBRANCH   1   2
BRANCH   1  23
ATOM     23  C   UNL A   1      32.902  35.679  29.356  1.00  0.00     0.275 C 
BRANCH  23  24
ATOM     24  C   UNL A   1      33.430  35.867  30.789  1.00  0.00     0.275 C 
BRANCH  24  25
ATOM     25  O   UNL A   1      33.683  34.650  31.541  1.00  0.00    -0.458 OA
BRANCH  25  26
ATOM     26  C   UNL A   1      34.969  34.363  31.884  1.00  0.00     0.338 C 
ATOM     27  O   UNL A   1      35.643  34.908  32.735  1.00  0.00    -0.246 OA
BRANCH  26  28
ATOM     28  C   UNL A   1      35.449  33.311  30.964  1.00  0.00     0.060 A 
ATOM     29  C   UNL A   1      35.566  31.676  31.714  1.00  0.00     0.016 A 
ATOM     30  C   UNL A   1      36.716  33.855  29.816  1.00  0.00     0.016 A 
ATOM     31  C   UNL A   1      37.000  30.561  31.289  1.00  0.00     0.010 A 
ATOM     32  C   UNL A   1      38.190  32.809  29.531  1.00  0.00     0.010 A 
ATOM     33  C   UNL A   1      38.326  31.169  30.271  1.00  0.00    -0.014 A 
BRANCH  33  34
ATOM     34  C   UNL A   1      39.705  30.735  30.546  1.00  0.00     0.031 A 
ATOM     35  C   UNL A   1      40.059  29.462  29.897  1.00  0.00     0.074 A 
ATOM     36  C   UNL A   1      40.669  31.508  31.143  1.00  0.00     0.049 A 
ATOM     37  N   UNL A   1      41.188  28.884  30.053  1.00  0.00    -0.248 NA
ATOM     38  C   UNL A   1      39.153  28.680  29.057  1.00  0.00     0.031 C 
ATOM     39  C   UNL A   1      42.119  31.399  30.938  1.00  0.00     0.029 A 
ATOM     40  N   UNL A   1      40.592  32.580  32.060  1.00  0.00    -0.354 N 
ATOM     41  C   UNL A   1      41.290  27.880  29.129  1.00  0.00     0.074 A 
ATOM     42  C   UNL A   1      39.970  27.734  28.588  1.00  0.00     0.031 C 
ATOM     43  C   UNL A   1      42.789  32.150  31.825  1.00  0.00     0.029 A 
ATOM     44  C   UNL A   1      41.841  32.737  32.745  1.00  0.00     0.049 A 
ATOM     45  H   UNL A   1      39.794  33.138  32.209  1.00  0.00     0.167 HD
ATOM     46  C   UNL A   1      42.541  27.402  28.898  1.00  0.00     0.037 A 
ATOM     47  C   UNL A   1      42.012  32.644  34.113  1.00  0.00     0.037 A 
ATOM     48  C   UNL A   1      43.431  27.834  29.989  1.00  0.00     0.049 A 
ATOM     49  C   UNL A   1      42.401  31.214  34.528  1.00  0.00     0.074 A 
ATOM     50  C   UNL A   1      44.416  28.797  30.133  1.00  0.00     0.029 A 
ATOM     51  N   UNL A   1      43.053  27.501  31.286  1.00  0.00    -0.354 N 
ATOM     52  N   UNL A   1      42.925  30.336  33.720  1.00  0.00    -0.248 NA
ATOM     53  C   UNL A   1      42.103  30.633  35.843  1.00  0.00     0.031 C 
ATOM     54  C   UNL A   1      44.590  29.046  31.532  1.00  0.00     0.029 A 
ATOM     55  C   UNL A   1      43.756  28.202  32.245  1.00  0.00     0.049 A 
ATOM     56  H   UNL A   1      42.359  26.835  31.497  1.00  0.00     0.167 HD
ATOM     57  C   UNL A   1      42.945  29.098  34.315  1.00  0.00     0.074 A 
ATOM     58  C   UNL A   1      42.361  29.334  35.626  1.00  0.00     0.031 C 
ATOM     59  C   UNL A   1      43.426  27.992  33.659  1.00  0.00     0.037 A 
BRANCH  46  60
ATOM     60  C   UNL A   1      42.999  26.707  27.636  1.00  0.00     0.064 A 
ATOM     61  C   UNL A   1      42.604  25.374  27.401  1.00  0.00     0.173 A 
ATOM     62  C   UNL A   1      43.908  27.220  26.683  1.00  0.00     0.173 A 
ATOM     63  F   UNL A   1      41.741  24.751  28.215  1.00  0.00    -0.203 F 
ATOM     64  C   UNL A   1      43.104  24.613  26.337  1.00  0.00     0.198 A 
ATOM     65  C   UNL A   1      44.388  26.469  25.606  1.00  0.00     0.198 A 
ATOM     66  F   UNL A   1      44.408  28.455  26.754  1.00  0.00    -0.203 F 
ATOM     67  F   UNL A   1      42.726  23.335  26.202  1.00  0.00    -0.200 F 
ATOM     68  C   UNL A   1      43.996  25.160  25.440  1.00  0.00     0.200 A 
ATOM     69  F   UNL A   1      45.257  27.023  24.747  1.00  0.00    -0.200 F 
ATOM     70  F   UNL A   1      44.483  24.431  24.429  1.00  0.00    -0.200 F 
ENDBRANCH  46  60
BRANCH  47  71
ATOM     71  C   UNL A   1      41.047  33.461  34.938  1.00  0.00     0.064 A 
ATOM     72  C   UNL A   1      39.934  32.790  35.501  1.00  0.00     0.173 A 
ATOM     73  C   UNL A   1      41.730  34.300  35.778  1.00  0.00     0.173 A 
ATOM     74  F   UNL A   1      38.945  32.350  34.714  1.00  0.00    -0.203 F 
ATOM     75  C   UNL A   1      39.856  32.552  36.872  1.00  0.00     0.198 A 
ATOM     76  C   UNL A   1      41.738  33.926  37.092  1.00  0.00     0.198 A 
ATOM     77  F   UNL A   1      42.651  35.172  35.348  1.00  0.00    -0.203 F 
ATOM     78  F   UNL A   1      38.848  31.872  37.426  1.00  0.00    -0.200 F 
ATOM     79  C   UNL A   1      40.873  33.011  37.654  1.00  0.00     0.200 A 
ATOM     80  F   UNL A   1      42.649  34.483  37.848  1.00  0.00    -0.200 F 
ATOM     81  F   UNL A   1      40.970  32.697  38.952  1.00  0.00    -0.200 F 
ENDBRANCH  47  71
BRANCH  59  82
ATOM     82  C   UNL A   1      43.627  26.607  34.270  1.00  0.00     0.064 A 
ATOM     83  C   UNL A   1      44.849  25.911  34.265  1.00  0.00     0.173 A 
ATOM     84  C   UNL A   1      42.541  25.851  34.788  1.00  0.00     0.173 A 
ATOM     85  F   UNL A   1      45.921  26.378  33.617  1.00  0.00    -0.203 F 
ATOM     86  C   UNL A   1      44.998  24.648  34.853  1.00  0.00     0.198 A 
ATOM     87  C   UNL A   1      42.680  24.576  35.332  1.00  0.00     0.198 A 
ATOM     88  F   UNL A   1      41.276  26.287  34.769  1.00  0.00    -0.203 F 
ATOM     89  F   UNL A   1      46.205  24.065  34.863  1.00  0.00    -0.200 F 
ATOM     90  C   UNL A   1      43.916  23.984  35.391  1.00  0.00     0.200 A 
ATOM     91  F   UNL A   1      41.595  23.932  35.785  1.00  0.00    -0.200 F 
ATOM     92  F   UNL A   1      44.056  22.766  35.926  1.00  0.00    -0.200 F 
ENDBRANCH  59  82
ENDBRANCH  33  34
ENDBRANCH  26  28
ENDBRANCH  25  26
ENDBRANCH  24  25
ENDBRANCH  23  24
ENDBRANCH   1  23
TORSDOF 16
ENDMDL
MODEL 2
REMARK VINA RESULT:     -11.9      1.163      2.555
REMARK SMILES Cc1ccccc1O[C@@H](C)C(=O)Oc1ccccc1C(=O)OCCOC(=O)c1ccc(-c2c3nc(c(-c4c(F)c(F)c(F)c(F)c4F)c4ccc([nH]4)c(-c4c(F)c(F)c(F)c(F)c4F)c4nc(c(-c5c(F)c(F)c(F)c(F)c5F)c5ccc2[nH]5)C=C4)C=C3)cc1
REMARK SMILES IDX 22 1 20 2 21 3 19 4 14 5 15 6 16 7 18 8 17 9 13 10 11 11
REMARK SMILES IDX 12 12 9 13 10 14 8 15 7 16 1 17 2 18 3 19 4 20 6 21 5 22
REMARK SMILES IDX 23 23 24 24 25 25 26 26 27 27 28 28 29 29 90 30 30 31 89 32
REMARK SMILES IDX 31 33 32 34 33 35 83 36 34 37 88 38 82 39 84 40 35 41 87 42
REMARK SMILES IDX 81 43 80 44 36 46 68 47 48 48 67 49 49 50 52 51 66 52 85 53
REMARK SMILES IDX 50 54 51 55 65 57 86 58 53 59 37 60 38 61 46 62 39 63 40 64
REMARK SMILES IDX 44 65 47 66 41 67 42 68 45 69 43 70 69 71 70 72 78 73 71 74
REMARK SMILES IDX 72 75 76 76 79 77 73 78 74 79 77 80 75 81 54 82 55 83 63 84
REMARK SMILES IDX 56 85 57 86 61 87 64 88 58 89 59 90 62 91 60 92
REMARK H PARENT 84 45 52 56
REMARK Flexibility Score: inf
ROOT
ATOM      1  O   UNL A   1      33.827  35.161  28.507  1.00  0.00    -0.458 OA
ENDROOT
BRANCH   1   2
ATOM      2  C   UNL A   1      33.371  33.817  28.038  1.00  0.00     0.342 C 
ATOM      3  O   UNL A   1      32.150  34.102  27.787  1.00  0.00    -0.246 OA
BRANCH   2   4
ATOM      4  C   UNL A   1      34.483  31.995  27.850  1.00  0.00     0.102 A 
ATOM      5  C   UNL A   1      33.980  30.470  27.465  1.00  0.00     0.145 A 
ATOM      6  C   UNL A   1      34.691  29.233  27.460  1.00  0.00     0.048 A 
ATOM      7  C   UNL A   1      36.026  29.216  27.803  1.00  0.00     0.004 A 
ATOM      8  C   UNL A   1      35.957  31.669  28.109  1.00  0.00     0.019 A 
ATOM      9  C   UNL A   1      36.649  30.411  28.111  1.00  0.00     0.001 A 
BRANCH   5  10
ATOM     10  O   UNL A   1      32.446  30.051  27.276  1.00  0.00    -0.423 OA
BRANCH  10  11
ATOM     11  C   UNL A   1      31.846  28.869  26.782  1.00  0.00     0.352 C 
ATOM     12  O   UNL A   1      31.278  28.096  27.557  1.00  0.00    -0.247 OA
BRANCH  11  13
ATOM     13  C   UNL A   1      31.907  28.544  25.220  1.00  0.00     0.280 C 
ATOM     14  C   UNL A   1      32.802  27.866  24.181  1.00  0.00     0.066 C 
BRANCH  13  15
ATOM     15  O   UNL A   1      31.338  29.610  24.499  1.00  0.00    -0.479 OA
BRANCH  15  16
ATOM     16  C   UNL A   1      30.088  29.541  23.970  1.00  0.00     0.123 A 
ATOM     17  C   UNL A   1      29.463  27.012  23.666  1.00  0.00     0.048 C 
ATOM     18  C   UNL A   1      29.294  28.484  23.491  1.00  0.00    -0.009 A 
ATOM     19  C   UNL A   1      28.118  28.803  22.798  1.00  0.00     0.007 A 
ATOM     20  C   UNL A   1      27.704  30.118  22.648  1.00  0.00     0.001 A 
ATOM     21  C   UNL A   1      29.608  30.850  23.891  1.00  0.00     0.047 A 
ATOM     22  C   UNL A   1      28.429  31.142  23.232  1.00  0.00     0.004 A 
ENDBRANCH  15  16
ENDBRANCH  13  15
ENDBRANCH  11  13
ENDBRANCH  10  11
ENDBRANCH   5  10
ENDBRANCH   2   4
ENDBRANCH   1   2
BRANCH   1  23
ATOM     23  C   UNL A   1      33.479  35.506  29.859  1.00  0.00     0.275 C 
BRANCH  23  24
ATOM     24  C   UNL A   1      34.088  34.476  30.827  1.00  0.00     0.275 C 
BRANCH  24  25
ATOM     25  O   UNL A   1      34.666  35.012  32.047  1.00  0.00    -0.458 OA
BRANCH  25  26
ATOM     26  C   UNL A   1      35.877  34.532  32.447  1.00  0.00     0.338 C 
ATOM     27  O   UNL A   1      36.568  34.944  33.357  1.00  0.00    -0.246 OA
BRANCH  26  28
ATOM     28  C   UNL A   1      36.260  33.458  31.508  1.00  0.00     0.060 A 
ATOM     29  C   UNL A   1      36.288  31.813  32.246  1.00  0.00     0.016 A 
ATOM     30  C   UNL A   1      37.529  33.924  30.329  1.00  0.00     0.016 A 
ATOM     31  C   UNL A   1      37.632  30.608  31.775  1.00  0.00     0.010 A 
ATOM     32  C   UNL A   1      38.922  32.785  29.998  1.00  0.00     0.010 A 
ATOM     33  C   UNL A   1      38.968  31.134  30.725  1.00  0.00    -0.014 A 
BRANCH  33  34
ATOM     34  C   UNL A   1      40.322  30.607  30.959  1.00  0.00     0.031 A 
ATOM     35  C   UNL A   1      40.600  29.359  30.229  1.00  0.00     0.074 A 
ATOM     36  C   UNL A   1      41.332  31.286  31.593  1.00  0.00     0.049 A 
ATOM     37  N   UNL A   1      41.694  28.710  30.339  1.00  0.00    -0.248 NA
ATOM     38  C   UNL A   1      39.646  28.683  29.351  1.00  0.00     0.031 C 
ATOM     39  C   UNL A   1      42.772  31.108  31.369  1.00  0.00     0.029 A 
ATOM     40  N   UNL A   1      41.321  32.302  32.576  1.00  0.00    -0.354 N 
ATOM     41  C   UNL A   1      41.735  27.761  29.353  1.00  0.00     0.074 A 
ATOM     42  C   UNL A   1      40.405  27.723  28.817  1.00  0.00     0.031 C 
ATOM     43  C   UNL A   1      43.489  31.765  32.293  1.00  0.00     0.029 A 
ATOM     44  C   UNL A   1      42.581  32.346  33.257  1.00  0.00     0.049 A 
ATOM     45  H   UNL A   1      40.557  32.894  32.766  1.00  0.00     0.167 HD
ATOM     46  C   UNL A   1      42.955  27.229  29.082  1.00  0.00     0.037 A 
ATOM     47  C   UNL A   1      42.755  32.159  34.615  1.00  0.00     0.037 A 
ATOM     48  C   UNL A   1      43.875  27.542  30.189  1.00  0.00     0.049 A 
ATOM     49  C   UNL A   1      43.065  30.686  34.937  1.00  0.00     0.074 A 
ATOM     50  C   UNL A   1      44.913  28.437  30.382  1.00  0.00     0.029 A 
ATOM     51  N   UNL A   1      43.486  27.150  31.466  1.00  0.00    -0.354 N 
ATOM     52  N   UNL A   1      43.533  29.831  34.072  1.00  0.00    -0.248 NA
ATOM     53  C   UNL A   1      42.742  30.042  36.216  1.00  0.00     0.031 C 
ATOM     54  C   UNL A   1      45.110  28.588  31.792  1.00  0.00     0.029 A 
ATOM     55  C   UNL A   1      44.234  27.750  32.460  1.00  0.00     0.049 A 
ATOM     56  H   UNL A   1      42.757  26.513  31.642  1.00  0.00     0.167 HD
ATOM     57  C   UNL A   1      43.486  28.560  34.589  1.00  0.00     0.074 A 
ATOM     58  C   UNL A   1      42.925  28.746  35.917  1.00  0.00     0.031 C 
ATOM     59  C   UNL A   1      43.900  27.471  33.861  1.00  0.00     0.037 A 
BRANCH  46  60
ATOM     60  C   UNL A   1      43.365  26.590  27.775  1.00  0.00     0.064 A 
ATOM     61  C   UNL A   1      42.983  25.258  27.508  1.00  0.00     0.173 A 
ATOM     62  C   UNL A   1      44.220  27.154  26.801  1.00  0.00     0.173 A 
ATOM     63  F   UNL A   1      42.168  24.591  28.337  1.00  0.00    -0.203 F 
ATOM     64  C   UNL A   1      43.445  24.547  26.395  1.00  0.00     0.198 A 
ATOM     65  C   UNL A   1      44.662  26.451  25.676  1.00  0.00     0.198 A 
ATOM     66  F   UNL A   1      44.703  28.395  26.895  1.00  0.00    -0.203 F 
ATOM     67  F   UNL A   1      43.083  23.267  26.230  1.00  0.00    -0.200 F 
ATOM     68  C   UNL A   1      44.285  25.143  25.479  1.00  0.00     0.200 A 
ATOM     69  F   UNL A   1      45.481  27.052  24.799  1.00  0.00    -0.200 F 
ATOM     70  F   UNL A   1      44.737  24.460  24.420  1.00  0.00    -0.200 F 
ENDBRANCH  46  60
BRANCH  47  71
ATOM     71  C   UNL A   1      41.843  32.975  35.498  1.00  0.00     0.064 A 
ATOM     72  C   UNL A   1      42.050  34.376  35.538  1.00  0.00     0.173 A 
ATOM     73  C   UNL A   1      40.544  32.566  35.350  1.00  0.00     0.173 A 
ATOM     74  F   UNL A   1      43.138  34.878  36.136  1.00  0.00    -0.203 F 
ATOM     75  C   UNL A   1      41.149  35.254  34.940  1.00  0.00     0.198 A 
ATOM     76  C   UNL A   1      39.748  33.406  34.623  1.00  0.00     0.198 A 
ATOM     77  F   UNL A   1      40.155  31.295  35.521  1.00  0.00    -0.203 F 
ATOM     78  F   UNL A   1      41.347  36.576  34.912  1.00  0.00    -0.200 F 
ATOM     79  C   UNL A   1      40.048  34.722  34.340  1.00  0.00     0.200 A 
ATOM     80  F   UNL A   1      38.633  32.898  34.166  1.00  0.00    -0.200 F 
ATOM     81  F   UNL A   1      39.210  35.463  33.603  1.00  0.00    -0.200 F 
ENDBRANCH  47  71
BRANCH  59  82
ATOM     82  C   UNL A   1      44.027  26.042  34.384  1.00  0.00     0.064 A 
ATOM     83  C   UNL A   1      42.939  25.251  34.792  1.00  0.00     0.173 A 
ATOM     84  C   UNL A   1      45.292  25.439  34.619  1.00  0.00     0.173 A 
ATOM     85  F   UNL A   1      41.696  25.742  34.853  1.00  0.00    -0.203 F 
ATOM     86  C   UNL A   1      43.094  23.935  35.249  1.00  0.00     0.198 A 
ATOM     87  C   UNL A   1      45.449  24.147  35.116  1.00  0.00     0.198 A 
ATOM     88  F   UNL A   1      46.451  26.075  34.413  1.00  0.00    -0.203 F 
ATOM     89  F   UNL A   1      42.008  23.217  35.569  1.00  0.00    -0.200 F 
ATOM     90  C   UNL A   1      44.347  23.382  35.405  1.00  0.00     0.200 A 
ATOM     91  F   UNL A   1      46.683  23.665  35.319  1.00  0.00    -0.200 F 
ATOM     92  F   UNL A   1      44.495  22.136  35.869  1.00  0.00    -0.200 F 
ENDBRANCH  59  82
ENDBRANCH  33  34
ENDBRANCH  26  28
ENDBRANCH  25  26
ENDBRANCH  24  25
ENDBRANCH  23  24
ENDBRANCH   1  23
TORSDOF 16
ENDMDL
MODEL 3
REMARK VINA RESULT:     -11.8      4.295     10.063
REMARK SMILES Cc1ccccc1O[C@@H](C)C(=O)Oc1ccccc1C(=O)OCCOC(=O)c1ccc(-c2c3nc(c(-c4c(F)c(F)c(F)c(F)c4F)c4ccc([nH]4)c(-c4c(F)c(F)c(F)c(F)c4F)c4nc(c(-c5c(F)c(F)c(F)c(F)c5F)c5ccc2[nH]5)C=C4)C=C3)cc1
REMARK SMILES IDX 22 1 20 2 21 3 19 4 14 5 15 6 16 7 18 8 17 9 13 10 11 11
REMARK SMILES IDX 12 12 9 13 10 14 8 15 7 16 1 17 2 18 3 19 4 20 6 21 5 22
REMARK SMILES IDX 23 23 24 24 25 25 26 26 27 27 28 28 29 29 90 30 30 31 89 32
REMARK SMILES IDX 31 33 32 34 33 35 83 36 34 37 88 38 82 39 84 40 35 41 87 42
REMARK SMILES IDX 81 43 80 44 36 46 68 47 48 48 67 49 49 50 52 51 66 52 85 53
REMARK SMILES IDX 50 54 51 55 65 57 86 58 53 59 37 60 38 61 46 62 39 63 40 64
REMARK SMILES IDX 44 65 47 66 41 67 42 68 45 69 43 70 69 71 70 72 78 73 71 74
REMARK SMILES IDX 72 75 76 76 79 77 73 78 74 79 77 80 75 81 54 82 55 83 63 84
REMARK SMILES IDX 56 85 57 86 61 87 64 88 58 89 59 90 62 91 60 92
REMARK H PARENT 84 45 52 56
REMARK Flexibility Score: inf
ROOT
ATOM      1  O   UNL A   1      38.176  22.270  25.103  1.00  0.00    -0.458 OA
ENDROOT
BRANCH   1   2
ATOM      2  C   UNL A   1      36.703  22.480  25.251  1.00  0.00     0.342 C 
ATOM      3  O   UNL A   1      36.723  23.663  25.740  1.00  0.00    -0.246 OA
BRANCH   2   4
ATOM      4  C   UNL A   1      35.086  21.163  24.758  1.00  0.00     0.102 A 
ATOM      5  C   UNL A   1      33.550  21.498  24.256  1.00  0.00     0.145 A 
ATOM      6  C   UNL A   1      32.433  20.634  24.047  1.00  0.00     0.048 A 
ATOM      7  C   UNL A   1      32.575  19.279  24.259  1.00  0.00     0.004 A 
ATOM      8  C   UNL A   1      34.951  19.639  24.841  1.00  0.00     0.019 A 
ATOM      9  C   UNL A   1      33.811  18.791  24.638  1.00  0.00     0.001 A 
BRANCH   5  10
ATOM     10  O   UNL A   1      32.935  22.974  24.165  1.00  0.00    -0.423 OA
BRANCH  10  11
ATOM     11  C   UNL A   1      32.759  23.983  25.141  1.00  0.00     0.352 C 
ATOM     12  O   UNL A   1      33.416  23.953  26.184  1.00  0.00    -0.247 OA
BRANCH  11  13
ATOM     13  C   UNL A   1      31.710  25.158  24.883  1.00  0.00     0.280 C 
ATOM     14  C   UNL A   1      30.340  25.411  24.251  1.00  0.00     0.066 C 
BRANCH  13  15
ATOM     15  O   UNL A   1      32.404  26.354  24.621  1.00  0.00    -0.479 OA
BRANCH  15  16
ATOM     16  C   UNL A   1      32.096  27.521  25.245  1.00  0.00     0.123 A 
ATOM     17  C   UNL A   1      30.928  29.101  23.508  1.00  0.00     0.048 C 
ATOM     18  C   UNL A   1      31.582  28.753  24.803  1.00  0.00    -0.009 A 
ATOM     19  C   UNL A   1      31.597  29.834  25.696  1.00  0.00     0.007 A 
ATOM     20  C   UNL A   1      32.036  29.684  27.003  1.00  0.00     0.001 A 
ATOM     21  C   UNL A   1      32.445  27.366  26.588  1.00  0.00     0.047 A 
ATOM     22  C   UNL A   1      32.422  28.436  27.462  1.00  0.00     0.004 A 
ENDBRANCH  15  16
ENDBRANCH  13  15
ENDBRANCH  11  13
ENDBRANCH  10  11
ENDBRANCH   5  10
ENDBRANCH   2   4
ENDBRANCH   1   2
BRANCH   1  23
ATOM     23  C   UNL A   1      38.682  21.015  25.586  1.00  0.00     0.275 C 
BRANCH  23  24
ATOM     24  C   UNL A   1      39.922  21.262  26.464  1.00  0.00     0.275 C 
BRANCH  24  25
ATOM     25  O   UNL A   1      40.941  22.128  25.900  1.00  0.00    -0.458 OA
BRANCH  25  26
ATOM     26  C   UNL A   1      41.459  23.110  26.690  1.00  0.00     0.338 C 
ATOM     27  O   UNL A   1      42.417  23.030  27.431  1.00  0.00    -0.246 OA
BRANCH  26  28
ATOM     28  C   UNL A   1      40.581  24.291  26.560  1.00  0.00     0.060 A 
ATOM     29  C   UNL A   1      41.371  25.711  25.778  1.00  0.00     0.016 A 
ATOM     30  C   UNL A   1      39.472  24.545  27.947  1.00  0.00     0.016 A 
ATOM     31  C   UNL A   1      41.026  27.431  26.413  1.00  0.00     0.010 A 
ATOM     32  C   UNL A   1      39.267  26.222  28.649  1.00  0.00     0.010 A 
ATOM     33  C   UNL A   1      40.047  27.655  27.881  1.00  0.00    -0.014 A 
BRANCH  33  34
ATOM     34  C   UNL A   1      40.385  28.741  28.815  1.00  0.00     0.031 A 
ATOM     35  C   UNL A   1      39.380  29.817  28.850  1.00  0.00     0.074 A 
ATOM     36  C   UNL A   1      41.393  28.696  29.744  1.00  0.00     0.049 A 
ATOM     37  N   UNL A   1      39.510  30.876  29.553  1.00  0.00    -0.248 NA
ATOM     38  C   UNL A   1      38.157  29.836  28.049  1.00  0.00     0.031 C 
ATOM     39  C   UNL A   1      41.431  29.418  31.021  1.00  0.00     0.029 A 
ATOM     40  N   UNL A   1      42.617  27.989  29.781  1.00  0.00    -0.354 N 
ATOM     41  C   UNL A   1      38.311  31.537  29.565  1.00  0.00     0.074 A 
ATOM     42  C   UNL A   1      37.525  30.900  28.549  1.00  0.00     0.031 C 
ATOM     43  C   UNL A   1      42.642  29.326  31.592  1.00  0.00     0.029 A 
ATOM     44  C   UNL A   1      43.526  28.619  30.693  1.00  0.00     0.049 A 
ATOM     45  H   UNL A   1      42.817  27.180  29.256  1.00  0.00     0.167 HD
ATOM     46  C   UNL A   1      38.150  32.470  30.539  1.00  0.00     0.037 A 
ATOM     47  C   UNL A   1      44.764  29.128  30.351  1.00  0.00     0.037 A 
ATOM     48  C   UNL A   1      39.466  32.803  31.110  1.00  0.00     0.049 A 
ATOM     49  C   UNL A   1      44.673  30.625  30.005  1.00  0.00     0.074 A 
ATOM     50  C   UNL A   1      40.138  32.491  32.279  1.00  0.00     0.029 A 
ATOM     51  N   UNL A   1      40.449  33.238  30.227  1.00  0.00    -0.354 N 
ATOM     52  N   UNL A   1      43.704  31.406  30.390  1.00  0.00    -0.248 NA
ATOM     53  C   UNL A   1      45.594  31.311  29.090  1.00  0.00     0.031 C 
ATOM     54  C   UNL A   1      41.534  32.720  32.061  1.00  0.00     0.029 A 
ATOM     55  C   UNL A   1      41.712  33.223  30.784  1.00  0.00     0.049 A 
ATOM     56  H   UNL A   1      40.263  33.528  29.305  1.00  0.00     0.167 HD
ATOM     57  C   UNL A   1      43.782  32.613  29.739  1.00  0.00     0.074 A 
ATOM     58  C   UNL A   1      44.954  32.475  28.890  1.00  0.00     0.031 C 
ATOM     59  C   UNL A   1      42.857  33.606  29.950  1.00  0.00     0.037 A 
BRANCH  46  60
ATOM     60  C   UNL A   1      36.825  32.949  31.088  1.00  0.00     0.064 A 
ATOM     61  C   UNL A   1      36.009  33.780  30.292  1.00  0.00     0.173 A 
ATOM     62  C   UNL A   1      36.344  32.749  32.402  1.00  0.00     0.173 A 
ATOM     63  F   UNL A   1      36.330  34.057  29.021  1.00  0.00    -0.203 F 
ATOM     64  C   UNL A   1      34.844  34.385  30.777  1.00  0.00     0.198 A 
ATOM     65  C   UNL A   1      35.167  33.334  32.879  1.00  0.00     0.198 A 
ATOM     66  F   UNL A   1      36.993  32.011  33.304  1.00  0.00    -0.203 F 
ATOM     67  F   UNL A   1      34.143  35.206  29.983  1.00  0.00    -0.200 F 
ATOM     68  C   UNL A   1      34.424  34.163  32.072  1.00  0.00     0.200 A 
ATOM     69  F   UNL A   1      34.779  33.104  34.143  1.00  0.00    -0.200 F 
ATOM     70  F   UNL A   1      33.316  34.751  32.541  1.00  0.00    -0.200 F 
ENDBRANCH  46  60
BRANCH  47  71
ATOM     71  C   UNL A   1      45.645  28.195  29.556  1.00  0.00     0.064 A 
ATOM     72  C   UNL A   1      45.799  28.457  28.173  1.00  0.00     0.173 A 
ATOM     73  C   UNL A   1      46.796  27.922  30.246  1.00  0.00     0.173 A 
ATOM     74  F   UNL A   1      44.774  28.263  27.333  1.00  0.00    -0.203 F 
ATOM     75  C   UNL A   1      47.000  28.943  27.663  1.00  0.00     0.198 A 
ATOM     76  C   UNL A   1      47.916  28.551  29.781  1.00  0.00     0.198 A 
ATOM     77  F   UNL A   1      46.801  27.434  31.494  1.00  0.00    -0.203 F 
ATOM     78  F   UNL A   1      47.158  29.254  26.372  1.00  0.00    -0.200 F 
ATOM     79  C   UNL A   1      48.030  29.130  28.534  1.00  0.00     0.200 A 
ATOM     80  F   UNL A   1      48.936  28.602  30.598  1.00  0.00    -0.200 F 
ATOM     81  F   UNL A   1      49.167  29.739  28.173  1.00  0.00    -0.200 F 
ENDBRANCH  47  71
BRANCH  59  82
ATOM     82  C   UNL A   1      42.927  35.026  29.394  1.00  0.00     0.064 A 
ATOM     83  C   UNL A   1      42.819  35.347  28.029  1.00  0.00     0.173 A 
ATOM     84  C   UNL A   1      43.240  36.140  30.219  1.00  0.00     0.173 A 
ATOM     85  F   UNL A   1      42.751  34.399  27.088  1.00  0.00    -0.203 F 
ATOM     86  C   UNL A   1      42.870  36.666  27.560  1.00  0.00     0.198 A 
ATOM     87  C   UNL A   1      43.335  37.446  29.746  1.00  0.00     0.198 A 
ATOM     88  F   UNL A   1      43.502  36.026  31.526  1.00  0.00    -0.203 F 
ATOM     89  F   UNL A   1      42.702  36.906  26.251  1.00  0.00    -0.200 F 
ATOM     90  C   UNL A   1      43.121  37.715  28.418  1.00  0.00     0.200 A 
ATOM     91  F   UNL A   1      43.648  38.434  30.597  1.00  0.00    -0.200 F 
ATOM     92  F   UNL A   1      43.199  38.971  27.962  1.00  0.00    -0.200 F 
ENDBRANCH  59  82
ENDBRANCH  33  34
ENDBRANCH  26  28
ENDBRANCH  25  26
ENDBRANCH  24  25
ENDBRANCH  23  24
ENDBRANCH   1  23
TORSDOF 16
ENDMDL
