MODEL 1
REMARK VINA RESULT:     -11.8      0.000      0.000
REMARK SMILES CC[C@@H]1CCCN1C(=O)N[C@H]1C=C[C@@H](C(=O)OCCOC(=O)c2ccc(-c3c4nc(c(-c5c(F)c(F)c(F)c(F)c5F)c5ccc([nH]5)c(-c5c(F)c(F)c(F)c(F)c5F)c5nc(c(-c6c(F)c(F)c(F)c(F)c6F)c6ccc3[nH]6)C=C5)C=C4)cc2)C1
REMARK SMILES IDX 18 1 17 2 15 3 16 4 14 5 11 6 12 7 86 8 13 9 10 10 8 11 9 12
REMARK SMILES IDX 7 14 3 15 4 16 5 17 6 18 2 19 1 20 19 21 20 22 21 23 22 24
REMARK SMILES IDX 23 25 24 26 85 27 25 28 84 29 26 30 27 31 28 32 78 33 29 34
REMARK SMILES IDX 83 35 77 36 79 37 30 38 82 39 76 40 75 41 31 43 63 44 43 45
REMARK SMILES IDX 62 46 44 47 47 48 61 49 80 50 45 51 46 52 60 54 81 55 48 56
REMARK SMILES IDX 32 57 33 58 41 59 34 60 35 61 39 62 42 63 36 64 37 65 40 66
REMARK SMILES IDX 38 67 64 68 65 69 73 70 66 71 67 72 71 73 74 74 68 75 69 76
REMARK SMILES IDX 72 77 70 78 49 79 50 80 58 81 51 82 52 83 56 84 59 85 53 86
REMARK SMILES IDX 54 87 57 88 55 89
REMARK H PARENT 10 13 79 42 47 53
REMARK Flexibility Score: inf
ROOT
ATOM      1  C   UNL A   1      32.005  31.900  27.136  1.00  0.00     0.274 C 
ENDROOT
BRANCH   1   2
ATOM      2  O   UNL A   1      32.800  30.706  27.219  1.00  0.00    -0.462 OA
BRANCH   2   3
ATOM      3  C   UNL A   1      32.244  29.610  26.654  1.00  0.00     0.312 C 
ATOM      4  O   UNL A   1      31.605  28.755  27.261  1.00  0.00    -0.252 OA
BRANCH   3   5
ATOM      5  C   UNL A   1      32.369  29.587  25.152  1.00  0.00     0.124 C 
ATOM      6  C   UNL A   1      32.737  28.748  22.992  1.00  0.00     0.107 C 
ATOM      7  C   UNL A   1      31.263  28.832  23.269  1.00  0.00    -0.006 C 
ATOM      8  C   UNL A   1      33.267  28.577  24.420  1.00  0.00     0.048 C 
ATOM      9  C   UNL A   1      31.048  29.331  24.490  1.00  0.00    -0.014 C 
BRANCH   6  10
ATOM     10  N   UNL A   1      32.978  27.770  22.007  1.00  0.00    -0.332 N 
ATOM     11  C   UNL A   1      33.063  26.433  22.140  1.00  0.00     0.318 C 
ATOM     12  O   UNL A   1      33.506  25.862  21.134  1.00  0.00    -0.249 OA
ATOM     13  H   UNL A   1      33.103  28.113  21.093  1.00  0.00     0.165 HD
BRANCH  11  14
ATOM     14  N   UNL A   1      32.787  25.741  23.303  1.00  0.00    -0.322 N 
ATOM     15  C   UNL A   1      31.609  24.979  23.869  1.00  0.00     0.086 C 
ATOM     16  C   UNL A   1      32.190  24.383  25.176  1.00  0.00     0.027 C 
ATOM     17  C   UNL A   1      33.634  24.117  24.858  1.00  0.00     0.024 C 
ATOM     18  C   UNL A   1      34.004  25.308  24.004  1.00  0.00     0.122 C 
BRANCH  15  19
ATOM     19  C   UNL A   1      30.265  25.622  24.285  1.00  0.00     0.022 C 
ATOM     20  C   UNL A   1      30.172  25.942  25.781  1.00  0.00     0.006 C 
ENDBRANCH  15  19
ENDBRANCH  11  14
ENDBRANCH   6  10
ENDBRANCH   3   5
ENDBRANCH   2   3
ENDBRANCH   1   2
BRANCH   1  21
ATOM     21  C   UNL A   1      32.881  33.137  27.355  1.00  0.00     0.275 C 
BRANCH  21  22
ATOM     22  O   UNL A   1      32.191  34.201  28.045  1.00  0.00    -0.458 OA
BRANCH  22  23
ATOM     23  C   UNL A   1      32.969  35.121  28.655  1.00  0.00     0.338 C 
ATOM     24  O   UNL A   1      32.743  36.320  28.779  1.00  0.00    -0.246 OA
BRANCH  23  25
ATOM     25  C   UNL A   1      34.144  34.478  29.263  1.00  0.00     0.060 A 
ATOM     26  C   UNL A   1      33.960  33.672  30.391  1.00  0.00     0.016 A 
ATOM     27  C   UNL A   1      35.431  34.725  28.778  1.00  0.00     0.016 A 
ATOM     28  C   UNL A   1      35.057  33.099  31.031  1.00  0.00     0.010 A 
ATOM     29  C   UNL A   1      36.531  34.145  29.418  1.00  0.00     0.010 A 
ATOM     30  C   UNL A   1      36.350  33.326  30.546  1.00  0.00    -0.014 A 
BRANCH  30  31
ATOM     31  C   UNL A   1      37.514  32.682  31.202  1.00  0.00     0.031 A 
ATOM     32  C   UNL A   1      38.239  31.552  30.535  1.00  0.00     0.074 A 
ATOM     33  C   UNL A   1      37.908  33.116  32.414  1.00  0.00     0.049 A 
ATOM     34  N   UNL A   1      39.208  30.803  30.998  1.00  0.00    -0.248 NA
ATOM     35  C   UNL A   1      37.820  31.219  29.165  1.00  0.00     0.031 C 
ATOM     36  C   UNL A   1      37.303  34.228  33.147  1.00  0.00     0.029 A 
ATOM     37  N   UNL A   1      38.902  32.667  33.246  1.00  0.00    -0.354 N 
ATOM     38  C   UNL A   1      39.505  29.901  29.986  1.00  0.00     0.074 A 
ATOM     39  C   UNL A   1      38.605  30.186  28.888  1.00  0.00     0.031 C 
ATOM     40  C   UNL A   1      37.933  34.371  34.323  1.00  0.00     0.029 A 
ATOM     41  C   UNL A   1      38.952  33.332  34.446  1.00  0.00     0.049 A 
ATOM     42  H   UNL A   1      39.520  31.938  33.006  1.00  0.00     0.167 HD
ATOM     43  C   UNL A   1      40.448  28.928  29.978  1.00  0.00     0.037 A 
ATOM     44  C   UNL A   1      39.708  33.106  35.537  1.00  0.00     0.037 A 
ATOM     45  C   UNL A   1      41.349  28.656  31.068  1.00  0.00     0.049 A 
ATOM     46  C   UNL A   1      40.693  31.971  35.527  1.00  0.00     0.074 A 
ATOM     47  C   UNL A   1      42.362  27.714  31.138  1.00  0.00     0.029 A 
ATOM     48  N   UNL A   1      41.340  29.322  32.285  1.00  0.00    -0.354 N 
ATOM     49  N   UNL A   1      40.976  31.129  34.563  1.00  0.00    -0.248 NA
ATOM     50  C   UNL A   1      41.457  31.748  36.763  1.00  0.00     0.031 C 
ATOM     51  C   UNL A   1      42.935  27.780  32.412  1.00  0.00     0.029 A 
ATOM     52  C   UNL A   1      42.309  28.791  33.122  1.00  0.00     0.049 A 
ATOM     53  H   UNL A   1      40.736  30.062  32.519  1.00  0.00     0.167 HD
ATOM     54  C   UNL A   1      41.955  30.285  35.069  1.00  0.00     0.074 A 
ATOM     55  C   UNL A   1      42.232  30.728  36.420  1.00  0.00     0.031 C 
ATOM     56  C   UNL A   1      42.566  29.235  34.468  1.00  0.00     0.037 A 
BRANCH  43  57
ATOM     57  C   UNL A   1      40.542  28.062  28.757  1.00  0.00     0.064 A 
ATOM     58  C   UNL A   1      39.840  26.852  28.655  1.00  0.00     0.173 A 
ATOM     59  C   UNL A   1      41.306  28.476  27.654  1.00  0.00     0.173 A 
ATOM     60  F   UNL A   1      39.106  26.409  29.686  1.00  0.00    -0.203 F 
ATOM     61  C   UNL A   1      39.914  26.079  27.499  1.00  0.00     0.198 A 
ATOM     62  C   UNL A   1      41.359  27.711  26.492  1.00  0.00     0.198 A 
ATOM     63  F   UNL A   1      41.992  29.628  27.700  1.00  0.00    -0.203 F 
ATOM     64  F   UNL A   1      39.263  24.909  27.435  1.00  0.00    -0.200 F 
ATOM     65  C   UNL A   1      40.667  26.511  26.417  1.00  0.00     0.200 A 
ATOM     66  F   UNL A   1      42.078  28.135  25.444  1.00  0.00    -0.200 F 
ATOM     67  F   UNL A   1      40.730  25.769  25.302  1.00  0.00    -0.200 F 
ENDBRANCH  43  57
BRANCH  44  68
ATOM     68  C   UNL A   1      39.535  33.956  36.742  1.00  0.00     0.064 A 
ATOM     69  C   UNL A   1      40.133  35.219  36.825  1.00  0.00     0.173 A 
ATOM     70  C   UNL A   1      38.766  33.521  37.831  1.00  0.00     0.173 A 
ATOM     71  F   UNL A   1      40.898  35.665  35.818  1.00  0.00    -0.203 F 
ATOM     72  C   UNL A   1      39.976  36.015  37.958  1.00  0.00     0.198 A 
ATOM     73  C   UNL A   1      38.589  34.328  38.953  1.00  0.00     0.198 A 
ATOM     74  F   UNL A   1      38.176  32.317  37.801  1.00  0.00    -0.203 F 
ATOM     75  F   UNL A   1      40.589  37.203  38.028  1.00  0.00    -0.200 F 
ATOM     76  C   UNL A   1      39.199  35.571  39.017  1.00  0.00     0.200 A 
ATOM     77  F   UNL A   1      37.829  33.900  39.970  1.00  0.00    -0.200 F 
ATOM     78  F   UNL A   1      39.044  36.339  40.105  1.00  0.00    -0.200 F 
ENDBRANCH  44  68
BRANCH  56  79
ATOM     79  C   UNL A   1      43.599  28.498  35.267  1.00  0.00     0.064 A 
ATOM     80  C   UNL A   1      43.255  27.403  36.072  1.00  0.00     0.173 A 
ATOM     81  C   UNL A   1      44.950  28.869  35.201  1.00  0.00     0.173 A 
ATOM     82  F   UNL A   1      41.972  27.022  36.182  1.00  0.00    -0.203 F 
ATOM     83  C   UNL A   1      44.224  26.718  36.799  1.00  0.00     0.198 A 
ATOM     84  C   UNL A   1      45.920  28.166  35.911  1.00  0.00     0.198 A 
ATOM     85  F   UNL A   1      45.330  29.908  34.443  1.00  0.00    -0.203 F 
ATOM     86  F   UNL A   1      43.868  25.700  37.595  1.00  0.00    -0.200 F 
ATOM     87  C   UNL A   1      45.556  27.095  36.713  1.00  0.00     0.200 A 
ATOM     88  F   UNL A   1      47.208  28.526  35.819  1.00  0.00    -0.200 F 
ATOM     89  F   UNL A   1      46.488  26.432  37.410  1.00  0.00    -0.200 F 
ENDBRANCH  56  79
ENDBRANCH  30  31
ENDBRANCH  23  25
ENDBRANCH  22  23
ENDBRANCH  21  22
ENDBRANCH   1  21
TORSDOF 14
ENDMDL
MODEL 2
REMARK VINA RESULT:     -11.7      1.291      2.430
REMARK SMILES CC[C@@H]1CCCN1C(=O)N[C@H]1C=C[C@@H](C(=O)OCCOC(=O)c2ccc(-c3c4nc(c(-c5c(F)c(F)c(F)c(F)c5F)c5ccc([nH]5)c(-c5c(F)c(F)c(F)c(F)c5F)c5nc(c(-c6c(F)c(F)c(F)c(F)c6F)c6ccc3[nH]6)C=C5)C=C4)cc2)C1
REMARK SMILES IDX 18 1 17 2 15 3 16 4 14 5 11 6 12 7 86 8 13 9 10 10 8 11 9 12
REMARK SMILES IDX 7 14 3 15 4 16 5 17 6 18 2 19 1 20 19 21 20 22 21 23 22 24
REMARK SMILES IDX 23 25 24 26 85 27 25 28 84 29 26 30 27 31 28 32 78 33 29 34
REMARK SMILES IDX 83 35 77 36 79 37 30 38 82 39 76 40 75 41 31 43 63 44 43 45
REMARK SMILES IDX 62 46 44 47 47 48 61 49 80 50 45 51 46 52 60 54 81 55 48 56
REMARK SMILES IDX 32 57 33 58 41 59 34 60 35 61 39 62 42 63 36 64 37 65 40 66
REMARK SMILES IDX 38 67 64 68 65 69 73 70 66 71 67 72 71 73 74 74 68 75 69 76
REMARK SMILES IDX 72 77 70 78 49 79 50 80 58 81 51 82 52 83 56 84 59 85 53 86
REMARK SMILES IDX 54 87 57 88 55 89
REMARK H PARENT 10 13 79 42 47 53
REMARK Flexibility Score: inf
ROOT
ATOM      1  C   UNL A   1      32.493  31.369  27.292  1.00  0.00     0.274 C 
ENDROOT
BRANCH   1   2
ATOM      2  O   UNL A   1      32.839  30.585  26.139  1.00  0.00    -0.462 OA
BRANCH   2   3
ATOM      3  C   UNL A   1      31.805  29.929  25.564  1.00  0.00     0.312 C 
ATOM      4  O   UNL A   1      30.861  30.470  24.993  1.00  0.00    -0.252 OA
BRANCH   3   5
ATOM      5  C   UNL A   1      31.971  28.431  25.572  1.00  0.00     0.124 C 
ATOM      6  C   UNL A   1      31.694  26.195  26.224  1.00  0.00     0.107 C 
ATOM      7  C   UNL A   1      30.835  26.494  25.029  1.00  0.00    -0.006 C 
ATOM      8  C   UNL A   1      31.782  27.592  26.846  1.00  0.00     0.048 C 
ATOM      9  C   UNL A   1      31.007  27.761  24.639  1.00  0.00    -0.014 C 
BRANCH   6  10
ATOM     10  N   UNL A   1      31.145  25.114  26.942  1.00  0.00    -0.332 N 
ATOM     11  C   UNL A   1      31.334  23.793  26.765  1.00  0.00     0.318 C 
ATOM     12  O   UNL A   1      30.542  23.089  27.405  1.00  0.00    -0.249 OA
ATOM     13  H   UNL A   1      30.537  25.360  27.676  1.00  0.00     0.165 HD
BRANCH  11  14
ATOM     14  N   UNL A   1      32.246  23.241  25.887  1.00  0.00    -0.322 N 
ATOM     15  C   UNL A   1      33.753  23.194  25.761  1.00  0.00     0.086 C 
ATOM     16  C   UNL A   1      33.961  22.235  24.563  1.00  0.00     0.027 C 
ATOM     17  C   UNL A   1      32.826  21.257  24.663  1.00  0.00     0.024 C 
ATOM     18  C   UNL A   1      31.677  22.135  25.105  1.00  0.00     0.122 C 
BRANCH  15  19
ATOM     19  C   UNL A   1      34.647  24.419  25.452  1.00  0.00     0.022 C 
ATOM     20  C   UNL A   1      34.335  25.088  24.110  1.00  0.00     0.006 C 
ENDBRANCH  15  19
ENDBRANCH  11  14
ENDBRANCH   6  10
ENDBRANCH   3   5
ENDBRANCH   2   3
ENDBRANCH   1   2
BRANCH   1  21
ATOM     21  C   UNL A   1      32.945  32.820  27.102  1.00  0.00     0.275 C 
BRANCH  21  22
ATOM     22  O   UNL A   1      32.226  33.749  27.943  1.00  0.00    -0.458 OA
BRANCH  22  23
ATOM     23  C   UNL A   1      32.968  34.700  28.552  1.00  0.00     0.338 C 
ATOM     24  O   UNL A   1      32.689  35.887  28.683  1.00  0.00    -0.246 OA
BRANCH  23  25
ATOM     25  C   UNL A   1      34.174  34.107  29.149  1.00  0.00     0.060 A 
ATOM     26  C   UNL A   1      34.028  33.225  30.223  1.00  0.00     0.016 A 
ATOM     27  C   UNL A   1      35.448  34.474  28.708  1.00  0.00     0.016 A 
ATOM     28  C   UNL A   1      35.151  32.694  30.855  1.00  0.00     0.010 A 
ATOM     29  C   UNL A   1      36.576  33.937  29.339  1.00  0.00     0.010 A 
ATOM     30  C   UNL A   1      36.434  33.041  30.413  1.00  0.00    -0.014 A 
BRANCH  30  31
ATOM     31  C   UNL A   1      37.628  32.445  31.057  1.00  0.00     0.031 A 
ATOM     32  C   UNL A   1      38.390  31.343  30.384  1.00  0.00     0.074 A 
ATOM     33  C   UNL A   1      38.018  32.896  32.265  1.00  0.00     0.049 A 
ATOM     34  N   UNL A   1      39.393  30.633  30.837  1.00  0.00    -0.248 NA
ATOM     35  C   UNL A   1      37.970  30.992  29.019  1.00  0.00     0.031 C 
ATOM     36  C   UNL A   1      37.377  33.983  33.003  1.00  0.00     0.029 A 
ATOM     37  N   UNL A   1      39.037  32.486  33.087  1.00  0.00    -0.354 N 
ATOM     38  C   UNL A   1      39.715  29.742  29.823  1.00  0.00     0.074 A 
ATOM     39  C   UNL A   1      38.792  29.990  28.735  1.00  0.00     0.031 C 
ATOM     40  C   UNL A   1      38.014  34.153  34.172  1.00  0.00     0.029 A 
ATOM     41  C   UNL A   1      39.074  33.155  34.286  1.00  0.00     0.049 A 
ATOM     42  H   UNL A   1      39.681  31.782  32.841  1.00  0.00     0.167 HD
ATOM     43  C   UNL A   1      40.694  28.807  29.806  1.00  0.00     0.037 A 
ATOM     44  C   UNL A   1      39.849  32.960  35.369  1.00  0.00     0.037 A 
ATOM     45  C   UNL A   1      41.617  28.572  30.887  1.00  0.00     0.049 A 
ATOM     46  C   UNL A   1      40.878  31.864  35.350  1.00  0.00     0.074 A 
ATOM     47  C   UNL A   1      42.667  27.670  30.947  1.00  0.00     0.029 A 
ATOM     48  N   UNL A   1      41.594  29.239  32.103  1.00  0.00    -0.354 N 
ATOM     49  N   UNL A   1      41.184  31.033  34.384  1.00  0.00    -0.248 NA
ATOM     50  C   UNL A   1      41.663  31.673  36.578  1.00  0.00     0.031 C 
ATOM     51  C   UNL A   1      43.250  27.761  32.215  1.00  0.00     0.029 A 
ATOM     52  C   UNL A   1      42.592  28.747  32.931  1.00  0.00     0.049 A 
ATOM     53  H   UNL A   1      40.964  29.955  32.343  1.00  0.00     0.167 HD
ATOM     54  C   UNL A   1      42.200  30.229  34.880  1.00  0.00     0.074 A 
ATOM     55  C   UNL A   1      42.473  30.684  36.227  1.00  0.00     0.031 C 
ATOM     56  C   UNL A   1      42.846  29.203  34.274  1.00  0.00     0.037 A 
BRANCH  43  57
ATOM     57  C   UNL A   1      40.810  27.944  28.585  1.00  0.00     0.064 A 
ATOM     58  C   UNL A   1      40.119  26.728  28.473  1.00  0.00     0.173 A 
ATOM     59  C   UNL A   1      41.583  28.366  27.491  1.00  0.00     0.173 A 
ATOM     60  F   UNL A   1      39.377  26.277  29.495  1.00  0.00    -0.203 F 
ATOM     61  C   UNL A   1      40.213  25.958  27.317  1.00  0.00     0.198 A 
ATOM     62  C   UNL A   1      41.655  27.603  26.329  1.00  0.00     0.198 A 
ATOM     63  F   UNL A   1      42.258  29.523  27.547  1.00  0.00    -0.203 F 
ATOM     64  F   UNL A   1      39.572  24.783  27.244  1.00  0.00    -0.200 F 
ATOM     65  C   UNL A   1      40.975  26.397  26.244  1.00  0.00     0.200 A 
ATOM     66  F   UNL A   1      42.383  28.035  25.290  1.00  0.00    -0.200 F 
ATOM     67  F   UNL A   1      41.057  25.658  25.129  1.00  0.00    -0.200 F 
ENDBRANCH  43  57
BRANCH  44  68
ATOM     68  C   UNL A   1      39.655  33.804  36.575  1.00  0.00     0.064 A 
ATOM     69  C   UNL A   1      38.830  33.381  37.625  1.00  0.00     0.173 A 
ATOM     70  C   UNL A   1      40.292  35.046  36.701  1.00  0.00     0.173 A 
ATOM     71  F   UNL A   1      38.179  32.212  37.536  1.00  0.00    -0.203 F 
ATOM     72  C   UNL A   1      38.641  34.176  38.754  1.00  0.00     0.198 A 
ATOM     73  C   UNL A   1      40.124  35.828  37.841  1.00  0.00     0.198 A 
ATOM     74  F   UNL A   1      41.090  35.496  35.721  1.00  0.00    -0.203 F 
ATOM     75  F   UNL A   1      37.818  33.766  39.727  1.00  0.00    -0.200 F 
ATOM     76  C   UNL A   1      39.294  35.394  38.864  1.00  0.00     0.200 A 
ATOM     77  F   UNL A   1      40.764  37.000  37.949  1.00  0.00    -0.200 F 
ATOM     78  F   UNL A   1      39.117  36.155  39.953  1.00  0.00    -0.200 F 
ENDBRANCH  44  68
BRANCH  56  79
ATOM     79  C   UNL A   1      43.915  28.508  35.062  1.00  0.00     0.064 A 
ATOM     80  C   UNL A   1      45.242  28.958  35.048  1.00  0.00     0.173 A 
ATOM     81  C   UNL A   1      43.603  27.401  35.866  1.00  0.00     0.173 A 
ATOM     82  F   UNL A   1      45.593  30.002  34.281  1.00  0.00    -0.203 F 
ATOM     83  C   UNL A   1      46.224  28.313  35.795  1.00  0.00     0.198 A 
ATOM     84  C   UNL A   1      44.583  26.773  36.630  1.00  0.00     0.198 A 
ATOM     85  F   UNL A   1      42.347  26.934  35.915  1.00  0.00    -0.203 F 
ATOM     86  F   UNL A   1      47.495  28.735  35.734  1.00  0.00    -0.200 F 
ATOM     87  C   UNL A   1      45.893  27.226  36.590  1.00  0.00     0.200 A 
ATOM     88  F   UNL A   1      44.260  25.729  37.405  1.00  0.00    -0.200 F 
ATOM     89  F   UNL A   1      46.839  26.609  37.311  1.00  0.00    -0.200 F 
ENDBRANCH  56  79
ENDBRANCH  30  31
ENDBRANCH  23  25
ENDBRANCH  22  23
ENDBRANCH  21  22
ENDBRANCH   1  21
TORSDOF 14
ENDMDL
MODEL 3
REMARK VINA RESULT:     -11.7      1.273      2.387
REMARK SMILES CC[C@@H]1CCCN1C(=O)N[C@H]1C=C[C@@H](C(=O)OCCOC(=O)c2ccc(-c3c4nc(c(-c5c(F)c(F)c(F)c(F)c5F)c5ccc([nH]5)c(-c5c(F)c(F)c(F)c(F)c5F)c5nc(c(-c6c(F)c(F)c(F)c(F)c6F)c6ccc3[nH]6)C=C5)C=C4)cc2)C1
REMARK SMILES IDX 18 1 17 2 15 3 16 4 14 5 11 6 12 7 86 8 13 9 10 10 8 11 9 12
REMARK SMILES IDX 7 14 3 15 4 16 5 17 6 18 2 19 1 20 19 21 20 22 21 23 22 24
REMARK SMILES IDX 23 25 24 26 85 27 25 28 84 29 26 30 27 31 28 32 78 33 29 34
REMARK SMILES IDX 83 35 77 36 79 37 30 38 82 39 76 40 75 41 31 43 63 44 43 45
REMARK SMILES IDX 62 46 44 47 47 48 61 49 80 50 45 51 46 52 60 54 81 55 48 56
REMARK SMILES IDX 32 57 33 58 41 59 34 60 35 61 39 62 42 63 36 64 37 65 40 66
REMARK SMILES IDX 38 67 64 68 65 69 73 70 66 71 67 72 71 73 74 74 68 75 69 76
REMARK SMILES IDX 72 77 70 78 49 79 50 80 58 81 51 82 52 83 56 84 59 85 53 86
REMARK SMILES IDX 54 87 57 88 55 89
REMARK H PARENT 10 13 79 42 47 53
REMARK Flexibility Score: inf
ROOT
ATOM      1  C   UNL A   1      32.625  31.507  27.456  1.00  0.00     0.274 C 
ENDROOT
BRANCH   1   2
ATOM      2  O   UNL A   1      32.959  30.686  26.326  1.00  0.00    -0.462 OA
BRANCH   2   3
ATOM      3  C   UNL A   1      31.904  30.100  25.715  1.00  0.00     0.312 C 
ATOM      4  O   UNL A   1      30.989  30.704  25.161  1.00  0.00    -0.252 OA
BRANCH   3   5
ATOM      5  C   UNL A   1      32.008  28.597  25.658  1.00  0.00     0.124 C 
ATOM      6  C   UNL A   1      31.633  26.348  26.209  1.00  0.00     0.107 C 
ATOM      7  C   UNL A   1      30.797  26.735  25.024  1.00  0.00    -0.006 C 
ATOM      8  C   UNL A   1      31.774  27.712  26.893  1.00  0.00     0.048 C 
ATOM      9  C   UNL A   1      31.024  28.009  24.691  1.00  0.00    -0.014 C 
BRANCH   6  10
ATOM     10  N   UNL A   1      31.034  25.261  26.876  1.00  0.00    -0.332 N 
ATOM     11  C   UNL A   1      31.183  23.941  26.655  1.00  0.00     0.318 C 
ATOM     12  O   UNL A   1      30.355  23.241  27.253  1.00  0.00    -0.249 OA
ATOM     13  H   UNL A   1      30.418  25.500  27.606  1.00  0.00     0.165 HD
BRANCH  11  14
ATOM     14  N   UNL A   1      32.095  23.392  25.776  1.00  0.00    -0.322 N 
ATOM     15  C   UNL A   1      33.602  23.334  25.656  1.00  0.00     0.086 C 
ATOM     16  C   UNL A   1      33.809  22.386  24.449  1.00  0.00     0.027 C 
ATOM     17  C   UNL A   1      32.665  21.416  24.534  1.00  0.00     0.024 C 
ATOM     18  C   UNL A   1      31.521  22.299  24.979  1.00  0.00     0.122 C 
BRANCH  15  19
ATOM     19  C   UNL A   1      34.508  24.555  25.365  1.00  0.00     0.022 C 
ATOM     20  C   UNL A   1      34.226  25.224  24.016  1.00  0.00     0.006 C 
ENDBRANCH  15  19
ENDBRANCH  11  14
ENDBRANCH   6  10
ENDBRANCH   3   5
ENDBRANCH   2   3
ENDBRANCH   1   2
BRANCH   1  21
ATOM     21  C   UNL A   1      32.844  32.986  27.120  1.00  0.00     0.275 C 
BRANCH  21  22
ATOM     22  O   UNL A   1      32.154  33.877  28.023  1.00  0.00    -0.458 OA
BRANCH  22  23
ATOM     23  C   UNL A   1      32.911  34.817  28.630  1.00  0.00     0.338 C 
ATOM     24  O   UNL A   1      32.651  36.009  28.760  1.00  0.00    -0.246 OA
BRANCH  23  25
ATOM     25  C   UNL A   1      34.109  34.206  29.224  1.00  0.00     0.060 A 
ATOM     26  C   UNL A   1      33.953  33.342  30.312  1.00  0.00     0.016 A 
ATOM     27  C   UNL A   1      35.387  34.538  28.768  1.00  0.00     0.016 A 
ATOM     28  C   UNL A   1      35.070  32.796  30.942  1.00  0.00     0.010 A 
ATOM     29  C   UNL A   1      36.508  33.985  29.397  1.00  0.00     0.010 A 
ATOM     30  C   UNL A   1      36.356  33.108  30.485  1.00  0.00    -0.014 A 
BRANCH  30  31
ATOM     31  C   UNL A   1      37.543  32.494  31.127  1.00  0.00     0.031 A 
ATOM     32  C   UNL A   1      38.287  31.382  30.452  1.00  0.00     0.074 A 
ATOM     33  C   UNL A   1      37.941  32.939  32.334  1.00  0.00     0.049 A 
ATOM     34  N   UNL A   1      39.281  30.657  30.904  1.00  0.00    -0.248 NA
ATOM     35  C   UNL A   1      37.860  31.036  29.088  1.00  0.00     0.031 C 
ATOM     36  C   UNL A   1      37.317  34.036  33.073  1.00  0.00     0.029 A 
ATOM     37  N   UNL A   1      38.955  32.515  33.154  1.00  0.00    -0.354 N 
ATOM     38  C   UNL A   1      39.588  29.761  29.890  1.00  0.00     0.074 A 
ATOM     39  C   UNL A   1      38.667  30.023  28.803  1.00  0.00     0.031 C 
ATOM     40  C   UNL A   1      37.958  34.196  34.241  1.00  0.00     0.029 A 
ATOM     41  C   UNL A   1      39.003  33.183  34.353  1.00  0.00     0.049 A 
ATOM     42  H   UNL A   1      39.588  31.802  32.908  1.00  0.00     0.167 HD
ATOM     43  C   UNL A   1      40.554  28.812  29.871  1.00  0.00     0.037 A 
ATOM     44  C   UNL A   1      39.778  32.977  35.435  1.00  0.00     0.037 A 
ATOM     45  C   UNL A   1      41.474  28.563  30.951  1.00  0.00     0.049 A 
ATOM     46  C   UNL A   1      40.791  31.867  35.415  1.00  0.00     0.074 A 
ATOM     47  C   UNL A   1      42.511  27.647  31.009  1.00  0.00     0.029 A 
ATOM     48  N   UNL A   1      41.463  29.231  32.167  1.00  0.00    -0.354 N 
ATOM     49  N   UNL A   1      41.082  31.031  34.448  1.00  0.00    -0.248 NA
ATOM     50  C   UNL A   1      41.575  31.664  36.641  1.00  0.00     0.031 C 
ATOM     51  C   UNL A   1      43.097  27.729  32.276  1.00  0.00     0.029 A 
ATOM     52  C   UNL A   1      42.455  28.725  32.993  1.00  0.00     0.049 A 
ATOM     53  H   UNL A   1      40.844  29.956  32.408  1.00  0.00     0.167 HD
ATOM     54  C   UNL A   1      42.088  30.212  34.943  1.00  0.00     0.074 A 
ATOM     55  C   UNL A   1      42.370  30.663  36.289  1.00  0.00     0.031 C 
ATOM     56  C   UNL A   1      42.717  29.177  34.335  1.00  0.00     0.037 A 
BRANCH  43  57
ATOM     57  C   UNL A   1      40.655  27.947  28.650  1.00  0.00     0.064 A 
ATOM     58  C   UNL A   1      41.456  28.307  27.557  1.00  0.00     0.173 A 
ATOM     59  C   UNL A   1      39.978  26.718  28.595  1.00  0.00     0.173 A 
ATOM     60  F   UNL A   1      42.113  29.476  27.557  1.00  0.00    -0.203 F 
ATOM     61  C   UNL A   1      41.563  27.474  26.445  1.00  0.00     0.198 A 
ATOM     62  C   UNL A   1      40.107  25.879  27.492  1.00  0.00     0.198 A 
ATOM     63  F   UNL A   1      39.203  26.327  29.617  1.00  0.00    -0.203 F 
ATOM     64  F   UNL A   1      42.308  27.852  25.397  1.00  0.00    -0.200 F 
ATOM     65  C   UNL A   1      40.894  26.259  26.416  1.00  0.00     0.200 A 
ATOM     66  F   UNL A   1      39.468  24.700  27.470  1.00  0.00    -0.200 F 
ATOM     67  F   UNL A   1      41.006  25.456  25.348  1.00  0.00    -0.200 F 
ENDBRANCH  43  57
BRANCH  44  68
ATOM     68  C   UNL A   1      39.598  33.824  36.641  1.00  0.00     0.064 A 
ATOM     69  C   UNL A   1      38.774  33.410  37.696  1.00  0.00     0.173 A 
ATOM     70  C   UNL A   1      40.247  35.060  36.763  1.00  0.00     0.173 A 
ATOM     71  F   UNL A   1      38.112  32.246  37.611  1.00  0.00    -0.203 F 
ATOM     72  C   UNL A   1      38.599  34.207  38.825  1.00  0.00     0.198 A 
ATOM     73  C   UNL A   1      40.092  35.844  37.903  1.00  0.00     0.198 A 
ATOM     74  F   UNL A   1      41.044  35.501  35.779  1.00  0.00    -0.203 F 
ATOM     75  F   UNL A   1      37.776  33.806  39.803  1.00  0.00    -0.200 F 
ATOM     76  C   UNL A   1      39.263  35.419  38.931  1.00  0.00     0.200 A 
ATOM     77  F   UNL A   1      40.744  37.010  38.007  1.00  0.00    -0.200 F 
ATOM     78  F   UNL A   1      39.099  36.183  40.020  1.00  0.00    -0.200 F 
ENDBRANCH  44  68
BRANCH  56  79
ATOM     79  C   UNL A   1      43.777  28.466  35.122  1.00  0.00     0.064 A 
ATOM     80  C   UNL A   1      43.480  27.331  35.890  1.00  0.00     0.173 A 
ATOM     81  C   UNL A   1      45.110  28.904  35.083  1.00  0.00     0.173 A 
ATOM     82  F   UNL A   1      42.217  26.885  35.974  1.00  0.00    -0.203 F 
ATOM     83  C   UNL A   1      44.475  26.672  36.606  1.00  0.00     0.198 A 
ATOM     84  C   UNL A   1      46.106  28.228  35.780  1.00  0.00     0.198 A 
ATOM     85  F   UNL A   1      45.445  29.984  34.360  1.00  0.00    -0.203 F 
ATOM     86  F   UNL A   1      44.161  25.614  37.367  1.00  0.00    -0.200 F 
ATOM     87  C   UNL A   1      45.787  27.116  36.545  1.00  0.00     0.200 A 
ATOM     88  F   UNL A   1      47.375  28.652  35.714  1.00  0.00    -0.200 F 
ATOM     89  F   UNL A   1      46.745  26.477  37.232  1.00  0.00    -0.200 F 
ENDBRANCH  56  79
ENDBRANCH  30  31
ENDBRANCH  23  25
ENDBRANCH  22  23
ENDBRANCH  21  22
ENDBRANCH   1  21
TORSDOF 14
ENDMDL
