MODEL 1
REMARK VINA RESULT:     -12.0      0.000      0.000
REMARK SMILES Cc1cc(C)cc(S(=O)(=O)N2CSC[C@H]2C(=O)OCCOC(=O)c2ccc(-c3c4nc(c(-c5c(F)c(F)c(F)c(F)c5F)c5ccc([nH]5)c(-c5c(F)c(F)c(F)c(F)c5F)c5nc(c(-c6c(F)c(F)c(F)c(F)c6F)c6ccc3[nH]6)C=C5)C=C4)cc2)c1
REMARK SMILES IDX 19 1 18 2 16 3 17 4 15 5 11 6 12 7 13 8 14 9 8 10 9 11 10 12
REMARK SMILES IDX 7 13 1 14 2 15 3 16 87 17 4 18 5 19 6 20 20 21 21 22 22 23
REMARK SMILES IDX 23 24 24 25 25 26 86 27 26 28 85 29 27 30 28 31 29 32 79 33
REMARK SMILES IDX 30 34 84 35 78 36 80 37 31 38 83 39 77 40 76 41 32 43 64 44
REMARK SMILES IDX 44 45 63 46 45 47 48 48 62 49 81 50 46 51 47 52 61 54 82 55
REMARK SMILES IDX 49 56 33 57 34 58 42 59 35 60 36 61 40 62 43 63 37 64 38 65
REMARK SMILES IDX 41 66 39 67 65 68 66 69 74 70 67 71 68 72 72 73 75 74 69 75
REMARK SMILES IDX 70 76 73 77 71 78 50 79 51 80 59 81 52 82 53 83 57 84 60 85
REMARK SMILES IDX 54 86 55 87 58 88 56 89
REMARK H PARENT 80 42 48 53
REMARK Flexibility Score: inf
ROOT
ATOM      1  C   UNL A   1      31.841  28.109  26.916  1.00  0.00     0.274 C 
ENDROOT
BRANCH   1   2
ATOM      2  O   UNL A   1      31.835  27.375  25.673  1.00  0.00    -0.461 OA
BRANCH   2   3
ATOM      3  C   UNL A   1      32.810  26.437  25.537  1.00  0.00     0.325 C 
ATOM      4  O   UNL A   1      33.992  26.614  25.823  1.00  0.00    -0.250 OA
BRANCH   3   5
ATOM      5  C   UNL A   1      32.341  25.161  24.864  1.00  0.00     0.194 C 
ATOM      6  N   UNL A   1      33.197  23.969  24.988  1.00  0.00    -0.173 NA
ATOM      7  C   UNL A   1      32.853  23.072  26.077  1.00  0.00     0.172 C 
ATOM      8  S   UNL A   1      31.230  23.567  26.703  1.00  0.00    -0.143 SA
ATOM      9  C   UNL A   1      30.965  24.835  25.441  1.00  0.00     0.103 C 
BRANCH   6  10
ATOM     10  S   UNL A   1      34.169  23.409  23.751  1.00  0.00     0.244 S 
ATOM     11  O   UNL A   1      34.426  24.502  22.848  1.00  0.00    -0.207 OA
ATOM     12  O   UNL A   1      33.605  22.153  23.295  1.00  0.00    -0.207 OA
BRANCH  10  13
ATOM     13  C   UNL A   1      35.740  22.961  24.465  1.00  0.00     0.083 A 
ATOM     14  C   UNL A   1      38.490  24.394  26.656  1.00  0.00     0.044 C 
ATOM     15  C   UNL A   1      37.679  23.437  25.833  1.00  0.00    -0.050 A 
ATOM     16  C   UNL A   1      38.072  22.097  25.721  1.00  0.00     0.007 A 
ATOM     17  C   UNL A   1      36.528  23.870  25.165  1.00  0.00     0.025 A 
ATOM     18  C   UNL A   1      37.315  21.183  24.979  1.00  0.00    -0.050 A 
ATOM     19  C   UNL A   1      37.778  19.761  24.855  1.00  0.00     0.044 C 
ATOM     20  C   UNL A   1      36.132  21.617  24.368  1.00  0.00     0.025 A 
ENDBRANCH  10  13
ENDBRANCH   6  10
ENDBRANCH   3   5
ENDBRANCH   2   3
ENDBRANCH   1   2
BRANCH   1  21
ATOM     21  C   UNL A   1      31.779  29.617  26.687  1.00  0.00     0.275 C 
BRANCH  21  22
ATOM     22  O   UNL A   1      33.075  30.133  26.337  1.00  0.00    -0.458 OA
BRANCH  22  23
ATOM     23  C   UNL A   1      33.468  31.208  27.058  1.00  0.00     0.338 C 
ATOM     24  O   UNL A   1      32.850  32.241  27.245  1.00  0.00    -0.246 OA
BRANCH  23  25
ATOM     25  C   UNL A   1      34.776  30.925  27.660  1.00  0.00     0.060 A 
ATOM     26  C   UNL A   1      35.057  29.623  28.076  1.00  0.00     0.016 A 
ATOM     27  C   UNL A   1      35.678  31.956  27.912  1.00  0.00     0.016 A 
ATOM     28  C   UNL A   1      36.205  29.350  28.806  1.00  0.00     0.010 A 
ATOM     29  C   UNL A   1      36.868  31.670  28.590  1.00  0.00     0.010 A 
ATOM     30  C   UNL A   1      37.129  30.369  29.059  1.00  0.00    -0.014 A 
BRANCH  30  31
ATOM     31  C   UNL A   1      38.362  30.066  29.819  1.00  0.00     0.031 A 
ATOM     32  C   UNL A   1      39.394  29.142  29.245  1.00  0.00     0.074 A 
ATOM     33  C   UNL A   1      38.554  30.637  31.022  1.00  0.00     0.049 A 
ATOM     34  N   UNL A   1      40.458  28.636  29.815  1.00  0.00    -0.248 NA
ATOM     35  C   UNL A   1      39.203  28.726  27.847  1.00  0.00     0.031 C 
ATOM     36  C   UNL A   1      37.649  31.601  31.652  1.00  0.00     0.029 A 
ATOM     37  N   UNL A   1      39.568  30.486  31.934  1.00  0.00    -0.354 N 
ATOM     38  C   UNL A   1      41.044  27.816  28.860  1.00  0.00     0.074 A 
ATOM     39  C   UNL A   1      40.214  27.887  27.674  1.00  0.00     0.031 C 
ATOM     40  C   UNL A   1      38.150  31.959  32.843  1.00  0.00     0.029 A 
ATOM     41  C   UNL A   1      39.369  31.196  33.091  1.00  0.00     0.049 A 
ATOM     42  H   UNL A   1      40.360  29.925  31.772  1.00  0.00     0.167 HD
ATOM     43  C   UNL A   1      42.169  27.072  28.971  1.00  0.00     0.037 A 
ATOM     44  C   UNL A   1      40.064  31.194  34.244  1.00  0.00     0.037 A 
ATOM     45  C   UNL A   1      43.001  27.036  30.147  1.00  0.00     0.049 A 
ATOM     46  C   UNL A   1      41.268  30.305  34.366  1.00  0.00     0.074 A 
ATOM     47  C   UNL A   1      44.178  26.336  30.351  1.00  0.00     0.029 A 
ATOM     48  N   UNL A   1      42.742  27.732  31.319  1.00  0.00    -0.354 N 
ATOM     49  N   UNL A   1      41.804  29.511  33.471  1.00  0.00    -0.248 NA
ATOM     50  C   UNL A   1      41.956  30.298  35.664  1.00  0.00     0.031 C 
ATOM     51  C   UNL A   1      44.607  26.575  31.662  1.00  0.00     0.029 A 
ATOM     52  C   UNL A   1      43.721  27.458  32.260  1.00  0.00     0.049 A 
ATOM     53  H   UNL A   1      41.974  28.333  31.460  1.00  0.00     0.167 HD
ATOM     54  C   UNL A   1      42.893  28.917  34.090  1.00  0.00     0.074 A 
ATOM     55  C   UNL A   1      42.956  29.458  35.433  1.00  0.00     0.031 C 
ATOM     56  C   UNL A   1      43.761  28.003  33.593  1.00  0.00     0.037 A 
BRANCH  43  57
ATOM     57  C   UNL A   1      42.551  26.208  27.806  1.00  0.00     0.064 A 
ATOM     58  C   UNL A   1      43.461  26.636  26.830  1.00  0.00     0.173 A 
ATOM     59  C   UNL A   1      42.024  24.911  27.690  1.00  0.00     0.173 A 
ATOM     60  F   UNL A   1      43.984  27.870  26.891  1.00  0.00    -0.203 F 
ATOM     61  C   UNL A   1      43.814  25.807  25.768  1.00  0.00     0.198 A 
ATOM     62  C   UNL A   1      42.398  24.076  26.641  1.00  0.00     0.198 A 
ATOM     63  F   UNL A   1      41.154  24.451  28.601  1.00  0.00    -0.203 F 
ATOM     64  F   UNL A   1      44.658  26.249  24.826  1.00  0.00    -0.200 F 
ATOM     65  C   UNL A   1      43.288  24.526  25.678  1.00  0.00     0.200 A 
ATOM     66  F   UNL A   1      41.898  22.835  26.563  1.00  0.00    -0.200 F 
ATOM     67  F   UNL A   1      43.636  23.727  24.661  1.00  0.00    -0.200 F 
ENDBRANCH  43  57
BRANCH  44  68
ATOM     68  C   UNL A   1      39.601  32.027  35.383  1.00  0.00     0.064 A 
ATOM     69  C   UNL A   1      40.046  33.345  35.539  1.00  0.00     0.173 A 
ATOM     70  C   UNL A   1      38.692  31.526  36.327  1.00  0.00     0.173 A 
ATOM     71  F   UNL A   1      40.933  33.860  34.675  1.00  0.00    -0.203 F 
ATOM     72  C   UNL A   1      39.603  34.131  36.601  1.00  0.00     0.198 A 
ATOM     73  C   UNL A   1      38.228  32.321  37.371  1.00  0.00     0.198 A 
ATOM     74  F   UNL A   1      38.238  30.269  36.222  1.00  0.00    -0.203 F 
ATOM     75  F   UNL A   1      40.069  35.378  36.748  1.00  0.00    -0.200 F 
ATOM     76  C   UNL A   1      38.688  33.621  37.511  1.00  0.00     0.200 A 
ATOM     77  F   UNL A   1      37.334  31.829  38.240  1.00  0.00    -0.200 F 
ATOM     78  F   UNL A   1      38.255  34.382  38.526  1.00  0.00    -0.200 F 
ENDBRANCH  44  68
BRANCH  56  79
ATOM     79  C   UNL A   1      44.858  27.541  34.503  1.00  0.00     0.064 A 
ATOM     80  C   UNL A   1      46.063  28.250  34.611  1.00  0.00     0.173 A 
ATOM     81  C   UNL A   1      44.689  26.401  35.302  1.00  0.00     0.173 A 
ATOM     82  F   UNL A   1      46.279  29.335  33.853  1.00  0.00    -0.203 F 
ATOM     83  C   UNL A   1      47.068  27.822  35.475  1.00  0.00     0.198 A 
ATOM     84  C   UNL A   1      45.685  25.991  36.183  1.00  0.00     0.198 A 
ATOM     85  F   UNL A   1      43.552  25.692  35.236  1.00  0.00    -0.203 F 
ATOM     86  F   UNL A   1      48.229  28.490  35.533  1.00  0.00    -0.200 F 
ATOM     87  C   UNL A   1      46.876  26.698  36.265  1.00  0.00     0.200 A 
ATOM     88  F   UNL A   1      45.494  24.910  36.952  1.00  0.00    -0.200 F 
ATOM     89  F   UNL A   1      47.842  26.291  37.099  1.00  0.00    -0.200 F 
ENDBRANCH  56  79
ENDBRANCH  30  31
ENDBRANCH  23  25
ENDBRANCH  22  23
ENDBRANCH  21  22
ENDBRANCH   1  21
TORSDOF 13
ENDMDL
MODEL 2
REMARK VINA RESULT:     -11.9      1.213      2.087
REMARK SMILES Cc1cc(C)cc(S(=O)(=O)N2CSC[C@H]2C(=O)OCCOC(=O)c2ccc(-c3c4nc(c(-c5c(F)c(F)c(F)c(F)c5F)c5ccc([nH]5)c(-c5c(F)c(F)c(F)c(F)c5F)c5nc(c(-c6c(F)c(F)c(F)c(F)c6F)c6ccc3[nH]6)C=C5)C=C4)cc2)c1
REMARK SMILES IDX 19 1 18 2 16 3 17 4 15 5 11 6 12 7 13 8 14 9 8 10 9 11 10 12
REMARK SMILES IDX 7 13 1 14 2 15 3 16 87 17 4 18 5 19 6 20 20 21 21 22 22 23
REMARK SMILES IDX 23 24 24 25 25 26 86 27 26 28 85 29 27 30 28 31 29 32 79 33
REMARK SMILES IDX 30 34 84 35 78 36 80 37 31 38 83 39 77 40 76 41 32 43 64 44
REMARK SMILES IDX 44 45 63 46 45 47 48 48 62 49 81 50 46 51 47 52 61 54 82 55
REMARK SMILES IDX 49 56 33 57 34 58 42 59 35 60 36 61 40 62 43 63 37 64 38 65
REMARK SMILES IDX 41 66 39 67 65 68 66 69 74 70 67 71 68 72 72 73 75 74 69 75
REMARK SMILES IDX 70 76 73 77 71 78 50 79 51 80 59 81 52 82 53 83 57 84 60 85
REMARK SMILES IDX 54 86 55 87 58 88 56 89
REMARK H PARENT 80 42 48 53
REMARK Flexibility Score: inf
ROOT
ATOM      1  C   UNL A   1      31.766  28.804  27.230  1.00  0.00     0.274 C 
ENDROOT
BRANCH   1   2
ATOM      2  O   UNL A   1      32.539  27.702  26.709  1.00  0.00    -0.461 OA
BRANCH   2   3
ATOM      3  C   UNL A   1      31.854  26.547  26.501  1.00  0.00     0.325 C 
ATOM      4  O   UNL A   1      30.655  26.397  26.729  1.00  0.00    -0.250 OA
BRANCH   3   5
ATOM      5  C   UNL A   1      32.731  25.383  26.079  1.00  0.00     0.194 C 
ATOM      6  N   UNL A   1      32.073  24.225  25.452  1.00  0.00    -0.173 NA
ATOM      7  C   UNL A   1      32.047  24.240  23.999  1.00  0.00     0.172 C 
ATOM      8  S   UNL A   1      33.173  25.542  23.445  1.00  0.00    -0.143 SA
ATOM      9  C   UNL A   1      33.768  25.941  25.106  1.00  0.00     0.103 C 
BRANCH   6  10
ATOM     10  S   UNL A   1      31.796  22.786  26.253  1.00  0.00     0.244 S 
ATOM     11  O   UNL A   1      30.452  22.356  25.958  1.00  0.00    -0.207 OA
ATOM     12  O   UNL A   1      32.267  22.953  27.614  1.00  0.00    -0.207 OA
BRANCH  10  13
ATOM     13  C   UNL A   1      32.885  21.563  25.549  1.00  0.00     0.083 A 
ATOM     14  C   UNL A   1      36.582  20.855  25.049  1.00  0.00     0.044 C 
ATOM     15  C   UNL A   1      35.090  20.696  25.053  1.00  0.00    -0.050 A 
ATOM     16  C   UNL A   1      34.510  19.495  24.626  1.00  0.00     0.007 A 
ATOM     17  C   UNL A   1      34.263  21.743  25.477  1.00  0.00     0.025 A 
ATOM     18  C   UNL A   1      33.121  19.319  24.647  1.00  0.00    -0.050 A 
ATOM     19  C   UNL A   1      32.528  18.030  24.156  1.00  0.00     0.044 C 
ATOM     20  C   UNL A   1      32.311  20.352  25.132  1.00  0.00     0.025 A 
ENDBRANCH  10  13
ENDBRANCH   6  10
ENDBRANCH   3   5
ENDBRANCH   2   3
ENDBRANCH   1   2
BRANCH   1  21
ATOM     21  C   UNL A   1      31.900  30.054  26.363  1.00  0.00     0.275 C 
BRANCH  21  22
ATOM     22  O   UNL A   1      33.269  30.489  26.303  1.00  0.00    -0.458 OA
BRANCH  22  23
ATOM     23  C   UNL A   1      33.593  31.457  27.190  1.00  0.00     0.338 C 
ATOM     24  O   UNL A   1      32.933  32.433  27.496  1.00  0.00    -0.246 OA
BRANCH  23  25
ATOM     25  C   UNL A   1      34.884  31.124  27.806  1.00  0.00     0.060 A 
ATOM     26  C   UNL A   1      35.083  29.832  28.292  1.00  0.00     0.016 A 
ATOM     27  C   UNL A   1      35.850  32.108  28.001  1.00  0.00     0.016 A 
ATOM     28  C   UNL A   1      36.215  29.526  29.035  1.00  0.00     0.010 A 
ATOM     29  C   UNL A   1      37.022  31.785  28.693  1.00  0.00     0.010 A 
ATOM     30  C   UNL A   1      37.202  30.497  29.231  1.00  0.00    -0.014 A 
BRANCH  30  31
ATOM     31  C   UNL A   1      38.417  30.159  30.006  1.00  0.00     0.031 A 
ATOM     32  C   UNL A   1      39.452  29.243  29.424  1.00  0.00     0.074 A 
ATOM     33  C   UNL A   1      38.589  30.690  31.230  1.00  0.00     0.049 A 
ATOM     34  N   UNL A   1      40.499  28.709  29.999  1.00  0.00    -0.248 NA
ATOM     35  C   UNL A   1      39.285  28.874  28.010  1.00  0.00     0.031 C 
ATOM     36  C   UNL A   1      37.681  31.642  31.872  1.00  0.00     0.029 A 
ATOM     37  N   UNL A   1      39.583  30.501  32.157  1.00  0.00    -0.354 N 
ATOM     38  C   UNL A   1      41.097  27.914  29.030  1.00  0.00     0.074 A 
ATOM     39  C   UNL A   1      40.292  28.031  27.831  1.00  0.00     0.031 C 
ATOM     40  C   UNL A   1      38.161  31.957  33.084  1.00  0.00     0.029 A 
ATOM     41  C   UNL A   1      39.367  31.176  33.332  1.00  0.00     0.049 A 
ATOM     42  H   UNL A   1      40.374  29.937  31.994  1.00  0.00     0.167 HD
ATOM     43  C   UNL A   1      42.213  27.156  29.141  1.00  0.00     0.037 A 
ATOM     44  C   UNL A   1      40.038  31.131  34.497  1.00  0.00     0.037 A 
ATOM     45  C   UNL A   1      43.021  27.075  30.331  1.00  0.00     0.049 A 
ATOM     46  C   UNL A   1      41.232  30.227  34.615  1.00  0.00     0.074 A 
ATOM     47  C   UNL A   1      44.187  26.358  30.536  1.00  0.00     0.029 A 
ATOM     48  N   UNL A   1      42.744  27.737  31.519  1.00  0.00    -0.354 N 
ATOM     49  N   UNL A   1      41.778  29.456  33.707  1.00  0.00    -0.248 NA
ATOM     50  C   UNL A   1      41.894  30.173  35.926  1.00  0.00     0.031 C 
ATOM     51  C   UNL A   1      44.591  26.551  31.862  1.00  0.00     0.029 A 
ATOM     52  C   UNL A   1      43.701  27.423  32.470  1.00  0.00     0.049 A 
ATOM     53  H   UNL A   1      41.979  28.340  31.664  1.00  0.00     0.167 HD
ATOM     54  C   UNL A   1      42.850  28.832  34.329  1.00  0.00     0.074 A 
ATOM     55  C   UNL A   1      42.890  29.331  35.689  1.00  0.00     0.031 C 
ATOM     56  C   UNL A   1      43.719  27.926  33.820  1.00  0.00     0.037 A 
BRANCH  43  57
ATOM     57  C   UNL A   1      42.610  26.325  27.957  1.00  0.00     0.064 A 
ATOM     58  C   UNL A   1      43.529  26.784  27.002  1.00  0.00     0.173 A 
ATOM     59  C   UNL A   1      42.090  25.030  27.800  1.00  0.00     0.173 A 
ATOM     60  F   UNL A   1      44.046  28.017  27.101  1.00  0.00    -0.203 F 
ATOM     61  C   UNL A   1      43.896  25.985  25.921  1.00  0.00     0.198 A 
ATOM     62  C   UNL A   1      42.479  24.225  26.733  1.00  0.00     0.198 A 
ATOM     63  F   UNL A   1      41.213  24.542  28.690  1.00  0.00    -0.203 F 
ATOM     64  F   UNL A   1      44.748  26.456  25.001  1.00  0.00    -0.200 F 
ATOM     65  C   UNL A   1      43.377  24.705  25.792  1.00  0.00     0.200 A 
ATOM     66  F   UNL A   1      41.986  22.985  26.617  1.00  0.00    -0.200 F 
ATOM     67  F   UNL A   1      43.739  23.935  24.757  1.00  0.00    -0.200 F 
ENDBRANCH  43  57
BRANCH  44  68
ATOM     68  C   UNL A   1      39.560  31.931  35.653  1.00  0.00     0.064 A 
ATOM     69  C   UNL A   1      40.071  33.211  35.903  1.00  0.00     0.173 A 
ATOM     70  C   UNL A   1      38.572  31.440  36.519  1.00  0.00     0.173 A 
ATOM     71  F   UNL A   1      41.033  33.715  35.116  1.00  0.00    -0.203 F 
ATOM     72  C   UNL A   1      39.614  33.968  36.979  1.00  0.00     0.198 A 
ATOM     73  C   UNL A   1      38.096  32.208  37.578  1.00  0.00     0.198 A 
ATOM     74  F   UNL A   1      38.053  30.219  36.323  1.00  0.00    -0.203 F 
ATOM     75  F   UNL A   1      40.141  35.176  37.218  1.00  0.00    -0.200 F 
ATOM     76  C   UNL A   1      38.621  33.469  37.811  1.00  0.00     0.200 A 
ATOM     77  F   UNL A   1      37.127  31.728  38.370  1.00  0.00    -0.200 F 
ATOM     78  F   UNL A   1      38.175  34.203  38.840  1.00  0.00    -0.200 F 
ENDBRANCH  44  68
BRANCH  56  79
ATOM     79  C   UNL A   1      44.794  27.425  34.737  1.00  0.00     0.064 A 
ATOM     80  C   UNL A   1      44.621  26.260  35.497  1.00  0.00     0.173 A 
ATOM     81  C   UNL A   1      46.021  28.098  34.829  1.00  0.00     0.173 A 
ATOM     82  F   UNL A   1      43.458  25.594  35.456  1.00  0.00    -0.203 F 
ATOM     83  C   UNL A   1      45.635  25.794  36.330  1.00  0.00     0.198 A 
ATOM     84  C   UNL A   1      47.042  27.616  35.644  1.00  0.00     0.198 A 
ATOM     85  F   UNL A   1      46.234  29.216  34.120  1.00  0.00    -0.203 F 
ATOM     86  F   UNL A   1      45.435  24.701  37.079  1.00  0.00    -0.200 F 
ATOM     87  C   UNL A   1      46.846  26.468  36.398  1.00  0.00     0.200 A 
ATOM     88  F   UNL A   1      48.214  28.262  35.701  1.00  0.00    -0.200 F 
ATOM     89  F   UNL A   1      47.822  26.015  37.196  1.00  0.00    -0.200 F 
ENDBRANCH  56  79
ENDBRANCH  30  31
ENDBRANCH  23  25
ENDBRANCH  22  23
ENDBRANCH  21  22
ENDBRANCH   1  21
TORSDOF 13
ENDMDL
MODEL 3
REMARK VINA RESULT:     -11.8      1.197      1.747
REMARK SMILES Cc1cc(C)cc(S(=O)(=O)N2CSC[C@H]2C(=O)OCCOC(=O)c2ccc(-c3c4nc(c(-c5c(F)c(F)c(F)c(F)c5F)c5ccc([nH]5)c(-c5c(F)c(F)c(F)c(F)c5F)c5nc(c(-c6c(F)c(F)c(F)c(F)c6F)c6ccc3[nH]6)C=C5)C=C4)cc2)c1
REMARK SMILES IDX 19 1 18 2 16 3 17 4 15 5 11 6 12 7 13 8 14 9 8 10 9 11 10 12
REMARK SMILES IDX 7 13 1 14 2 15 3 16 87 17 4 18 5 19 6 20 20 21 21 22 22 23
REMARK SMILES IDX 23 24 24 25 25 26 86 27 26 28 85 29 27 30 28 31 29 32 79 33
REMARK SMILES IDX 30 34 84 35 78 36 80 37 31 38 83 39 77 40 76 41 32 43 64 44
REMARK SMILES IDX 44 45 63 46 45 47 48 48 62 49 81 50 46 51 47 52 61 54 82 55
REMARK SMILES IDX 49 56 33 57 34 58 42 59 35 60 36 61 40 62 43 63 37 64 38 65
REMARK SMILES IDX 41 66 39 67 65 68 66 69 74 70 67 71 68 72 72 73 75 74 69 75
REMARK SMILES IDX 70 76 73 77 71 78 50 79 51 80 59 81 52 82 53 83 57 84 60 85
REMARK SMILES IDX 54 86 55 87 58 88 56 89
REMARK H PARENT 80 42 48 53
REMARK Flexibility Score: inf
ROOT
ATOM      1  C   UNL A   1      31.438  28.944  25.052  1.00  0.00     0.274 C 
ENDROOT
BRANCH   1   2
ATOM      2  O   UNL A   1      32.372  27.868  25.280  1.00  0.00    -0.461 OA
BRANCH   2   3
ATOM      3  C   UNL A   1      31.855  26.748  25.851  1.00  0.00     0.325 C 
ATOM      4  O   UNL A   1      31.107  26.745  26.826  1.00  0.00    -0.250 OA
BRANCH   3   5
ATOM      5  C   UNL A   1      32.389  25.458  25.259  1.00  0.00     0.194 C 
ATOM      6  N   UNL A   1      31.459  24.322  25.145  1.00  0.00    -0.173 NA
ATOM      7  C   UNL A   1      30.796  24.193  23.859  1.00  0.00     0.172 C 
ATOM      8  S   UNL A   1      31.634  25.299  22.698  1.00  0.00    -0.143 SA
ATOM      9  C   UNL A   1      32.921  25.795  23.868  1.00  0.00     0.103 C 
BRANCH   6  10
ATOM     10  S   UNL A   1      31.484  23.012  26.180  1.00  0.00     0.244 S 
ATOM     11  O   UNL A   1      30.195  22.370  26.126  1.00  0.00    -0.207 OA
ATOM     12  O   UNL A   1      32.067  23.460  27.429  1.00  0.00    -0.207 OA
BRANCH  10  13
ATOM     13  C   UNL A   1      32.661  21.839  25.532  1.00  0.00     0.083 A 
ATOM     14  C   UNL A   1      36.402  21.207  25.375  1.00  0.00     0.044 C 
ATOM     15  C   UNL A   1      34.920  21.029  25.220  1.00  0.00    -0.050 A 
ATOM     16  C   UNL A   1      34.408  19.843  24.679  1.00  0.00     0.007 A 
ATOM     17  C   UNL A   1      34.036  22.042  25.608  1.00  0.00     0.025 A 
ATOM     18  C   UNL A   1      33.027  19.647  24.551  1.00  0.00    -0.050 A 
ATOM     19  C   UNL A   1      32.510  18.376  23.941  1.00  0.00     0.044 C 
ATOM     20  C   UNL A   1      32.153  20.644  25.001  1.00  0.00     0.025 A 
ENDBRANCH  10  13
ENDBRANCH   6  10
ENDBRANCH   3   5
ENDBRANCH   2   3
ENDBRANCH   1   2
BRANCH   1  21
ATOM     21  C   UNL A   1      31.764  30.172  25.899  1.00  0.00     0.275 C 
BRANCH  21  22
ATOM     22  O   UNL A   1      33.143  30.157  26.308  1.00  0.00    -0.458 OA
BRANCH  22  23
ATOM     23  C   UNL A   1      33.522  31.223  27.050  1.00  0.00     0.338 C 
ATOM     24  O   UNL A   1      32.899  32.251  27.244  1.00  0.00    -0.246 OA
BRANCH  23  25
ATOM     25  C   UNL A   1      34.824  30.934  27.665  1.00  0.00     0.060 A 
ATOM     26  C   UNL A   1      35.127  29.617  28.008  1.00  0.00     0.016 A 
ATOM     27  C   UNL A   1      35.693  31.969  28.001  1.00  0.00     0.016 A 
ATOM     28  C   UNL A   1      36.265  29.327  28.747  1.00  0.00     0.010 A 
ATOM     29  C   UNL A   1      36.874  31.671  28.689  1.00  0.00     0.010 A 
ATOM     30  C   UNL A   1      37.157  30.350  29.084  1.00  0.00    -0.014 A 
BRANCH  30  31
ATOM     31  C   UNL A   1      38.380  30.031  29.854  1.00  0.00     0.031 A 
ATOM     32  C   UNL A   1      39.420  29.120  29.274  1.00  0.00     0.074 A 
ATOM     33  C   UNL A   1      38.555  30.575  31.072  1.00  0.00     0.049 A 
ATOM     34  N   UNL A   1      40.477  28.602  29.847  1.00  0.00    -0.248 NA
ATOM     35  C   UNL A   1      39.249  28.736  27.865  1.00  0.00     0.031 C 
ATOM     36  C   UNL A   1      37.641  31.523  31.712  1.00  0.00     0.029 A 
ATOM     37  N   UNL A   1      39.556  30.404  31.994  1.00  0.00    -0.354 N 
ATOM     38  C   UNL A   1      41.076  27.804  28.882  1.00  0.00     0.074 A 
ATOM     39  C   UNL A   1      40.263  27.901  27.687  1.00  0.00     0.031 C 
ATOM     40  C   UNL A   1      38.125  31.855  32.917  1.00  0.00     0.029 A 
ATOM     41  C   UNL A   1      39.341  31.087  33.165  1.00  0.00     0.049 A 
ATOM     42  H   UNL A   1      40.351  29.847  31.831  1.00  0.00     0.167 HD
ATOM     43  C   UNL A   1      42.201  27.058  28.992  1.00  0.00     0.037 A 
ATOM     44  C   UNL A   1      40.019  31.059  34.326  1.00  0.00     0.037 A 
ATOM     45  C   UNL A   1      43.016  26.996  30.178  1.00  0.00     0.049 A 
ATOM     46  C   UNL A   1      41.223  30.169  34.445  1.00  0.00     0.074 A 
ATOM     47  C   UNL A   1      44.191  26.292  30.383  1.00  0.00     0.029 A 
ATOM     48  N   UNL A   1      42.740  27.666  31.361  1.00  0.00    -0.354 N 
ATOM     49  N   UNL A   1      41.771  29.395  33.540  1.00  0.00    -0.248 NA
ATOM     50  C   UNL A   1      41.893  30.133  35.752  1.00  0.00     0.031 C 
ATOM     51  C   UNL A   1      44.601  26.502  31.704  1.00  0.00     0.029 A 
ATOM     52  C   UNL A   1      43.707  27.370  32.310  1.00  0.00     0.049 A 
ATOM     53  H   UNL A   1      41.970  28.263  31.506  1.00  0.00     0.167 HD
ATOM     54  C   UNL A   1      42.853  28.788  34.161  1.00  0.00     0.074 A 
ATOM     55  C   UNL A   1      42.896  29.299  35.516  1.00  0.00     0.031 C 
ATOM     56  C   UNL A   1      43.727  27.885  33.655  1.00  0.00     0.037 A 
BRANCH  43  57
ATOM     57  C   UNL A   1      42.599  26.220  27.813  1.00  0.00     0.064 A 
ATOM     58  C   UNL A   1      43.545  26.658  26.876  1.00  0.00     0.173 A 
ATOM     59  C   UNL A   1      42.051  24.939  27.644  1.00  0.00     0.173 A 
ATOM     60  F   UNL A   1      44.090  27.879  26.988  1.00  0.00    -0.203 F 
ATOM     61  C   UNL A   1      43.912  25.853  25.801  1.00  0.00     0.198 A 
ATOM     62  C   UNL A   1      42.439  24.127  26.582  1.00  0.00     0.198 A 
ATOM     63  F   UNL A   1      41.146  24.470  28.516  1.00  0.00    -0.203 F 
ATOM     64  F   UNL A   1      44.791  26.306  24.897  1.00  0.00    -0.200 F 
ATOM     65  C   UNL A   1      43.365  24.586  25.658  1.00  0.00     0.200 A 
ATOM     66  F   UNL A   1      41.917  22.899  26.453  1.00  0.00    -0.200 F 
ATOM     67  F   UNL A   1      43.726  23.810  24.628  1.00  0.00    -0.200 F 
ENDBRANCH  43  57
BRANCH  44  68
ATOM     68  C   UNL A   1      39.541  31.866  35.478  1.00  0.00     0.064 A 
ATOM     69  C   UNL A   1      39.988  33.178  35.673  1.00  0.00     0.173 A 
ATOM     70  C   UNL A   1      38.614  31.347  36.394  1.00  0.00     0.173 A 
ATOM     71  F   UNL A   1      40.892  33.710  34.837  1.00  0.00    -0.203 F 
ATOM     72  C   UNL A   1      39.530  33.940  36.746  1.00  0.00     0.198 A 
ATOM     73  C   UNL A   1      38.135  32.118  37.449  1.00  0.00     0.198 A 
ATOM     74  F   UNL A   1      38.156  30.094  36.250  1.00  0.00    -0.203 F 
ATOM     75  F   UNL A   1      39.998  35.181  36.931  1.00  0.00    -0.200 F 
ATOM     76  C   UNL A   1      38.598  33.412  37.628  1.00  0.00     0.200 A 
ATOM     77  F   UNL A   1      37.224  31.608  38.290  1.00  0.00    -0.200 F 
ATOM     78  F   UNL A   1      38.149  34.149  38.654  1.00  0.00    -0.200 F 
ENDBRANCH  44  68
BRANCH  56  79
ATOM     79  C   UNL A   1      44.813  27.404  34.570  1.00  0.00     0.064 A 
ATOM     80  C   UNL A   1      46.018  28.107  34.706  1.00  0.00     0.173 A 
ATOM     81  C   UNL A   1      44.631  26.248  35.344  1.00  0.00     0.173 A 
ATOM     82  F   UNL A   1      46.245  29.207  33.972  1.00  0.00    -0.203 F 
ATOM     83  C   UNL A   1      47.011  27.661  35.574  1.00  0.00     0.198 A 
ATOM     84  C   UNL A   1      45.616  25.819  36.230  1.00  0.00     0.198 A 
ATOM     85  F   UNL A   1      43.494  25.544  35.251  1.00  0.00    -0.203 F 
ATOM     86  F   UNL A   1      48.172  28.325  35.659  1.00  0.00    -0.200 F 
ATOM     87  C   UNL A   1      46.806  26.522  36.340  1.00  0.00     0.200 A 
ATOM     88  F   UNL A   1      45.413  24.725  36.975  1.00  0.00    -0.200 F 
ATOM     89  F   UNL A   1      47.761  26.097  37.178  1.00  0.00    -0.200 F 
ENDBRANCH  56  79
ENDBRANCH  30  31
ENDBRANCH  23  25
ENDBRANCH  22  23
ENDBRANCH  21  22
ENDBRANCH   1  21
TORSDOF 13
ENDMDL
