MODEL 1
REMARK VINA RESULT:     -13.3      0.000      0.000
REMARK SMILES O=C(OCCOC(=O)[C@H]1Cc2[nH]cnc2CN1S(=O)(=O)c1cccs1)c1ccc(-c2c3nc(c(-c4c(F)c(F)c(F)c(F)c4F)c4ccc([nH]4)c(-c4c(F)c(F)c(F)c(F)c4F)c4nc(c(-c5c(F)c(F)c(F)c(F)c5F)c5ccc2[nH]5)C=C4)C=C3)cc1
REMARK SMILES IDX 4 1 3 2 2 3 1 4 26 5 27 6 88 7 28 8 87 9 29 10 30 11 31 12
REMARK SMILES IDX 81 13 32 14 86 15 80 16 82 17 33 18 85 19 79 20 78 21 34 23
REMARK SMILES IDX 66 24 46 25 65 26 47 27 50 28 64 29 83 30 48 31 49 32 63 34
REMARK SMILES IDX 84 35 51 36 35 37 36 38 44 39 37 40 38 41 42 42 45 43 39 44
REMARK SMILES IDX 40 45 43 46 41 47 67 48 68 49 76 50 69 51 70 52 74 53 77 54
REMARK SMILES IDX 71 55 72 56 75 57 73 58 52 59 53 60 61 61 54 62 55 63 59 64
REMARK SMILES IDX 62 65 56 66 57 67 60 68 58 69 5 70 6 71 7 72 8 73 9 74 10 75
REMARK SMILES IDX 17 76 11 77 16 78 12 79 15 80 13 81 14 83 18 84 19 85 20 86
REMARK SMILES IDX 21 87 22 88 25 89 23 90 24 91
REMARK H PARENT 82 22 50 33 12 82
REMARK Flexibility Score: inf
ROOT
ATOM      1  C   UNL A   1      34.447  30.880  27.370  1.00  0.00     0.275 C 
ENDROOT
BRANCH   1   2
ATOM      2  O   UNL A   1      34.388  32.052  28.207  1.00  0.00    -0.458 OA
BRANCH   2   3
ATOM      3  C   UNL A   1      35.048  32.375  29.335  1.00  0.00     0.338 C 
ATOM      4  O   UNL A   1      34.588  33.231  30.084  1.00  0.00    -0.246 OA
BRANCH   3   5
ATOM      5  C   UNL A   1      36.349  31.745  29.777  1.00  0.00     0.060 A 
ATOM      6  C   UNL A   1      38.046  32.345  29.531  1.00  0.00     0.016 A 
ATOM      7  C   UNL A   1      36.116  30.154  30.590  1.00  0.00     0.016 A 
ATOM      8  C   UNL A   1      39.469  31.328  30.024  1.00  0.00     0.010 A 
ATOM      9  C   UNL A   1      37.524  29.152  31.061  1.00  0.00     0.010 A 
ATOM     10  C   UNL A   1      39.221  29.666  30.667  1.00  0.00    -0.014 A 
BRANCH  10  11
ATOM     11  C   UNL A   1      40.403  28.739  30.796  1.00  0.00     0.031 A 
ATOM     12  C   UNL A   1      41.051  28.535  32.134  1.00  0.00     0.074 A 
ATOM     13  C   UNL A   1      40.914  27.932  29.832  1.00  0.00     0.049 A 
ATOM     14  N   UNL A   1      42.273  28.814  32.490  1.00  0.00    -0.248 NA
ATOM     15  C   UNL A   1      40.273  27.857  33.187  1.00  0.00     0.031 C 
ATOM     16  C   UNL A   1      40.406  27.695  28.483  1.00  0.00     0.029 A 
ATOM     17  N   UNL A   1      42.000  27.073  29.895  1.00  0.00    -0.354 N 
ATOM     18  C   UNL A   1      42.452  28.240  33.747  1.00  0.00     0.074 A 
ATOM     19  C   UNL A   1      41.159  27.775  34.178  1.00  0.00     0.031 C 
ATOM     20  C   UNL A   1      41.011  26.617  27.949  1.00  0.00     0.029 A 
ATOM     21  C   UNL A   1      42.069  26.178  28.839  1.00  0.00     0.049 A 
ATOM     22  H   UNL A   1      42.662  27.096  30.622  1.00  0.00     0.167 HD
ATOM     23  C   UNL A   1      43.665  27.960  34.294  1.00  0.00     0.037 A 
ATOM     24  C   UNL A   1      42.924  25.154  28.610  1.00  0.00     0.037 A 
ATOM     25  C   UNL A   1      44.788  28.483  33.573  1.00  0.00     0.049 A 
ATOM     26  C   UNL A   1      44.203  25.372  29.315  1.00  0.00     0.074 A 
ATOM     27  C   UNL A   1      45.424  29.687  33.411  1.00  0.00     0.029 A 
ATOM     28  N   UNL A   1      45.367  27.611  32.701  1.00  0.00    -0.354 N 
ATOM     29  N   UNL A   1      45.095  26.258  28.969  1.00  0.00    -0.248 NA
ATOM     30  C   UNL A   1      44.494  24.644  30.545  1.00  0.00     0.031 C 
ATOM     31  C   UNL A   1      46.269  29.547  32.267  1.00  0.00     0.029 A 
ATOM     32  C   UNL A   1      46.082  28.272  31.753  1.00  0.00     0.049 A 
ATOM     33  H   UNL A   1      45.279  26.632  32.752  1.00  0.00     0.167 HD
ATOM     34  C   UNL A   1      45.836  26.467  30.108  1.00  0.00     0.074 A 
ATOM     35  C   UNL A   1      45.566  25.323  30.963  1.00  0.00     0.031 C 
ATOM     36  C   UNL A   1      46.261  27.719  30.429  1.00  0.00     0.037 A 
BRANCH  23  37
ATOM     37  C   UNL A   1      43.875  26.867  35.310  1.00  0.00     0.064 A 
ATOM     38  C   UNL A   1      44.401  27.158  36.571  1.00  0.00     0.173 A 
ATOM     39  C   UNL A   1      43.811  25.511  34.958  1.00  0.00     0.173 A 
ATOM     40  F   UNL A   1      44.569  28.423  36.951  1.00  0.00    -0.203 F 
ATOM     41  C   UNL A   1      44.813  26.146  37.435  1.00  0.00     0.198 A 
ATOM     42  C   UNL A   1      44.178  24.504  35.840  1.00  0.00     0.198 A 
ATOM     43  F   UNL A   1      43.470  25.143  33.728  1.00  0.00    -0.203 F 
ATOM     44  F   UNL A   1      45.360  26.454  38.595  1.00  0.00    -0.200 F 
ATOM     45  C   UNL A   1      44.686  24.821  37.073  1.00  0.00     0.200 A 
ATOM     46  F   UNL A   1      44.086  23.232  35.465  1.00  0.00    -0.200 F 
ATOM     47  F   UNL A   1      45.098  23.850  37.897  1.00  0.00    -0.200 F 
ENDBRANCH  23  37
BRANCH  24  48
ATOM     48  C   UNL A   1      42.720  23.994  27.712  1.00  0.00     0.064 A 
ATOM     49  C   UNL A   1      43.080  24.033  26.357  1.00  0.00     0.173 A 
ATOM     50  C   UNL A   1      42.317  22.743  28.216  1.00  0.00     0.173 A 
ATOM     51  F   UNL A   1      43.544  25.164  25.808  1.00  0.00    -0.203 F 
ATOM     52  C   UNL A   1      43.018  22.895  25.551  1.00  0.00     0.198 A 
ATOM     53  C   UNL A   1      42.234  21.614  27.404  1.00  0.00     0.198 A 
ATOM     54  F   UNL A   1      42.062  22.581  29.518  1.00  0.00    -0.203 F 
ATOM     55  F   UNL A   1      43.409  22.964  24.277  1.00  0.00    -0.200 F 
ATOM     56  C   UNL A   1      42.588  21.690  26.074  1.00  0.00     0.200 A 
ATOM     57  F   UNL A   1      41.845  20.443  27.930  1.00  0.00    -0.200 F 
ATOM     58  F   UNL A   1      42.547  20.595  25.305  1.00  0.00    -0.200 F 
ENDBRANCH  24  48
BRANCH  36  59
ATOM     59  C   UNL A   1      46.579  28.636  29.298  1.00  0.00     0.064 A 
ATOM     60  C   UNL A   1      47.837  28.706  28.685  1.00  0.00     0.173 A 
ATOM     61  C   UNL A   1      45.556  29.439  28.788  1.00  0.00     0.173 A 
ATOM     62  F   UNL A   1      48.836  27.913  29.079  1.00  0.00    -0.203 F 
ATOM     63  C   UNL A   1      48.069  29.590  27.635  1.00  0.00     0.198 A 
ATOM     64  C   UNL A   1      45.781  30.299  27.719  1.00  0.00     0.198 A 
ATOM     65  F   UNL A   1      44.327  29.375  29.315  1.00  0.00    -0.203 F 
ATOM     66  F   UNL A   1      49.279  29.673  27.077  1.00  0.00    -0.200 F 
ATOM     67  C   UNL A   1      47.041  30.384  27.154  1.00  0.00     0.200 A 
ATOM     68  F   UNL A   1      44.778  31.039  27.235  1.00  0.00    -0.200 F 
ATOM     69  F   UNL A   1      47.257  31.223  26.127  1.00  0.00    -0.200 F 
ENDBRANCH  36  59
ENDBRANCH  10  11
ENDBRANCH   3   5
ENDBRANCH   2   3
ENDBRANCH   1   2
BRANCH   1  70
ATOM     70  C   UNL A   1      33.059  30.348  27.017  1.00  0.00     0.274 C 
BRANCH  70  71
ATOM     71  O   UNL A   1      33.070  29.815  25.682  1.00  0.00    -0.461 OA
BRANCH  71  72
ATOM     72  C   UNL A   1      32.913  28.465  25.625  1.00  0.00     0.325 C 
ATOM     73  O   UNL A   1      33.660  27.691  26.213  1.00  0.00    -0.250 OA
BRANCH  72  74
ATOM     74  C   UNL A   1      31.702  28.044  24.805  1.00  0.00     0.189 C 
ATOM     75  C   UNL A   1      32.081  28.561  23.351  1.00  0.00     0.088 C 
ATOM     76  N   UNL A   1      30.750  26.503  24.588  1.00  0.00    -0.176 NA
ATOM     77  C   UNL A   1      30.852  28.992  22.689  1.00  0.00     0.041 A 
ATOM     78  C   UNL A   1      29.320  27.317  23.837  1.00  0.00     0.161 C 
ATOM     79  N   UNL A   1      30.654  30.023  21.819  1.00  0.00    -0.348 N 
ATOM     80  C   UNL A   1      29.629  28.459  22.934  1.00  0.00     0.077 A 
ATOM     81  C   UNL A   1      29.304  30.101  21.609  1.00  0.00     0.197 A 
ATOM     82  H   UNL A   1      31.347  30.600  21.421  1.00  0.00     0.167 HD
ATOM     83  N   UNL A   1      28.657  29.170  22.273  1.00  0.00    -0.240 NA
BRANCH  76  84
ATOM     84  S   UNL A   1      30.891  24.231  25.553  1.00  0.00     0.253 S 
ATOM     85  O   UNL A   1      30.091  24.020  26.778  1.00  0.00    -0.206 OA
ATOM     86  O   UNL A   1      30.744  23.123  24.598  1.00  0.00    -0.206 OA
BRANCH  84  87
ATOM     87  C   UNL A   1      32.513  23.568  26.368  1.00  0.00     0.135 A 
ATOM     88  C   UNL A   1      32.654  22.718  27.462  1.00  0.00     0.033 A 
ATOM     89  S   UNL A   1      33.982  23.697  25.487  1.00  0.00    -0.131 S 
ATOM     90  C   UNL A   1      33.988  22.256  27.628  1.00  0.00     0.013 A 
ATOM     91  C   UNL A   1      34.813  22.722  26.630  1.00  0.00     0.066 A 
ENDBRANCH  84  87
ENDBRANCH  76  84
ENDBRANCH  72  74
ENDBRANCH  71  72
ENDBRANCH  70  71
ENDBRANCH   1  70
TORSDOF 13
ENDMDL
MODEL 2
REMARK VINA RESULT:     -13.2      0.495      1.662
REMARK SMILES O=C(OCCOC(=O)[C@H]1Cc2[nH]cnc2CN1S(=O)(=O)c1cccs1)c1ccc(-c2c3nc(c(-c4c(F)c(F)c(F)c(F)c4F)c4ccc([nH]4)c(-c4c(F)c(F)c(F)c(F)c4F)c4nc(c(-c5c(F)c(F)c(F)c(F)c5F)c5ccc2[nH]5)C=C4)C=C3)cc1
REMARK SMILES IDX 4 1 3 2 2 3 1 4 26 5 27 6 88 7 28 8 87 9 29 10 30 11 31 12
REMARK SMILES IDX 81 13 32 14 86 15 80 16 82 17 33 18 85 19 79 20 78 21 34 23
REMARK SMILES IDX 66 24 46 25 65 26 47 27 50 28 64 29 83 30 48 31 49 32 63 34
REMARK SMILES IDX 84 35 51 36 35 37 36 38 44 39 37 40 38 41 42 42 45 43 39 44
REMARK SMILES IDX 40 45 43 46 41 47 67 48 68 49 76 50 69 51 70 52 74 53 77 54
REMARK SMILES IDX 71 55 72 56 75 57 73 58 52 59 53 60 61 61 54 62 55 63 59 64
REMARK SMILES IDX 62 65 56 66 57 67 60 68 58 69 5 70 6 71 7 72 8 73 9 74 10 75
REMARK SMILES IDX 17 76 11 77 16 78 12 79 15 80 13 81 14 83 18 84 19 85 20 86
REMARK SMILES IDX 21 87 22 88 25 89 23 90 24 91
REMARK H PARENT 82 22 50 33 12 82
REMARK Flexibility Score: inf
ROOT
ATOM      1  C   UNL A   1      34.443  31.153  27.437  1.00  0.00     0.275 C 
ENDROOT
BRANCH   1   2
ATOM      2  O   UNL A   1      34.307  32.201  28.418  1.00  0.00    -0.458 OA
BRANCH   2   3
ATOM      3  C   UNL A   1      34.844  32.348  29.644  1.00  0.00     0.338 C 
ATOM      4  O   UNL A   1      34.235  32.982  30.500  1.00  0.00    -0.246 OA
BRANCH   3   5
ATOM      5  C   UNL A   1      36.174  31.772  30.072  1.00  0.00     0.060 A 
ATOM      6  C   UNL A   1      37.828  32.513  29.950  1.00  0.00     0.016 A 
ATOM      7  C   UNL A   1      36.035  30.096  30.719  1.00  0.00     0.016 A 
ATOM      8  C   UNL A   1      39.307  31.557  30.397  1.00  0.00     0.010 A 
ATOM      9  C   UNL A   1      37.499  29.156  31.145  1.00  0.00     0.010 A 
ATOM     10  C   UNL A   1      39.164  29.827  30.867  1.00  0.00    -0.014 A 
BRANCH  10  11
ATOM     11  C   UNL A   1      40.408  28.978  30.952  1.00  0.00     0.031 A 
ATOM     12  C   UNL A   1      41.107  28.804  32.268  1.00  0.00     0.074 A 
ATOM     13  C   UNL A   1      40.942  28.216  29.964  1.00  0.00     0.049 A 
ATOM     14  N   UNL A   1      42.318  29.160  32.592  1.00  0.00    -0.248 NA
ATOM     15  C   UNL A   1      40.407  28.067  33.335  1.00  0.00     0.031 C 
ATOM     16  C   UNL A   1      40.411  27.959  28.627  1.00  0.00     0.029 A 
ATOM     17  N   UNL A   1      42.083  27.429  29.985  1.00  0.00    -0.354 N 
ATOM     18  C   UNL A   1      42.571  28.587  33.836  1.00  0.00     0.074 A 
ATOM     19  C   UNL A   1      41.325  28.033  34.299  1.00  0.00     0.031 C 
ATOM     20  C   UNL A   1      41.069  26.928  28.064  1.00  0.00     0.029 A 
ATOM     21  C   UNL A   1      42.180  26.551  28.918  1.00  0.00     0.049 A 
ATOM     22  H   UNL A   1      42.763  27.489  30.694  1.00  0.00     0.167 HD
ATOM     23  C   UNL A   1      43.815  28.382  34.345  1.00  0.00     0.037 A 
ATOM     24  C   UNL A   1      43.093  25.588  28.652  1.00  0.00     0.037 A 
ATOM     25  C   UNL A   1      44.880  28.985  33.598  1.00  0.00     0.049 A 
ATOM     26  C   UNL A   1      44.375  25.883  29.322  1.00  0.00     0.074 A 
ATOM     27  C   UNL A   1      45.430  30.230  33.431  1.00  0.00     0.029 A 
ATOM     28  N   UNL A   1      45.489  28.162  32.700  1.00  0.00    -0.354 N 
ATOM     29  N   UNL A   1      45.196  26.829  28.961  1.00  0.00    -0.248 NA
ATOM     30  C   UNL A   1      44.750  25.164  30.535  1.00  0.00     0.031 C 
ATOM     31  C   UNL A   1      46.249  30.157  32.262  1.00  0.00     0.029 A 
ATOM     32  C   UNL A   1      46.131  28.877  31.739  1.00  0.00     0.049 A 
ATOM     33  H   UNL A   1      45.467  27.178  32.742  1.00  0.00     0.167 HD
ATOM     34  C   UNL A   1      45.955  27.076  30.081  1.00  0.00     0.074 A 
ATOM     35  C   UNL A   1      45.787  25.908  30.930  1.00  0.00     0.031 C 
ATOM     36  C   UNL A   1      46.307  28.350  30.404  1.00  0.00     0.037 A 
BRANCH  23  37
ATOM     37  C   UNL A   1      44.127  27.296  35.342  1.00  0.00     0.064 A 
ATOM     38  C   UNL A   1      44.010  25.950  34.989  1.00  0.00     0.173 A 
ATOM     39  C   UNL A   1      44.280  27.572  36.708  1.00  0.00     0.173 A 
ATOM     40  F   UNL A   1      43.783  25.607  33.723  1.00  0.00    -0.203 F 
ATOM     41  C   UNL A   1      44.071  24.941  35.949  1.00  0.00     0.198 A 
ATOM     42  C   UNL A   1      44.387  26.563  37.656  1.00  0.00     0.198 A 
ATOM     43  F   UNL A   1      44.246  28.822  37.157  1.00  0.00    -0.203 F 
ATOM     44  F   UNL A   1      43.898  23.683  35.591  1.00  0.00    -0.200 F 
ATOM     45  C   UNL A   1      44.274  25.250  37.277  1.00  0.00     0.200 A 
ATOM     46  F   UNL A   1      44.546  26.875  38.938  1.00  0.00    -0.200 F 
ATOM     47  F   UNL A   1      44.315  24.282  38.200  1.00  0.00    -0.200 F 
ENDBRANCH  23  37
BRANCH  24  48
ATOM     48  C   UNL A   1      42.939  24.426  27.747  1.00  0.00     0.064 A 
ATOM     49  C   UNL A   1      43.288  24.491  26.391  1.00  0.00     0.173 A 
ATOM     50  C   UNL A   1      42.600  23.154  28.244  1.00  0.00     0.173 A 
ATOM     51  F   UNL A   1      43.693  25.647  25.847  1.00  0.00    -0.203 F 
ATOM     52  C   UNL A   1      43.276  23.358  25.577  1.00  0.00     0.198 A 
ATOM     53  C   UNL A   1      42.565  22.028  27.426  1.00  0.00     0.198 A 
ATOM     54  F   UNL A   1      42.361  22.971  29.547  1.00  0.00    -0.203 F 
ATOM     55  F   UNL A   1      43.655  23.453  24.301  1.00  0.00    -0.200 F 
ATOM     56  C   UNL A   1      42.907  22.129  26.093  1.00  0.00     0.200 A 
ATOM     57  F   UNL A   1      42.237  20.836  27.945  1.00  0.00    -0.200 F 
ATOM     58  F   UNL A   1      42.914  21.040  25.317  1.00  0.00    -0.200 F 
ENDBRANCH  24  48
BRANCH  36  59
ATOM     59  C   UNL A   1      46.531  29.296  29.275  1.00  0.00     0.064 A 
ATOM     60  C   UNL A   1      45.513  30.057  28.685  1.00  0.00     0.173 A 
ATOM     61  C   UNL A   1      47.835  29.470  28.805  1.00  0.00     0.173 A 
ATOM     62  F   UNL A   1      44.258  29.989  29.136  1.00  0.00    -0.203 F 
ATOM     63  C   UNL A   1      45.790  30.920  27.629  1.00  0.00     0.198 A 
ATOM     64  C   UNL A   1      48.115  30.355  27.769  1.00  0.00     0.198 A 
ATOM     65  F   UNL A   1      48.845  28.795  29.366  1.00  0.00    -0.203 F 
ATOM     66  F   UNL A   1      44.809  31.618  27.052  1.00  0.00    -0.200 F 
ATOM     67  C   UNL A   1      47.090  31.067  27.173  1.00  0.00     0.200 A 
ATOM     68  F   UNL A   1      49.375  30.521  27.355  1.00  0.00    -0.200 F 
ATOM     69  F   UNL A   1      47.363  31.914  26.167  1.00  0.00    -0.200 F 
ENDBRANCH  36  59
ENDBRANCH  10  11
ENDBRANCH   3   5
ENDBRANCH   2   3
ENDBRANCH   1   2
BRANCH   1  70
ATOM     70  C   UNL A   1      33.150  30.359  27.254  1.00  0.00     0.274 C 
BRANCH  70  71
ATOM     71  O   UNL A   1      33.106  29.808  25.927  1.00  0.00    -0.461 OA
BRANCH  71  72
ATOM     72  C   UNL A   1      32.957  28.456  25.896  1.00  0.00     0.325 C 
ATOM     73  O   UNL A   1      33.654  27.702  26.563  1.00  0.00    -0.250 OA
BRANCH  72  74
ATOM     74  C   UNL A   1      31.816  28.008  24.992  1.00  0.00     0.189 C 
ATOM     75  C   UNL A   1      32.304  28.498  23.562  1.00  0.00     0.088 C 
ATOM     76  N   UNL A   1      30.895  26.454  24.734  1.00  0.00    -0.176 NA
ATOM     77  C   UNL A   1      31.127  28.905  22.797  1.00  0.00     0.041 A 
ATOM     78  C   UNL A   1      29.522  27.240  23.857  1.00  0.00     0.161 C 
ATOM     79  N   UNL A   1      30.991  29.916  21.893  1.00  0.00    -0.348 N 
ATOM     80  C   UNL A   1      29.892  28.367  22.957  1.00  0.00     0.077 A 
ATOM     81  C   UNL A   1      29.661  29.978  21.576  1.00  0.00     0.197 A 
ATOM     82  H   UNL A   1      31.709  30.491  21.538  1.00  0.00     0.167 HD
ATOM     83  N   UNL A   1      28.971  29.055  22.208  1.00  0.00    -0.240 NA
BRANCH  76  84
ATOM     84  S   UNL A   1      30.976  24.203  25.755  1.00  0.00     0.253 S 
ATOM     85  O   UNL A   1      30.239  24.067  27.029  1.00  0.00    -0.206 OA
ATOM     86  O   UNL A   1      30.719  23.081  24.842  1.00  0.00    -0.206 OA
BRANCH  84  87
ATOM     87  C   UNL A   1      32.607  23.478  26.496  1.00  0.00     0.135 A 
ATOM     88  C   UNL A   1      32.760  22.493  27.468  1.00  0.00     0.033 A 
ATOM     89  S   UNL A   1      34.081  23.761  25.660  1.00  0.00    -0.131 S 
ATOM     90  C   UNL A   1      34.103  22.047  27.589  1.00  0.00     0.013 A 
ATOM     91  C   UNL A   1      34.926  22.662  26.673  1.00  0.00     0.066 A 
ENDBRANCH  84  87
ENDBRANCH  76  84
ENDBRANCH  72  74
ENDBRANCH  71  72
ENDBRANCH  70  71
ENDBRANCH   1  70
TORSDOF 13
ENDMDL
MODEL 3
REMARK VINA RESULT:     -13.2      4.149      9.534
REMARK SMILES O=C(OCCOC(=O)[C@H]1Cc2[nH]cnc2CN1S(=O)(=O)c1cccs1)c1ccc(-c2c3nc(c(-c4c(F)c(F)c(F)c(F)c4F)c4ccc([nH]4)c(-c4c(F)c(F)c(F)c(F)c4F)c4nc(c(-c5c(F)c(F)c(F)c(F)c5F)c5ccc2[nH]5)C=C4)C=C3)cc1
REMARK SMILES IDX 4 1 3 2 2 3 1 4 26 5 27 6 88 7 28 8 87 9 29 10 30 11 31 12
REMARK SMILES IDX 81 13 32 14 86 15 80 16 82 17 33 18 85 19 79 20 78 21 34 23
REMARK SMILES IDX 66 24 46 25 65 26 47 27 50 28 64 29 83 30 48 31 49 32 63 34
REMARK SMILES IDX 84 35 51 36 35 37 36 38 44 39 37 40 38 41 42 42 45 43 39 44
REMARK SMILES IDX 40 45 43 46 41 47 67 48 68 49 76 50 69 51 70 52 74 53 77 54
REMARK SMILES IDX 71 55 72 56 75 57 73 58 52 59 53 60 61 61 54 62 55 63 59 64
REMARK SMILES IDX 62 65 56 66 57 67 60 68 58 69 5 70 6 71 7 72 8 73 9 74 10 75
REMARK SMILES IDX 17 76 11 77 16 78 12 79 15 80 13 81 14 83 18 84 19 85 20 86
REMARK SMILES IDX 21 87 22 88 25 89 23 90 24 91
REMARK H PARENT 82 22 50 33 12 82
REMARK Flexibility Score: inf
ROOT
ATOM      1  C   UNL A   1      38.601  19.958  25.394  1.00  0.00     0.275 C 
ENDROOT
BRANCH   1   2
ATOM      2  O   UNL A   1      39.504  21.069  25.560  1.00  0.00    -0.458 OA
BRANCH   2   3
ATOM      3  C   UNL A   1      40.113  21.565  26.653  1.00  0.00     0.338 C 
ATOM      4  O   UNL A   1      40.403  20.815  27.580  1.00  0.00    -0.246 OA
BRANCH   3   5
ATOM      5  C   UNL A   1      40.491  23.017  26.840  1.00  0.00     0.060 A 
ATOM      6  C   UNL A   1      42.133  23.737  27.134  1.00  0.00     0.016 A 
ATOM      7  C   UNL A   1      39.066  24.119  26.827  1.00  0.00     0.016 A 
ATOM      8  C   UNL A   1      42.318  25.511  27.481  1.00  0.00     0.010 A 
ATOM      9  C   UNL A   1      39.255  25.864  27.183  1.00  0.00     0.010 A 
ATOM     10  C   UNL A   1      40.868  26.562  27.644  1.00  0.00    -0.014 A 
BRANCH  10  11
ATOM     11  C   UNL A   1      41.021  27.950  28.212  1.00  0.00     0.031 A 
ATOM     12  C   UNL A   1      42.214  28.783  27.844  1.00  0.00     0.074 A 
ATOM     13  C   UNL A   1      40.115  28.628  28.962  1.00  0.00     0.049 A 
ATOM     14  N   UNL A   1      43.147  29.247  28.626  1.00  0.00    -0.248 NA
ATOM     15  C   UNL A   1      42.345  29.229  26.445  1.00  0.00     0.031 C 
ATOM     16  C   UNL A   1      38.758  28.229  29.327  1.00  0.00     0.029 A 
ATOM     17  N   UNL A   1      40.209  29.895  29.516  1.00  0.00    -0.354 N 
ATOM     18  C   UNL A   1      43.895  30.133  27.854  1.00  0.00     0.074 A 
ATOM     19  C   UNL A   1      43.437  29.989  26.496  1.00  0.00     0.031 C 
ATOM     20  C   UNL A   1      38.085  29.287  29.817  1.00  0.00     0.029 A 
ATOM     21  C   UNL A   1      39.001  30.403  29.965  1.00  0.00     0.049 A 
ATOM     22  H   UNL A   1      41.057  30.389  29.585  1.00  0.00     0.167 HD
ATOM     23  C   UNL A   1      44.695  31.106  28.366  1.00  0.00     0.037 A 
ATOM     24  C   UNL A   1      38.694  31.618  30.476  1.00  0.00     0.037 A 
ATOM     25  C   UNL A   1      44.890  31.044  29.785  1.00  0.00     0.049 A 
ATOM     26  C   UNL A   1      39.886  32.251  31.075  1.00  0.00     0.074 A 
ATOM     27  C   UNL A   1      45.630  30.317  30.681  1.00  0.00     0.029 A 
ATOM     28  N   UNL A   1      44.051  31.832  30.513  1.00  0.00    -0.354 N 
ATOM     29  N   UNL A   1      40.442  31.868  32.191  1.00  0.00    -0.248 NA
ATOM     30  C   UNL A   1      40.587  33.314  30.363  1.00  0.00     0.031 C 
ATOM     31  C   UNL A   1      45.059  30.560  31.969  1.00  0.00     0.029 A 
ATOM     32  C   UNL A   1      43.964  31.396  31.798  1.00  0.00     0.049 A 
ATOM     33  H   UNL A   1      43.572  32.614  30.157  1.00  0.00     0.167 HD
ATOM     34  C   UNL A   1      41.727  32.352  32.121  1.00  0.00     0.074 A 
ATOM     35  C   UNL A   1      41.698  33.387  31.101  1.00  0.00     0.031 C 
ATOM     36  C   UNL A   1      42.767  31.605  32.581  1.00  0.00     0.037 A 
BRANCH  23  37
ATOM     37  C   UNL A   1      45.020  32.377  27.624  1.00  0.00     0.064 A 
ATOM     38  C   UNL A   1      46.317  32.624  27.169  1.00  0.00     0.173 A 
ATOM     39  C   UNL A   1      44.131  33.460  27.594  1.00  0.00     0.173 A 
ATOM     40  F   UNL A   1      47.245  31.671  27.238  1.00  0.00    -0.203 F 
ATOM     41  C   UNL A   1      46.690  33.878  26.688  1.00  0.00     0.198 A 
ATOM     42  C   UNL A   1      44.492  34.694  27.070  1.00  0.00     0.198 A 
ATOM     43  F   UNL A   1      42.925  33.366  28.144  1.00  0.00    -0.203 F 
ATOM     44  F   UNL A   1      47.937  34.096  26.321  1.00  0.00    -0.200 F 
ATOM     45  C   UNL A   1      45.771  34.905  26.626  1.00  0.00     0.200 A 
ATOM     46  F   UNL A   1      43.608  35.687  27.050  1.00  0.00    -0.200 F 
ATOM     47  F   UNL A   1      46.134  36.113  26.179  1.00  0.00    -0.200 F 
ENDBRANCH  23  37
BRANCH  24  48
ATOM     48  C   UNL A   1      37.357  32.251  30.554  1.00  0.00     0.064 A 
ATOM     49  C   UNL A   1      36.521  32.084  31.667  1.00  0.00     0.173 A 
ATOM     50  C   UNL A   1      36.937  33.189  29.592  1.00  0.00     0.173 A 
ATOM     51  F   UNL A   1      36.875  31.266  32.667  1.00  0.00    -0.203 F 
ATOM     52  C   UNL A   1      35.327  32.794  31.798  1.00  0.00     0.198 A 
ATOM     53  C   UNL A   1      35.733  33.879  29.712  1.00  0.00     0.198 A 
ATOM     54  F   UNL A   1      37.718  33.499  28.553  1.00  0.00    -0.203 F 
ATOM     55  F   UNL A   1      34.579  32.639  32.893  1.00  0.00    -0.200 F 
ATOM     56  C   UNL A   1      34.931  33.685  30.817  1.00  0.00     0.200 A 
ATOM     57  F   UNL A   1      35.375  34.764  28.770  1.00  0.00    -0.200 F 
ATOM     58  F   UNL A   1      33.795  34.379  30.953  1.00  0.00    -0.200 F 
ENDBRANCH  24  48
BRANCH  36  59
ATOM     59  C   UNL A   1      42.496  30.713  33.744  1.00  0.00     0.064 A 
ATOM     60  C   UNL A   1      42.614  31.119  35.079  1.00  0.00     0.173 A 
ATOM     61  C   UNL A   1      42.056  29.411  33.491  1.00  0.00     0.173 A 
ATOM     62  F   UNL A   1      42.961  32.371  35.386  1.00  0.00    -0.203 F 
ATOM     63  C   UNL A   1      42.350  30.232  36.119  1.00  0.00     0.198 A 
ATOM     64  C   UNL A   1      41.765  28.536  34.531  1.00  0.00     0.198 A 
ATOM     65  F   UNL A   1      41.889  28.992  32.231  1.00  0.00    -0.203 F 
ATOM     66  F   UNL A   1      42.496  30.618  37.389  1.00  0.00    -0.200 F 
ATOM     67  C   UNL A   1      41.926  28.942  35.844  1.00  0.00     0.200 A 
ATOM     68  F   UNL A   1      41.322  27.303  34.262  1.00  0.00    -0.200 F 
ATOM     69  F   UNL A   1      41.652  28.091  36.845  1.00  0.00    -0.200 F 
ENDBRANCH  36  59
ENDBRANCH  10  11
ENDBRANCH   3   5
ENDBRANCH   2   3
ENDBRANCH   1   2
BRANCH   1  70
ATOM     70  C   UNL A   1      37.228  20.397  24.888  1.00  0.00     0.274 C 
BRANCH  70  71
ATOM     71  O   UNL A   1      36.676  21.379  25.781  1.00  0.00    -0.461 OA
BRANCH  71  72
ATOM     72  C   UNL A   1      35.882  22.298  25.169  1.00  0.00     0.325 C 
ATOM     73  O   UNL A   1      36.232  23.459  24.997  1.00  0.00    -0.250 OA
BRANCH  72  74
ATOM     74  C   UNL A   1      34.559  21.713  24.692  1.00  0.00     0.189 C 
ATOM     75  C   UNL A   1      33.944  21.129  26.035  1.00  0.00     0.088 C 
ATOM     76  N   UNL A   1      33.161  22.312  23.685  1.00  0.00    -0.176 NA
ATOM     77  C   UNL A   1      33.200  19.915  25.702  1.00  0.00     0.041 A 
ATOM     78  C   UNL A   1      32.483  20.664  23.378  1.00  0.00     0.161 C 
ATOM     79  N   UNL A   1      33.059  18.764  26.418  1.00  0.00    -0.348 N 
ATOM     80  C   UNL A   1      32.585  19.703  24.511  1.00  0.00     0.077 A 
ATOM     81  C   UNL A   1      32.399  17.880  25.607  1.00  0.00     0.197 A 
ATOM     82  H   UNL A   1      33.371  18.600  27.337  1.00  0.00     0.167 HD
ATOM     83  N   UNL A   1      32.103  18.420  24.445  1.00  0.00    -0.240 NA
BRANCH  76  84
ATOM     84  S   UNL A   1      32.661  24.422  22.496  1.00  0.00     0.253 S 
ATOM     85  O   UNL A   1      33.276  24.547  21.157  1.00  0.00    -0.206 OA
ATOM     86  O   UNL A   1      31.251  24.837  22.500  1.00  0.00    -0.206 OA
BRANCH  84  87
ATOM     87  C   UNL A   1      33.363  26.120  23.095  1.00  0.00     0.135 A 
ATOM     88  C   UNL A   1      33.644  27.259  22.345  1.00  0.00     0.033 A 
ATOM     89  S   UNL A   1      33.320  26.476  24.774  1.00  0.00    -0.131 S 
ATOM     90  C   UNL A   1      33.920  28.394  23.156  1.00  0.00     0.013 A 
ATOM     91  C   UNL A   1      33.788  28.103  24.495  1.00  0.00     0.066 A 
ENDBRANCH  84  87
ENDBRANCH  76  84
ENDBRANCH  72  74
ENDBRANCH  71  72
ENDBRANCH  70  71
ENDBRANCH   1  70
TORSDOF 13
ENDMDL
