MODEL 1
REMARK VINA RESULT:     -11.5      0.000      0.000
REMARK SMILES C=C[C@@H](C)Oc1cnc2ccccc2c1C(=O)OCCOC(=O)c1ccc(-c2c3nc(c(-c4c(F)c(F)c(F)c(F)c4F)c4ccc([nH]4)c(-c4c(F)c(F)c(F)c(F)c4F)c4nc(c(-c5c(F)c(F)c(F)c(F)c5F)c5ccc2[nH]5)C=C4)C=C3)cc1
REMARK SMILES IDX 19 1 18 2 16 3 17 4 15 5 6 6 7 7 8 8 14 9 9 10 13 11 10 12
REMARK SMILES IDX 12 13 11 14 5 15 3 16 4 17 2 18 1 19 20 20 21 21 22 22 23 23
REMARK SMILES IDX 24 24 25 25 86 26 26 27 85 28 27 29 28 30 29 31 79 32 30 33
REMARK SMILES IDX 84 34 78 35 80 36 31 37 83 38 77 39 76 40 32 42 64 43 44 44
REMARK SMILES IDX 63 45 45 46 48 47 62 48 81 49 46 50 47 51 61 53 82 54 49 55
REMARK SMILES IDX 33 56 34 57 42 58 35 59 36 60 40 61 43 62 37 63 38 64 41 65
REMARK SMILES IDX 39 66 65 67 66 68 74 69 67 70 68 71 72 72 75 73 69 74 70 75
REMARK SMILES IDX 73 76 71 77 50 78 51 79 59 80 52 81 53 82 57 83 60 84 54 85
REMARK SMILES IDX 55 86 58 87 56 88
REMARK H PARENT 80 41 48 52
REMARK Flexibility Score: inf
ROOT
ATOM      1  C   UNL A   1      33.304  29.051  24.584  1.00  0.00     0.275 C 
ENDROOT
BRANCH   1   2
ATOM      2  O   UNL A   1      33.513  27.805  25.288  1.00  0.00    -0.458 OA
BRANCH   2   3
ATOM      3  C   UNL A   1      33.257  26.665  24.593  1.00  0.00     0.342 C 
ATOM      4  O   UNL A   1      33.648  26.407  23.465  1.00  0.00    -0.246 OA
BRANCH   3   5
ATOM      5  C   UNL A   1      32.423  25.736  25.398  1.00  0.00     0.113 A 
ATOM      6  C   UNL A   1      31.061  26.032  25.557  1.00  0.00     0.153 A 
ATOM      7  C   UNL A   1      30.300  25.102  26.234  1.00  0.00     0.159 A 
ATOM      8  N   UNL A   1      30.800  24.014  26.854  1.00  0.00    -0.252 NA
ATOM      9  C   UNL A   1      33.000  24.602  26.041  1.00  0.00     0.018 A 
ATOM     10  C   UNL A   1      32.115  23.784  26.776  1.00  0.00     0.071 A 
ATOM     11  C   UNL A   1      34.375  24.242  26.026  1.00  0.00     0.011 A 
ATOM     12  C   UNL A   1      32.605  22.680  27.458  1.00  0.00     0.029 A 
ATOM     13  C   UNL A   1      34.845  23.123  26.715  1.00  0.00     0.001 A 
ATOM     14  C   UNL A   1      33.957  22.343  27.440  1.00  0.00     0.002 A 
BRANCH   6  15
ATOM     15  O   UNL A   1      30.494  27.078  24.894  1.00  0.00    -0.484 OA
BRANCH  15  16
ATOM     16  C   UNL A   1      29.797  26.884  23.649  1.00  0.00     0.192 C 
ATOM     17  C   UNL A   1      30.467  27.610  22.487  1.00  0.00     0.057 C 
BRANCH  16  18
ATOM     18  C   UNL A   1      28.313  27.145  23.720  1.00  0.00     0.009 C 
ATOM     19  C   UNL A   1      27.694  28.227  23.225  1.00  0.00     0.008 C 
ENDBRANCH  16  18
ENDBRANCH  15  16
ENDBRANCH   6  15
ENDBRANCH   3   5
ENDBRANCH   2   3
ENDBRANCH   1   2
BRANCH   1  20
ATOM     20  C   UNL A   1      32.187  29.865  25.238  1.00  0.00     0.275 C 
BRANCH  20  21
ATOM     21  O   UNL A   1      32.478  30.033  26.637  1.00  0.00    -0.458 OA
BRANCH  21  22
ATOM     22  C   UNL A   1      32.967  31.246  26.986  1.00  0.00     0.338 C 
ATOM     23  O   UNL A   1      32.401  32.322  26.953  1.00  0.00    -0.246 OA
BRANCH  22  24
ATOM     24  C   UNL A   1      34.268  31.048  27.641  1.00  0.00     0.060 A 
ATOM     25  C   UNL A   1      34.564  29.747  28.028  1.00  0.00     0.016 A 
ATOM     26  C   UNL A   1      35.132  32.092  27.969  1.00  0.00     0.016 A 
ATOM     27  C   UNL A   1      35.725  29.470  28.741  1.00  0.00     0.010 A 
ATOM     28  C   UNL A   1      36.315  31.810  28.675  1.00  0.00     0.010 A 
ATOM     29  C   UNL A   1      36.621  30.492  29.069  1.00  0.00    -0.014 A 
BRANCH  29  30
ATOM     30  C   UNL A   1      37.799  30.151  29.915  1.00  0.00     0.031 A 
ATOM     31  C   UNL A   1      38.938  29.367  29.325  1.00  0.00     0.074 A 
ATOM     32  C   UNL A   1      37.923  30.660  31.158  1.00  0.00     0.049 A 
ATOM     33  N   UNL A   1      40.037  28.941  29.895  1.00  0.00    -0.248 NA
ATOM     34  C   UNL A   1      38.832  29.031  27.897  1.00  0.00     0.031 C 
ATOM     35  C   UNL A   1      36.947  31.528  31.816  1.00  0.00     0.029 A 
ATOM     36  N   UNL A   1      38.944  30.556  32.075  1.00  0.00    -0.354 N 
ATOM     37  C   UNL A   1      40.737  28.261  28.906  1.00  0.00     0.074 A 
ATOM     38  C   UNL A   1      39.941  28.332  27.700  1.00  0.00     0.031 C 
ATOM     39  C   UNL A   1      37.432  31.910  33.010  1.00  0.00     0.029 A 
ATOM     40  C   UNL A   1      38.717  31.255  33.238  1.00  0.00     0.049 A 
ATOM     41  H   UNL A   1      39.759  30.029  31.914  1.00  0.00     0.167 HD
ATOM     42  C   UNL A   1      41.935  27.632  28.999  1.00  0.00     0.037 A 
ATOM     43  C   UNL A   1      39.449  31.330  34.370  1.00  0.00     0.037 A 
ATOM     44  C   UNL A   1      42.739  27.577  30.192  1.00  0.00     0.049 A 
ATOM     45  C   UNL A   1      40.734  30.543  34.470  1.00  0.00     0.074 A 
ATOM     46  C   UNL A   1      43.935  26.909  30.396  1.00  0.00     0.029 A 
ATOM     47  N   UNL A   1      42.441  28.228  31.378  1.00  0.00    -0.354 N 
ATOM     48  N   UNL A   1      41.351  29.837  33.553  1.00  0.00    -0.248 NA
ATOM     49  C   UNL A   1      41.413  30.548  35.774  1.00  0.00     0.031 C 
ATOM     50  C   UNL A   1      44.337  27.120  31.719  1.00  0.00     0.029 A 
ATOM     51  C   UNL A   1      43.422  27.967  32.322  1.00  0.00     0.049 A 
ATOM     52  H   UNL A   1      41.647  28.792  31.529  1.00  0.00     0.167 HD
ATOM     53  C   UNL A   1      42.492  29.331  34.165  1.00  0.00     0.074 A 
ATOM     54  C   UNL A   1      42.506  29.846  35.517  1.00  0.00     0.031 C 
ATOM     55  C   UNL A   1      43.436  28.498  33.660  1.00  0.00     0.037 A 
BRANCH  42  56
ATOM     56  C   UNL A   1      42.429  26.902  27.785  1.00  0.00     0.064 A 
ATOM     57  C   UNL A   1      43.301  27.499  26.865  1.00  0.00     0.173 A 
ATOM     58  C   UNL A   1      42.063  25.563  27.574  1.00  0.00     0.173 A 
ATOM     59  F   UNL A   1      43.667  28.780  27.013  1.00  0.00    -0.203 F 
ATOM     60  C   UNL A   1      43.777  26.785  25.767  1.00  0.00     0.198 A 
ATOM     61  C   UNL A   1      42.564  24.845  26.493  1.00  0.00     0.198 A 
ATOM     62  F   UNL A   1      41.235  24.946  28.431  1.00  0.00    -0.203 F 
ATOM     63  F   UNL A   1      44.580  27.384  24.877  1.00  0.00    -0.200 F 
ATOM     64  C   UNL A   1      43.416  25.457  25.587  1.00  0.00     0.200 A 
ATOM     65  F   UNL A   1      42.225  23.558  26.330  1.00  0.00    -0.200 F 
ATOM     66  F   UNL A   1      43.887  24.768  24.538  1.00  0.00    -0.200 F 
ENDBRANCH  42  56
BRANCH  43  67
ATOM     67  C   UNL A   1      38.971  32.120  35.542  1.00  0.00     0.064 A 
ATOM     68  C   UNL A   1      39.300  33.477  35.689  1.00  0.00     0.173 A 
ATOM     69  C   UNL A   1      38.260  31.511  36.588  1.00  0.00     0.173 A 
ATOM     70  F   UNL A   1      40.008  34.102  34.737  1.00  0.00    -0.203 F 
ATOM     71  C   UNL A   1      38.974  34.178  36.850  1.00  0.00     0.198 A 
ATOM     72  C   UNL A   1      37.896  32.226  37.728  1.00  0.00     0.198 A 
ATOM     73  F   UNL A   1      37.928  30.215  36.512  1.00  0.00    -0.203 F 
ATOM     74  F   UNL A   1      39.379  35.446  36.999  1.00  0.00    -0.200 F 
ATOM     75  C   UNL A   1      38.270  33.553  37.867  1.00  0.00     0.200 A 
ATOM     76  F   UNL A   1      37.204  31.618  38.702  1.00  0.00    -0.200 F 
ATOM     77  F   UNL A   1      37.968  34.222  38.988  1.00  0.00    -0.200 F 
ENDBRANCH  43  67
BRANCH  55  78
ATOM     78  C   UNL A   1      44.579  28.122  34.562  1.00  0.00     0.064 A 
ATOM     79  C   UNL A   1      45.752  28.890  34.627  1.00  0.00     0.173 A 
ATOM     80  C   UNL A   1      44.495  26.987  35.384  1.00  0.00     0.173 A 
ATOM     81  F   UNL A   1      45.891  29.978  33.853  1.00  0.00    -0.203 F 
ATOM     82  C   UNL A   1      46.811  28.515  35.450  1.00  0.00     0.198 A 
ATOM     83  C   UNL A   1      45.541  26.635  36.232  1.00  0.00     0.198 A 
ATOM     84  F   UNL A   1      43.393  26.222  35.370  1.00  0.00    -0.203 F 
ATOM     85  F   UNL A   1      47.945  29.229  35.446  1.00  0.00    -0.200 F 
ATOM     86  C   UNL A   1      46.702  27.392  36.256  1.00  0.00     0.200 A 
ATOM     87  F   UNL A   1      45.427  25.559  37.023  1.00  0.00    -0.200 F 
ATOM     88  F   UNL A   1      47.723  27.033  37.048  1.00  0.00    -0.200 F 
ENDBRANCH  55  78
ENDBRANCH  29  30
ENDBRANCH  22  24
ENDBRANCH  21  22
ENDBRANCH  20  21
ENDBRANCH   1  20
TORSDOF 14
ENDMDL
MODEL 2
REMARK VINA RESULT:     -11.5      1.049      1.820
REMARK SMILES C=C[C@@H](C)Oc1cnc2ccccc2c1C(=O)OCCOC(=O)c1ccc(-c2c3nc(c(-c4c(F)c(F)c(F)c(F)c4F)c4ccc([nH]4)c(-c4c(F)c(F)c(F)c(F)c4F)c4nc(c(-c5c(F)c(F)c(F)c(F)c5F)c5ccc2[nH]5)C=C4)C=C3)cc1
REMARK SMILES IDX 19 1 18 2 16 3 17 4 15 5 6 6 7 7 8 8 14 9 9 10 13 11 10 12
REMARK SMILES IDX 12 13 11 14 5 15 3 16 4 17 2 18 1 19 20 20 21 21 22 22 23 23
REMARK SMILES IDX 24 24 25 25 86 26 26 27 85 28 27 29 28 30 29 31 79 32 30 33
REMARK SMILES IDX 84 34 78 35 80 36 31 37 83 38 77 39 76 40 32 42 64 43 44 44
REMARK SMILES IDX 63 45 45 46 48 47 62 48 81 49 46 50 47 51 61 53 82 54 49 55
REMARK SMILES IDX 33 56 34 57 42 58 35 59 36 60 40 61 43 62 37 63 38 64 41 65
REMARK SMILES IDX 39 66 65 67 66 68 74 69 67 70 68 71 72 72 75 73 69 74 70 75
REMARK SMILES IDX 73 76 71 77 50 78 51 79 59 80 52 81 53 82 57 83 60 84 54 85
REMARK SMILES IDX 55 86 58 87 56 88
REMARK H PARENT 80 41 48 52
REMARK Flexibility Score: inf
ROOT
ATOM      1  C   UNL A   1      31.735  28.752  27.179  1.00  0.00     0.275 C 
ENDROOT
BRANCH   1   2
ATOM      2  O   UNL A   1      32.537  27.693  26.607  1.00  0.00    -0.458 OA
BRANCH   2   3
ATOM      3  C   UNL A   1      31.862  26.641  26.075  1.00  0.00     0.342 C 
ATOM      4  O   UNL A   1      30.861  26.118  26.540  1.00  0.00    -0.246 OA
BRANCH   3   5
ATOM      5  C   UNL A   1      32.506  26.189  24.814  1.00  0.00     0.113 A 
ATOM      6  C   UNL A   1      32.163  26.842  23.620  1.00  0.00     0.153 A 
ATOM      7  C   UNL A   1      32.846  26.456  22.485  1.00  0.00     0.159 A 
ATOM      8  N   UNL A   1      33.708  25.421  22.430  1.00  0.00    -0.252 NA
ATOM      9  C   UNL A   1      33.406  25.084  24.805  1.00  0.00     0.018 A 
ATOM     10  C   UNL A   1      33.964  24.743  23.554  1.00  0.00     0.071 A 
ATOM     11  C   UNL A   1      33.768  24.291  25.928  1.00  0.00     0.011 A 
ATOM     12  C   UNL A   1      34.822  23.658  23.457  1.00  0.00     0.029 A 
ATOM     13  C   UNL A   1      34.639  23.207  25.807  1.00  0.00     0.001 A 
ATOM     14  C   UNL A   1      35.163  22.886  24.565  1.00  0.00     0.002 A 
BRANCH   6  15
ATOM     15  O   UNL A   1      31.353  27.937  23.634  1.00  0.00    -0.484 OA
BRANCH  15  16
ATOM     16  C   UNL A   1      30.185  28.013  22.796  1.00  0.00     0.192 C 
ATOM     17  C   UNL A   1      30.068  29.354  22.080  1.00  0.00     0.057 C 
BRANCH  16  18
ATOM     18  C   UNL A   1      28.903  27.605  23.479  1.00  0.00     0.009 C 
ATOM     19  C   UNL A   1      28.604  26.361  23.880  1.00  0.00     0.008 C 
ENDBRANCH  16  18
ENDBRANCH  15  16
ENDBRANCH   6  15
ENDBRANCH   3   5
ENDBRANCH   2   3
ENDBRANCH   1   2
BRANCH   1  20
ATOM     20  C   UNL A   1      31.768  29.998  26.294  1.00  0.00     0.275 C 
BRANCH  20  21
ATOM     21  O   UNL A   1      33.122  30.473  26.191  1.00  0.00    -0.458 OA
BRANCH  21  22
ATOM     22  C   UNL A   1      33.426  31.532  26.976  1.00  0.00     0.338 C 
ATOM     23  O   UNL A   1      32.729  32.493  27.244  1.00  0.00    -0.246 OA
BRANCH  22  24
ATOM     24  C   UNL A   1      34.693  31.248  27.665  1.00  0.00     0.060 A 
ATOM     25  C   UNL A   1      34.884  29.934  28.073  1.00  0.00     0.016 A 
ATOM     26  C   UNL A   1      35.624  32.230  28.001  1.00  0.00     0.016 A 
ATOM     27  C   UNL A   1      36.005  29.582  28.816  1.00  0.00     0.010 A 
ATOM     28  C   UNL A   1      36.767  31.871  28.738  1.00  0.00     0.010 A 
ATOM     29  C   UNL A   1      36.965  30.540  29.154  1.00  0.00    -0.014 A 
BRANCH  29  30
ATOM     30  C   UNL A   1      38.095  30.124  30.032  1.00  0.00     0.031 A 
ATOM     31  C   UNL A   1      39.191  29.257  29.475  1.00  0.00     0.074 A 
ATOM     32  C   UNL A   1      38.224  30.633  31.274  1.00  0.00     0.049 A 
ATOM     33  N   UNL A   1      40.243  28.760  30.076  1.00  0.00    -0.248 NA
ATOM     34  C   UNL A   1      39.097  28.918  28.047  1.00  0.00     0.031 C 
ATOM     35  C   UNL A   1      37.296  31.572  31.902  1.00  0.00     0.029 A 
ATOM     36  N   UNL A   1      39.212  30.465  32.218  1.00  0.00    -0.354 N 
ATOM     37  C   UNL A   1      40.918  28.025  29.109  1.00  0.00     0.074 A 
ATOM     38  C   UNL A   1      40.159  28.142  27.883  1.00  0.00     0.031 C 
ATOM     39  C   UNL A   1      37.777  31.930  33.105  1.00  0.00     0.029 A 
ATOM     40  C   UNL A   1      39.007  31.188  33.369  1.00  0.00     0.049 A 
ATOM     41  H   UNL A   1      39.993  29.881  32.080  1.00  0.00     0.167 HD
ATOM     42  C   UNL A   1      42.066  27.315  29.236  1.00  0.00     0.037 A 
ATOM     43  C   UNL A   1      39.714  31.221  34.519  1.00  0.00     0.037 A 
ATOM     44  C   UNL A   1      42.835  27.213  30.450  1.00  0.00     0.049 A 
ATOM     45  C   UNL A   1      40.937  30.347  34.656  1.00  0.00     0.074 A 
ATOM     46  C   UNL A   1      43.975  26.465  30.688  1.00  0.00     0.029 A 
ATOM     47  N   UNL A   1      42.554  27.893  31.623  1.00  0.00    -0.354 N 
ATOM     48  N   UNL A   1      41.526  29.592  33.760  1.00  0.00    -0.248 NA
ATOM     49  C   UNL A   1      41.583  30.315  35.977  1.00  0.00     0.031 C 
ATOM     50  C   UNL A   1      44.359  26.658  32.020  1.00  0.00     0.029 A 
ATOM     51  C   UNL A   1      43.491  27.571  32.594  1.00  0.00     0.049 A 
ATOM     52  H   UNL A   1      41.798  28.513  31.751  1.00  0.00     0.167 HD
ATOM     53  C   UNL A   1      42.614  29.012  34.404  1.00  0.00     0.074 A 
ATOM     54  C   UNL A   1      42.630  29.536  35.752  1.00  0.00     0.031 C 
ATOM     55  C   UNL A   1      43.509  28.112  33.928  1.00  0.00     0.037 A 
BRANCH  42  56
ATOM     56  C   UNL A   1      42.538  26.541  28.040  1.00  0.00     0.064 A 
ATOM     57  C   UNL A   1      42.104  25.233  27.784  1.00  0.00     0.173 A 
ATOM     58  C   UNL A   1      43.398  27.144  27.109  1.00  0.00     0.173 A 
ATOM     59  F   UNL A   1      41.295  24.607  28.652  1.00  0.00    -0.203 F 
ATOM     60  C   UNL A   1      42.527  24.551  26.645  1.00  0.00     0.198 A 
ATOM     61  C   UNL A   1      43.795  26.471  25.959  1.00  0.00     0.198 A 
ATOM     62  F   UNL A   1      43.837  28.397  27.307  1.00  0.00    -0.203 F 
ATOM     63  F   UNL A   1      42.131  23.288  26.437  1.00  0.00    -0.200 F 
ATOM     64  C   UNL A   1      43.364  25.173  25.729  1.00  0.00     0.200 A 
ATOM     65  F   UNL A   1      44.592  27.079  25.068  1.00  0.00    -0.200 F 
ATOM     66  F   UNL A   1      43.758  24.520  24.627  1.00  0.00    -0.200 F 
ENDBRANCH  42  56
BRANCH  43  67
ATOM     67  C   UNL A   1      39.264  32.052  35.674  1.00  0.00     0.064 A 
ATOM     68  C   UNL A   1      39.818  33.318  35.920  1.00  0.00     0.173 A 
ATOM     69  C   UNL A   1      38.344  31.557  36.611  1.00  0.00     0.173 A 
ATOM     70  F   UNL A   1      40.728  33.827  35.076  1.00  0.00    -0.203 F 
ATOM     71  C   UNL A   1      39.502  34.034  37.074  1.00  0.00     0.198 A 
ATOM     72  C   UNL A   1      37.995  32.294  37.741  1.00  0.00     0.198 A 
ATOM     73  F   UNL A   1      37.790  30.348  36.438  1.00  0.00    -0.203 F 
ATOM     74  F   UNL A   1      40.113  35.200  37.325  1.00  0.00    -0.200 F 
ATOM     75  C   UNL A   1      38.588  33.523  37.982  1.00  0.00     0.200 A 
ATOM     76  F   UNL A   1      37.101  31.799  38.610  1.00  0.00    -0.200 F 
ATOM     77  F   UNL A   1      38.294  34.204  39.098  1.00  0.00    -0.200 F 
ENDBRANCH  43  67
BRANCH  55  78
ATOM     78  C   UNL A   1      44.600  27.664  34.860  1.00  0.00     0.064 A 
ATOM     79  C   UNL A   1      45.811  28.365  34.972  1.00  0.00     0.173 A 
ATOM     80  C   UNL A   1      44.428  26.527  35.666  1.00  0.00     0.173 A 
ATOM     81  F   UNL A   1      46.033  29.452  34.216  1.00  0.00    -0.203 F 
ATOM     82  C   UNL A   1      46.821  27.924  35.823  1.00  0.00     0.198 A 
ATOM     83  C   UNL A   1      45.426  26.109  36.542  1.00  0.00     0.198 A 
ATOM     84  F   UNL A   1      43.287  25.823  35.608  1.00  0.00    -0.203 F 
ATOM     85  F   UNL A   1      47.992  28.575  35.864  1.00  0.00    -0.200 F 
ATOM     86  C   UNL A   1      46.625  26.801  36.612  1.00  0.00     0.200 A 
ATOM     87  F   UNL A   1      45.228  25.032  37.315  1.00  0.00    -0.200 F 
ATOM     88  F   UNL A   1      47.598  26.378  37.431  1.00  0.00    -0.200 F 
ENDBRANCH  55  78
ENDBRANCH  29  30
ENDBRANCH  22  24
ENDBRANCH  21  22
ENDBRANCH  20  21
ENDBRANCH   1  20
TORSDOF 14
ENDMDL
MODEL 3
REMARK VINA RESULT:     -11.5      1.203      7.660
REMARK SMILES C=C[C@@H](C)Oc1cnc2ccccc2c1C(=O)OCCOC(=O)c1ccc(-c2c3nc(c(-c4c(F)c(F)c(F)c(F)c4F)c4ccc([nH]4)c(-c4c(F)c(F)c(F)c(F)c4F)c4nc(c(-c5c(F)c(F)c(F)c(F)c5F)c5ccc2[nH]5)C=C4)C=C3)cc1
REMARK SMILES IDX 19 1 18 2 16 3 17 4 15 5 6 6 7 7 8 8 14 9 9 10 13 11 10 12
REMARK SMILES IDX 12 13 11 14 5 15 3 16 4 17 2 18 1 19 20 20 21 21 22 22 23 23
REMARK SMILES IDX 24 24 25 25 86 26 26 27 85 28 27 29 28 30 29 31 79 32 30 33
REMARK SMILES IDX 84 34 78 35 80 36 31 37 83 38 77 39 76 40 32 42 64 43 44 44
REMARK SMILES IDX 63 45 45 46 48 47 62 48 81 49 46 50 47 51 61 53 82 54 49 55
REMARK SMILES IDX 33 56 34 57 42 58 35 59 36 60 40 61 43 62 37 63 38 64 41 65
REMARK SMILES IDX 39 66 65 67 66 68 74 69 67 70 68 71 72 72 75 73 69 74 70 75
REMARK SMILES IDX 73 76 71 77 50 78 51 79 59 80 52 81 53 82 57 83 60 84 54 85
REMARK SMILES IDX 55 86 58 87 56 88
REMARK H PARENT 80 41 48 52
REMARK Flexibility Score: inf
ROOT
ATOM      1  C   UNL A   1      31.774  28.839  27.252  1.00  0.00     0.275 C 
ENDROOT
BRANCH   1   2
ATOM      2  O   UNL A   1      32.588  27.861  26.566  1.00  0.00    -0.458 OA
BRANCH   2   3
ATOM      3  C   UNL A   1      31.943  26.767  26.082  1.00  0.00     0.342 C 
ATOM      4  O   UNL A   1      30.970  26.225  26.583  1.00  0.00    -0.246 OA
BRANCH   3   5
ATOM      5  C   UNL A   1      32.581  26.295  24.826  1.00  0.00     0.113 A 
ATOM      6  C   UNL A   1      32.236  26.931  23.625  1.00  0.00     0.153 A 
ATOM      7  C   UNL A   1      32.914  26.527  22.493  1.00  0.00     0.159 A 
ATOM      8  N   UNL A   1      33.773  25.489  22.450  1.00  0.00    -0.252 NA
ATOM      9  C   UNL A   1      33.479  25.187  24.830  1.00  0.00     0.018 A 
ATOM     10  C   UNL A   1      34.031  24.827  23.583  1.00  0.00     0.071 A 
ATOM     11  C   UNL A   1      33.842  24.410  25.964  1.00  0.00     0.011 A 
ATOM     12  C   UNL A   1      34.886  23.739  23.498  1.00  0.00     0.029 A 
ATOM     13  C   UNL A   1      34.710  23.323  25.855  1.00  0.00     0.001 A 
ATOM     14  C   UNL A   1      35.229  22.981  24.616  1.00  0.00     0.002 A 
BRANCH   6  15
ATOM     15  O   UNL A   1      31.429  28.028  23.625  1.00  0.00    -0.484 OA
BRANCH  15  16
ATOM     16  C   UNL A   1      30.244  28.086  22.809  1.00  0.00     0.192 C 
ATOM     17  C   UNL A   1      30.077  29.436  22.119  1.00  0.00     0.057 C 
BRANCH  16  18
ATOM     18  C   UNL A   1      28.987  27.628  23.505  1.00  0.00     0.009 C 
ATOM     19  C   UNL A   1      28.724  26.367  23.875  1.00  0.00     0.008 C 
ENDBRANCH  16  18
ENDBRANCH  15  16
ENDBRANCH   6  15
ENDBRANCH   3   5
ENDBRANCH   2   3
ENDBRANCH   1   2
BRANCH   1  20
ATOM     20  C   UNL A   1      31.825  30.189  26.535  1.00  0.00     0.275 C 
BRANCH  20  21
ATOM     21  O   UNL A   1      33.196  30.609  26.410  1.00  0.00    -0.458 OA
BRANCH  21  22
ATOM     22  C   UNL A   1      33.569  31.621  27.227  1.00  0.00     0.338 C 
ATOM     23  O   UNL A   1      32.898  32.560  27.613  1.00  0.00    -0.246 OA
BRANCH  22  24
ATOM     24  C   UNL A   1      34.893  31.305  27.781  1.00  0.00     0.060 A 
ATOM     25  C   UNL A   1      35.085  29.990  28.185  1.00  0.00     0.016 A 
ATOM     26  C   UNL A   1      35.883  32.260  28.002  1.00  0.00     0.016 A 
ATOM     27  C   UNL A   1      36.268  29.610  28.810  1.00  0.00     0.010 A 
ATOM     28  C   UNL A   1      37.087  31.873  28.619  1.00  0.00     0.010 A 
ATOM     29  C   UNL A   1      37.288  30.541  29.031  1.00  0.00    -0.014 A 
BRANCH  29  30
ATOM     30  C   UNL A   1      38.492  30.098  29.789  1.00  0.00     0.031 A 
ATOM     31  C   UNL A   1      38.676  30.537  31.216  1.00  0.00     0.074 A 
ATOM     32  C   UNL A   1      39.341  29.193  29.263  1.00  0.00     0.049 A 
ATOM     33  N   UNL A   1      39.664  30.291  32.040  1.00  0.00    -0.248 NA
ATOM     34  C   UNL A   1      37.597  31.349  31.797  1.00  0.00     0.031 C 
ATOM     35  C   UNL A   1      39.221  28.596  27.933  1.00  0.00     0.029 A 
ATOM     36  N   UNL A   1      40.452  28.582  29.800  1.00  0.00    -0.354 N 
ATOM     37  C   UNL A   1      39.341  30.943  33.223  1.00  0.00     0.074 A 
ATOM     38  C   UNL A   1      38.065  31.594  33.012  1.00  0.00     0.031 C 
ATOM     39  C   UNL A   1      40.190  27.678  27.773  1.00  0.00     0.029 A 
ATOM     40  C   UNL A   1      41.047  27.674  28.956  1.00  0.00     0.049 A 
ATOM     41  H   UNL A   1      40.788  28.779  30.704  1.00  0.00     0.167 HD
ATOM     42  C   UNL A   1      40.047  30.995  34.379  1.00  0.00     0.037 A 
ATOM     43  C   UNL A   1      42.174  26.947  29.108  1.00  0.00     0.037 A 
ATOM     44  C   UNL A   1      41.306  30.332  34.599  1.00  0.00     0.049 A 
ATOM     45  C   UNL A   1      42.984  27.100  30.374  1.00  0.00     0.074 A 
ATOM     46  C   UNL A   1      42.123  30.381  35.716  1.00  0.00     0.029 A 
ATOM     47  N   UNL A   1      41.923  29.485  33.693  1.00  0.00    -0.354 N 
ATOM     48  N   UNL A   1      42.710  27.782  31.460  1.00  0.00    -0.248 NA
ATOM     49  C   UNL A   1      44.274  26.395  30.423  1.00  0.00     0.031 C 
ATOM     50  C   UNL A   1      43.256  29.598  35.468  1.00  0.00     0.029 A 
ATOM     51  C   UNL A   1      43.117  29.016  34.219  1.00  0.00     0.049 A 
ATOM     52  H   UNL A   1      41.567  29.251  32.804  1.00  0.00     0.167 HD
ATOM     53  C   UNL A   1      43.782  27.574  32.321  1.00  0.00     0.074 A 
ATOM     54  C   UNL A   1      44.689  26.669  31.651  1.00  0.00     0.031 C 
ATOM     55  C   UNL A   1      44.005  28.101  33.551  1.00  0.00     0.037 A 
BRANCH  42  56
ATOM     56  C   UNL A   1      39.499  31.845  35.488  1.00  0.00     0.064 A 
ATOM     57  C   UNL A   1      38.602  31.338  36.438  1.00  0.00     0.173 A 
ATOM     58  C   UNL A   1      39.924  33.176  35.628  1.00  0.00     0.173 A 
ATOM     59  F   UNL A   1      38.153  30.078  36.338  1.00  0.00    -0.203 F 
ATOM     60  C   UNL A   1      38.139  32.137  37.480  1.00  0.00     0.198 A 
ATOM     61  C   UNL A   1      39.482  33.962  36.687  1.00  0.00     0.198 A 
ATOM     62  F   UNL A   1      40.786  33.706  34.746  1.00  0.00    -0.203 F 
ATOM     63  F   UNL A   1      37.253  31.646  38.357  1.00  0.00    -0.200 F 
ATOM     64  C   UNL A   1      38.586  33.445  37.610  1.00  0.00     0.200 A 
ATOM     65  F   UNL A   1      39.927  35.220  36.817  1.00  0.00    -0.200 F 
ATOM     66  F   UNL A   1      38.150  34.208  38.622  1.00  0.00    -0.200 F 
ENDBRANCH  42  56
BRANCH  43  67
ATOM     67  C   UNL A   1      42.665  26.053  28.019  1.00  0.00     0.064 A 
ATOM     68  C   UNL A   1      43.571  26.515  27.050  1.00  0.00     0.173 A 
ATOM     69  C   UNL A   1      42.166  24.751  27.866  1.00  0.00     0.173 A 
ATOM     70  F   UNL A   1      44.055  27.763  27.127  1.00  0.00    -0.203 F 
ATOM     71  C   UNL A   1      43.922  25.727  25.954  1.00  0.00     0.198 A 
ATOM     72  C   UNL A   1      42.552  23.948  26.794  1.00  0.00     0.198 A 
ATOM     73  F   UNL A   1      41.288  24.257  28.752  1.00  0.00    -0.203 F 
ATOM     74  F   UNL A   1      44.718  26.227  25.000  1.00  0.00    -0.200 F 
ATOM     75  C   UNL A   1      43.415  24.443  25.829  1.00  0.00     0.200 A 
ATOM     76  F   UNL A   1      42.068  22.703  26.685  1.00  0.00    -0.200 F 
ATOM     77  F   UNL A   1      43.741  23.691  24.769  1.00  0.00    -0.200 F 
ENDBRANCH  43  67
BRANCH  55  78
ATOM     78  C   UNL A   1      45.261  27.683  34.263  1.00  0.00     0.064 A 
ATOM     79  C   UNL A   1      45.300  26.549  35.091  1.00  0.00     0.173 A 
ATOM     80  C   UNL A   1      46.448  28.416  34.105  1.00  0.00     0.173 A 
ATOM     81  F   UNL A   1      44.190  25.820  35.288  1.00  0.00    -0.203 F 
ATOM     82  C   UNL A   1      46.465  26.190  35.762  1.00  0.00     0.198 A 
ATOM     83  C   UNL A   1      47.621  28.032  34.749  1.00  0.00     0.198 A 
ATOM     84  F   UNL A   1      46.472  29.502  33.318  1.00  0.00    -0.203 F 
ATOM     85  F   UNL A   1      46.458  25.141  36.596  1.00  0.00    -0.200 F 
ATOM     86  C   UNL A   1      47.626  26.927  35.586  1.00  0.00     0.200 A 
ATOM     87  F   UNL A   1      48.746  28.737  34.564  1.00  0.00    -0.200 F 
ATOM     88  F   UNL A   1      48.747  26.578  36.232  1.00  0.00    -0.200 F 
ENDBRANCH  55  78
ENDBRANCH  29  30
ENDBRANCH  22  24
ENDBRANCH  21  22
ENDBRANCH  20  21
ENDBRANCH   1  20
TORSDOF 14
ENDMDL
