MODEL 1
REMARK VINA RESULT:     -12.9      0.000      0.000
REMARK SMILES O=C(N[C@@H](Cc1ccc(O)cc1)C(=O)N[C@@H](CO)C(=O)OCCOC(=O)c1ccc(-c2c3nc(c(-c4c(F)c(F)c(F)c(F)c4F)c4ccc([nH]4)c(-c4c(F)c(F)c(F)c(F)c4F)c4nc(c(-c5c(F)c(F)c(F)c(F)c5F)c5ccc2[nH]5)C=C4)C=C3)cc1)c1ccc(F)cc1
REMARK SMILES IDX 21 1 19 2 20 3 16 4 15 5 13 6 14 7 4 9 3 10 1 11 2 12 90 14
REMARK SMILES IDX 91 15 96 16 92 17 95 18 93 19 94 20 5 21 6 22 7 23 12 24
REMARK SMILES IDX 8 25 11 26 9 27 10 28 17 30 18 31 22 33 23 34 24 35 25 36
REMARK SMILES IDX 26 37 27 38 28 39 89 40 29 41 88 42 30 43 31 44 32 45 82 46
REMARK SMILES IDX 33 47 87 48 81 49 83 50 34 51 86 52 80 53 79 54 35 56 67 57
REMARK SMILES IDX 47 58 66 59 48 60 51 61 65 62 84 63 49 64 50 65 64 67 85 68
REMARK SMILES IDX 52 69 36 70 37 71 45 72 38 73 39 74 43 75 46 76 40 77 41 78
REMARK SMILES IDX 44 79 42 80 68 81 69 82 77 83 70 84 71 85 75 86 78 87 72 88
REMARK SMILES IDX 73 89 76 90 74 91 53 92 54 93 62 94 55 95 56 96 60 97 63 98
REMARK SMILES IDX 57 99 58 100 61 101 59 102
REMARK H PARENT 15 8 3 13 10 29 18 32 83 55 51 66
REMARK Flexibility Score: inf
ROOT
ATOM      1  O   UNL A   1      30.762  26.679  25.504  1.00  0.00    -0.460 OA
ENDROOT
BRANCH   1   2
ATOM      2  C   UNL A   1      30.346  25.468  26.015  1.00  0.00     0.331 C 
ATOM      3  O   UNL A   1      29.243  25.296  26.525  1.00  0.00    -0.250 OA
BRANCH   2   4
ATOM      4  C   UNL A   1      31.344  24.316  25.687  1.00  0.00     0.218 C 
BRANCH   4   5
ATOM      5  N   UNL A   1      31.680  23.501  26.860  1.00  0.00    -0.339 N 
ATOM      6  C   UNL A   1      32.718  22.687  27.169  1.00  0.00     0.243 C 
ATOM      7  O   UNL A   1      32.750  22.304  28.348  1.00  0.00    -0.273 OA
ATOM      8  H   UNL A   1      31.006  23.557  27.575  1.00  0.00     0.164 HD
BRANCH   6   9
ATOM      9  C   UNL A   1      33.821  22.184  26.197  1.00  0.00     0.176 C 
BRANCH   9  10
ATOM     10  N   UNL A   1      35.031  23.004  26.180  1.00  0.00    -0.340 N 
ATOM     11  O   UNL A   1      36.700  24.045  25.085  1.00  0.00    -0.269 OA
ATOM     12  C   UNL A   1      35.509  23.754  25.128  1.00  0.00     0.251 C 
ATOM     13  H   UNL A   1      35.562  23.022  27.009  1.00  0.00     0.164 HD
BRANCH  12  14
ATOM     14  C   UNL A   1      34.606  24.197  24.033  1.00  0.00     0.040 A 
ATOM     15  C   UNL A   1      34.109  25.508  23.992  1.00  0.00     0.017 A 
ATOM     16  C   UNL A   1      34.311  23.307  22.989  1.00  0.00     0.017 A 
ATOM     17  C   UNL A   1      33.280  25.909  22.941  1.00  0.00     0.040 A 
ATOM     18  C   UNL A   1      33.487  23.716  21.936  1.00  0.00     0.040 A 
ATOM     19  C   UNL A   1      32.975  25.010  21.924  1.00  0.00     0.123 A 
ATOM     20  F   UNL A   1      32.189  25.402  20.914  1.00  0.00    -0.207 F 
ENDBRANCH  12  14
ENDBRANCH   9  10
BRANCH   9  21
ATOM     21  C   UNL A   1      34.130  20.676  26.154  1.00  0.00     0.070 C 
BRANCH  21  22
ATOM     22  C   UNL A   1      33.604  19.900  24.975  1.00  0.00    -0.045 A 
ATOM     23  C   UNL A   1      33.916  18.561  24.728  1.00  0.00     0.007 A 
ATOM     24  C   UNL A   1      32.737  20.544  24.094  1.00  0.00     0.007 A 
ATOM     25  C   UNL A   1      33.328  17.887  23.648  1.00  0.00     0.046 A 
ATOM     26  C   UNL A   1      32.164  19.887  23.005  1.00  0.00     0.046 A 
ATOM     27  C   UNL A   1      32.442  18.550  22.807  1.00  0.00     0.115 A 
BRANCH  27  28
ATOM     28  O   UNL A   1      31.838  17.857  21.805  1.00  0.00    -0.508 OA
ATOM     29  H   UNL A   1      31.129  18.243  21.328  1.00  0.00     0.293 HD
ENDBRANCH  27  28
ENDBRANCH  21  22
ENDBRANCH   9  21
ENDBRANCH   6   9
ENDBRANCH   4   5
BRANCH   4  30
ATOM     30  C   UNL A   1      30.850  23.476  24.509  1.00  0.00     0.193 C 
BRANCH  30  31
ATOM     31  O   UNL A   1      30.034  24.235  23.626  1.00  0.00    -0.394 OA
ATOM     32  H   UNL A   1      29.417  23.645  23.168  1.00  0.00     0.210 HD
ENDBRANCH  30  31
ENDBRANCH   4  30
ENDBRANCH   2   4
ENDBRANCH   1   2
BRANCH   1  33
ATOM     33  C   UNL A   1      31.791  27.369  26.264  1.00  0.00     0.274 C 
BRANCH  33  34
ATOM     34  C   UNL A   1      31.761  28.895  26.020  1.00  0.00     0.275 C 
BRANCH  34  35
ATOM     35  O   UNL A   1      32.107  29.624  27.224  1.00  0.00    -0.458 OA
BRANCH  35  36
ATOM     36  C   UNL A   1      32.733  30.826  27.054  1.00  0.00     0.338 C 
ATOM     37  O   UNL A   1      32.175  31.882  26.790  1.00  0.00    -0.246 OA
BRANCH  36  38
ATOM     38  C   UNL A   1      34.189  30.726  27.402  1.00  0.00     0.060 A 
ATOM     39  C   UNL A   1      34.829  29.499  27.441  1.00  0.00     0.016 A 
ATOM     40  C   UNL A   1      34.917  31.835  27.830  1.00  0.00     0.016 A 
ATOM     41  C   UNL A   1      36.014  29.328  28.171  1.00  0.00     0.010 A 
ATOM     42  C   UNL A   1      36.210  31.677  28.387  1.00  0.00     0.010 A 
ATOM     43  C   UNL A   1      36.753  30.406  28.669  1.00  0.00    -0.014 A 
BRANCH  43  44
ATOM     44  C   UNL A   1      38.008  30.220  29.511  1.00  0.00     0.031 A 
ATOM     45  C   UNL A   1      39.191  29.433  28.962  1.00  0.00     0.074 A 
ATOM     46  C   UNL A   1      38.193  30.757  30.744  1.00  0.00     0.049 A 
ATOM     47  N   UNL A   1      40.162  28.823  29.601  1.00  0.00    -0.248 NA
ATOM     48  C   UNL A   1      39.278  29.299  27.500  1.00  0.00     0.031 C 
ATOM     49  C   UNL A   1      37.270  31.630  31.465  1.00  0.00     0.029 A 
ATOM     50  N   UNL A   1      39.264  30.651  31.616  1.00  0.00    -0.354 N 
ATOM     51  C   UNL A   1      40.877  28.118  28.636  1.00  0.00     0.074 A 
ATOM     52  C   UNL A   1      40.256  28.413  27.363  1.00  0.00     0.031 C 
ATOM     53  C   UNL A   1      37.841  32.055  32.601  1.00  0.00     0.029 A 
ATOM     54  C   UNL A   1      39.099  31.348  32.791  1.00  0.00     0.049 A 
ATOM     55  H   UNL A   1      40.071  30.124  31.413  1.00  0.00     0.167 HD
ATOM     56  C   UNL A   1      41.941  27.289  28.798  1.00  0.00     0.037 A 
ATOM     57  C   UNL A   1      39.808  31.368  33.940  1.00  0.00     0.037 A 
ATOM     58  C   UNL A   1      42.674  27.119  30.028  1.00  0.00     0.049 A 
ATOM     59  C   UNL A   1      40.996  30.464  34.109  1.00  0.00     0.074 A 
ATOM     60  C   UNL A   1      43.767  26.304  30.281  1.00  0.00     0.029 A 
ATOM     61  N   UNL A   1      42.431  27.822  31.196  1.00  0.00    -0.354 N 
ATOM     62  N   UNL A   1      41.533  29.633  33.250  1.00  0.00    -0.248 NA
ATOM     63  C   UNL A   1      41.649  30.468  35.427  1.00  0.00     0.031 C 
ATOM     64  C   UNL A   1      44.174  26.503  31.605  1.00  0.00     0.029 A 
ATOM     65  C   UNL A   1      43.361  27.472  32.164  1.00  0.00     0.049 A 
ATOM     66  H   UNL A   1      41.704  28.474  31.321  1.00  0.00     0.167 HD
ATOM     67  C   UNL A   1      42.582  29.019  33.923  1.00  0.00     0.074 A 
ATOM     68  C   UNL A   1      42.630  29.595  35.248  1.00  0.00     0.031 C 
ATOM     69  C   UNL A   1      43.418  28.048  33.481  1.00  0.00     0.037 A 
BRANCH  56  70
ATOM     70  C   UNL A   1      42.359  26.446  27.624  1.00  0.00     0.064 A 
ATOM     71  C   UNL A   1      43.390  26.816  26.751  1.00  0.00     0.173 A 
ATOM     72  C   UNL A   1      41.731  25.207  27.406  1.00  0.00     0.173 A 
ATOM     73  F   UNL A   1      44.016  27.992  26.906  1.00  0.00    -0.203 F 
ATOM     74  C   UNL A   1      43.757  25.994  25.686  1.00  0.00     0.198 A 
ATOM     75  C   UNL A   1      42.123  24.372  26.363  1.00  0.00     0.198 A 
ATOM     76  F   UNL A   1      40.746  24.795  28.220  1.00  0.00    -0.203 F 
ATOM     77  F   UNL A   1      44.709  26.391  24.831  1.00  0.00    -0.200 F 
ATOM     78  C   UNL A   1      43.129  24.770  25.498  1.00  0.00     0.200 A 
ATOM     79  F   UNL A   1      41.527  23.183  26.197  1.00  0.00    -0.200 F 
ATOM     80  F   UNL A   1      43.490  23.977  24.479  1.00  0.00    -0.200 F 
ENDBRANCH  56  70
BRANCH  57  81
ATOM     81  C   UNL A   1      39.352  32.212  35.083  1.00  0.00     0.064 A 
ATOM     82  C   UNL A   1      39.752  33.550  35.201  1.00  0.00     0.173 A 
ATOM     83  C   UNL A   1      38.526  31.691  36.091  1.00  0.00     0.173 A 
ATOM     84  F   UNL A   1      40.579  34.084  34.290  1.00  0.00    -0.203 F 
ATOM     85  C   UNL A   1      39.348  34.332  36.282  1.00  0.00     0.198 A 
ATOM     86  C   UNL A   1      38.088  32.484  37.149  1.00  0.00     0.198 A 
ATOM     87  F   UNL A   1      38.125  30.412  36.037  1.00  0.00    -0.203 F 
ATOM     88  F   UNL A   1      39.789  35.591  36.398  1.00  0.00    -0.200 F 
ATOM     89  C   UNL A   1      38.505  33.801  37.248  1.00  0.00     0.200 A 
ATOM     90  F   UNL A   1      37.262  31.970  38.070  1.00  0.00    -0.200 F 
ATOM     91  F   UNL A   1      38.105  34.556  38.280  1.00  0.00    -0.200 F 
ENDBRANCH  57  81
BRANCH  69  92
ATOM     92  C   UNL A   1      44.487  27.583  34.427  1.00  0.00     0.064 A 
ATOM     93  C   UNL A   1      45.732  28.223  34.504  1.00  0.00     0.173 A 
ATOM     94  C   UNL A   1      44.265  26.475  35.258  1.00  0.00     0.173 A 
ATOM     95  F   UNL A   1      46.000  29.275  33.717  1.00  0.00    -0.203 F 
ATOM     96  C   UNL A   1      46.730  27.747  35.351  1.00  0.00     0.198 A 
ATOM     97  C   UNL A   1      45.256  26.018  36.124  1.00  0.00     0.198 A 
ATOM     98  F   UNL A   1      43.089  25.829  35.226  1.00  0.00    -0.203 F 
ATOM     99  F   UNL A   1      47.934  28.337  35.364  1.00  0.00    -0.200 F 
ATOM    100  C   UNL A   1      46.491  26.647  36.162  1.00  0.00     0.200 A 
ATOM    101  F   UNL A   1      45.020  24.959  36.911  1.00  0.00    -0.200 F 
ATOM    102  F   UNL A   1      47.455  26.185  36.969  1.00  0.00    -0.200 F 
ENDBRANCH  69  92
ENDBRANCH  43  44
ENDBRANCH  36  38
ENDBRANCH  35  36
ENDBRANCH  34  35
ENDBRANCH  33  34
ENDBRANCH   1  33
TORSDOF 20
ENDMDL
MODEL 2
REMARK VINA RESULT:     -12.4      1.519      3.121
REMARK SMILES O=C(N[C@@H](Cc1ccc(O)cc1)C(=O)N[C@@H](CO)C(=O)OCCOC(=O)c1ccc(-c2c3nc(c(-c4c(F)c(F)c(F)c(F)c4F)c4ccc([nH]4)c(-c4c(F)c(F)c(F)c(F)c4F)c4nc(c(-c5c(F)c(F)c(F)c(F)c5F)c5ccc2[nH]5)C=C4)C=C3)cc1)c1ccc(F)cc1
REMARK SMILES IDX 21 1 19 2 20 3 16 4 15 5 13 6 14 7 4 9 3 10 1 11 2 12 90 14
REMARK SMILES IDX 91 15 96 16 92 17 95 18 93 19 94 20 5 21 6 22 7 23 12 24
REMARK SMILES IDX 8 25 11 26 9 27 10 28 17 30 18 31 22 33 23 34 24 35 25 36
REMARK SMILES IDX 26 37 27 38 28 39 89 40 29 41 88 42 30 43 31 44 32 45 82 46
REMARK SMILES IDX 33 47 87 48 81 49 83 50 34 51 86 52 80 53 79 54 35 56 67 57
REMARK SMILES IDX 47 58 66 59 48 60 51 61 65 62 84 63 49 64 50 65 64 67 85 68
REMARK SMILES IDX 52 69 36 70 37 71 45 72 38 73 39 74 43 75 46 76 40 77 41 78
REMARK SMILES IDX 44 79 42 80 68 81 69 82 77 83 70 84 71 85 75 86 78 87 72 88
REMARK SMILES IDX 73 89 76 90 74 91 53 92 54 93 62 94 55 95 56 96 60 97 63 98
REMARK SMILES IDX 57 99 58 100 61 101 59 102
REMARK H PARENT 15 8 3 13 10 29 18 32 83 55 51 66
REMARK Flexibility Score: inf
ROOT
ATOM      1  O   UNL A   1      32.377  27.836  25.099  1.00  0.00    -0.460 OA
ENDROOT
BRANCH   1   2
ATOM      2  C   UNL A   1      32.166  26.514  24.766  1.00  0.00     0.331 C 
ATOM      3  O   UNL A   1      32.485  25.579  25.494  1.00  0.00    -0.250 OA
BRANCH   2   4
ATOM      4  C   UNL A   1      31.306  26.361  23.475  1.00  0.00     0.218 C 
BRANCH   4   5
ATOM      5  N   UNL A   1      32.117  26.292  22.254  1.00  0.00    -0.339 N 
ATOM      6  C   UNL A   1      32.844  25.311  21.667  1.00  0.00     0.243 C 
ATOM      7  O   UNL A   1      33.251  25.574  20.525  1.00  0.00    -0.273 OA
ATOM      8  H   UNL A   1      32.138  27.141  21.756  1.00  0.00     0.164 HD
BRANCH   6   9
ATOM      9  C   UNL A   1      33.223  23.940  22.291  1.00  0.00     0.176 C 
BRANCH   9  10
ATOM     10  N   UNL A   1      32.258  22.872  22.035  1.00  0.00    -0.340 N 
ATOM     11  O   UNL A   1      31.600  20.724  22.183  1.00  0.00    -0.269 OA
ATOM     12  C   UNL A   1      32.133  21.686  22.727  1.00  0.00     0.251 C 
ATOM     13  H   UNL A   1      31.631  23.014  21.290  1.00  0.00     0.164 HD
BRANCH  12  14
ATOM     14  C   UNL A   1      32.653  21.551  24.112  1.00  0.00     0.040 A 
ATOM     15  C   UNL A   1      33.747  20.720  24.396  1.00  0.00     0.017 A 
ATOM     16  C   UNL A   1      32.084  22.326  25.134  1.00  0.00     0.017 A 
ATOM     17  C   UNL A   1      34.233  20.627  25.702  1.00  0.00     0.040 A 
ATOM     18  C   UNL A   1      32.580  22.235  26.438  1.00  0.00     0.040 A 
ATOM     19  C   UNL A   1      33.645  21.382  26.711  1.00  0.00     0.123 A 
ATOM     20  F   UNL A   1      34.122  21.297  27.959  1.00  0.00    -0.207 F 
ENDBRANCH  12  14
ENDBRANCH   9  10
BRANCH   9  21
ATOM     21  C   UNL A   1      34.681  23.458  22.174  1.00  0.00     0.070 C 
BRANCH  21  22
ATOM     22  C   UNL A   1      35.493  23.410  23.441  1.00  0.00    -0.045 A 
ATOM     23  C   UNL A   1      36.630  22.614  23.602  1.00  0.00     0.007 A 
ATOM     24  C   UNL A   1      35.107  24.223  24.505  1.00  0.00     0.007 A 
ATOM     25  C   UNL A   1      37.375  22.679  24.788  1.00  0.00     0.046 A 
ATOM     26  C   UNL A   1      35.829  24.278  25.697  1.00  0.00     0.046 A 
ATOM     27  C   UNL A   1      36.979  23.525  25.818  1.00  0.00     0.115 A 
BRANCH  27  28
ATOM     28  O   UNL A   1      37.753  23.616  26.933  1.00  0.00    -0.508 OA
ATOM     29  H   UNL A   1      37.381  23.913  27.740  1.00  0.00     0.293 HD
ENDBRANCH  27  28
ENDBRANCH  21  22
ENDBRANCH   9  21
ENDBRANCH   6   9
ENDBRANCH   4   5
BRANCH   4  30
ATOM     30  C   UNL A   1      30.328  25.193  23.599  1.00  0.00     0.193 C 
BRANCH  30  31
ATOM     31  O   UNL A   1      29.144  25.567  24.291  1.00  0.00    -0.394 OA
ATOM     32  H   UNL A   1      28.851  24.833  24.853  1.00  0.00     0.210 HD
ENDBRANCH  30  31
ENDBRANCH   4  30
ENDBRANCH   2   4
ENDBRANCH   1   2
BRANCH   1  33
ATOM     33  C   UNL A   1      31.396  28.781  24.594  1.00  0.00     0.274 C 
BRANCH  33  34
ATOM     34  C   UNL A   1      31.400  30.100  25.400  1.00  0.00     0.275 C 
BRANCH  34  35
ATOM     35  O   UNL A   1      32.226  29.987  26.586  1.00  0.00    -0.458 OA
BRANCH  35  36
ATOM     36  C   UNL A   1      32.790  31.140  27.052  1.00  0.00     0.338 C 
ATOM     37  O   UNL A   1      32.185  32.175  27.292  1.00  0.00    -0.246 OA
BRANCH  36  38
ATOM     38  C   UNL A   1      34.234  30.927  27.401  1.00  0.00     0.060 A 
ATOM     39  C   UNL A   1      34.741  29.652  27.589  1.00  0.00     0.016 A 
ATOM     40  C   UNL A   1      35.084  31.996  27.682  1.00  0.00     0.016 A 
ATOM     41  C   UNL A   1      35.915  29.447  28.326  1.00  0.00     0.010 A 
ATOM     42  C   UNL A   1      36.363  31.770  28.246  1.00  0.00     0.010 A 
ATOM     43  C   UNL A   1      36.774  30.492  28.680  1.00  0.00    -0.014 A 
BRANCH  43  44
ATOM     44  C   UNL A   1      38.019  30.278  29.531  1.00  0.00     0.031 A 
ATOM     45  C   UNL A   1      39.199  29.488  28.979  1.00  0.00     0.074 A 
ATOM     46  C   UNL A   1      38.198  30.791  30.774  1.00  0.00     0.049 A 
ATOM     47  N   UNL A   1      40.158  28.856  29.616  1.00  0.00    -0.248 NA
ATOM     48  C   UNL A   1      39.299  29.378  27.515  1.00  0.00     0.031 C 
ATOM     49  C   UNL A   1      37.277  31.661  31.503  1.00  0.00     0.029 A 
ATOM     50  N   UNL A   1      39.260  30.658  31.654  1.00  0.00    -0.354 N 
ATOM     51  C   UNL A   1      40.874  28.161  28.646  1.00  0.00     0.074 A 
ATOM     52  C   UNL A   1      40.268  28.485  27.372  1.00  0.00     0.031 C 
ATOM     53  C   UNL A   1      37.842  32.060  32.651  1.00  0.00     0.029 A 
ATOM     54  C   UNL A   1      39.091  31.336  32.841  1.00  0.00     0.049 A 
ATOM     55  H   UNL A   1      40.063  30.126  31.450  1.00  0.00     0.167 HD
ATOM     56  C   UNL A   1      41.928  27.318  28.802  1.00  0.00     0.037 A 
ATOM     57  C   UNL A   1      39.789  31.328  33.996  1.00  0.00     0.037 A 
ATOM     58  C   UNL A   1      42.647  27.118  30.036  1.00  0.00     0.049 A 
ATOM     59  C   UNL A   1      40.966  30.408  34.159  1.00  0.00     0.074 A 
ATOM     60  C   UNL A   1      43.729  26.287  30.285  1.00  0.00     0.029 A 
ATOM     61  N   UNL A   1      42.400  27.802  31.214  1.00  0.00    -0.354 N 
ATOM     62  N   UNL A   1      41.502  29.587  33.291  1.00  0.00    -0.248 NA
ATOM     63  C   UNL A   1      41.606  30.382  35.484  1.00  0.00     0.031 C 
ATOM     64  C   UNL A   1      44.125  26.458  31.615  1.00  0.00     0.029 A 
ATOM     65  C   UNL A   1      43.317  27.425  32.184  1.00  0.00     0.049 A 
ATOM     66  H   UNL A   1      41.679  28.461  31.344  1.00  0.00     0.167 HD
ATOM     67  C   UNL A   1      42.538  28.950  33.963  1.00  0.00     0.074 A 
ATOM     68  C   UNL A   1      42.579  29.502  35.299  1.00  0.00     0.031 C 
ATOM     69  C   UNL A   1      43.368  27.978  33.512  1.00  0.00     0.037 A 
BRANCH  56  70
ATOM     70  C   UNL A   1      42.348  26.491  27.617  1.00  0.00     0.064 A 
ATOM     71  C   UNL A   1      43.370  26.880  26.743  1.00  0.00     0.173 A 
ATOM     72  C   UNL A   1      41.731  25.248  27.389  1.00  0.00     0.173 A 
ATOM     73  F   UNL A   1      43.985  28.060  26.907  1.00  0.00    -0.203 F 
ATOM     74  C   UNL A   1      43.740  26.073  25.668  1.00  0.00     0.198 A 
ATOM     75  C   UNL A   1      42.125  24.429  26.335  1.00  0.00     0.198 A 
ATOM     76  F   UNL A   1      40.754  24.818  28.204  1.00  0.00    -0.203 F 
ATOM     77  F   UNL A   1      44.684  26.488  24.813  1.00  0.00    -0.200 F 
ATOM     78  C   UNL A   1      43.123  24.845  25.470  1.00  0.00     0.200 A 
ATOM     79  F   UNL A   1      41.540  23.235  26.161  1.00  0.00    -0.200 F 
ATOM     80  F   UNL A   1      43.486  24.066  24.441  1.00  0.00    -0.200 F 
ENDBRANCH  56  70
BRANCH  57  81
ATOM     81  C   UNL A   1      39.331  32.156  35.150  1.00  0.00     0.064 A 
ATOM     82  C   UNL A   1      38.521  31.612  36.155  1.00  0.00     0.173 A 
ATOM     83  C   UNL A   1      39.677  33.512  35.259  1.00  0.00     0.173 A 
ATOM     84  F   UNL A   1      38.123  30.333  36.076  1.00  0.00    -0.203 F 
ATOM     85  C   UNL A   1      38.071  32.391  37.221  1.00  0.00     0.198 A 
ATOM     86  C   UNL A   1      39.263  34.279  36.344  1.00  0.00     0.198 A 
ATOM     87  F   UNL A   1      40.438  34.088  34.317  1.00  0.00    -0.203 F 
ATOM     88  F   UNL A   1      37.254  31.860  38.139  1.00  0.00    -0.200 F 
ATOM     89  C   UNL A   1      38.454  33.721  37.321  1.00  0.00     0.200 A 
ATOM     90  F   UNL A   1      39.648  35.559  36.442  1.00  0.00    -0.200 F 
ATOM     91  F   UNL A   1      38.034  34.466  38.351  1.00  0.00    -0.200 F 
ENDBRANCH  57  81
BRANCH  69  92
ATOM     92  C   UNL A   1      44.422  27.484  34.459  1.00  0.00     0.064 A 
ATOM     93  C   UNL A   1      45.678  28.103  34.552  1.00  0.00     0.173 A 
ATOM     94  C   UNL A   1      44.178  26.371  35.276  1.00  0.00     0.173 A 
ATOM     95  F   UNL A   1      45.968  29.159  33.778  1.00  0.00    -0.203 F 
ATOM     96  C   UNL A   1      46.662  27.601  35.399  1.00  0.00     0.198 A 
ATOM     97  C   UNL A   1      45.155  25.888  36.143  1.00  0.00     0.198 A 
ATOM     98  F   UNL A   1      42.991  25.745  35.228  1.00  0.00    -0.203 F 
ATOM     99  F   UNL A   1      47.875  28.172  35.427  1.00  0.00    -0.200 F 
ATOM    100  C   UNL A   1      46.400  26.496  36.196  1.00  0.00     0.200 A 
ATOM    101  F   UNL A   1      44.897  24.824  36.916  1.00  0.00    -0.200 F 
ATOM    102  F   UNL A   1      47.351  26.009  37.004  1.00  0.00    -0.200 F 
ENDBRANCH  69  92
ENDBRANCH  43  44
ENDBRANCH  36  38
ENDBRANCH  35  36
ENDBRANCH  34  35
ENDBRANCH  33  34
ENDBRANCH   1  33
TORSDOF 20
ENDMDL
MODEL 3
REMARK VINA RESULT:     -12.3      1.330      2.118
REMARK SMILES O=C(N[C@@H](Cc1ccc(O)cc1)C(=O)N[C@@H](CO)C(=O)OCCOC(=O)c1ccc(-c2c3nc(c(-c4c(F)c(F)c(F)c(F)c4F)c4ccc([nH]4)c(-c4c(F)c(F)c(F)c(F)c4F)c4nc(c(-c5c(F)c(F)c(F)c(F)c5F)c5ccc2[nH]5)C=C4)C=C3)cc1)c1ccc(F)cc1
REMARK SMILES IDX 21 1 19 2 20 3 16 4 15 5 13 6 14 7 4 9 3 10 1 11 2 12 90 14
REMARK SMILES IDX 91 15 96 16 92 17 95 18 93 19 94 20 5 21 6 22 7 23 12 24
REMARK SMILES IDX 8 25 11 26 9 27 10 28 17 30 18 31 22 33 23 34 24 35 25 36
REMARK SMILES IDX 26 37 27 38 28 39 89 40 29 41 88 42 30 43 31 44 32 45 82 46
REMARK SMILES IDX 33 47 87 48 81 49 83 50 34 51 86 52 80 53 79 54 35 56 67 57
REMARK SMILES IDX 47 58 66 59 48 60 51 61 65 62 84 63 49 64 50 65 64 67 85 68
REMARK SMILES IDX 52 69 36 70 37 71 45 72 38 73 39 74 43 75 46 76 40 77 41 78
REMARK SMILES IDX 44 79 42 80 68 81 69 82 77 83 70 84 71 85 75 86 78 87 72 88
REMARK SMILES IDX 73 89 76 90 74 91 53 92 54 93 62 94 55 95 56 96 60 97 63 98
REMARK SMILES IDX 57 99 58 100 61 101 59 102
REMARK H PARENT 15 8 3 13 10 29 18 32 83 55 51 66
REMARK Flexibility Score: inf
ROOT
ATOM      1  O   UNL A   1      31.242  27.364  25.364  1.00  0.00    -0.460 OA
ENDROOT
BRANCH   1   2
ATOM      2  C   UNL A   1      32.184  26.437  24.970  1.00  0.00     0.331 C 
ATOM      3  O   UNL A   1      33.115  26.079  25.685  1.00  0.00    -0.250 OA
BRANCH   2   4
ATOM      4  C   UNL A   1      31.815  25.760  23.615  1.00  0.00     0.218 C 
BRANCH   4   5
ATOM      5  N   UNL A   1      32.967  25.133  22.958  1.00  0.00    -0.339 N 
ATOM      6  C   UNL A   1      33.504  23.890  22.994  1.00  0.00     0.243 C 
ATOM      7  O   UNL A   1      34.385  23.675  22.148  1.00  0.00    -0.273 OA
ATOM      8  H   UNL A   1      33.455  25.748  22.363  1.00  0.00     0.164 HD
BRANCH   6   9
ATOM      9  C   UNL A   1      33.143  22.754  23.992  1.00  0.00     0.176 C 
BRANCH   9  10
ATOM     10  N   UNL A   1      33.040  23.185  25.385  1.00  0.00    -0.340 N 
ATOM     11  O   UNL A   1      33.587  22.991  27.561  1.00  0.00    -0.269 OA
ATOM     12  C   UNL A   1      33.956  22.962  26.391  1.00  0.00     0.251 C 
ATOM     13  H   UNL A   1      32.230  23.687  25.632  1.00  0.00     0.164 HD
BRANCH  12  14
ATOM     14  C   UNL A   1      35.378  22.665  26.077  1.00  0.00     0.040 A 
ATOM     15  C   UNL A   1      36.357  23.667  26.144  1.00  0.00     0.017 A 
ATOM     16  C   UNL A   1      35.751  21.345  25.783  1.00  0.00     0.017 A 
ATOM     17  C   UNL A   1      37.691  23.360  25.867  1.00  0.00     0.040 A 
ATOM     18  C   UNL A   1      37.090  21.041  25.515  1.00  0.00     0.040 A 
ATOM     19  C   UNL A   1      38.045  22.051  25.553  1.00  0.00     0.123 A 
ATOM     20  F   UNL A   1      39.327  21.760  25.299  1.00  0.00    -0.207 F 
ENDBRANCH  12  14
ENDBRANCH   9  10
BRANCH   9  21
ATOM     21  C   UNL A   1      32.038  21.756  23.600  1.00  0.00     0.070 C 
BRANCH  21  22
ATOM     22  C   UNL A   1      32.328  20.293  23.810  1.00  0.00    -0.045 A 
ATOM     23  C   UNL A   1      32.633  19.735  25.054  1.00  0.00     0.007 A 
ATOM     24  C   UNL A   1      32.263  19.442  22.709  1.00  0.00     0.007 A 
ATOM     25  C   UNL A   1      32.819  18.351  25.180  1.00  0.00     0.046 A 
ATOM     26  C   UNL A   1      32.467  18.067  22.820  1.00  0.00     0.046 A 
ATOM     27  C   UNL A   1      32.715  17.526  24.065  1.00  0.00     0.115 A 
BRANCH  27  28
ATOM     28  O   UNL A   1      32.838  16.181  24.225  1.00  0.00    -0.508 OA
ATOM     29  H   UNL A   1      33.652  15.758  24.034  1.00  0.00     0.293 HD
ENDBRANCH  27  28
ENDBRANCH  21  22
ENDBRANCH   9  21
ENDBRANCH   6   9
ENDBRANCH   4   5
BRANCH   4  30
ATOM     30  C   UNL A   1      30.637  24.800  23.781  1.00  0.00     0.193 C 
BRANCH  30  31
ATOM     31  O   UNL A   1      30.320  24.587  25.150  1.00  0.00    -0.394 OA
ATOM     32  H   UNL A   1      29.526  25.093  25.381  1.00  0.00     0.210 HD
ENDBRANCH  30  31
ENDBRANCH   4  30
ENDBRANCH   2   4
ENDBRANCH   1   2
BRANCH   1  33
ATOM     33  C   UNL A   1      31.054  28.496  24.472  1.00  0.00     0.274 C 
BRANCH  33  34
ATOM     34  C   UNL A   1      31.369  29.838  25.171  1.00  0.00     0.275 C 
BRANCH  34  35
ATOM     35  O   UNL A   1      32.332  29.658  26.240  1.00  0.00    -0.458 OA
BRANCH  35  36
ATOM     36  C   UNL A   1      32.774  30.791  26.862  1.00  0.00     0.338 C 
ATOM     37  O   UNL A   1      32.069  31.730  27.204  1.00  0.00    -0.246 OA
BRANCH  36  38
ATOM     38  C   UNL A   1      34.222  30.667  27.235  1.00  0.00     0.060 A 
ATOM     39  C   UNL A   1      34.827  29.426  27.338  1.00  0.00     0.016 A 
ATOM     40  C   UNL A   1      34.975  31.775  27.623  1.00  0.00     0.016 A 
ATOM     41  C   UNL A   1      35.997  29.257  28.091  1.00  0.00     0.010 A 
ATOM     42  C   UNL A   1      36.256  31.607  28.204  1.00  0.00     0.010 A 
ATOM     43  C   UNL A   1      36.760  30.335  28.549  1.00  0.00    -0.014 A 
BRANCH  43  44
ATOM     44  C   UNL A   1      37.999  30.154  29.417  1.00  0.00     0.031 A 
ATOM     45  C   UNL A   1      39.204  29.390  28.883  1.00  0.00     0.074 A 
ATOM     46  C   UNL A   1      38.150  30.676  30.660  1.00  0.00     0.049 A 
ATOM     47  N   UNL A   1      40.169  28.783  29.535  1.00  0.00    -0.248 NA
ATOM     48  C   UNL A   1      39.324  29.276  27.421  1.00  0.00     0.031 C 
ATOM     49  C   UNL A   1      37.200  31.527  31.373  1.00  0.00     0.029 A 
ATOM     50  N   UNL A   1      39.204  30.571  31.554  1.00  0.00    -0.354 N 
ATOM     51  C   UNL A   1      40.914  28.100  28.576  1.00  0.00     0.074 A 
ATOM     52  C   UNL A   1      40.316  28.405  27.294  1.00  0.00     0.031 C 
ATOM     53  C   UNL A   1      37.741  31.944  32.527  1.00  0.00     0.029 A 
ATOM     54  C   UNL A   1      39.004  31.250  32.735  1.00  0.00     0.049 A 
ATOM     55  H   UNL A   1      40.021  30.057  31.362  1.00  0.00     0.167 HD
ATOM     56  C   UNL A   1      41.984  27.283  28.750  1.00  0.00     0.037 A 
ATOM     57  C   UNL A   1      39.687  31.263  33.899  1.00  0.00     0.037 A 
ATOM     58  C   UNL A   1      42.692  27.106  29.993  1.00  0.00     0.049 A 
ATOM     59  C   UNL A   1      40.883  30.372  34.081  1.00  0.00     0.074 A 
ATOM     60  C   UNL A   1      43.791  26.301  30.259  1.00  0.00     0.029 A 
ATOM     61  N   UNL A   1      42.415  27.789  31.165  1.00  0.00    -0.354 N 
ATOM     62  N   UNL A   1      41.449  29.560  33.223  1.00  0.00    -0.248 NA
ATOM     63  C   UNL A   1      41.507  30.366  35.413  1.00  0.00     0.031 C 
ATOM     64  C   UNL A   1      44.166  26.487  31.594  1.00  0.00     0.029 A 
ATOM     65  C   UNL A   1      43.328  27.437  32.149  1.00  0.00     0.049 A 
ATOM     66  H   UNL A   1      41.677  28.430  31.283  1.00  0.00     0.167 HD
ATOM     67  C   UNL A   1      42.491  28.950  33.910  1.00  0.00     0.074 A 
ATOM     68  C   UNL A   1      42.503  29.508  35.244  1.00  0.00     0.031 C 
ATOM     69  C   UNL A   1      43.350  27.996  33.474  1.00  0.00     0.037 A 
BRANCH  56  70
ATOM     70  C   UNL A   1      42.439  26.462  27.574  1.00  0.00     0.064 A 
ATOM     71  C   UNL A   1      43.465  26.870  26.712  1.00  0.00     0.173 A 
ATOM     72  C   UNL A   1      41.851  25.206  27.341  1.00  0.00     0.173 A 
ATOM     73  F   UNL A   1      44.052  28.063  26.881  1.00  0.00    -0.203 F 
ATOM     74  C   UNL A   1      43.867  26.067  25.645  1.00  0.00     0.198 A 
ATOM     75  C   UNL A   1      42.278  24.391  26.296  1.00  0.00     0.198 A 
ATOM     76  F   UNL A   1      40.873  24.757  28.144  1.00  0.00    -0.203 F 
ATOM     77  F   UNL A   1      44.813  26.499  24.802  1.00  0.00    -0.200 F 
ATOM     78  C   UNL A   1      43.278  24.826  25.443  1.00  0.00     0.200 A 
ATOM     79  F   UNL A   1      41.721  23.185  26.118  1.00  0.00    -0.200 F 
ATOM     80  F   UNL A   1      43.673  24.052  24.423  1.00  0.00    -0.200 F 
ENDBRANCH  56  70
BRANCH  57  81
ATOM     81  C   UNL A   1      39.196  32.085  35.043  1.00  0.00     0.064 A 
ATOM     82  C   UNL A   1      39.466  33.458  35.117  1.00  0.00     0.173 A 
ATOM     83  C   UNL A   1      38.466  31.510  36.095  1.00  0.00     0.173 A 
ATOM     84  F   UNL A   1      40.199  34.049  34.162  1.00  0.00    -0.203 F 
ATOM     85  C   UNL A   1      39.030  34.222  36.199  1.00  0.00     0.198 A 
ATOM     86  C   UNL A   1      37.994  32.281  37.154  1.00  0.00     0.198 A 
ATOM     87  F   UNL A   1      38.192  30.197  36.083  1.00  0.00    -0.203 F 
ATOM     88  F   UNL A   1      39.348  35.521  36.271  1.00  0.00    -0.200 F 
ATOM     89  C   UNL A   1      38.282  33.635  37.210  1.00  0.00     0.200 A 
ATOM     90  F   UNL A   1      37.260  31.711  38.119  1.00  0.00    -0.200 F 
ATOM     91  F   UNL A   1      37.851  34.372  38.242  1.00  0.00    -0.200 F 
ENDBRANCH  57  81
BRANCH  69  92
ATOM     92  C   UNL A   1      44.403  27.531  34.437  1.00  0.00     0.064 A 
ATOM     93  C   UNL A   1      45.642  28.180  34.544  1.00  0.00     0.173 A 
ATOM     94  C   UNL A   1      44.175  26.414  35.254  1.00  0.00     0.173 A 
ATOM     95  F   UNL A   1      45.916  29.242  33.770  1.00  0.00    -0.203 F 
ATOM     96  C   UNL A   1      46.627  27.706  35.405  1.00  0.00     0.198 A 
ATOM     97  C   UNL A   1      45.152  25.958  36.135  1.00  0.00     0.198 A 
ATOM     98  F   UNL A   1      43.005  25.759  35.193  1.00  0.00    -0.203 F 
ATOM     99  F   UNL A   1      47.825  28.306  35.447  1.00  0.00    -0.200 F 
ATOM    100  C   UNL A   1      46.381  26.597  36.202  1.00  0.00     0.200 A 
ATOM    101  F   UNL A   1      44.910  24.891  36.908  1.00  0.00    -0.200 F 
ATOM    102  F   UNL A   1      47.333  26.136  37.024  1.00  0.00    -0.200 F 
ENDBRANCH  69  92
ENDBRANCH  43  44
ENDBRANCH  36  38
ENDBRANCH  35  36
ENDBRANCH  34  35
ENDBRANCH  33  34
ENDBRANCH   1  33
TORSDOF 20
ENDMDL
