MODEL 1
REMARK VINA RESULT:     -11.7      0.000      0.000
REMARK SMILES O=C(COc1ccc(/C=C/C(=O)c2ccc(F)cc2F)cc1[N+](=O)[O-])OCCOC(=O)c1ccc(-c2c3nc(c(-c4c(F)c(F)c(F)c(F)c4F)c4ccc([nH]4)c(-c4c(F)c(F)c(F)c(F)c4F)c4nc(c(-c5c(F)c(F)c(F)c(F)c5F)c5ccc2[nH]5)C=C4)C=C3)cc1
REMARK SMILES IDX 26 1 2 2 1 3 3 4 4 5 5 6 6 7 22 8 7 9 21 10 8 11 23 12 24 13
REMARK SMILES IDX 25 14 9 15 10 16 11 17 12 18 13 19 14 20 19 21 15 22 18 23
REMARK SMILES IDX 20 24 16 25 17 26 27 27 28 28 29 29 30 30 31 31 32 32 33 33
REMARK SMILES IDX 94 34 34 35 93 36 35 37 36 38 37 39 87 40 38 41 92 42 86 43
REMARK SMILES IDX 88 44 39 45 91 46 85 47 84 48 40 50 72 51 52 52 71 53 53 54
REMARK SMILES IDX 56 55 70 56 89 57 54 58 55 59 69 61 90 62 57 63 41 64 42 65
REMARK SMILES IDX 50 66 43 67 44 68 48 69 51 70 45 71 46 72 49 73 47 74 73 75
REMARK SMILES IDX 74 76 82 77 75 78 76 79 80 80 83 81 77 82 78 83 81 84 79 85
REMARK SMILES IDX 58 86 59 87 67 88 60 89 61 90 65 91 68 92 62 93 63 94 66 95
REMARK SMILES IDX 64 96
REMARK H PARENT 88 49 56 60
REMARK Flexibility Score: inf
ROOT
ATOM      1  O   UNL A   1      33.725  34.162  29.277  1.00  0.00    -0.460 OA
ENDROOT
BRANCH   1   2
ATOM      2  C   UNL A   1      34.867  33.440  29.211  1.00  0.00     0.344 C 
ATOM      3  O   UNL A   1      35.940  33.922  29.563  1.00  0.00    -0.248 OA
BRANCH   2   4
ATOM      4  C   UNL A   1      34.771  31.997  28.731  1.00  0.00     0.352 C 
BRANCH   4   5
ATOM      5  O   UNL A   1      34.202  31.883  27.433  1.00  0.00    -0.475 OA
BRANCH   5   6
ATOM      6  C   UNL A   1      33.501  30.731  27.224  1.00  0.00     0.197 A 
ATOM      7  C   UNL A   1      34.203  29.541  27.436  1.00  0.00     0.054 A 
ATOM      8  C   UNL A   1      32.206  30.648  26.714  1.00  0.00     0.311 A 
ATOM      9  C   UNL A   1      33.621  28.302  27.124  1.00  0.00     0.012 A 
ATOM     10  C   UNL A   1      31.616  29.423  26.400  1.00  0.00     0.098 A 
ATOM     11  C   UNL A   1      32.335  28.237  26.574  1.00  0.00    -0.018 A 
BRANCH   8  12
ATOM     12  N   UNL A   1      31.409  31.819  26.447  1.00  0.00     0.066 N 
ATOM     13  O   UNL A   1      31.556  32.787  27.200  1.00  0.00    -0.258 OA
ATOM     14  O   UNL A   1      30.679  31.762  25.449  1.00  0.00    -0.258 OA
ENDBRANCH   8  12
BRANCH  11  15
ATOM     15  C   UNL A   1      31.686  27.008  26.116  1.00  0.00     0.012 C 
ATOM     16  C   UNL A   1      32.302  25.989  25.498  1.00  0.00     0.053 C 
BRANCH  16  17
ATOM     17  C   UNL A   1      31.509  24.895  24.879  1.00  0.00     0.188 C 
ATOM     18  O   UNL A   1      30.368  25.103  24.484  1.00  0.00    -0.289 OA
BRANCH  17  19
ATOM     19  C   UNL A   1      32.123  23.553  24.735  1.00  0.00     0.058 A 
ATOM     20  C   UNL A   1      33.311  23.428  24.004  1.00  0.00     0.018 A 
ATOM     21  C   UNL A   1      31.549  22.419  25.322  1.00  0.00     0.137 A 
ATOM     22  C   UNL A   1      33.932  22.180  23.907  1.00  0.00     0.040 A 
ATOM     23  C   UNL A   1      32.166  21.177  25.226  1.00  0.00     0.079 A 
ATOM     24  F   UNL A   1      30.391  22.501  25.992  1.00  0.00    -0.206 F 
ATOM     25  C   UNL A   1      33.359  21.071  24.523  1.00  0.00     0.126 A 
ATOM     26  F   UNL A   1      33.966  19.882  24.437  1.00  0.00    -0.207 F 
ENDBRANCH  17  19
ENDBRANCH  16  17
ENDBRANCH  11  15
ENDBRANCH   5   6
ENDBRANCH   4   5
ENDBRANCH   2   4
ENDBRANCH   1   2
BRANCH   1  27
ATOM     27  C   UNL A   1      33.688  35.535  28.841  1.00  0.00     0.274 C 
BRANCH  27  28
ATOM     28  C   UNL A   1      32.878  36.381  29.827  1.00  0.00     0.275 C 
BRANCH  28  29
ATOM     29  O   UNL A   1      32.411  35.538  30.900  1.00  0.00    -0.458 OA
BRANCH  29  30
ATOM     30  C   UNL A   1      32.741  35.904  32.165  1.00  0.00     0.338 C 
ATOM     31  O   UNL A   1      32.133  36.653  32.904  1.00  0.00    -0.246 OA
BRANCH  30  32
ATOM     32  C   UNL A   1      33.901  35.080  32.570  1.00  0.00     0.060 A 
ATOM     33  C   UNL A   1      35.187  35.634  32.519  1.00  0.00     0.016 A 
ATOM     34  C   UNL A   1      33.712  33.781  33.044  1.00  0.00     0.016 A 
ATOM     35  C   UNL A   1      36.288  34.891  32.962  1.00  0.00     0.010 A 
ATOM     36  C   UNL A   1      34.814  33.031  33.461  1.00  0.00     0.010 A 
ATOM     37  C   UNL A   1      36.109  33.578  33.418  1.00  0.00    -0.014 A 
BRANCH  37  38
ATOM     38  C   UNL A   1      37.263  32.708  33.752  1.00  0.00     0.031 A 
ATOM     39  C   UNL A   1      38.046  32.991  35.002  1.00  0.00     0.074 A 
ATOM     40  C   UNL A   1      37.664  31.734  32.915  1.00  0.00     0.049 A 
ATOM     41  N   UNL A   1      39.182  32.480  35.403  1.00  0.00    -0.248 NA
ATOM     42  C   UNL A   1      37.475  33.991  35.918  1.00  0.00     0.031 C 
ATOM     43  C   UNL A   1      36.979  31.338  31.686  1.00  0.00     0.029 A 
ATOM     44  N   UNL A   1      38.773  30.923  32.957  1.00  0.00    -0.354 N 
ATOM     45  C   UNL A   1      39.467  33.103  36.610  1.00  0.00     0.074 A 
ATOM     46  C   UNL A   1      38.394  34.036  36.873  1.00  0.00     0.031 C 
ATOM     47  C   UNL A   1      37.703  30.386  31.070  1.00  0.00     0.029 A 
ATOM     48  C   UNL A   1      38.921  30.136  31.841  1.00  0.00     0.049 A 
ATOM     49  H   UNL A   1      39.401  30.908  33.716  1.00  0.00     0.167 HD
ATOM     50  C   UNL A   1      40.533  32.913  37.424  1.00  0.00     0.037 A 
ATOM     51  C   UNL A   1      39.944  29.339  31.465  1.00  0.00     0.037 A 
ATOM     52  C   UNL A   1      41.599  31.983  37.170  1.00  0.00     0.049 A 
ATOM     53  C   UNL A   1      41.159  29.213  32.352  1.00  0.00     0.074 A 
ATOM     54  C   UNL A   1      42.685  31.680  37.973  1.00  0.00     0.029 A 
ATOM     55  N   UNL A   1      41.723  31.217  36.023  1.00  0.00    -0.354 N 
ATOM     56  N   UNL A   1      41.394  29.761  33.520  1.00  0.00    -0.248 NA
ATOM     57  C   UNL A   1      42.257  28.365  31.861  1.00  0.00     0.031 C 
ATOM     58  C   UNL A   1      43.498  30.775  37.285  1.00  0.00     0.029 A 
ATOM     59  C   UNL A   1      42.893  30.477  36.075  1.00  0.00     0.049 A 
ATOM     60  H   UNL A   1      41.076  31.202  35.280  1.00  0.00     0.167 HD
ATOM     61  C   UNL A   1      42.649  29.306  33.909  1.00  0.00     0.074 A 
ATOM     62  C   UNL A   1      43.121  28.425  32.865  1.00  0.00     0.031 C 
ATOM     63  C   UNL A   1      43.350  29.598  35.032  1.00  0.00     0.037 A 
BRANCH  50  64
ATOM     64  C   UNL A   1      40.622  33.747  38.663  1.00  0.00     0.064 A 
ATOM     65  C   UNL A   1      39.978  33.370  39.851  1.00  0.00     0.173 A 
ATOM     66  C   UNL A   1      41.430  34.894  38.684  1.00  0.00     0.173 A 
ATOM     67  F   UNL A   1      39.188  32.287  39.875  1.00  0.00    -0.203 F 
ATOM     68  C   UNL A   1      40.136  34.117  41.015  1.00  0.00     0.198 A 
ATOM     69  C   UNL A   1      41.603  35.625  39.855  1.00  0.00     0.198 A 
ATOM     70  F   UNL A   1      42.067  35.291  37.572  1.00  0.00    -0.203 F 
ATOM     71  F   UNL A   1      39.498  33.752  42.135  1.00  0.00    -0.200 F 
ATOM     72  C   UNL A   1      40.956  35.236  41.018  1.00  0.00     0.200 A 
ATOM     73  F   UNL A   1      42.403  36.700  39.860  1.00  0.00    -0.200 F 
ATOM     74  F   UNL A   1      41.121  35.943  42.145  1.00  0.00    -0.200 F 
ENDBRANCH  50  64
BRANCH  51  75
ATOM     75  C   UNL A   1      39.906  28.633  30.157  1.00  0.00     0.064 A 
ATOM     76  C   UNL A   1      39.367  27.344  30.044  1.00  0.00     0.173 A 
ATOM     77  C   UNL A   1      40.475  29.203  29.008  1.00  0.00     0.173 A 
ATOM     78  F   UNL A   1      38.840  26.743  31.122  1.00  0.00    -0.203 F 
ATOM     79  C   UNL A   1      39.428  26.639  28.843  1.00  0.00     0.198 A 
ATOM     80  C   UNL A   1      40.508  28.511  27.801  1.00  0.00     0.198 A 
ATOM     81  F   UNL A   1      41.011  30.432  29.062  1.00  0.00    -0.203 F 
ATOM     82  F   UNL A   1      38.966  25.383  28.783  1.00  0.00    -0.200 F 
ATOM     83  C   UNL A   1      39.997  27.225  27.722  1.00  0.00     0.200 A 
ATOM     84  F   UNL A   1      41.051  29.083  26.717  1.00  0.00    -0.200 F 
ATOM     85  F   UNL A   1      40.066  26.544  26.570  1.00  0.00    -0.200 F 
ENDBRANCH  51  75
BRANCH  63  86
ATOM     86  C   UNL A   1      44.692  28.947  35.207  1.00  0.00     0.064 A 
ATOM     87  C   UNL A   1      45.873  29.578  34.787  1.00  0.00     0.173 A 
ATOM     88  C   UNL A   1      44.806  27.707  35.856  1.00  0.00     0.173 A 
ATOM     89  F   UNL A   1      45.816  30.756  34.148  1.00  0.00    -0.203 F 
ATOM     90  C   UNL A   1      47.115  28.986  34.998  1.00  0.00     0.198 A 
ATOM     91  C   UNL A   1      46.052  27.132  36.091  1.00  0.00     0.198 A 
ATOM     92  F   UNL A   1      43.708  27.066  36.284  1.00  0.00    -0.203 F 
ATOM     93  F   UNL A   1      48.226  29.591  34.557  1.00  0.00    -0.200 F 
ATOM     94  C   UNL A   1      47.205  27.769  35.658  1.00  0.00     0.200 A 
ATOM     95  F   UNL A   1      46.136  25.964  36.741  1.00  0.00    -0.200 F 
ATOM     96  F   UNL A   1      48.403  27.208  35.872  1.00  0.00    -0.200 F 
ENDBRANCH  63  86
ENDBRANCH  37  38
ENDBRANCH  30  32
ENDBRANCH  29  30
ENDBRANCH  28  29
ENDBRANCH  27  28
ENDBRANCH   1  27
TORSDOF 17
ENDMDL
MODEL 2
REMARK VINA RESULT:     -11.6      4.698      9.594
REMARK SMILES O=C(COc1ccc(/C=C/C(=O)c2ccc(F)cc2F)cc1[N+](=O)[O-])OCCOC(=O)c1ccc(-c2c3nc(c(-c4c(F)c(F)c(F)c(F)c4F)c4ccc([nH]4)c(-c4c(F)c(F)c(F)c(F)c4F)c4nc(c(-c5c(F)c(F)c(F)c(F)c5F)c5ccc2[nH]5)C=C4)C=C3)cc1
REMARK SMILES IDX 26 1 2 2 1 3 3 4 4 5 5 6 6 7 22 8 7 9 21 10 8 11 23 12 24 13
REMARK SMILES IDX 25 14 9 15 10 16 11 17 12 18 13 19 14 20 19 21 15 22 18 23
REMARK SMILES IDX 20 24 16 25 17 26 27 27 28 28 29 29 30 30 31 31 32 32 33 33
REMARK SMILES IDX 94 34 34 35 93 36 35 37 36 38 37 39 87 40 38 41 92 42 86 43
REMARK SMILES IDX 88 44 39 45 91 46 85 47 84 48 40 50 72 51 52 52 71 53 53 54
REMARK SMILES IDX 56 55 70 56 89 57 54 58 55 59 69 61 90 62 57 63 41 64 42 65
REMARK SMILES IDX 50 66 43 67 44 68 48 69 51 70 45 71 46 72 49 73 47 74 73 75
REMARK SMILES IDX 74 76 82 77 75 78 76 79 80 80 83 81 77 82 78 83 81 84 79 85
REMARK SMILES IDX 58 86 59 87 67 88 60 89 61 90 65 91 68 92 62 93 63 94 66 95
REMARK SMILES IDX 64 96
REMARK H PARENT 88 49 56 60
REMARK Flexibility Score: inf
ROOT
ATOM      1  O   UNL A   1      43.938  21.668  26.147  1.00  0.00    -0.460 OA
ENDROOT
BRANCH   1   2
ATOM      2  C   UNL A   1      42.689  21.149  26.124  1.00  0.00     0.344 C 
ATOM      3  O   UNL A   1      42.438  20.137  25.475  1.00  0.00    -0.248 OA
BRANCH   2   4
ATOM      4  C   UNL A   1      41.617  21.832  26.964  1.00  0.00     0.352 C 
BRANCH   4   5
ATOM      5  O   UNL A   1      40.374  21.144  26.941  1.00  0.00    -0.475 OA
BRANCH   5   6
ATOM      6  C   UNL A   1      39.355  21.840  26.358  1.00  0.00     0.197 A 
ATOM      7  C   UNL A   1      39.290  23.201  26.668  1.00  0.00     0.054 A 
ATOM      8  C   UNL A   1      38.329  21.291  25.591  1.00  0.00     0.311 A 
ATOM      9  C   UNL A   1      38.209  23.984  26.230  1.00  0.00     0.012 A 
ATOM     10  C   UNL A   1      37.248  22.057  25.151  1.00  0.00     0.098 A 
ATOM     11  C   UNL A   1      37.165  23.408  25.496  1.00  0.00    -0.018 A 
BRANCH   8  12
ATOM     12  N   UNL A   1      38.298  19.895  25.235  1.00  0.00     0.066 N 
ATOM     13  O   UNL A   1      37.210  19.423  24.889  1.00  0.00    -0.258 OA
ATOM     14  O   UNL A   1      39.385  19.303  25.265  1.00  0.00    -0.258 OA
ENDBRANCH   8  12
BRANCH  11  15
ATOM     15  C   UNL A   1      35.947  24.112  25.089  1.00  0.00     0.012 C 
ATOM     16  C   UNL A   1      35.199  23.812  24.016  1.00  0.00     0.053 C 
BRANCH  16  17
ATOM     17  C   UNL A   1      34.117  24.729  23.574  1.00  0.00     0.188 C 
ATOM     18  O   UNL A   1      33.855  24.852  22.383  1.00  0.00    -0.289 OA
BRANCH  17  19
ATOM     19  C   UNL A   1      33.351  25.484  24.595  1.00  0.00     0.058 A 
ATOM     20  C   UNL A   1      33.633  26.842  24.783  1.00  0.00     0.018 A 
ATOM     21  C   UNL A   1      32.350  24.872  25.359  1.00  0.00     0.137 A 
ATOM     22  C   UNL A   1      32.882  27.581  25.701  1.00  0.00     0.040 A 
ATOM     23  C   UNL A   1      31.602  25.606  26.273  1.00  0.00     0.079 A 
ATOM     24  F   UNL A   1      32.086  23.564  25.231  1.00  0.00    -0.206 F 
ATOM     25  C   UNL A   1      31.872  26.959  26.430  1.00  0.00     0.126 A 
ATOM     26  F   UNL A   1      31.148  27.676  27.297  1.00  0.00    -0.207 F 
ENDBRANCH  17  19
ENDBRANCH  16  17
ENDBRANCH  11  15
ENDBRANCH   5   6
ENDBRANCH   4   5
ENDBRANCH   2   4
ENDBRANCH   1   2
BRANCH   1  27
ATOM     27  C   UNL A   1      44.769  21.659  24.970  1.00  0.00     0.274 C 
BRANCH  27  28
ATOM     28  C   UNL A   1      44.305  22.740  23.988  1.00  0.00     0.275 C 
BRANCH  28  29
ATOM     29  O   UNL A   1      43.961  23.931  24.726  1.00  0.00    -0.458 OA
BRANCH  29  30
ATOM     30  C   UNL A   1      44.979  24.758  25.077  1.00  0.00     0.338 C 
ATOM     31  O   UNL A   1      46.064  24.869  24.541  1.00  0.00    -0.246 OA
BRANCH  30  32
ATOM     32  C   UNL A   1      44.470  25.649  26.142  1.00  0.00     0.060 A 
ATOM     33  C   UNL A   1      43.572  25.143  27.090  1.00  0.00     0.016 A 
ATOM     34  C   UNL A   1      44.918  26.969  26.230  1.00  0.00     0.016 A 
ATOM     35  C   UNL A   1      43.134  25.954  28.143  1.00  0.00     0.010 A 
ATOM     36  C   UNL A   1      44.459  27.786  27.266  1.00  0.00     0.010 A 
ATOM     37  C   UNL A   1      43.561  27.286  28.226  1.00  0.00    -0.014 A 
BRANCH  37  38
ATOM     38  C   UNL A   1      43.002  28.220  29.235  1.00  0.00     0.031 A 
ATOM     39  C   UNL A   1      43.710  28.369  30.552  1.00  0.00     0.074 A 
ATOM     40  C   UNL A   1      41.840  28.861  29.020  1.00  0.00     0.049 A 
ATOM     41  N   UNL A   1      43.318  28.986  31.638  1.00  0.00    -0.248 NA
ATOM     42  C   UNL A   1      45.030  27.730  30.661  1.00  0.00     0.031 C 
ATOM     43  C   UNL A   1      41.070  28.825  27.779  1.00  0.00     0.029 A 
ATOM     44  N   UNL A   1      41.084  29.641  29.863  1.00  0.00    -0.354 N 
ATOM     45  C   UNL A   1      44.337  28.800  32.562  1.00  0.00     0.074 A 
ATOM     46  C   UNL A   1      45.359  28.005  31.916  1.00  0.00     0.031 C 
ATOM     47  C   UNL A   1      39.930  29.520  27.953  1.00  0.00     0.029 A 
ATOM     48  C   UNL A   1      39.874  30.014  29.329  1.00  0.00     0.049 A 
ATOM     49  H   UNL A   1      41.382  29.909  30.763  1.00  0.00     0.167 HD
ATOM     50  C   UNL A   1      44.410  29.250  33.837  1.00  0.00     0.037 A 
ATOM     51  C   UNL A   1      38.825  30.641  29.900  1.00  0.00     0.037 A 
ATOM     52  C   UNL A   1      43.400  30.045  34.481  1.00  0.00     0.049 A 
ATOM     53  C   UNL A   1      38.900  31.057  31.350  1.00  0.00     0.074 A 
ATOM     54  C   UNL A   1      43.422  30.599  35.750  1.00  0.00     0.029 A 
ATOM     55  N   UNL A   1      42.183  30.387  33.915  1.00  0.00    -0.354 N 
ATOM     56  N   UNL A   1      39.891  30.928  32.199  1.00  0.00    -0.248 NA
ATOM     57  C   UNL A   1      37.705  31.695  31.923  1.00  0.00     0.031 C 
ATOM     58  C   UNL A   1      42.192  31.225  35.973  1.00  0.00     0.029 A 
ATOM     59  C   UNL A   1      41.425  31.104  34.826  1.00  0.00     0.049 A 
ATOM     60  H   UNL A   1      41.899  30.153  33.002  1.00  0.00     0.167 HD
ATOM     61  C   UNL A   1      39.446  31.488  33.392  1.00  0.00     0.074 A 
ATOM     62  C   UNL A   1      38.106  31.973  33.155  1.00  0.00     0.031 C 
ATOM     63  C   UNL A   1      40.093  31.587  34.579  1.00  0.00     0.037 A 
BRANCH  50  64
ATOM     64  C   UNL A   1      45.615  28.876  34.641  1.00  0.00     0.064 A 
ATOM     65  C   UNL A   1      45.660  27.692  35.391  1.00  0.00     0.173 A 
ATOM     66  C   UNL A   1      46.768  29.673  34.594  1.00  0.00     0.173 A 
ATOM     67  F   UNL A   1      44.577  26.904  35.473  1.00  0.00    -0.203 F 
ATOM     68  C   UNL A   1      46.818  27.322  36.070  1.00  0.00     0.198 A 
ATOM     69  C   UNL A   1      47.930  29.289  35.256  1.00  0.00     0.198 A 
ATOM     70  F   UNL A   1      46.772  30.814  33.888  1.00  0.00    -0.203 F 
ATOM     71  F   UNL A   1      46.836  26.197  36.797  1.00  0.00    -0.200 F 
ATOM     72  C   UNL A   1      47.953  28.115  35.993  1.00  0.00     0.200 A 
ATOM     73  F   UNL A   1      49.030  30.050  35.172  1.00  0.00    -0.200 F 
ATOM     74  F   UNL A   1      49.073  27.748  36.633  1.00  0.00    -0.200 F 
ENDBRANCH  50  64
BRANCH  51  75
ATOM     75  C   UNL A   1      37.575  30.873  29.128  1.00  0.00     0.064 A 
ATOM     76  C   UNL A   1      37.238  32.151  28.660  1.00  0.00     0.173 A 
ATOM     77  C   UNL A   1      36.656  29.836  28.907  1.00  0.00     0.173 A 
ATOM     78  F   UNL A   1      38.068  33.182  28.876  1.00  0.00    -0.203 F 
ATOM     79  C   UNL A   1      36.017  32.390  28.031  1.00  0.00     0.198 A 
ATOM     80  C   UNL A   1      35.451  30.069  28.251  1.00  0.00     0.198 A 
ATOM     81  F   UNL A   1      36.926  28.595  29.340  1.00  0.00    -0.203 F 
ATOM     82  F   UNL A   1      35.693  33.634  27.656  1.00  0.00    -0.200 F 
ATOM     83  C   UNL A   1      35.126  31.347  27.825  1.00  0.00     0.200 A 
ATOM     84  F   UNL A   1      34.595  29.057  28.045  1.00  0.00    -0.200 F 
ATOM     85  F   UNL A   1      33.948  31.579  27.230  1.00  0.00    -0.200 F 
ENDBRANCH  51  75
BRANCH  63  86
ATOM     86  C   UNL A   1      39.374  32.261  35.712  1.00  0.00     0.064 A 
ATOM     87  C   UNL A   1      38.546  31.540  36.586  1.00  0.00     0.173 A 
ATOM     88  C   UNL A   1      39.562  33.629  35.964  1.00  0.00     0.173 A 
ATOM     89  F   UNL A   1      38.322  30.234  36.379  1.00  0.00    -0.203 F 
ATOM     90  C   UNL A   1      37.923  32.167  37.662  1.00  0.00     0.198 A 
ATOM     91  C   UNL A   1      38.960  34.246  37.058  1.00  0.00     0.198 A 
ATOM     92  F   UNL A   1      40.349  34.362  35.162  1.00  0.00    -0.203 F 
ATOM     93  F   UNL A   1      37.109  31.467  38.463  1.00  0.00    -0.200 F 
ATOM     94  C   UNL A   1      38.137  33.516  37.902  1.00  0.00     0.200 A 
ATOM     95  F   UNL A   1      39.180  35.546  37.296  1.00  0.00    -0.200 F 
ATOM     96  F   UNL A   1      37.547  34.114  38.946  1.00  0.00    -0.200 F 
ENDBRANCH  63  86
ENDBRANCH  37  38
ENDBRANCH  30  32
ENDBRANCH  29  30
ENDBRANCH  28  29
ENDBRANCH  27  28
ENDBRANCH   1  27
TORSDOF 17
ENDMDL
MODEL 3
REMARK VINA RESULT:     -11.6      4.341      6.882
REMARK SMILES O=C(COc1ccc(/C=C/C(=O)c2ccc(F)cc2F)cc1[N+](=O)[O-])OCCOC(=O)c1ccc(-c2c3nc(c(-c4c(F)c(F)c(F)c(F)c4F)c4ccc([nH]4)c(-c4c(F)c(F)c(F)c(F)c4F)c4nc(c(-c5c(F)c(F)c(F)c(F)c5F)c5ccc2[nH]5)C=C4)C=C3)cc1
REMARK SMILES IDX 26 1 2 2 1 3 3 4 4 5 5 6 6 7 22 8 7 9 21 10 8 11 23 12 24 13
REMARK SMILES IDX 25 14 9 15 10 16 11 17 12 18 13 19 14 20 19 21 15 22 18 23
REMARK SMILES IDX 20 24 16 25 17 26 27 27 28 28 29 29 30 30 31 31 32 32 33 33
REMARK SMILES IDX 94 34 34 35 93 36 35 37 36 38 37 39 87 40 38 41 92 42 86 43
REMARK SMILES IDX 88 44 39 45 91 46 85 47 84 48 40 50 72 51 52 52 71 53 53 54
REMARK SMILES IDX 56 55 70 56 89 57 54 58 55 59 69 61 90 62 57 63 41 64 42 65
REMARK SMILES IDX 50 66 43 67 44 68 48 69 51 70 45 71 46 72 49 73 47 74 73 75
REMARK SMILES IDX 74 76 82 77 75 78 76 79 80 80 83 81 77 82 78 83 81 84 79 85
REMARK SMILES IDX 58 86 59 87 67 88 60 89 61 90 65 91 68 92 62 93 63 94 66 95
REMARK SMILES IDX 64 96
REMARK H PARENT 88 49 56 60
REMARK Flexibility Score: inf
ROOT
ATOM      1  O   UNL A   1      32.438  27.826  25.468  1.00  0.00    -0.460 OA
ENDROOT
BRANCH   1   2
ATOM      2  C   UNL A   1      31.858  28.135  24.285  1.00  0.00     0.344 C 
ATOM      3  O   UNL A   1      32.365  28.961  23.531  1.00  0.00    -0.248 OA
BRANCH   2   4
ATOM      4  C   UNL A   1      30.584  27.394  23.901  1.00  0.00     0.352 C 
BRANCH   4   5
ATOM      5  O   UNL A   1      30.694  26.712  22.658  1.00  0.00    -0.475 OA
BRANCH   5   6
ATOM      6  C   UNL A   1      31.255  25.471  22.744  1.00  0.00     0.197 A 
ATOM      7  C   UNL A   1      30.692  24.610  23.691  1.00  0.00     0.054 A 
ATOM      8  C   UNL A   1      32.394  25.043  22.064  1.00  0.00     0.311 A 
ATOM      9  C   UNL A   1      31.273  23.360  23.956  1.00  0.00     0.012 A 
ATOM     10  C   UNL A   1      32.982  23.803  22.319  1.00  0.00     0.098 A 
ATOM     11  C   UNL A   1      32.441  22.962  23.294  1.00  0.00    -0.018 A 
BRANCH   8  12
ATOM     12  N   UNL A   1      33.056  25.865  21.082  1.00  0.00     0.066 N 
ATOM     13  O   UNL A   1      32.893  25.570  19.894  1.00  0.00    -0.258 OA
ATOM     14  O   UNL A   1      33.697  26.828  21.523  1.00  0.00    -0.258 OA
ENDBRANCH   8  12
BRANCH  11  15
ATOM     15  C   UNL A   1      33.181  21.731  23.578  1.00  0.00     0.012 C 
ATOM     16  C   UNL A   1      33.851  21.471  24.710  1.00  0.00     0.053 C 
BRANCH  16  17
ATOM     17  C   UNL A   1      34.749  20.291  24.799  1.00  0.00     0.188 C 
ATOM     18  O   UNL A   1      35.961  20.439  24.906  1.00  0.00    -0.289 OA
BRANCH  17  19
ATOM     19  C   UNL A   1      34.157  18.932  24.768  1.00  0.00     0.058 A 
ATOM     20  C   UNL A   1      34.874  17.895  24.159  1.00  0.00     0.018 A 
ATOM     21  C   UNL A   1      32.908  18.665  25.343  1.00  0.00     0.137 A 
ATOM     22  C   UNL A   1      34.356  16.598  24.172  1.00  0.00     0.040 A 
ATOM     23  C   UNL A   1      32.391  17.374  25.356  1.00  0.00     0.079 A 
ATOM     24  F   UNL A   1      32.179  19.645  25.896  1.00  0.00    -0.206 F 
ATOM     25  C   UNL A   1      33.126  16.350  24.775  1.00  0.00     0.126 A 
ATOM     26  F   UNL A   1      32.641  15.102  24.794  1.00  0.00    -0.207 F 
ENDBRANCH  17  19
ENDBRANCH  16  17
ENDBRANCH  11  15
ENDBRANCH   5   6
ENDBRANCH   4   5
ENDBRANCH   2   4
ENDBRANCH   1   2
BRANCH   1  27
ATOM     27  C   UNL A   1      32.041  28.487  26.685  1.00  0.00     0.274 C 
BRANCH  27  28
ATOM     28  C   UNL A   1      32.705  29.864  26.778  1.00  0.00     0.275 C 
BRANCH  28  29
ATOM     29  O   UNL A   1      34.099  29.695  27.107  1.00  0.00    -0.458 OA
BRANCH  29  30
ATOM     30  C   UNL A   1      34.656  30.611  27.940  1.00  0.00     0.338 C 
ATOM     31  O   UNL A   1      34.120  31.581  28.441  1.00  0.00    -0.246 OA
BRANCH  30  32
ATOM     32  C   UNL A   1      36.007  30.123  28.288  1.00  0.00     0.060 A 
ATOM     33  C   UNL A   1      36.232  29.568  29.554  1.00  0.00     0.016 A 
ATOM     34  C   UNL A   1      37.038  30.169  27.347  1.00  0.00     0.016 A 
ATOM     35  C   UNL A   1      37.488  29.039  29.875  1.00  0.00     0.010 A 
ATOM     36  C   UNL A   1      38.298  29.667  27.677  1.00  0.00     0.010 A 
ATOM     37  C   UNL A   1      38.533  29.103  28.944  1.00  0.00    -0.014 A 
BRANCH  37  38
ATOM     38  C   UNL A   1      39.915  28.694  29.297  1.00  0.00     0.031 A 
ATOM     39  C   UNL A   1      40.797  29.672  30.020  1.00  0.00     0.074 A 
ATOM     40  C   UNL A   1      40.408  27.505  28.908  1.00  0.00     0.049 A 
ATOM     41  N   UNL A   1      42.079  29.601  30.275  1.00  0.00    -0.248 NA
ATOM     42  C   UNL A   1      40.148  30.897  30.513  1.00  0.00     0.031 C 
ATOM     43  C   UNL A   1      39.652  26.456  28.227  1.00  0.00     0.029 A 
ATOM     44  N   UNL A   1      41.682  26.996  28.999  1.00  0.00    -0.354 N 
ATOM     45  C   UNL A   1      42.392  30.774  30.947  1.00  0.00     0.074 A 
ATOM     46  C   UNL A   1      41.171  31.545  31.051  1.00  0.00     0.031 C 
ATOM     47  C   UNL A   1      40.486  25.443  27.927  1.00  0.00     0.029 A 
ATOM     48  C   UNL A   1      41.839  25.791  28.359  1.00  0.00     0.049 A 
ATOM     49  H   UNL A   1      42.412  27.452  29.479  1.00  0.00     0.167 HD
ATOM     50  C   UNL A   1      43.592  31.173  31.430  1.00  0.00     0.037 A 
ATOM     51  C   UNL A   1      42.955  25.074  28.111  1.00  0.00     0.037 A 
ATOM     52  C   UNL A   1      44.806  30.409  31.334  1.00  0.00     0.049 A 
ATOM     53  C   UNL A   1      44.294  25.585  28.587  1.00  0.00     0.074 A 
ATOM     54  C   UNL A   1      46.054  30.708  31.853  1.00  0.00     0.029 A 
ATOM     55  N   UNL A   1      44.929  29.202  30.664  1.00  0.00    -0.354 N 
ATOM     56  N   UNL A   1      44.573  26.667  29.272  1.00  0.00    -0.248 NA
ATOM     57  C   UNL A   1      45.476  24.778  28.243  1.00  0.00     0.031 C 
ATOM     58  C   UNL A   1      46.946  29.712  31.446  1.00  0.00     0.029 A 
ATOM     59  C   UNL A   1      46.244  28.768  30.716  1.00  0.00     0.049 A 
ATOM     60  H   UNL A   1      44.193  28.726  30.217  1.00  0.00     0.167 HD
ATOM     61  C   UNL A   1      45.951  26.657  29.460  1.00  0.00     0.074 A 
ATOM     62  C   UNL A   1      46.451  25.454  28.833  1.00  0.00     0.031 C 
ATOM     63  C   UNL A   1      46.731  27.566  30.092  1.00  0.00     0.037 A 
BRANCH  50  64
ATOM     64  C   UNL A   1      43.669  32.514  32.090  1.00  0.00     0.064 A 
ATOM     65  C   UNL A   1      43.865  33.688  31.349  1.00  0.00     0.173 A 
ATOM     66  C   UNL A   1      43.460  32.631  33.473  1.00  0.00     0.173 A 
ATOM     67  F   UNL A   1      44.079  33.623  30.027  1.00  0.00    -0.203 F 
ATOM     68  C   UNL A   1      43.855  34.934  31.972  1.00  0.00     0.198 A 
ATOM     69  C   UNL A   1      43.429  33.879  34.088  1.00  0.00     0.198 A 
ATOM     70  F   UNL A   1      43.266  31.535  34.222  1.00  0.00    -0.203 F 
ATOM     71  F   UNL A   1      44.063  36.043  31.251  1.00  0.00    -0.200 F 
ATOM     72  C   UNL A   1      43.627  35.027  33.337  1.00  0.00     0.200 A 
ATOM     73  F   UNL A   1      43.198  33.969  35.405  1.00  0.00    -0.200 F 
ATOM     74  F   UNL A   1      43.599  36.229  33.932  1.00  0.00    -0.200 F 
ENDBRANCH  50  64
BRANCH  51  75
ATOM     75  C   UNL A   1      42.882  23.816  27.321  1.00  0.00     0.064 A 
ATOM     76  C   UNL A   1      42.462  22.614  27.910  1.00  0.00     0.173 A 
ATOM     77  C   UNL A   1      43.302  23.773  25.984  1.00  0.00     0.173 A 
ATOM     78  F   UNL A   1      42.082  22.597  29.196  1.00  0.00    -0.203 F 
ATOM     79  C   UNL A   1      42.495  21.414  27.201  1.00  0.00     0.198 A 
ATOM     80  C   UNL A   1      43.305  22.579  25.267  1.00  0.00     0.198 A 
ATOM     81  F   UNL A   1      43.720  24.892  25.374  1.00  0.00    -0.203 F 
ATOM     82  F   UNL A   1      42.152  20.271  27.810  1.00  0.00    -0.200 F 
ATOM     83  C   UNL A   1      42.914  21.399  25.879  1.00  0.00     0.200 A 
ATOM     84  F   UNL A   1      43.702  22.569  23.986  1.00  0.00    -0.200 F 
ATOM     85  F   UNL A   1      42.957  20.244  25.201  1.00  0.00    -0.200 F 
ENDBRANCH  51  75
BRANCH  63  86
ATOM     86  C   UNL A   1      48.206  27.294  30.161  1.00  0.00     0.064 A 
ATOM     87  C   UNL A   1      49.095  27.835  29.220  1.00  0.00     0.173 A 
ATOM     88  C   UNL A   1      48.745  26.536  31.212  1.00  0.00     0.173 A 
ATOM     89  F   UNL A   1      48.629  28.554  28.188  1.00  0.00    -0.203 F 
ATOM     90  C   UNL A   1      50.466  27.616  29.322  1.00  0.00     0.198 A 
ATOM     91  C   UNL A   1      50.119  26.343  31.327  1.00  0.00     0.198 A 
ATOM     92  F   UNL A   1      47.938  26.002  32.142  1.00  0.00    -0.203 F 
ATOM     93  F   UNL A   1      51.293  28.113  28.392  1.00  0.00    -0.200 F 
ATOM     94  C   UNL A   1      50.978  26.878  30.379  1.00  0.00     0.200 A 
ATOM     95  F   UNL A   1      50.611  25.642  32.357  1.00  0.00    -0.200 F 
ATOM     96  F   UNL A   1      52.299  26.679  30.482  1.00  0.00    -0.200 F 
ENDBRANCH  63  86
ENDBRANCH  37  38
ENDBRANCH  30  32
ENDBRANCH  29  30
ENDBRANCH  28  29
ENDBRANCH  27  28
ENDBRANCH   1  27
TORSDOF 17
ENDMDL
