MODEL 1
REMARK VINA RESULT:     -10.8      0.000      0.000
REMARK SMILES CCC[C@H](C)N(C)S(=O)(=O)c1ccc(CC(=O)OCCOC(=O)c2ccc(-c3c4nc(c(-c5c(F)c(F)c(F)c(F)c5F)c5ccc([nH]5)c(-c5c(F)c(F)c(F)c(F)c5F)c5nc(c(-c6c(F)c(F)c(F)c(F)c6F)c6ccc3[nH]6)C=C5)C=C4)cc2)s1
REMARK SMILES IDX 16 1 17 2 15 3 14 4 11 5 12 6 87 7 13 8 8 9 9 10 10 11 6 12
REMARK SMILES IDX 7 13 4 14 5 15 3 16 2 17 1 18 18 19 19 20 20 21 21 22 22 23
REMARK SMILES IDX 23 24 24 25 25 26 86 27 26 28 85 29 27 30 28 31 29 32 79 33
REMARK SMILES IDX 30 34 84 35 78 36 80 37 31 38 83 39 77 40 76 41 32 43 64 44
REMARK SMILES IDX 44 45 63 46 45 47 48 48 62 49 81 50 46 51 47 52 61 54 82 55
REMARK SMILES IDX 49 56 33 57 34 58 42 59 35 60 36 61 40 62 43 63 37 64 38 65
REMARK SMILES IDX 41 66 39 67 65 68 66 69 74 70 67 71 68 72 72 73 75 74 69 75
REMARK SMILES IDX 70 76 73 77 71 78 50 79 51 80 59 81 52 82 53 83 57 84 60 85
REMARK SMILES IDX 54 86 55 87 58 88 56 89
REMARK H PARENT 80 42 48 53
REMARK Flexibility Score: inf
ROOT
ATOM      1  C   UNL A   1      34.013  21.374  26.052  1.00  0.00     0.311 C 
ATOM      2  O   UNL A   1      33.260  20.461  25.726  1.00  0.00    -0.252 OA
ENDROOT
BRANCH   1   3
ATOM      3  C   UNL A   1      33.474  22.651  26.666  1.00  0.00     0.169 C 
BRANCH   3   4
ATOM      4  C   UNL A   1      33.530  23.850  25.769  1.00  0.00     0.017 A 
ATOM      5  C   UNL A   1      33.239  25.461  23.911  1.00  0.00     0.135 A 
ATOM      6  C   UNL A   1      33.920  26.001  24.989  1.00  0.00     0.034 A 
ATOM      7  S   UNL A   1      32.870  23.814  24.185  1.00  0.00    -0.127 S 
ATOM      8  C   UNL A   1      34.114  25.068  26.042  1.00  0.00     0.017 A 
BRANCH   5   9
ATOM      9  S   UNL A   1      32.630  26.234  22.410  1.00  0.00     0.252 S 
ATOM     10  O   UNL A   1      31.465  25.433  22.097  1.00  0.00    -0.206 OA
ATOM     11  O   UNL A   1      33.741  26.334  21.492  1.00  0.00    -0.206 OA
BRANCH   9  12
ATOM     12  N   UNL A   1      32.092  27.830  22.760  1.00  0.00    -0.197 NA
ATOM     13  C   UNL A   1      33.129  28.876  22.847  1.00  0.00     0.124 C 
BRANCH  12  14
ATOM     14  C   UNL A   1      31.036  27.996  23.829  1.00  0.00     0.070 C 
ATOM     15  C   UNL A   1      31.408  29.090  24.830  1.00  0.00     0.026 C 
BRANCH  14  16
ATOM     16  C   UNL A   1      29.622  28.208  23.242  1.00  0.00     0.020 C 
BRANCH  16  17
ATOM     17  C   UNL A   1      29.216  29.680  23.101  1.00  0.00    -0.002 C 
ATOM     18  C   UNL A   1      29.468  30.242  21.712  1.00  0.00     0.004 C 
ENDBRANCH  16  17
ENDBRANCH  14  16
ENDBRANCH  12  14
ENDBRANCH   9  12
ENDBRANCH   5   9
ENDBRANCH   3   4
ENDBRANCH   1   3
BRANCH   1  19
ATOM     19  O   UNL A   1      35.359  21.360  25.866  1.00  0.00    -0.462 OA
BRANCH  19  20
ATOM     20  C   UNL A   1      35.873  20.337  24.990  1.00  0.00     0.274 C 
BRANCH  20  21
ATOM     21  C   UNL A   1      37.391  20.425  24.855  1.00  0.00     0.275 C 
BRANCH  21  22
ATOM     22  O   UNL A   1      37.915  21.421  25.751  1.00  0.00    -0.458 OA
BRANCH  22  23
ATOM     23  C   UNL A   1      39.175  21.191  26.192  1.00  0.00     0.338 C 
ATOM     24  O   UNL A   1      39.785  20.140  26.196  1.00  0.00    -0.246 OA
BRANCH  23  25
ATOM     25  C   UNL A   1      39.752  22.447  26.689  1.00  0.00     0.060 A 
ATOM     26  C   UNL A   1      39.296  23.664  26.180  1.00  0.00     0.016 A 
ATOM     27  C   UNL A   1      40.831  22.406  27.569  1.00  0.00     0.016 A 
ATOM     28  C   UNL A   1      39.942  24.849  26.524  1.00  0.00     0.010 A 
ATOM     29  C   UNL A   1      41.449  23.598  27.949  1.00  0.00     0.010 A 
ATOM     30  C   UNL A   1      41.025  24.827  27.413  1.00  0.00    -0.014 A 
BRANCH  30  31
ATOM     31  C   UNL A   1      41.738  26.081  27.761  1.00  0.00     0.031 A 
ATOM     32  C   UNL A   1      41.044  27.139  28.573  1.00  0.00     0.074 A 
ATOM     33  C   UNL A   1      43.001  26.275  27.335  1.00  0.00     0.049 A 
ATOM     34  N   UNL A   1      41.438  28.353  28.863  1.00  0.00    -0.248 NA
ATOM     35  C   UNL A   1      39.728  26.786  29.128  1.00  0.00     0.031 C 
ATOM     36  C   UNL A   1      43.794  25.308  26.574  1.00  0.00     0.029 A 
ATOM     37  N   UNL A   1      43.835  27.357  27.470  1.00  0.00    -0.354 N 
ATOM     38  C   UNL A   1      40.407  28.920  29.600  1.00  0.00     0.074 A 
ATOM     39  C   UNL A   1      39.364  27.922  29.705  1.00  0.00     0.031 C 
ATOM     40  C   UNL A   1      44.999  25.838  26.314  1.00  0.00     0.029 A 
ATOM     41  C   UNL A   1      45.041  27.201  26.832  1.00  0.00     0.049 A 
ATOM     42  H   UNL A   1      43.592  28.166  27.975  1.00  0.00     0.167 HD
ATOM     43  C   UNL A   1      40.340  30.162  30.137  1.00  0.00     0.037 A 
ATOM     44  C   UNL A   1      46.051  28.075  26.654  1.00  0.00     0.037 A 
ATOM     45  C   UNL A   1      41.397  31.138  30.055  1.00  0.00     0.049 A 
ATOM     46  C   UNL A   1      45.924  29.465  27.215  1.00  0.00     0.074 A 
ATOM     47  C   UNL A   1      41.441  32.410  30.601  1.00  0.00     0.029 A 
ATOM     48  N   UNL A   1      42.596  30.950  29.383  1.00  0.00    -0.354 N 
ATOM     49  N   UNL A   1      44.951  29.991  27.917  1.00  0.00    -0.248 NA
ATOM     50  C   UNL A   1      47.037  30.388  26.949  1.00  0.00     0.031 C 
ATOM     51  C   UNL A   1      42.644  33.009  30.216  1.00  0.00     0.029 A 
ATOM     52  C   UNL A   1      43.375  32.093  29.478  1.00  0.00     0.049 A 
ATOM     53  H   UNL A   1      42.855  30.127  28.910  1.00  0.00     0.167 HD
ATOM     54  C   UNL A   1      45.346  31.290  28.206  1.00  0.00     0.074 A 
ATOM     55  C   UNL A   1      46.655  31.469  27.613  1.00  0.00     0.031 C 
ATOM     56  C   UNL A   1      44.684  32.249  28.898  1.00  0.00     0.037 A 
BRANCH  43  57
ATOM     57  C   UNL A   1      39.073  30.558  30.838  1.00  0.00     0.064 A 
ATOM     58  C   UNL A   1      38.926  30.444  32.228  1.00  0.00     0.173 A 
ATOM     59  C   UNL A   1      38.012  31.119  30.110  1.00  0.00     0.173 A 
ATOM     60  F   UNL A   1      39.907  29.906  32.969  1.00  0.00    -0.203 F 
ATOM     61  C   UNL A   1      37.757  30.861  32.860  1.00  0.00     0.198 A 
ATOM     62  C   UNL A   1      36.857  31.561  30.750  1.00  0.00     0.198 A 
ATOM     63  F   UNL A   1      38.104  31.260  28.779  1.00  0.00    -0.203 F 
ATOM     64  F   UNL A   1      37.625  30.712  34.186  1.00  0.00    -0.200 F 
ATOM     65  C   UNL A   1      36.728  31.427  32.123  1.00  0.00     0.200 A 
ATOM     66  F   UNL A   1      35.871  32.124  30.036  1.00  0.00    -0.200 F 
ATOM     67  F   UNL A   1      35.612  31.843  32.736  1.00  0.00    -0.200 F 
ENDBRANCH  43  57
BRANCH  44  68
ATOM     68  C   UNL A   1      47.261  27.672  25.890  1.00  0.00     0.064 A 
ATOM     69  C   UNL A   1      48.421  27.245  26.551  1.00  0.00     0.173 A 
ATOM     70  C   UNL A   1      47.296  27.731  24.488  1.00  0.00     0.173 A 
ATOM     71  F   UNL A   1      48.447  27.197  27.891  1.00  0.00    -0.203 F 
ATOM     72  C   UNL A   1      49.575  26.917  25.843  1.00  0.00     0.198 A 
ATOM     73  C   UNL A   1      48.439  27.370  23.780  1.00  0.00     0.198 A 
ATOM     74  F   UNL A   1      46.214  28.134  23.805  1.00  0.00    -0.203 F 
ATOM     75  F   UNL A   1      50.687  26.567  26.505  1.00  0.00    -0.200 F 
ATOM     76  C   UNL A   1      49.582  26.974  24.458  1.00  0.00     0.200 A 
ATOM     77  F   UNL A   1      48.437  27.415  22.440  1.00  0.00    -0.200 F 
ATOM     78  F   UNL A   1      50.691  26.659  23.778  1.00  0.00    -0.200 F 
ENDBRANCH  44  68
BRANCH  56  79
ATOM     79  C   UNL A   1      45.386  33.561  29.096  1.00  0.00     0.064 A 
ATOM     80  C   UNL A   1      45.214  34.633  28.210  1.00  0.00     0.173 A 
ATOM     81  C   UNL A   1      46.218  33.756  30.210  1.00  0.00     0.173 A 
ATOM     82  F   UNL A   1      44.443  34.492  27.120  1.00  0.00    -0.203 F 
ATOM     83  C   UNL A   1      45.872  35.843  28.415  1.00  0.00     0.198 A 
ATOM     84  C   UNL A   1      46.847  34.977  30.430  1.00  0.00     0.198 A 
ATOM     85  F   UNL A   1      46.411  32.764  31.092  1.00  0.00    -0.203 F 
ATOM     86  F   UNL A   1      45.734  36.837  27.526  1.00  0.00    -0.200 F 
ATOM     87  C   UNL A   1      46.681  36.017  29.527  1.00  0.00     0.200 A 
ATOM     88  F   UNL A   1      47.618  35.147  31.513  1.00  0.00    -0.200 F 
ATOM     89  F   UNL A   1      47.307  37.185  29.726  1.00  0.00    -0.200 F 
ENDBRANCH  56  79
ENDBRANCH  30  31
ENDBRANCH  23  25
ENDBRANCH  22  23
ENDBRANCH  21  22
ENDBRANCH  20  21
ENDBRANCH  19  20
ENDBRANCH   1  19
TORSDOF 17
ENDMDL
MODEL 2
REMARK VINA RESULT:     -10.6      2.686      8.442
REMARK SMILES CCC[C@H](C)N(C)S(=O)(=O)c1ccc(CC(=O)OCCOC(=O)c2ccc(-c3c4nc(c(-c5c(F)c(F)c(F)c(F)c5F)c5ccc([nH]5)c(-c5c(F)c(F)c(F)c(F)c5F)c5nc(c(-c6c(F)c(F)c(F)c(F)c6F)c6ccc3[nH]6)C=C5)C=C4)cc2)s1
REMARK SMILES IDX 16 1 17 2 15 3 14 4 11 5 12 6 87 7 13 8 8 9 9 10 10 11 6 12
REMARK SMILES IDX 7 13 4 14 5 15 3 16 2 17 1 18 18 19 19 20 20 21 21 22 22 23
REMARK SMILES IDX 23 24 24 25 25 26 86 27 26 28 85 29 27 30 28 31 29 32 79 33
REMARK SMILES IDX 30 34 84 35 78 36 80 37 31 38 83 39 77 40 76 41 32 43 64 44
REMARK SMILES IDX 44 45 63 46 45 47 48 48 62 49 81 50 46 51 47 52 61 54 82 55
REMARK SMILES IDX 49 56 33 57 34 58 42 59 35 60 36 61 40 62 43 63 37 64 38 65
REMARK SMILES IDX 41 66 39 67 65 68 66 69 74 70 67 71 68 72 72 73 75 74 69 75
REMARK SMILES IDX 70 76 73 77 71 78 50 79 51 80 59 81 52 82 53 83 57 84 60 85
REMARK SMILES IDX 54 86 55 87 58 88 56 89
REMARK H PARENT 80 42 48 53
REMARK Flexibility Score: inf
ROOT
ATOM      1  C   UNL A   1      41.308  21.270  26.016  1.00  0.00     0.311 C 
ATOM      2  O   UNL A   1      42.042  22.064  25.432  1.00  0.00    -0.252 OA
ENDROOT
BRANCH   1   3
ATOM      3  C   UNL A   1      40.275  21.750  27.015  1.00  0.00     0.169 C 
BRANCH   3   4
ATOM      4  C   UNL A   1      39.067  22.396  26.408  1.00  0.00     0.017 A 
ATOM      5  C   UNL A   1      36.934  22.850  25.234  1.00  0.00     0.135 A 
ATOM      6  C   UNL A   1      37.451  23.970  25.862  1.00  0.00     0.034 A 
ATOM      7  S   UNL A   1      37.982  21.511  25.416  1.00  0.00    -0.127 S 
ATOM      8  C   UNL A   1      38.689  23.718  26.510  1.00  0.00     0.017 A 
BRANCH   5   9
ATOM      9  S   UNL A   1      35.363  22.598  24.404  1.00  0.00     0.252 S 
ATOM     10  O   UNL A   1      35.152  21.174  24.562  1.00  0.00    -0.206 OA
ATOM     11  O   UNL A   1      35.462  23.201  23.095  1.00  0.00    -0.206 OA
BRANCH   9  12
ATOM     12  N   UNL A   1      34.118  23.413  25.266  1.00  0.00    -0.197 NA
ATOM     13  C   UNL A   1      33.620  22.759  26.491  1.00  0.00     0.124 C 
BRANCH  12  14
ATOM     14  C   UNL A   1      32.994  24.026  24.461  1.00  0.00     0.070 C 
ATOM     15  C   UNL A   1      31.948  22.987  24.061  1.00  0.00     0.026 C 
BRANCH  14  16
ATOM     16  C   UNL A   1      32.355  25.246  25.165  1.00  0.00     0.020 C 
BRANCH  16  17
ATOM     17  C   UNL A   1      30.941  24.992  25.699  1.00  0.00    -0.002 C 
ATOM     18  C   UNL A   1      29.914  25.982  25.175  1.00  0.00     0.004 C 
ENDBRANCH  16  17
ENDBRANCH  14  16
ENDBRANCH  12  14
ENDBRANCH   9  12
ENDBRANCH   5   9
ENDBRANCH   3   4
ENDBRANCH   1   3
BRANCH   1  19
ATOM     19  O   UNL A   1      41.369  19.920  25.869  1.00  0.00    -0.462 OA
BRANCH  19  20
ATOM     20  C   UNL A   1      42.370  19.238  26.649  1.00  0.00     0.274 C 
BRANCH  20  21
ATOM     21  C   UNL A   1      43.408  18.558  25.759  1.00  0.00     0.275 C 
BRANCH  21  22
ATOM     22  O   UNL A   1      43.564  19.287  24.528  1.00  0.00    -0.458 OA
BRANCH  22  23
ATOM     23  C   UNL A   1      44.843  19.568  24.185  1.00  0.00     0.338 C 
ATOM     24  O   UNL A   1      45.652  18.834  23.652  1.00  0.00    -0.246 OA
BRANCH  23  25
ATOM     25  C   UNL A   1      45.150  20.956  24.552  1.00  0.00     0.060 A 
ATOM     26  C   UNL A   1      45.612  21.244  25.837  1.00  0.00     0.016 A 
ATOM     27  C   UNL A   1      44.861  21.983  23.655  1.00  0.00     0.016 A 
ATOM     28  C   UNL A   1      45.754  22.568  26.246  1.00  0.00     0.010 A 
ATOM     29  C   UNL A   1      45.048  23.309  24.050  1.00  0.00     0.010 A 
ATOM     30  C   UNL A   1      45.475  23.613  25.356  1.00  0.00    -0.014 A 
BRANCH  30  31
ATOM     31  C   UNL A   1      45.594  25.026  25.793  1.00  0.00     0.031 A 
ATOM     32  C   UNL A   1      46.925  25.723  25.723  1.00  0.00     0.074 A 
ATOM     33  C   UNL A   1      44.514  25.677  26.265  1.00  0.00     0.049 A 
ATOM     34  N   UNL A   1      47.270  26.900  26.182  1.00  0.00    -0.248 NA
ATOM     35  C   UNL A   1      48.015  24.996  25.053  1.00  0.00     0.031 C 
ATOM     36  C   UNL A   1      43.162  25.121  26.345  1.00  0.00     0.029 A 
ATOM     37  N   UNL A   1      44.385  26.943  26.780  1.00  0.00    -0.354 N 
ATOM     38  C   UNL A   1      48.620  27.038  25.891  1.00  0.00     0.074 A 
ATOM     39  C   UNL A   1      49.037  25.823  25.224  1.00  0.00     0.031 C 
ATOM     40  C   UNL A   1      42.341  26.043  26.873  1.00  0.00     0.029 A 
ATOM     41  C   UNL A   1      43.118  27.226  27.226  1.00  0.00     0.049 A 
ATOM     42  H   UNL A   1      45.130  27.585  26.824  1.00  0.00     0.167 HD
ATOM     43  C   UNL A   1      49.435  28.088  26.158  1.00  0.00     0.037 A 
ATOM     44  C   UNL A   1      42.647  28.305  27.881  1.00  0.00     0.037 A 
ATOM     45  C   UNL A   1      49.004  29.307  26.792  1.00  0.00     0.049 A 
ATOM     46  C   UNL A   1      43.588  29.430  28.213  1.00  0.00     0.074 A 
ATOM     47  C   UNL A   1      49.745  30.444  27.070  1.00  0.00     0.029 A 
ATOM     48  N   UNL A   1      47.716  29.549  27.248  1.00  0.00    -0.354 N 
ATOM     49  N   UNL A   1      44.861  29.558  27.927  1.00  0.00    -0.248 NA
ATOM     50  C   UNL A   1      43.027  30.559  28.968  1.00  0.00     0.031 C 
ATOM     51  C   UNL A   1      48.919  31.351  27.740  1.00  0.00     0.029 A 
ATOM     52  C   UNL A   1      47.649  30.805  27.830  1.00  0.00     0.049 A 
ATOM     53  H   UNL A   1      46.962  28.921  27.169  1.00  0.00     0.167 HD
ATOM     54  C   UNL A   1      45.245  30.791  28.435  1.00  0.00     0.074 A 
ATOM     55  C   UNL A   1      44.066  31.380  29.037  1.00  0.00     0.031 C 
ATOM     56  C   UNL A   1      46.464  31.384  28.408  1.00  0.00     0.037 A 
BRANCH  43  57
ATOM     57  C   UNL A   1      50.887  27.960  25.796  1.00  0.00     0.064 A 
ATOM     58  C   UNL A   1      51.856  27.579  26.735  1.00  0.00     0.173 A 
ATOM     59  C   UNL A   1      51.301  28.160  24.469  1.00  0.00     0.173 A 
ATOM     60  F   UNL A   1      51.513  27.383  28.017  1.00  0.00    -0.203 F 
ATOM     61  C   UNL A   1      53.189  27.422  26.363  1.00  0.00     0.198 A 
ATOM     62  C   UNL A   1      52.629  27.974  24.096  1.00  0.00     0.198 A 
ATOM     63  F   UNL A   1      50.413  28.516  23.529  1.00  0.00    -0.203 F 
ATOM     64  F   UNL A   1      54.105  27.089  27.284  1.00  0.00    -0.200 F 
ATOM     65  C   UNL A   1      53.573  27.610  25.044  1.00  0.00     0.200 A 
ATOM     66  F   UNL A   1      52.994  28.140  22.817  1.00  0.00    -0.200 F 
ATOM     67  F   UNL A   1      54.853  27.442  24.686  1.00  0.00    -0.200 F 
ENDBRANCH  43  57
BRANCH  44  68
ATOM     68  C   UNL A   1      41.218  28.365  28.290  1.00  0.00     0.064 A 
ATOM     69  C   UNL A   1      40.244  28.888  27.428  1.00  0.00     0.173 A 
ATOM     70  C   UNL A   1      40.800  27.929  29.556  1.00  0.00     0.173 A 
ATOM     71  F   UNL A   1      40.598  29.342  26.216  1.00  0.00    -0.203 F 
ATOM     72  C   UNL A   1      38.914  28.995  27.825  1.00  0.00     0.198 A 
ATOM     73  C   UNL A   1      39.463  28.006  29.940  1.00  0.00     0.198 A 
ATOM     74  F   UNL A   1      41.691  27.422  30.421  1.00  0.00    -0.203 F 
ATOM     75  F   UNL A   1      38.014  29.552  27.002  1.00  0.00    -0.200 F 
ATOM     76  C   UNL A   1      38.523  28.549  29.078  1.00  0.00     0.200 A 
ATOM     77  F   UNL A   1      39.089  27.562  31.148  1.00  0.00    -0.200 F 
ATOM     78  F   UNL A   1      37.244  28.654  29.460  1.00  0.00    -0.200 F 
ENDBRANCH  44  68
BRANCH  56  79
ATOM     79  C   UNL A   1      46.573  32.758  29.001  1.00  0.00     0.064 A 
ATOM     80  C   UNL A   1      46.331  33.912  28.243  1.00  0.00     0.173 A 
ATOM     81  C   UNL A   1      46.894  32.919  30.358  1.00  0.00     0.173 A 
ATOM     82  F   UNL A   1      46.039  33.814  26.937  1.00  0.00    -0.203 F 
ATOM     83  C   UNL A   1      46.435  35.178  28.814  1.00  0.00     0.198 A 
ATOM     84  C   UNL A   1      46.964  34.183  30.934  1.00  0.00     0.198 A 
ATOM     85  F   UNL A   1      47.128  31.846  31.129  1.00  0.00    -0.203 F 
ATOM     86  F   UNL A   1      46.251  36.269  28.057  1.00  0.00    -0.200 F 
ATOM     87  C   UNL A   1      46.743  35.313  30.159  1.00  0.00     0.200 A 
ATOM     88  F   UNL A   1      47.248  34.311  32.237  1.00  0.00    -0.200 F 
ATOM     89  F   UNL A   1      46.834  36.531  30.708  1.00  0.00    -0.200 F 
ENDBRANCH  56  79
ENDBRANCH  30  31
ENDBRANCH  23  25
ENDBRANCH  22  23
ENDBRANCH  21  22
ENDBRANCH  20  21
ENDBRANCH  19  20
ENDBRANCH   1  19
TORSDOF 17
ENDMDL
MODEL 3
REMARK VINA RESULT:     -10.4      1.180      2.374
REMARK SMILES CCC[C@H](C)N(C)S(=O)(=O)c1ccc(CC(=O)OCCOC(=O)c2ccc(-c3c4nc(c(-c5c(F)c(F)c(F)c(F)c5F)c5ccc([nH]5)c(-c5c(F)c(F)c(F)c(F)c5F)c5nc(c(-c6c(F)c(F)c(F)c(F)c6F)c6ccc3[nH]6)C=C5)C=C4)cc2)s1
REMARK SMILES IDX 16 1 17 2 15 3 14 4 11 5 12 6 87 7 13 8 8 9 9 10 10 11 6 12
REMARK SMILES IDX 7 13 4 14 5 15 3 16 2 17 1 18 18 19 19 20 20 21 21 22 22 23
REMARK SMILES IDX 23 24 24 25 25 26 86 27 26 28 85 29 27 30 28 31 29 32 79 33
REMARK SMILES IDX 30 34 84 35 78 36 80 37 31 38 83 39 77 40 76 41 32 43 64 44
REMARK SMILES IDX 44 45 63 46 45 47 48 48 62 49 81 50 46 51 47 52 61 54 82 55
REMARK SMILES IDX 49 56 33 57 34 58 42 59 35 60 36 61 40 62 43 63 37 64 38 65
REMARK SMILES IDX 41 66 39 67 65 68 66 69 74 70 67 71 68 72 72 73 75 74 69 75
REMARK SMILES IDX 70 76 73 77 71 78 50 79 51 80 59 81 52 82 53 83 57 84 60 85
REMARK SMILES IDX 54 86 55 87 58 88 56 89
REMARK H PARENT 80 42 48 53
REMARK Flexibility Score: inf
ROOT
ATOM      1  C   UNL A   1      34.223  21.299  25.135  1.00  0.00     0.311 C 
ATOM      2  O   UNL A   1      33.144  20.743  25.321  1.00  0.00    -0.252 OA
ENDROOT
BRANCH   1   3
ATOM      3  C   UNL A   1      34.358  22.435  24.140  1.00  0.00     0.169 C 
BRANCH   3   4
ATOM      4  C   UNL A   1      33.153  23.317  24.029  1.00  0.00     0.017 A 
ATOM      5  C   UNL A   1      31.364  24.983  24.429  1.00  0.00     0.135 A 
ATOM      6  C   UNL A   1      31.308  24.428  23.161  1.00  0.00     0.034 A 
ATOM      7  S   UNL A   1      32.625  24.282  25.346  1.00  0.00    -0.127 S 
ATOM      8  C   UNL A   1      32.316  23.451  22.942  1.00  0.00     0.017 A 
BRANCH   5   9
ATOM      9  S   UNL A   1      30.426  26.329  25.155  1.00  0.00     0.252 S 
ATOM     10  O   UNL A   1      30.320  25.923  26.542  1.00  0.00    -0.206 OA
ATOM     11  O   UNL A   1      29.249  26.527  24.340  1.00  0.00    -0.206 OA
BRANCH   9  12
ATOM     12  N   UNL A   1      31.353  27.776  25.099  1.00  0.00    -0.197 NA
ATOM     13  C   UNL A   1      31.014  28.742  24.037  1.00  0.00     0.124 C 
BRANCH  12  14
ATOM     14  C   UNL A   1      32.848  27.659  25.295  1.00  0.00     0.070 C 
ATOM     15  C   UNL A   1      33.623  28.408  24.212  1.00  0.00     0.026 C 
BRANCH  14  16
ATOM     16  C   UNL A   1      33.297  28.072  26.715  1.00  0.00     0.020 C 
BRANCH  16  17
ATOM     17  C   UNL A   1      34.025  29.420  26.777  1.00  0.00    -0.002 C 
ATOM     18  C   UNL A   1      35.269  29.392  27.648  1.00  0.00     0.004 C 
ENDBRANCH  16  17
ENDBRANCH  14  16
ENDBRANCH  12  14
ENDBRANCH   9  12
ENDBRANCH   5   9
ENDBRANCH   3   4
ENDBRANCH   1   3
BRANCH   1  19
ATOM     19  O   UNL A   1      35.384  20.941  25.745  1.00  0.00    -0.462 OA
BRANCH  19  20
ATOM     20  C   UNL A   1      36.214  19.999  25.036  1.00  0.00     0.274 C 
BRANCH  20  21
ATOM     21  C   UNL A   1      37.607  20.568  24.771  1.00  0.00     0.275 C 
BRANCH  21  22
ATOM     22  O   UNL A   1      38.024  21.398  25.869  1.00  0.00    -0.458 OA
BRANCH  22  23
ATOM     23  C   UNL A   1      39.297  21.201  26.286  1.00  0.00     0.338 C 
ATOM     24  O   UNL A   1      39.931  20.164  26.289  1.00  0.00    -0.246 OA
BRANCH  23  25
ATOM     25  C   UNL A   1      39.856  22.475  26.757  1.00  0.00     0.060 A 
ATOM     26  C   UNL A   1      39.407  23.673  26.199  1.00  0.00     0.016 A 
ATOM     27  C   UNL A   1      40.912  22.467  27.665  1.00  0.00     0.016 A 
ATOM     28  C   UNL A   1      40.040  24.872  26.521  1.00  0.00     0.010 A 
ATOM     29  C   UNL A   1      41.515  23.675  28.023  1.00  0.00     0.010 A 
ATOM     30  C   UNL A   1      41.099  24.883  27.437  1.00  0.00    -0.014 A 
BRANCH  30  31
ATOM     31  C   UNL A   1      41.798  26.152  27.764  1.00  0.00     0.031 A 
ATOM     32  C   UNL A   1      41.091  27.216  28.555  1.00  0.00     0.074 A 
ATOM     33  C   UNL A   1      43.060  26.352  27.336  1.00  0.00     0.049 A 
ATOM     34  N   UNL A   1      41.470  28.440  28.823  1.00  0.00    -0.248 NA
ATOM     35  C   UNL A   1      39.778  26.859  29.114  1.00  0.00     0.031 C 
ATOM     36  C   UNL A   1      43.864  25.380  26.595  1.00  0.00     0.029 A 
ATOM     37  N   UNL A   1      43.881  27.445  27.452  1.00  0.00    -0.354 N 
ATOM     38  C   UNL A   1      40.431  29.009  29.548  1.00  0.00     0.074 A 
ATOM     39  C   UNL A   1      39.400  28.001  29.670  1.00  0.00     0.031 C 
ATOM     40  C   UNL A   1      45.064  25.918  26.327  1.00  0.00     0.029 A 
ATOM     41  C   UNL A   1      45.090  27.291  26.820  1.00  0.00     0.049 A 
ATOM     42  H   UNL A   1      43.628  28.261  27.943  1.00  0.00     0.167 HD
ATOM     43  C   UNL A   1      40.351  30.260  30.062  1.00  0.00     0.037 A 
ATOM     44  C   UNL A   1      46.090  28.173  26.627  1.00  0.00     0.037 A 
ATOM     45  C   UNL A   1      41.396  31.245  29.964  1.00  0.00     0.049 A 
ATOM     46  C   UNL A   1      45.947  29.571  27.162  1.00  0.00     0.074 A 
ATOM     47  C   UNL A   1      41.426  32.527  30.486  1.00  0.00     0.029 A 
ATOM     48  N   UNL A   1      42.599  31.059  29.298  1.00  0.00    -0.354 N 
ATOM     49  N   UNL A   1      44.967  30.099  27.853  1.00  0.00    -0.248 NA
ATOM     50  C   UNL A   1      47.051  30.501  26.882  1.00  0.00     0.031 C 
ATOM     51  C   UNL A   1      42.622  33.133  30.093  1.00  0.00     0.029 A 
ATOM     52  C   UNL A   1      43.365  32.212  29.373  1.00  0.00     0.049 A 
ATOM     53  H   UNL A   1      42.868  30.230  28.840  1.00  0.00     0.167 HD
ATOM     54  C   UNL A   1      45.347  31.407  28.119  1.00  0.00     0.074 A 
ATOM     55  C   UNL A   1      46.655  31.591  27.525  1.00  0.00     0.031 C 
ATOM     56  C   UNL A   1      44.673  32.372  28.792  1.00  0.00     0.037 A 
BRANCH  43  57
ATOM     57  C   UNL A   1      39.077  30.654  30.754  1.00  0.00     0.064 A 
ATOM     58  C   UNL A   1      37.956  31.108  30.044  1.00  0.00     0.173 A 
ATOM     59  C   UNL A   1      38.959  30.512  32.145  1.00  0.00     0.173 A 
ATOM     60  F   UNL A   1      38.019  31.269  28.713  1.00  0.00    -0.203 F 
ATOM     61  C   UNL A   1      36.771  31.423  30.704  1.00  0.00     0.198 A 
ATOM     62  C   UNL A   1      37.764  30.800  32.798  1.00  0.00     0.198 A 
ATOM     63  F   UNL A   1      39.999  30.071  32.871  1.00  0.00    -0.203 F 
ATOM     64  F   UNL A   1      35.722  31.887  30.010  1.00  0.00    -0.200 F 
ATOM     65  C   UNL A   1      36.673  31.260  32.078  1.00  0.00     0.200 A 
ATOM     66  F   UNL A   1      37.667  30.625  34.123  1.00  0.00    -0.200 F 
ATOM     67  F   UNL A   1      35.526  31.548  32.709  1.00  0.00    -0.200 F 
ENDBRANCH  43  57
BRANCH  44  68
ATOM     68  C   UNL A   1      47.306  27.769  25.873  1.00  0.00     0.064 A 
ATOM     69  C   UNL A   1      47.321  27.784  24.471  1.00  0.00     0.173 A 
ATOM     70  C   UNL A   1      48.466  27.333  26.531  1.00  0.00     0.173 A 
ATOM     71  F   UNL A   1      46.229  28.168  23.794  1.00  0.00    -0.203 F 
ATOM     72  C   UNL A   1      48.439  27.357  23.758  1.00  0.00     0.198 A 
ATOM     73  C   UNL A   1      49.595  26.938  25.818  1.00  0.00     0.198 A 
ATOM     74  F   UNL A   1      48.504  27.297  27.872  1.00  0.00    -0.203 F 
ATOM     75  F   UNL A   1      48.406  27.329  22.418  1.00  0.00    -0.200 F 
ATOM     76  C   UNL A   1      49.577  26.940  24.432  1.00  0.00     0.200 A 
ATOM     77  F   UNL A   1      50.696  26.547  26.474  1.00  0.00    -0.200 F 
ATOM     78  F   UNL A   1      50.651  26.528  23.746  1.00  0.00    -0.200 F 
ENDBRANCH  44  68
BRANCH  56  79
ATOM     79  C   UNL A   1      45.359  33.695  28.967  1.00  0.00     0.064 A 
ATOM     80  C   UNL A   1      45.180  34.747  28.059  1.00  0.00     0.173 A 
ATOM     81  C   UNL A   1      46.184  33.921  30.080  1.00  0.00     0.173 A 
ATOM     82  F   UNL A   1      44.416  34.576  26.969  1.00  0.00    -0.203 F 
ATOM     83  C   UNL A   1      45.824  35.968  28.242  1.00  0.00     0.198 A 
ATOM     84  C   UNL A   1      46.800  35.152  30.279  1.00  0.00     0.198 A 
ATOM     85  F   UNL A   1      46.384  32.948  30.983  1.00  0.00    -0.203 F 
ATOM     86  F   UNL A   1      45.680  36.943  27.334  1.00  0.00    -0.200 F 
ATOM     87  C   UNL A   1      46.627  36.173  29.355  1.00  0.00     0.200 A 
ATOM     88  F   UNL A   1      47.564  35.353  31.362  1.00  0.00    -0.200 F 
ATOM     89  F   UNL A   1      47.239  37.351  29.534  1.00  0.00    -0.200 F 
ENDBRANCH  56  79
ENDBRANCH  30  31
ENDBRANCH  23  25
ENDBRANCH  22  23
ENDBRANCH  21  22
ENDBRANCH  20  21
ENDBRANCH  19  20
ENDBRANCH   1  19
TORSDOF 17
ENDMDL
