MODEL 1
REMARK VINA RESULT:     -12.1      0.000      0.000
REMARK SMILES C[C@H]1CN(S(=O)(=O)N2CCO[C@H](CC(=O)OCCOC(=O)c3ccc(-c4c5nc(c(-c6c(F)c(F)c(F)c(F)c6F)c6ccc([nH]6)c(-c6c(F)c(F)c(F)c(F)c6F)c6nc(c(-c7c(F)c(F)c(F)c(F)c7F)c7ccc4[nH]7)C=C6)C=C5)cc3)C2)C[C@H](C)O1
REMARK SMILES IDX 17 1 16 2 14 3 15 4 13 5 12 6 8 7 9 8 85 9 10 10 11 11 5 12
REMARK SMILES IDX 6 13 7 14 4 15 1 16 2 17 3 18 89 19 87 20 86 21 88 22 18 23
REMARK SMILES IDX 19 24 20 25 21 26 22 27 23 28 84 29 24 30 83 31 25 32 26 33
REMARK SMILES IDX 27 34 77 35 28 36 82 37 76 38 78 39 29 40 81 41 75 42 74 43
REMARK SMILES IDX 30 45 62 46 42 47 61 48 43 49 46 50 60 51 79 52 44 53 45 54
REMARK SMILES IDX 59 56 80 57 47 58 31 59 32 60 40 61 33 62 34 63 38 64 41 65
REMARK SMILES IDX 35 66 36 67 39 68 37 69 63 70 64 71 72 72 65 73 66 74 70 75
REMARK SMILES IDX 73 76 67 77 68 78 71 79 69 80 48 81 49 82 57 83 50 84 51 85
REMARK SMILES IDX 55 86 58 87 52 88 53 89 56 90 54 91
REMARK H PARENT 78 44 46 55
REMARK Flexibility Score: inf
ROOT
ATOM      1  C   UNL A   1      30.952  30.008  24.646  1.00  0.00     0.274 C 
ENDROOT
BRANCH   1   2
ATOM      2  O   UNL A   1      31.428  29.134  23.612  1.00  0.00    -0.462 OA
BRANCH   2   3
ATOM      3  C   UNL A   1      30.500  28.713  22.715  1.00  0.00     0.308 C 
ATOM      4  O   UNL A   1      30.144  29.311  21.709  1.00  0.00    -0.252 OA
BRANCH   3   5
ATOM      5  C   UNL A   1      29.931  27.392  23.133  1.00  0.00     0.156 C 
BRANCH   5   6
ATOM      6  C   UNL A   1      30.921  26.485  23.870  1.00  0.00     0.144 C 
ATOM      7  N   UNL A   1      31.907  24.229  23.842  1.00  0.00    -0.184 NA
ATOM      8  C   UNL A   1      31.714  24.113  25.301  1.00  0.00     0.132 C 
ATOM      9  C   UNL A   1      30.932  25.110  23.188  1.00  0.00     0.136 C 
ATOM     10  C   UNL A   1      31.628  25.513  25.921  1.00  0.00     0.177 C 
ATOM     11  O   UNL A   1      30.625  26.317  25.267  1.00  0.00    -0.375 OA
BRANCH   7  12
ATOM     12  S   UNL A   1      33.347  23.820  23.129  1.00  0.00     0.282 S 
ATOM     13  O   UNL A   1      33.964  25.002  22.590  1.00  0.00    -0.195 OA
ATOM     14  O   UNL A   1      33.079  22.657  22.308  1.00  0.00    -0.195 OA
BRANCH  12  15
ATOM     15  N   UNL A   1      34.255  23.302  24.473  1.00  0.00    -0.184 NA
ATOM     16  C   UNL A   1      37.742  23.893  25.949  1.00  0.00     0.040 C 
ATOM     17  C   UNL A   1      36.303  23.406  25.858  1.00  0.00     0.130 C 
ATOM     18  C   UNL A   1      35.665  23.815  24.520  1.00  0.00     0.135 C 
ATOM     19  O   UNL A   1      36.346  21.977  25.985  1.00  0.00    -0.373 OA
ATOM     20  C   UNL A   1      35.060  21.355  25.853  1.00  0.00     0.130 C 
ATOM     21  C   UNL A   1      34.303  21.802  24.587  1.00  0.00     0.135 C 
ATOM     22  C   UNL A   1      34.245  21.527  27.131  1.00  0.00     0.040 C 
ENDBRANCH  12  15
ENDBRANCH   7  12
ENDBRANCH   5   6
ENDBRANCH   3   5
ENDBRANCH   2   3
ENDBRANCH   1   2
BRANCH   1  23
ATOM     23  C   UNL A   1      31.704  29.743  25.953  1.00  0.00     0.275 C 
BRANCH  23  24
ATOM     24  O   UNL A   1      32.989  30.391  25.912  1.00  0.00    -0.458 OA
BRANCH  24  25
ATOM     25  C   UNL A   1      33.247  31.238  26.932  1.00  0.00     0.338 C 
ATOM     26  O   UNL A   1      32.579  32.195  27.286  1.00  0.00    -0.246 OA
BRANCH  25  27
ATOM     27  C   UNL A   1      34.547  30.897  27.544  1.00  0.00     0.060 A 
ATOM     28  C   UNL A   1      34.917  29.575  27.805  1.00  0.00     0.016 A 
ATOM     29  C   UNL A   1      35.388  31.945  27.926  1.00  0.00     0.016 A 
ATOM     30  C   UNL A   1      36.108  29.312  28.495  1.00  0.00     0.010 A 
ATOM     31  C   UNL A   1      36.599  31.674  28.568  1.00  0.00     0.010 A 
ATOM     32  C   UNL A   1      36.958  30.356  28.897  1.00  0.00    -0.014 A 
BRANCH  32  33
ATOM     33  C   UNL A   1      38.198  30.104  29.692  1.00  0.00     0.031 A 
ATOM     34  C   UNL A   1      39.264  29.171  29.164  1.00  0.00     0.074 A 
ATOM     35  C   UNL A   1      38.369  30.673  30.902  1.00  0.00     0.049 A 
ATOM     36  N   UNL A   1      40.322  28.687  29.769  1.00  0.00    -0.248 NA
ATOM     37  C   UNL A   1      39.112  28.715  27.774  1.00  0.00     0.031 C 
ATOM     38  C   UNL A   1      37.444  31.611  31.533  1.00  0.00     0.029 A 
ATOM     39  N   UNL A   1      39.379  30.528  31.825  1.00  0.00    -0.354 N 
ATOM     40  C   UNL A   1      40.938  27.847  28.847  1.00  0.00     0.074 A 
ATOM     41  C   UNL A   1      40.130  27.876  27.646  1.00  0.00     0.031 C 
ATOM     42  C   UNL A   1      37.931  31.968  32.732  1.00  0.00     0.029 A 
ATOM     43  C   UNL A   1      39.165  31.230  32.987  1.00  0.00     0.049 A 
ATOM     44  H   UNL A   1      40.179  29.976  31.668  1.00  0.00     0.167 HD
ATOM     45  C   UNL A   1      42.074  27.118  28.987  1.00  0.00     0.037 A 
ATOM     46  C   UNL A   1      39.857  31.251  34.143  1.00  0.00     0.037 A 
ATOM     47  C   UNL A   1      42.901  27.110  30.166  1.00  0.00     0.049 A 
ATOM     48  C   UNL A   1      41.088  30.399  34.292  1.00  0.00     0.074 A 
ATOM     49  C   UNL A   1      44.086  26.427  30.386  1.00  0.00     0.029 A 
ATOM     50  N   UNL A   1      42.634  27.823  31.324  1.00  0.00    -0.354 N 
ATOM     51  N   UNL A   1      41.648  29.596  33.421  1.00  0.00    -0.248 NA
ATOM     52  C   UNL A   1      41.777  30.449  35.590  1.00  0.00     0.031 C 
ATOM     53  C   UNL A   1      44.512  26.690  31.691  1.00  0.00     0.029 A 
ATOM     54  C   UNL A   1      43.620  27.579  32.269  1.00  0.00     0.049 A 
ATOM     55  H   UNL A   1      41.860  28.416  31.458  1.00  0.00     0.167 HD
ATOM     56  C   UNL A   1      42.759  29.058  34.058  1.00  0.00     0.074 A 
ATOM     57  C   UNL A   1      42.806  29.641  35.382  1.00  0.00     0.031 C 
ATOM     58  C   UNL A   1      43.658  28.160  33.585  1.00  0.00     0.037 A 
BRANCH  45  59
ATOM     59  C   UNL A   1      42.486  26.238  27.841  1.00  0.00     0.064 A 
ATOM     60  C   UNL A   1      41.937  24.961  27.652  1.00  0.00     0.173 A 
ATOM     61  C   UNL A   1      43.398  26.708  26.883  1.00  0.00     0.173 A 
ATOM     62  F   UNL A   1      41.066  24.462  28.541  1.00  0.00    -0.203 F 
ATOM     63  C   UNL A   1      42.303  24.179  26.558  1.00  0.00     0.198 A 
ATOM     64  C   UNL A   1      43.740  25.935  25.776  1.00  0.00     0.198 A 
ATOM     65  F   UNL A   1      43.945  27.926  27.011  1.00  0.00    -0.203 F 
ATOM     66  F   UNL A   1      41.794  22.947  26.417  1.00  0.00    -0.200 F 
ATOM     67  C   UNL A   1      43.197  24.670  25.618  1.00  0.00     0.200 A 
ATOM     68  F   UNL A   1      44.593  26.417  24.862  1.00  0.00    -0.200 F 
ATOM     69  F   UNL A   1      43.538  23.921  24.560  1.00  0.00    -0.200 F 
ENDBRANCH  45  59
BRANCH  46  70
ATOM     70  C   UNL A   1      39.376  32.091  35.271  1.00  0.00     0.064 A 
ATOM     71  C   UNL A   1      38.569  31.551  36.281  1.00  0.00     0.173 A 
ATOM     72  C   UNL A   1      39.722  33.448  35.367  1.00  0.00     0.173 A 
ATOM     73  F   UNL A   1      38.186  30.268  36.217  1.00  0.00    -0.203 F 
ATOM     74  C   UNL A   1      38.124  32.336  37.342  1.00  0.00     0.198 A 
ATOM     75  C   UNL A   1      39.302  34.224  36.444  1.00  0.00     0.198 A 
ATOM     76  F   UNL A   1      40.488  34.014  34.423  1.00  0.00    -0.203 F 
ATOM     77  F   UNL A   1      37.323  31.804  38.276  1.00  0.00    -0.200 F 
ATOM     78  C   UNL A   1      38.499  33.669  37.429  1.00  0.00     0.200 A 
ATOM     79  F   UNL A   1      39.677  35.507  36.530  1.00  0.00    -0.200 F 
ATOM     80  F   UNL A   1      38.082  34.419  38.458  1.00  0.00    -0.200 F 
ENDBRANCH  46  70
BRANCH  58  81
ATOM     81  C   UNL A   1      44.786  27.772  34.496  1.00  0.00     0.064 A 
ATOM     82  C   UNL A   1      45.980  28.506  34.540  1.00  0.00     0.173 A 
ATOM     83  C   UNL A   1      44.657  26.672  35.358  1.00  0.00     0.173 A 
ATOM     84  F   UNL A   1      46.157  29.557  33.725  1.00  0.00    -0.203 F 
ATOM     85  C   UNL A   1      47.016  28.134  35.393  1.00  0.00     0.198 A 
ATOM     86  C   UNL A   1      45.685  26.320  36.228  1.00  0.00     0.198 A 
ATOM     87  F   UNL A   1      43.532  25.942  35.359  1.00  0.00    -0.203 F 
ATOM     88  F   UNL A   1      48.168  28.821  35.384  1.00  0.00    -0.200 F 
ATOM     89  C   UNL A   1      46.865  27.047  36.241  1.00  0.00     0.200 A 
ATOM     90  F   UNL A   1      45.534  25.275  37.054  1.00  0.00    -0.200 F 
ATOM     91  F   UNL A   1      47.863  26.692  37.062  1.00  0.00    -0.200 F 
ENDBRANCH  58  81
ENDBRANCH  32  33
ENDBRANCH  25  27
ENDBRANCH  24  25
ENDBRANCH  23  24
ENDBRANCH   1  23
TORSDOF 14
ENDMDL
MODEL 2
REMARK VINA RESULT:     -12.0      1.108      1.986
REMARK SMILES C[C@H]1CN(S(=O)(=O)N2CCO[C@H](CC(=O)OCCOC(=O)c3ccc(-c4c5nc(c(-c6c(F)c(F)c(F)c(F)c6F)c6ccc([nH]6)c(-c6c(F)c(F)c(F)c(F)c6F)c6nc(c(-c7c(F)c(F)c(F)c(F)c7F)c7ccc4[nH]7)C=C6)C=C5)cc3)C2)C[C@H](C)O1
REMARK SMILES IDX 17 1 16 2 14 3 15 4 13 5 12 6 8 7 9 8 85 9 10 10 11 11 5 12
REMARK SMILES IDX 6 13 7 14 4 15 1 16 2 17 3 18 89 19 87 20 86 21 88 22 18 23
REMARK SMILES IDX 19 24 20 25 21 26 22 27 23 28 84 29 24 30 83 31 25 32 26 33
REMARK SMILES IDX 27 34 77 35 28 36 82 37 76 38 78 39 29 40 81 41 75 42 74 43
REMARK SMILES IDX 30 45 62 46 42 47 61 48 43 49 46 50 60 51 79 52 44 53 45 54
REMARK SMILES IDX 59 56 80 57 47 58 31 59 32 60 40 61 33 62 34 63 38 64 41 65
REMARK SMILES IDX 35 66 36 67 39 68 37 69 63 70 64 71 72 72 65 73 66 74 70 75
REMARK SMILES IDX 73 76 67 77 68 78 71 79 69 80 48 81 49 82 57 83 50 84 51 85
REMARK SMILES IDX 55 86 58 87 52 88 53 89 56 90 54 91
REMARK H PARENT 78 44 46 55
REMARK Flexibility Score: inf
ROOT
ATOM      1  C   UNL A   1      31.522  29.323  24.416  1.00  0.00     0.274 C 
ENDROOT
BRANCH   1   2
ATOM      2  O   UNL A   1      30.144  28.975  24.206  1.00  0.00    -0.462 OA
BRANCH   2   3
ATOM      3  C   UNL A   1      29.898  28.103  23.196  1.00  0.00     0.308 C 
ATOM      4  O   UNL A   1      30.024  28.329  21.999  1.00  0.00    -0.252 OA
BRANCH   3   5
ATOM      5  C   UNL A   1      29.418  26.793  23.741  1.00  0.00     0.156 C 
BRANCH   5   6
ATOM      6  C   UNL A   1      30.512  25.729  23.877  1.00  0.00     0.144 C 
ATOM      7  N   UNL A   1      31.968  24.615  25.521  1.00  0.00    -0.184 NA
ATOM      8  C   UNL A   1      33.123  24.755  24.610  1.00  0.00     0.132 C 
ATOM      9  C   UNL A   1      30.952  25.660  25.346  1.00  0.00     0.136 C 
ATOM     10  C   UNL A   1      32.624  24.902  23.168  1.00  0.00     0.177 C 
ATOM     11  O   UNL A   1      31.662  25.970  23.050  1.00  0.00    -0.375 OA
BRANCH   7  12
ATOM     12  S   UNL A   1      31.637  23.178  26.277  1.00  0.00     0.282 S 
ATOM     13  O   UNL A   1      30.298  22.765  25.950  1.00  0.00    -0.195 OA
ATOM     14  O   UNL A   1      32.075  23.329  27.649  1.00  0.00    -0.195 OA
BRANCH  12  15
ATOM     15  N   UNL A   1      32.729  22.127  25.501  1.00  0.00    -0.184 NA
ATOM     16  C   UNL A   1      32.625  18.769  23.657  1.00  0.00     0.040 C 
ATOM     17  C   UNL A   1      33.185  20.084  24.181  1.00  0.00     0.130 C 
ATOM     18  C   UNL A   1      32.128  20.848  24.996  1.00  0.00     0.135 C 
ATOM     19  O   UNL A   1      34.314  19.750  25.001  1.00  0.00    -0.373 OA
ATOM     20  C   UNL A   1      34.920  20.890  25.628  1.00  0.00     0.130 C 
ATOM     21  C   UNL A   1      33.903  21.774  26.376  1.00  0.00     0.135 C 
ATOM     22  C   UNL A   1      35.770  21.667  24.628  1.00  0.00     0.040 C 
ENDBRANCH  12  15
ENDBRANCH   7  12
ENDBRANCH   5   6
ENDBRANCH   3   5
ENDBRANCH   2   3
ENDBRANCH   1   2
BRANCH   1  23
ATOM     23  C   UNL A   1      31.670  30.164  25.686  1.00  0.00     0.275 C 
BRANCH  23  24
ATOM     24  O   UNL A   1      33.066  30.379  25.965  1.00  0.00    -0.458 OA
BRANCH  24  25
ATOM     25  C   UNL A   1      33.332  31.236  26.974  1.00  0.00     0.338 C 
ATOM     26  O   UNL A   1      32.684  32.215  27.305  1.00  0.00    -0.246 OA
BRANCH  25  27
ATOM     27  C   UNL A   1      34.616  30.872  27.608  1.00  0.00     0.060 A 
ATOM     28  C   UNL A   1      34.930  29.552  27.938  1.00  0.00     0.016 A 
ATOM     29  C   UNL A   1      35.500  31.903  27.938  1.00  0.00     0.016 A 
ATOM     30  C   UNL A   1      36.108  29.274  28.644  1.00  0.00     0.010 A 
ATOM     31  C   UNL A   1      36.697  31.615  28.597  1.00  0.00     0.010 A 
ATOM     32  C   UNL A   1      37.001  30.302  28.994  1.00  0.00    -0.014 A 
BRANCH  32  33
ATOM     33  C   UNL A   1      38.228  30.039  29.806  1.00  0.00     0.031 A 
ATOM     34  C   UNL A   1      39.309  29.126  29.276  1.00  0.00     0.074 A 
ATOM     35  C   UNL A   1      38.374  30.581  31.031  1.00  0.00     0.049 A 
ATOM     36  N   UNL A   1      40.360  28.635  29.888  1.00  0.00    -0.248 NA
ATOM     37  C   UNL A   1      39.186  28.701  27.873  1.00  0.00     0.031 C 
ATOM     38  C   UNL A   1      37.431  31.499  31.668  1.00  0.00     0.029 A 
ATOM     39  N   UNL A   1      39.369  30.422  31.969  1.00  0.00    -0.354 N 
ATOM     40  C   UNL A   1      40.998  27.820  28.959  1.00  0.00     0.074 A 
ATOM     41  C   UNL A   1      40.211  27.872  27.745  1.00  0.00     0.031 C 
ATOM     42  C   UNL A   1      37.894  31.832  32.882  1.00  0.00     0.029 A 
ATOM     43  C   UNL A   1      39.129  31.096  33.142  1.00  0.00     0.049 A 
ATOM     44  H   UNL A   1      40.174  29.879  31.813  1.00  0.00     0.167 HD
ATOM     45  C   UNL A   1      42.136  27.095  29.102  1.00  0.00     0.037 A 
ATOM     46  C   UNL A   1      39.800  31.094  34.311  1.00  0.00     0.037 A 
ATOM     47  C   UNL A   1      42.942  27.065  30.296  1.00  0.00     0.049 A 
ATOM     48  C   UNL A   1      41.034  30.248  34.462  1.00  0.00     0.074 A 
ATOM     49  C   UNL A   1      44.127  26.385  30.520  1.00  0.00     0.029 A 
ATOM     50  N   UNL A   1      42.650  27.750  31.465  1.00  0.00    -0.354 N 
ATOM     51  N   UNL A   1      41.614  29.468  33.584  1.00  0.00    -0.248 NA
ATOM     52  C   UNL A   1      41.699  30.272  35.773  1.00  0.00     0.031 C 
ATOM     53  C   UNL A   1      44.528  26.621  31.839  1.00  0.00     0.029 A 
ATOM     54  C   UNL A   1      43.620  27.490  32.421  1.00  0.00     0.049 A 
ATOM     55  H   UNL A   1      41.869  28.334  31.598  1.00  0.00     0.167 HD
ATOM     56  C   UNL A   1      42.718  28.923  34.228  1.00  0.00     0.074 A 
ATOM     57  C   UNL A   1      42.737  29.475  35.565  1.00  0.00     0.031 C 
ATOM     58  C   UNL A   1      43.631  28.042  33.750  1.00  0.00     0.037 A 
BRANCH  45  59
ATOM     59  C   UNL A   1      42.574  26.245  27.944  1.00  0.00     0.064 A 
ATOM     60  C   UNL A   1      42.040  24.967  27.718  1.00  0.00     0.173 A 
ATOM     61  C   UNL A   1      43.497  26.743  27.012  1.00  0.00     0.173 A 
ATOM     62  F   UNL A   1      41.159  24.441  28.582  1.00  0.00    -0.203 F 
ATOM     63  C   UNL A   1      42.431  24.213  26.613  1.00  0.00     0.198 A 
ATOM     64  C   UNL A   1      43.864  25.998  25.894  1.00  0.00     0.198 A 
ATOM     65  F   UNL A   1      44.032  27.963  27.176  1.00  0.00    -0.203 F 
ATOM     66  F   UNL A   1      41.935  22.980  26.437  1.00  0.00    -0.200 F 
ATOM     67  C   UNL A   1      43.335  24.732  25.699  1.00  0.00     0.200 A 
ATOM     68  F   UNL A   1      44.727  26.508  25.004  1.00  0.00    -0.200 F 
ATOM     69  F   UNL A   1      43.700  24.010  24.630  1.00  0.00    -0.200 F 
ENDBRANCH  45  59
BRANCH  46  70
ATOM     70  C   UNL A   1      39.293  31.906  35.449  1.00  0.00     0.064 A 
ATOM     71  C   UNL A   1      39.672  33.246  35.605  1.00  0.00     0.173 A 
ATOM     72  C   UNL A   1      38.412  31.361  36.396  1.00  0.00     0.173 A 
ATOM     73  F   UNL A   1      40.536  33.802  34.744  1.00  0.00    -0.203 F 
ATOM     74  C   UNL A   1      39.192  34.009  36.667  1.00  0.00     0.198 A 
ATOM     75  C   UNL A   1      37.909  32.134  37.439  1.00  0.00     0.198 A 
ATOM     76  F   UNL A   1      38.023  30.082  36.294  1.00  0.00    -0.203 F 
ATOM     77  F   UNL A   1      39.599  35.277  36.815  1.00  0.00    -0.200 F 
ATOM     78  C   UNL A   1      38.303  33.456  37.577  1.00  0.00     0.200 A 
ATOM     79  F   UNL A   1      37.041  31.600  38.308  1.00  0.00    -0.200 F 
ATOM     80  F   UNL A   1      37.831  34.196  38.590  1.00  0.00    -0.200 F 
ENDBRANCH  46  70
BRANCH  58  81
ATOM     81  C   UNL A   1      44.745  27.640  34.673  1.00  0.00     0.064 A 
ATOM     82  C   UNL A   1      45.933  28.382  34.757  1.00  0.00     0.173 A 
ATOM     83  C   UNL A   1      44.610  26.517  35.504  1.00  0.00     0.173 A 
ATOM     84  F   UNL A   1      46.115  29.455  33.972  1.00  0.00    -0.203 F 
ATOM     85  C   UNL A   1      46.955  27.998  35.620  1.00  0.00     0.198 A 
ATOM     86  C   UNL A   1      45.624  26.152  36.384  1.00  0.00     0.198 A 
ATOM     87  F   UNL A   1      43.492  25.778  35.466  1.00  0.00    -0.203 F 
ATOM     88  F   UNL A   1      48.101  28.694  35.650  1.00  0.00    -0.200 F 
ATOM     89  C   UNL A   1      46.799  26.888  36.437  1.00  0.00     0.200 A 
ATOM     90  F   UNL A   1      45.467  25.086  37.180  1.00  0.00    -0.200 F 
ATOM     91  F   UNL A   1      47.784  26.521  37.268  1.00  0.00    -0.200 F 
ENDBRANCH  58  81
ENDBRANCH  32  33
ENDBRANCH  25  27
ENDBRANCH  24  25
ENDBRANCH  23  24
ENDBRANCH   1  23
TORSDOF 14
ENDMDL
MODEL 3
REMARK VINA RESULT:     -11.9      0.960      2.072
REMARK SMILES C[C@H]1CN(S(=O)(=O)N2CCO[C@H](CC(=O)OCCOC(=O)c3ccc(-c4c5nc(c(-c6c(F)c(F)c(F)c(F)c6F)c6ccc([nH]6)c(-c6c(F)c(F)c(F)c(F)c6F)c6nc(c(-c7c(F)c(F)c(F)c(F)c7F)c7ccc4[nH]7)C=C6)C=C5)cc3)C2)C[C@H](C)O1
REMARK SMILES IDX 17 1 16 2 14 3 15 4 13 5 12 6 8 7 9 8 85 9 10 10 11 11 5 12
REMARK SMILES IDX 6 13 7 14 4 15 1 16 2 17 3 18 89 19 87 20 86 21 88 22 18 23
REMARK SMILES IDX 19 24 20 25 21 26 22 27 23 28 84 29 24 30 83 31 25 32 26 33
REMARK SMILES IDX 27 34 77 35 28 36 82 37 76 38 78 39 29 40 81 41 75 42 74 43
REMARK SMILES IDX 30 45 62 46 42 47 61 48 43 49 46 50 60 51 79 52 44 53 45 54
REMARK SMILES IDX 59 56 80 57 47 58 31 59 32 60 40 61 33 62 34 63 38 64 41 65
REMARK SMILES IDX 35 66 36 67 39 68 37 69 63 70 64 71 72 72 65 73 66 74 70 75
REMARK SMILES IDX 73 76 67 77 68 78 71 79 69 80 48 81 49 82 57 83 50 84 51 85
REMARK SMILES IDX 55 86 58 87 52 88 53 89 56 90 54 91
REMARK H PARENT 78 44 46 55
REMARK Flexibility Score: inf
ROOT
ATOM      1  C   UNL A   1      31.114  29.001  25.068  1.00  0.00     0.274 C 
ENDROOT
BRANCH   1   2
ATOM      2  O   UNL A   1      31.927  28.039  25.759  1.00  0.00    -0.462 OA
BRANCH   2   3
ATOM      3  C   UNL A   1      31.378  27.483  26.868  1.00  0.00     0.308 C 
ATOM      4  O   UNL A   1      31.350  27.979  27.987  1.00  0.00    -0.252 OA
BRANCH   3   5
ATOM      5  C   UNL A   1      30.811  26.134  26.551  1.00  0.00     0.156 C 
BRANCH   5   6
ATOM      6  C   UNL A   1      31.864  25.057  26.275  1.00  0.00     0.144 C 
ATOM      7  N   UNL A   1      32.761  23.602  24.502  1.00  0.00    -0.184 NA
ATOM      8  C   UNL A   1      32.772  22.455  25.433  1.00  0.00     0.132 C 
ATOM      9  C   UNL A   1      31.733  24.602  24.815  1.00  0.00     0.136 C 
ATOM     10  C   UNL A   1      32.822  22.966  26.877  1.00  0.00     0.177 C 
ATOM     11  O   UNL A   1      31.764  23.911  27.137  1.00  0.00    -0.375 OA
BRANCH   7  12
ATOM     12  S   UNL A   1      34.070  23.948  23.547  1.00  0.00     0.282 S 
ATOM     13  O   UNL A   1      34.299  25.369  23.550  1.00  0.00    -0.195 OA
ATOM     14  O   UNL A   1      33.885  23.208  22.316  1.00  0.00    -0.195 OA
BRANCH  12  15
ATOM     15  N   UNL A   1      35.330  23.198  24.413  1.00  0.00    -0.184 NA
ATOM     16  C   UNL A   1      38.170  24.229  26.770  1.00  0.00     0.040 C 
ATOM     17  C   UNL A   1      37.216  23.319  26.011  1.00  0.00     0.130 C 
ATOM     18  C   UNL A   1      36.239  24.138  25.150  1.00  0.00     0.135 C 
ATOM     19  O   UNL A   1      38.027  22.468  25.189  1.00  0.00    -0.373 OA
ATOM     20  C   UNL A   1      37.264  21.586  24.354  1.00  0.00     0.130 C 
ATOM     21  C   UNL A   1      36.182  22.319  23.537  1.00  0.00     0.135 C 
ATOM     22  C   UNL A   1      36.715  20.417  25.165  1.00  0.00     0.040 C 
ENDBRANCH  12  15
ENDBRANCH   7  12
ENDBRANCH   5   6
ENDBRANCH   3   5
ENDBRANCH   2   3
ENDBRANCH   1   2
BRANCH   1  23
ATOM     23  C   UNL A   1      31.487  30.420  25.502  1.00  0.00     0.275 C 
BRANCH  23  24
ATOM     24  O   UNL A   1      32.861  30.450  25.931  1.00  0.00    -0.458 OA
BRANCH  24  25
ATOM     25  C   UNL A   1      33.140  31.318  26.927  1.00  0.00     0.338 C 
ATOM     26  O   UNL A   1      32.487  32.291  27.266  1.00  0.00    -0.246 OA
BRANCH  25  27
ATOM     27  C   UNL A   1      34.444  30.978  27.531  1.00  0.00     0.060 A 
ATOM     28  C   UNL A   1      34.829  29.656  27.764  1.00  0.00     0.016 A 
ATOM     29  C   UNL A   1      35.274  32.027  27.934  1.00  0.00     0.016 A 
ATOM     30  C   UNL A   1      36.023  29.390  28.447  1.00  0.00     0.010 A 
ATOM     31  C   UNL A   1      36.489  31.755  28.569  1.00  0.00     0.010 A 
ATOM     32  C   UNL A   1      36.863  30.435  28.870  1.00  0.00    -0.014 A 
BRANCH  32  33
ATOM     33  C   UNL A   1      38.106  30.179  29.659  1.00  0.00     0.031 A 
ATOM     34  C   UNL A   1      39.181  29.270  29.110  1.00  0.00     0.074 A 
ATOM     35  C   UNL A   1      38.272  30.723  30.880  1.00  0.00     0.049 A 
ATOM     36  N   UNL A   1      40.245  28.784  29.703  1.00  0.00    -0.248 NA
ATOM     37  C   UNL A   1      39.033  28.842  27.711  1.00  0.00     0.031 C 
ATOM     38  C   UNL A   1      37.337  31.638  31.533  1.00  0.00     0.029 A 
ATOM     39  N   UNL A   1      39.284  30.571  31.799  1.00  0.00    -0.354 N 
ATOM     40  C   UNL A   1      40.870  27.971  28.763  1.00  0.00     0.074 A 
ATOM     41  C   UNL A   1      40.060  28.017  27.564  1.00  0.00     0.031 C 
ATOM     42  C   UNL A   1      37.821  31.974  32.738  1.00  0.00     0.029 A 
ATOM     43  C   UNL A   1      39.064  31.245  32.976  1.00  0.00     0.049 A 
ATOM     44  H   UNL A   1      40.090  30.030  31.630  1.00  0.00     0.167 HD
ATOM     45  C   UNL A   1      42.013  27.251  28.887  1.00  0.00     0.037 A 
ATOM     46  C   UNL A   1      39.756  31.248  34.132  1.00  0.00     0.037 A 
ATOM     47  C   UNL A   1      42.842  27.227  30.065  1.00  0.00     0.049 A 
ATOM     48  C   UNL A   1      40.996  30.407  34.262  1.00  0.00     0.074 A 
ATOM     49  C   UNL A   1      44.034  26.552  30.269  1.00  0.00     0.029 A 
ATOM     50  N   UNL A   1      42.568  27.913  31.238  1.00  0.00    -0.354 N 
ATOM     51  N   UNL A   1      41.564  29.628  33.374  1.00  0.00    -0.248 NA
ATOM     52  C   UNL A   1      41.686  30.437  35.560  1.00  0.00     0.031 C 
ATOM     53  C   UNL A   1      44.458  26.792  31.580  1.00  0.00     0.029 A 
ATOM     54  C   UNL A   1      43.557  27.658  32.177  1.00  0.00     0.049 A 
ATOM     55  H   UNL A   1      41.787  28.493  31.385  1.00  0.00     0.167 HD
ATOM     56  C   UNL A   1      42.682  29.089  33.998  1.00  0.00     0.074 A 
ATOM     57  C   UNL A   1      42.723  29.644  35.334  1.00  0.00     0.031 C 
ATOM     58  C   UNL A   1      43.590  28.211  33.505  1.00  0.00     0.037 A 
BRANCH  45  59
ATOM     59  C   UNL A   1      42.434  26.401  27.722  1.00  0.00     0.064 A 
ATOM     60  C   UNL A   1      43.374  26.845  26.781  1.00  0.00     0.173 A 
ATOM     61  C   UNL A   1      41.933  25.097  27.582  1.00  0.00     0.173 A 
ATOM     62  F   UNL A   1      43.879  28.085  26.864  1.00  0.00    -0.203 F 
ATOM     63  C   UNL A   1      43.781  26.023  25.732  1.00  0.00     0.198 A 
ATOM     64  C   UNL A   1      42.363  24.268  26.550  1.00  0.00     0.198 A 
ATOM     65  F   UNL A   1      41.039  24.619  28.461  1.00  0.00    -0.203 F 
ATOM     66  F   UNL A   1      44.653  26.482  24.822  1.00  0.00    -0.200 F 
ATOM     67  C   UNL A   1      43.282  24.734  25.622  1.00  0.00     0.200 A 
ATOM     68  F   UNL A   1      41.890  23.018  26.454  1.00  0.00    -0.200 F 
ATOM     69  F   UNL A   1      43.684  23.941  24.619  1.00  0.00    -0.200 F 
ENDBRANCH  45  59
BRANCH  46  70
ATOM     70  C   UNL A   1      39.267  32.059  35.278  1.00  0.00     0.064 A 
ATOM     71  C   UNL A   1      38.480  31.484  36.285  1.00  0.00     0.173 A 
ATOM     72  C   UNL A   1      39.585  33.420  35.395  1.00  0.00     0.173 A 
ATOM     73  F   UNL A   1      38.124  30.194  36.202  1.00  0.00    -0.203 F 
ATOM     74  C   UNL A   1      38.028  32.241  37.364  1.00  0.00     0.198 A 
ATOM     75  C   UNL A   1      39.158  34.169  36.489  1.00  0.00     0.198 A 
ATOM     76  F   UNL A   1      40.331  34.019  34.455  1.00  0.00    -0.203 F 
ATOM     77  F   UNL A   1      37.246  31.677  38.294  1.00  0.00    -0.200 F 
ATOM     78  C   UNL A   1      38.375  33.580  37.470  1.00  0.00     0.200 A 
ATOM     79  F   UNL A   1      39.507  35.458  36.594  1.00  0.00    -0.200 F 
ATOM     80  F   UNL A   1      37.951  34.304  38.515  1.00  0.00    -0.200 F 
ENDBRANCH  46  70
BRANCH  58  81
ATOM     81  C   UNL A   1      44.723  27.817  34.407  1.00  0.00     0.064 A 
ATOM     82  C   UNL A   1      44.639  26.694  35.244  1.00  0.00     0.173 A 
ATOM     83  C   UNL A   1      45.917  28.553  34.411  1.00  0.00     0.173 A 
ATOM     84  F   UNL A   1      43.512  25.967  35.286  1.00  0.00    -0.203 F 
ATOM     85  C   UNL A   1      45.700  26.340  36.072  1.00  0.00     0.198 A 
ATOM     86  C   UNL A   1      46.986  28.180  35.222  1.00  0.00     0.198 A 
ATOM     87  F   UNL A   1      46.051  29.631  33.625  1.00  0.00    -0.203 F 
ATOM     88  F   UNL A   1      45.580  25.291  36.900  1.00  0.00    -0.200 F 
ATOM     89  C   UNL A   1      46.874  27.078  36.057  1.00  0.00     0.200 A 
ATOM     90  F   UNL A   1      48.123  28.888  35.199  1.00  0.00    -0.200 F 
ATOM     91  F   UNL A   1      47.894  26.734  36.855  1.00  0.00    -0.200 F 
ENDBRANCH  58  81
ENDBRANCH  32  33
ENDBRANCH  25  27
ENDBRANCH  24  25
ENDBRANCH  23  24
ENDBRANCH   1  23
TORSDOF 14
ENDMDL
