MODEL 1
REMARK VINA RESULT:     -11.8      0.000      0.000
REMARK SMILES CCn1ccc([C@@H](C)NC(=O)[C@H](C)n2ccc(C(=O)OCCOC(=O)c3ccc(-c4c5nc(c(-c6c(F)c(F)c(F)c(F)c6F)c6ccc([nH]6)c(-c6c(F)c(F)c(F)c(F)c6F)c6nc(c(-c7c(F)c(F)c(F)c(F)c7F)c7ccc4[nH]7)C=C6)C=C5)cc3)n2)n1
REMARK SMILES IDX 20 1 18 2 19 3 17 4 14 5 15 6 89 7 16 8 12 9 13 10 10 11
REMARK SMILES IDX 9 12 11 14 7 15 8 16 6 17 3 18 4 19 90 20 5 21 2 22 1 23
REMARK SMILES IDX 21 24 22 25 23 26 24 27 25 28 26 29 27 30 88 31 28 32 87 33
REMARK SMILES IDX 29 34 30 35 31 36 81 37 32 38 86 39 80 40 82 41 33 42 85 43
REMARK SMILES IDX 79 44 78 45 34 47 66 48 46 49 65 50 47 51 50 52 64 53 83 54
REMARK SMILES IDX 48 55 49 56 63 58 84 59 51 60 35 61 36 62 44 63 37 64 38 65
REMARK SMILES IDX 42 66 45 67 39 68 40 69 43 70 41 71 67 72 68 73 76 74 69 75
REMARK SMILES IDX 70 76 74 77 77 78 71 79 72 80 75 81 73 82 52 83 53 84 61 85
REMARK SMILES IDX 54 86 55 87 59 88 62 89 56 90 57 91 60 92 58 93
REMARK H PARENT 9 13 82 46 50 57
REMARK Flexibility Score: inf
ROOT
ATOM      1  O   UNL A   1      40.448  21.440  25.764  1.00  0.00    -0.457 OA
ENDROOT
BRANCH   1   2
ATOM      2  C   UNL A   1      39.123  21.088  25.622  1.00  0.00     0.358 C 
ATOM      3  O   UNL A   1      38.747  19.944  25.367  1.00  0.00    -0.244 OA
BRANCH   2   4
ATOM      4  C   UNL A   1      38.199  22.206  25.878  1.00  0.00     0.170 A 
ATOM      5  N   UNL A   1      36.322  23.218  25.798  1.00  0.00    -0.260 N 
ATOM      6  C   UNL A   1      37.218  24.184  26.183  1.00  0.00     0.110 A 
ATOM      7  N   UNL A   1      36.877  22.018  25.821  1.00  0.00    -0.165 NA
ATOM      8  C   UNL A   1      38.452  23.557  26.228  1.00  0.00     0.057 A 
BRANCH   5   9
ATOM      9  C   UNL A   1      34.935  23.401  25.359  1.00  0.00     0.193 C 
ATOM     10  C   UNL A   1      34.460  24.853  25.493  1.00  0.00     0.044 C 
BRANCH   9  11
ATOM     11  C   UNL A   1      34.508  22.843  23.989  1.00  0.00     0.245 C 
ATOM     12  N   UNL A   1      33.867  21.654  23.773  1.00  0.00    -0.346 N 
ATOM     13  H   UNL A   1      34.088  21.211  22.922  1.00  0.00     0.164 HD
ATOM     14  O   UNL A   1      34.958  23.391  22.968  1.00  0.00    -0.273 OA
BRANCH  12  15
ATOM     15  C   UNL A   1      32.907  20.942  24.611  1.00  0.00     0.130 C 
ATOM     16  C   UNL A   1      33.313  20.942  26.082  1.00  0.00     0.038 C 
BRANCH  15  17
ATOM     17  C   UNL A   1      32.679  19.555  24.002  1.00  0.00     0.084 A 
ATOM     18  N   UNL A   1      33.177  17.499  23.711  1.00  0.00    -0.273 N 
ATOM     19  C   UNL A   1      32.456  17.838  22.597  1.00  0.00     0.109 A 
ATOM     20  N   UNL A   1      33.097  18.453  24.651  1.00  0.00    -0.176 NA
ATOM     21  C   UNL A   1      32.121  19.173  22.755  1.00  0.00     0.047 A 
BRANCH  18  22
ATOM     22  C   UNL A   1      34.254  16.528  23.833  1.00  0.00     0.141 C 
ATOM     23  C   UNL A   1      34.622  16.020  25.212  1.00  0.00     0.029 C 
ENDBRANCH  18  22
ENDBRANCH  15  17
ENDBRANCH  12  15
ENDBRANCH   9  11
ENDBRANCH   5   9
ENDBRANCH   2   4
ENDBRANCH   1   2
BRANCH   1  24
ATOM     24  C   UNL A   1      41.280  20.813  26.769  1.00  0.00     0.275 C 
BRANCH  24  25
ATOM     25  C   UNL A   1      42.380  19.924  26.225  1.00  0.00     0.275 C 
BRANCH  25  26
ATOM     26  O   UNL A   1      42.956  20.585  25.122  1.00  0.00    -0.458 OA
BRANCH  26  27
ATOM     27  C   UNL A   1      44.295  20.406  25.055  1.00  0.00     0.338 C 
ATOM     28  O   UNL A   1      44.916  19.393  25.322  1.00  0.00    -0.246 OA
BRANCH  27  29
ATOM     29  C   UNL A   1      44.921  21.689  24.682  1.00  0.00     0.060 A 
ATOM     30  C   UNL A   1      45.866  22.040  25.640  1.00  0.00     0.016 A 
ATOM     31  C   UNL A   1      44.027  22.616  24.130  1.00  0.00     0.016 A 
ATOM     32  C   UNL A   1      45.538  23.108  26.428  1.00  0.00     0.010 A 
ATOM     33  C   UNL A   1      43.679  23.669  24.926  1.00  0.00     0.010 A 
ATOM     34  C   UNL A   1      44.379  23.835  26.116  1.00  0.00    -0.014 A 
BRANCH  34  35
ATOM     35  C   UNL A   1      44.085  24.973  26.941  1.00  0.00     0.031 A 
ATOM     36  C   UNL A   1      45.147  25.979  26.763  1.00  0.00     0.074 A 
ATOM     37  C   UNL A   1      42.983  25.109  27.690  1.00  0.00     0.049 A 
ATOM     38  N   UNL A   1      46.146  26.181  27.551  1.00  0.00    -0.248 NA
ATOM     39  C   UNL A   1      45.293  26.583  25.426  1.00  0.00     0.031 C 
ATOM     40  C   UNL A   1      41.767  24.301  27.723  1.00  0.00     0.029 A 
ATOM     41  N   UNL A   1      42.712  26.116  28.556  1.00  0.00    -0.354 N 
ATOM     42  C   UNL A   1      46.937  27.107  26.890  1.00  0.00     0.074 A 
ATOM     43  C   UNL A   1      46.520  27.093  25.516  1.00  0.00     0.031 C 
ATOM     44  C   UNL A   1      40.803  24.987  28.386  1.00  0.00     0.029 A 
ATOM     45  C   UNL A   1      41.378  26.206  28.928  1.00  0.00     0.049 A 
ATOM     46  H   UNL A   1      43.403  26.733  28.892  1.00  0.00     0.167 HD
ATOM     47  C   UNL A   1      47.641  28.032  27.592  1.00  0.00     0.037 A 
ATOM     48  C   UNL A   1      40.837  27.293  29.535  1.00  0.00     0.037 A 
ATOM     49  C   UNL A   1      47.742  27.654  28.981  1.00  0.00     0.049 A 
ATOM     50  C   UNL A   1      41.966  28.074  30.126  1.00  0.00     0.074 A 
ATOM     51  C   UNL A   1      48.302  26.581  29.648  1.00  0.00     0.029 A 
ATOM     52  N   UNL A   1      46.841  28.216  29.854  1.00  0.00    -0.354 N 
ATOM     53  N   UNL A   1      42.685  27.651  31.130  1.00  0.00    -0.248 NA
ATOM     54  C   UNL A   1      42.611  29.072  29.281  1.00  0.00     0.031 C 
ATOM     55  C   UNL A   1      47.388  26.278  30.700  1.00  0.00     0.029 A 
ATOM     56  C   UNL A   1      46.361  27.223  30.669  1.00  0.00     0.049 A 
ATOM     57  H   UNL A   1      46.583  29.165  29.887  1.00  0.00     0.167 HD
ATOM     58  C   UNL A   1      43.992  27.984  30.800  1.00  0.00     0.074 A 
ATOM     59  C   UNL A   1      43.878  28.915  29.679  1.00  0.00     0.031 C 
ATOM     60  C   UNL A   1      45.044  27.245  31.262  1.00  0.00     0.037 A 
BRANCH  47  61
ATOM     61  C   UNL A   1      47.849  29.443  27.116  1.00  0.00     0.064 A 
ATOM     62  C   UNL A   1      49.147  29.981  27.162  1.00  0.00     0.173 A 
ATOM     63  C   UNL A   1      46.809  30.376  26.893  1.00  0.00     0.173 A 
ATOM     64  F   UNL A   1      50.206  29.189  27.388  1.00  0.00    -0.203 F 
ATOM     65  C   UNL A   1      49.375  31.355  27.068  1.00  0.00     0.198 A 
ATOM     66  C   UNL A   1      47.047  31.737  26.739  1.00  0.00     0.198 A 
ATOM     67  F   UNL A   1      45.515  30.042  26.932  1.00  0.00    -0.203 F 
ATOM     68  F   UNL A   1      50.612  31.834  27.249  1.00  0.00    -0.200 F 
ATOM     69  C   UNL A   1      48.326  32.232  26.861  1.00  0.00     0.200 A 
ATOM     70  F   UNL A   1      46.011  32.567  26.561  1.00  0.00    -0.200 F 
ATOM     71  F   UNL A   1      48.535  33.553  26.832  1.00  0.00    -0.200 F 
ENDBRANCH  47  61
BRANCH  48  72
ATOM     72  C   UNL A   1      39.499  27.892  29.314  1.00  0.00     0.064 A 
ATOM     73  C   UNL A   1      38.611  28.082  30.385  1.00  0.00     0.173 A 
ATOM     74  C   UNL A   1      39.180  28.552  28.112  1.00  0.00     0.173 A 
ATOM     75  F   UNL A   1      38.865  27.526  31.579  1.00  0.00    -0.203 F 
ATOM     76  C   UNL A   1      37.486  28.907  30.269  1.00  0.00     0.198 A 
ATOM     77  C   UNL A   1      38.056  29.371  27.995  1.00  0.00     0.198 A 
ATOM     78  F   UNL A   1      40.004  28.498  27.056  1.00  0.00    -0.203 F 
ATOM     79  F   UNL A   1      36.696  29.116  31.331  1.00  0.00    -0.200 F 
ATOM     80  C   UNL A   1      37.216  29.560  29.078  1.00  0.00     0.200 A 
ATOM     81  F   UNL A   1      37.828  30.027  26.848  1.00  0.00    -0.200 F 
ATOM     82  F   UNL A   1      36.178  30.401  28.984  1.00  0.00    -0.200 F 
ENDBRANCH  48  72
BRANCH  60  83
ATOM     83  C   UNL A   1      44.765  26.230  32.335  1.00  0.00     0.064 A 
ATOM     84  C   UNL A   1      44.670  26.530  33.707  1.00  0.00     0.173 A 
ATOM     85  C   UNL A   1      44.447  24.924  31.940  1.00  0.00     0.173 A 
ATOM     86  F   UNL A   1      44.853  27.779  34.153  1.00  0.00    -0.203 F 
ATOM     87  C   UNL A   1      44.327  25.551  34.638  1.00  0.00     0.198 A 
ATOM     88  C   UNL A   1      44.065  23.960  32.866  1.00  0.00     0.198 A 
ATOM     89  F   UNL A   1      44.463  24.595  30.638  1.00  0.00    -0.203 F 
ATOM     90  F   UNL A   1      44.262  25.856  35.942  1.00  0.00    -0.200 F 
ATOM     91  C   UNL A   1      44.018  24.268  34.215  1.00  0.00     0.200 A 
ATOM     92  F   UNL A   1      43.717  22.736  32.445  1.00  0.00    -0.200 F 
ATOM     93  F   UNL A   1      43.650  23.336  35.105  1.00  0.00    -0.200 F 
ENDBRANCH  60  83
ENDBRANCH  34  35
ENDBRANCH  27  29
ENDBRANCH  26  27
ENDBRANCH  25  26
ENDBRANCH  24  25
ENDBRANCH   1  24
TORSDOF 16
ENDMDL
MODEL 2
REMARK VINA RESULT:     -11.6      1.772      3.088
REMARK SMILES CCn1ccc([C@@H](C)NC(=O)[C@H](C)n2ccc(C(=O)OCCOC(=O)c3ccc(-c4c5nc(c(-c6c(F)c(F)c(F)c(F)c6F)c6ccc([nH]6)c(-c6c(F)c(F)c(F)c(F)c6F)c6nc(c(-c7c(F)c(F)c(F)c(F)c7F)c7ccc4[nH]7)C=C6)C=C5)cc3)n2)n1
REMARK SMILES IDX 20 1 18 2 19 3 17 4 14 5 15 6 89 7 16 8 12 9 13 10 10 11
REMARK SMILES IDX 9 12 11 14 7 15 8 16 6 17 3 18 4 19 90 20 5 21 2 22 1 23
REMARK SMILES IDX 21 24 22 25 23 26 24 27 25 28 26 29 27 30 88 31 28 32 87 33
REMARK SMILES IDX 29 34 30 35 31 36 81 37 32 38 86 39 80 40 82 41 33 42 85 43
REMARK SMILES IDX 79 44 78 45 34 47 66 48 46 49 65 50 47 51 50 52 64 53 83 54
REMARK SMILES IDX 48 55 49 56 63 58 84 59 51 60 35 61 36 62 44 63 37 64 38 65
REMARK SMILES IDX 42 66 45 67 39 68 40 69 43 70 41 71 67 72 68 73 76 74 69 75
REMARK SMILES IDX 70 76 74 77 77 78 71 79 72 80 75 81 73 82 52 83 53 84 61 85
REMARK SMILES IDX 54 86 55 87 59 88 62 89 56 90 57 91 60 92 58 93
REMARK H PARENT 9 13 82 46 50 57
REMARK Flexibility Score: inf
ROOT
ATOM      1  O   UNL A   1      40.256  21.207  25.807  1.00  0.00    -0.457 OA
ENDROOT
BRANCH   1   2
ATOM      2  C   UNL A   1      38.934  20.894  25.570  1.00  0.00     0.358 C 
ATOM      3  O   UNL A   1      38.541  19.757  25.309  1.00  0.00    -0.244 OA
BRANCH   2   4
ATOM      4  C   UNL A   1      38.031  22.046  25.730  1.00  0.00     0.170 A 
ATOM      5  N   UNL A   1      36.222  23.139  25.434  1.00  0.00    -0.260 N 
ATOM      6  C   UNL A   1      37.101  24.060  25.950  1.00  0.00     0.110 A 
ATOM      7  N   UNL A   1      36.721  21.916  25.502  1.00  0.00    -0.165 NA
ATOM      8  C   UNL A   1      38.292  23.380  26.138  1.00  0.00     0.057 A 
BRANCH   5   9
ATOM      9  C   UNL A   1      34.911  23.389  24.827  1.00  0.00     0.193 C 
ATOM     10  C   UNL A   1      34.357  22.163  24.092  1.00  0.00     0.044 C 
BRANCH   9  11
ATOM     11  C   UNL A   1      33.801  24.019  25.690  1.00  0.00     0.245 C 
ATOM     12  N   UNL A   1      33.274  25.270  25.528  1.00  0.00    -0.346 N 
ATOM     13  H   UNL A   1      32.979  25.708  26.358  1.00  0.00     0.164 HD
ATOM     14  O   UNL A   1      33.492  23.452  26.752  1.00  0.00    -0.273 OA
BRANCH  12  15
ATOM     15  C   UNL A   1      33.082  26.055  24.311  1.00  0.00     0.130 C 
ATOM     16  C   UNL A   1      33.811  27.395  24.367  1.00  0.00     0.038 C 
BRANCH  15  17
ATOM     17  C   UNL A   1      31.578  26.148  24.036  1.00  0.00     0.084 A 
ATOM     18  N   UNL A   1      29.840  27.126  23.271  1.00  0.00    -0.273 N 
ATOM     19  C   UNL A   1      29.363  26.289  24.245  1.00  0.00     0.109 A 
ATOM     20  N   UNL A   1      31.124  26.858  22.987  1.00  0.00    -0.176 NA
ATOM     21  C   UNL A   1      30.471  25.642  24.765  1.00  0.00     0.047 A 
BRANCH  18  22
ATOM     22  C   UNL A   1      29.315  28.415  22.847  1.00  0.00     0.141 C 
ATOM     23  C   UNL A   1      29.894  29.673  23.459  1.00  0.00     0.029 C 
ENDBRANCH  18  22
ENDBRANCH  15  17
ENDBRANCH  12  15
ENDBRANCH   9  11
ENDBRANCH   5   9
ENDBRANCH   2   4
ENDBRANCH   1   2
BRANCH   1  24
ATOM     24  C   UNL A   1      40.956  20.657  26.949  1.00  0.00     0.275 C 
BRANCH  24  25
ATOM     25  C   UNL A   1      42.387  20.240  26.680  1.00  0.00     0.275 C 
BRANCH  25  26
ATOM     26  O   UNL A   1      42.730  20.694  25.391  1.00  0.00    -0.458 OA
BRANCH  26  27
ATOM     27  C   UNL A   1      44.004  20.390  25.058  1.00  0.00     0.338 C 
ATOM     28  O   UNL A   1      44.529  19.290  25.082  1.00  0.00    -0.246 OA
BRANCH  27  29
ATOM     29  C   UNL A   1      44.715  21.641  24.735  1.00  0.00     0.060 A 
ATOM     30  C   UNL A   1      45.623  21.934  25.746  1.00  0.00     0.016 A 
ATOM     31  C   UNL A   1      43.903  22.618  24.145  1.00  0.00     0.016 A 
ATOM     32  C   UNL A   1      45.308  23.011  26.527  1.00  0.00     0.010 A 
ATOM     33  C   UNL A   1      43.567  23.682  24.933  1.00  0.00     0.010 A 
ATOM     34  C   UNL A   1      44.208  23.801  26.161  1.00  0.00    -0.014 A 
BRANCH  34  35
ATOM     35  C   UNL A   1      43.929  24.945  26.981  1.00  0.00     0.031 A 
ATOM     36  C   UNL A   1      44.996  25.943  26.790  1.00  0.00     0.074 A 
ATOM     37  C   UNL A   1      42.834  25.094  27.738  1.00  0.00     0.049 A 
ATOM     38  N   UNL A   1      46.003  26.142  27.569  1.00  0.00    -0.248 NA
ATOM     39  C   UNL A   1      45.137  26.538  25.449  1.00  0.00     0.031 C 
ATOM     40  C   UNL A   1      41.612  24.296  27.785  1.00  0.00     0.029 A 
ATOM     41  N   UNL A   1      42.576  26.108  28.601  1.00  0.00    -0.354 N 
ATOM     42  C   UNL A   1      46.796  27.057  26.898  1.00  0.00     0.074 A 
ATOM     43  C   UNL A   1      46.369  27.039  25.527  1.00  0.00     0.031 C 
ATOM     44  C   UNL A   1      40.658  24.992  28.451  1.00  0.00     0.029 A 
ATOM     45  C   UNL A   1      41.246  26.211  28.982  1.00  0.00     0.049 A 
ATOM     46  H   UNL A   1      43.274  26.721  28.927  1.00  0.00     0.167 HD
ATOM     47  C   UNL A   1      47.512  27.981  27.589  1.00  0.00     0.037 A 
ATOM     48  C   UNL A   1      40.717  27.305  29.586  1.00  0.00     0.037 A 
ATOM     49  C   UNL A   1      47.621  27.610  28.979  1.00  0.00     0.049 A 
ATOM     50  C   UNL A   1      41.857  28.081  30.165  1.00  0.00     0.074 A 
ATOM     51  C   UNL A   1      48.178  26.536  29.648  1.00  0.00     0.029 A 
ATOM     52  N   UNL A   1      46.730  28.183  29.855  1.00  0.00    -0.354 N 
ATOM     53  N   UNL A   1      42.580  27.657  31.166  1.00  0.00    -0.248 NA
ATOM     54  C   UNL A   1      42.503  29.069  29.309  1.00  0.00     0.031 C 
ATOM     55  C   UNL A   1      47.269  26.247  30.709  1.00  0.00     0.029 A 
ATOM     56  C   UNL A   1      46.249  27.199  30.680  1.00  0.00     0.049 A 
ATOM     57  H   UNL A   1      46.480  29.135  29.885  1.00  0.00     0.167 HD
ATOM     58  C   UNL A   1      43.887  27.979  30.824  1.00  0.00     0.074 A 
ATOM     59  C   UNL A   1      43.772  28.904  29.699  1.00  0.00     0.031 C 
ATOM     60  C   UNL A   1      44.937  27.234  31.282  1.00  0.00     0.037 A 
BRANCH  47  61
ATOM     61  C   UNL A   1      47.728  29.388  27.104  1.00  0.00     0.064 A 
ATOM     62  C   UNL A   1      49.027  29.922  27.151  1.00  0.00     0.173 A 
ATOM     63  C   UNL A   1      46.692  30.322  26.869  1.00  0.00     0.173 A 
ATOM     64  F   UNL A   1      50.082  29.127  27.388  1.00  0.00    -0.203 F 
ATOM     65  C   UNL A   1      49.261  31.294  27.048  1.00  0.00     0.198 A 
ATOM     66  C   UNL A   1      46.935  31.682  26.706  1.00  0.00     0.198 A 
ATOM     67  F   UNL A   1      45.397  29.993  26.904  1.00  0.00    -0.203 F 
ATOM     68  F   UNL A   1      50.499  31.770  27.231  1.00  0.00    -0.200 F 
ATOM     69  C   UNL A   1      48.215  32.173  26.830  1.00  0.00     0.200 A 
ATOM     70  F   UNL A   1      45.903  32.514  26.516  1.00  0.00    -0.200 F 
ATOM     71  F   UNL A   1      48.429  33.493  26.792  1.00  0.00    -0.200 F 
ENDBRANCH  47  61
BRANCH  48  72
ATOM     72  C   UNL A   1      39.382  27.912  29.372  1.00  0.00     0.064 A 
ATOM     73  C   UNL A   1      38.509  28.130  30.451  1.00  0.00     0.173 A 
ATOM     74  C   UNL A   1      39.055  28.555  28.163  1.00  0.00     0.173 A 
ATOM     75  F   UNL A   1      38.774  27.591  31.650  1.00  0.00    -0.203 F 
ATOM     76  C   UNL A   1      37.391  28.963  30.334  1.00  0.00     0.198 A 
ATOM     77  C   UNL A   1      37.936  29.382  28.046  1.00  0.00     0.198 A 
ATOM     78  F   UNL A   1      39.865  28.475  27.097  1.00  0.00    -0.203 F 
ATOM     79  F   UNL A   1      36.617  29.197  31.403  1.00  0.00    -0.200 F 
ATOM     80  C   UNL A   1      37.112  29.598  29.135  1.00  0.00     0.200 A 
ATOM     81  F   UNL A   1      37.700  30.021  26.891  1.00  0.00    -0.200 F 
ATOM     82  F   UNL A   1      36.081  30.447  29.040  1.00  0.00    -0.200 F 
ENDBRANCH  48  72
BRANCH  60  83
ATOM     83  C   UNL A   1      44.658  26.228  32.363  1.00  0.00     0.064 A 
ATOM     84  C   UNL A   1      44.556  26.539  33.732  1.00  0.00     0.173 A 
ATOM     85  C   UNL A   1      44.348  24.917  31.978  1.00  0.00     0.173 A 
ATOM     86  F   UNL A   1      44.731  27.794  34.168  1.00  0.00    -0.203 F 
ATOM     87  C   UNL A   1      44.213  25.567  34.671  1.00  0.00     0.198 A 
ATOM     88  C   UNL A   1      43.966  23.959  32.911  1.00  0.00     0.198 A 
ATOM     89  F   UNL A   1      44.371  24.577  30.680  1.00  0.00    -0.203 F 
ATOM     90  F   UNL A   1      44.142  25.884  35.972  1.00  0.00    -0.200 F 
ATOM     91  C   UNL A   1      43.912  24.279  34.258  1.00  0.00     0.200 A 
ATOM     92  F   UNL A   1      43.626  22.730  32.500  1.00  0.00    -0.200 F 
ATOM     93  F   UNL A   1      43.545  23.353  35.154  1.00  0.00    -0.200 F 
ENDBRANCH  60  83
ENDBRANCH  34  35
ENDBRANCH  27  29
ENDBRANCH  26  27
ENDBRANCH  25  26
ENDBRANCH  24  25
ENDBRANCH   1  24
TORSDOF 16
ENDMDL
MODEL 3
REMARK VINA RESULT:     -11.6      3.442      5.532
REMARK SMILES CCn1ccc([C@@H](C)NC(=O)[C@H](C)n2ccc(C(=O)OCCOC(=O)c3ccc(-c4c5nc(c(-c6c(F)c(F)c(F)c(F)c6F)c6ccc([nH]6)c(-c6c(F)c(F)c(F)c(F)c6F)c6nc(c(-c7c(F)c(F)c(F)c(F)c7F)c7ccc4[nH]7)C=C6)C=C5)cc3)n2)n1
REMARK SMILES IDX 20 1 18 2 19 3 17 4 14 5 15 6 89 7 16 8 12 9 13 10 10 11
REMARK SMILES IDX 9 12 11 14 7 15 8 16 6 17 3 18 4 19 90 20 5 21 2 22 1 23
REMARK SMILES IDX 21 24 22 25 23 26 24 27 25 28 26 29 27 30 88 31 28 32 87 33
REMARK SMILES IDX 29 34 30 35 31 36 81 37 32 38 86 39 80 40 82 41 33 42 85 43
REMARK SMILES IDX 79 44 78 45 34 47 66 48 46 49 65 50 47 51 50 52 64 53 83 54
REMARK SMILES IDX 48 55 49 56 63 58 84 59 51 60 35 61 36 62 44 63 37 64 38 65
REMARK SMILES IDX 42 66 45 67 39 68 40 69 43 70 41 71 67 72 68 73 76 74 69 75
REMARK SMILES IDX 70 76 74 77 77 78 71 79 72 80 75 81 73 82 52 83 53 84 61 85
REMARK SMILES IDX 54 86 55 87 59 88 62 89 56 90 57 91 60 92 58 93
REMARK H PARENT 9 13 82 46 50 57
REMARK Flexibility Score: inf
ROOT
ATOM      1  O   UNL A   1      37.181  22.884  25.058  1.00  0.00    -0.457 OA
ENDROOT
BRANCH   1   2
ATOM      2  C   UNL A   1      36.439  23.258  23.957  1.00  0.00     0.358 C 
ATOM      3  O   UNL A   1      36.730  22.943  22.803  1.00  0.00    -0.244 OA
BRANCH   2   4
ATOM      4  C   UNL A   1      35.225  24.012  24.309  1.00  0.00     0.170 A 
ATOM      5  N   UNL A   1      33.509  25.213  23.899  1.00  0.00    -0.260 N 
ATOM      6  C   UNL A   1      33.655  25.276  25.263  1.00  0.00     0.110 A 
ATOM      7  N   UNL A   1      34.315  24.304  23.375  1.00  0.00    -0.165 NA
ATOM      8  C   UNL A   1      34.774  24.515  25.557  1.00  0.00     0.057 A 
BRANCH   5   9
ATOM      9  C   UNL A   1      32.640  26.034  23.049  1.00  0.00     0.193 C 
ATOM     10  C   UNL A   1      32.870  25.784  21.554  1.00  0.00     0.044 C 
BRANCH   9  11
ATOM     11  C   UNL A   1      31.128  26.062  23.341  1.00  0.00     0.245 C 
ATOM     12  N   UNL A   1      30.473  27.008  24.081  1.00  0.00    -0.346 N 
ATOM     13  H   UNL A   1      29.690  26.678  24.578  1.00  0.00     0.164 HD
ATOM     14  O   UNL A   1      30.461  25.047  23.076  1.00  0.00    -0.273 OA
BRANCH  12  15
ATOM     15  C   UNL A   1      30.758  28.430  24.246  1.00  0.00     0.130 C 
ATOM     16  C   UNL A   1      31.599  28.988  23.102  1.00  0.00     0.038 C 
BRANCH  15  17
ATOM     17  C   UNL A   1      31.348  28.639  25.644  1.00  0.00     0.084 A 
ATOM     18  N   UNL A   1      32.749  29.494  27.011  1.00  0.00    -0.273 N 
ATOM     19  C   UNL A   1      32.326  28.346  27.627  1.00  0.00     0.109 A 
ATOM     20  N   UNL A   1      31.984  29.785  25.948  1.00  0.00    -0.176 NA
ATOM     21  C   UNL A   1      31.416  27.765  26.760  1.00  0.00     0.047 A 
BRANCH  18  22
ATOM     22  C   UNL A   1      34.047  30.145  27.100  1.00  0.00     0.141 C 
ATOM     23  C   UNL A   1      35.240  29.329  27.554  1.00  0.00     0.029 C 
ENDBRANCH  18  22
ENDBRANCH  15  17
ENDBRANCH  12  15
ENDBRANCH   9  11
ENDBRANCH   5   9
ENDBRANCH   2   4
ENDBRANCH   1   2
BRANCH   1  24
ATOM     24  C   UNL A   1      37.896  21.626  25.079  1.00  0.00     0.275 C 
BRANCH  24  25
ATOM     25  C   UNL A   1      39.122  21.602  25.968  1.00  0.00     0.275 C 
BRANCH  25  26
ATOM     26  O   UNL A   1      39.277  22.890  26.516  1.00  0.00    -0.458 OA
BRANCH  26  27
ATOM     27  C   UNL A   1      40.414  23.012  27.238  1.00  0.00     0.338 C 
ATOM     28  O   UNL A   1      40.730  22.373  28.226  1.00  0.00    -0.246 OA
BRANCH  27  29
ATOM     29  C   UNL A   1      41.202  24.130  26.686  1.00  0.00     0.060 A 
ATOM     30  C   UNL A   1      42.223  24.459  27.570  1.00  0.00     0.016 A 
ATOM     31  C   UNL A   1      40.430  25.098  26.031  1.00  0.00     0.016 A 
ATOM     32  C   UNL A   1      42.082  25.657  28.214  1.00  0.00     0.010 A 
ATOM     33  C   UNL A   1      40.267  26.286  26.686  1.00  0.00     0.010 A 
ATOM     34  C   UNL A   1      41.028  26.499  27.830  1.00  0.00    -0.014 A 
BRANCH  34  35
ATOM     35  C   UNL A   1      40.932  27.765  28.501  1.00  0.00     0.031 A 
ATOM     36  C   UNL A   1      42.039  28.628  28.054  1.00  0.00     0.074 A 
ATOM     37  C   UNL A   1      39.947  28.111  29.341  1.00  0.00     0.049 A 
ATOM     38  N   UNL A   1      43.143  28.841  28.685  1.00  0.00    -0.248 NA
ATOM     39  C   UNL A   1      42.064  29.021  26.634  1.00  0.00     0.031 C 
ATOM     40  C   UNL A   1      38.685  27.438  29.633  1.00  0.00     0.029 A 
ATOM     41  N   UNL A   1      39.869  29.252  30.070  1.00  0.00    -0.354 N 
ATOM     42  C   UNL A   1      43.916  29.583  27.807  1.00  0.00     0.074 A 
ATOM     43  C   UNL A   1      43.330  29.417  26.507  1.00  0.00     0.031 C 
ATOM     44  C   UNL A   1      37.869  28.301  30.289  1.00  0.00     0.029 A 
ATOM     45  C   UNL A   1      38.604  29.523  30.572  1.00  0.00     0.049 A 
ATOM     46  H   UNL A   1      40.643  29.839  30.228  1.00  0.00     0.167 HD
ATOM     47  C   UNL A   1      44.773  30.525  28.278  1.00  0.00     0.037 A 
ATOM     48  C   UNL A   1      38.231  30.732  31.065  1.00  0.00     0.037 A 
ATOM     49  C   UNL A   1      45.018  30.337  29.687  1.00  0.00     0.049 A 
ATOM     50  C   UNL A   1      39.484  31.474  31.400  1.00  0.00     0.074 A 
ATOM     51  C   UNL A   1      45.570  29.319  30.441  1.00  0.00     0.029 A 
ATOM     52  N   UNL A   1      44.282  31.101  30.561  1.00  0.00    -0.354 N 
ATOM     53  N   UNL A   1      40.288  31.128  32.369  1.00  0.00    -0.248 NA
ATOM     54  C   UNL A   1      40.095  32.276  30.346  1.00  0.00     0.031 C 
ATOM     55  C   UNL A   1      44.775  29.258  31.623  1.00  0.00     0.029 A 
ATOM     56  C   UNL A   1      43.831  30.284  31.566  1.00  0.00     0.049 A 
ATOM     57  H   UNL A   1      44.107  32.066  30.479  1.00  0.00     0.167 HD
ATOM     58  C   UNL A   1      41.565  31.283  31.846  1.00  0.00     0.074 A 
ATOM     59  C   UNL A   1      41.386  32.054  30.618  1.00  0.00     0.031 C 
ATOM     60  C   UNL A   1      42.604  30.517  32.293  1.00  0.00     0.037 A 
BRANCH  47  61
ATOM     61  C   UNL A   1      45.032  31.828  27.574  1.00  0.00     0.064 A 
ATOM     62  C   UNL A   1      46.282  32.023  26.961  1.00  0.00     0.173 A 
ATOM     63  C   UNL A   1      44.235  32.988  27.716  1.00  0.00     0.173 A 
ATOM     64  F   UNL A   1      47.127  30.994  26.794  1.00  0.00    -0.203 F 
ATOM     65  C   UNL A   1      46.728  33.292  26.591  1.00  0.00     0.198 A 
ATOM     66  C   UNL A   1      44.658  34.242  27.290  1.00  0.00     0.198 A 
ATOM     67  F   UNL A   1      43.071  32.992  28.373  1.00  0.00    -0.203 F 
ATOM     68  F   UNL A   1      47.977  33.448  26.133  1.00  0.00    -0.200 F 
ATOM     69  C   UNL A   1      45.919  34.401  26.760  1.00  0.00     0.200 A 
ATOM     70  F   UNL A   1      43.863  35.303  27.484  1.00  0.00    -0.200 F 
ATOM     71  F   UNL A   1      46.367  35.626  26.463  1.00  0.00    -0.200 F 
ENDBRANCH  47  61
BRANCH  48  72
ATOM     72  C   UNL A   1      36.928  31.420  30.908  1.00  0.00     0.064 A 
ATOM     73  C   UNL A   1      36.149  31.749  32.030  1.00  0.00     0.173 A 
ATOM     74  C   UNL A   1      36.560  32.027  29.692  1.00  0.00     0.173 A 
ATOM     75  F   UNL A   1      36.459  31.250  33.235  1.00  0.00    -0.203 F 
ATOM     76  C   UNL A   1      35.083  32.652  31.944  1.00  0.00     0.198 A 
ATOM     77  C   UNL A   1      35.494  32.924  29.607  1.00  0.00     0.198 A 
ATOM     78  F   UNL A   1      37.287  31.840  28.580  1.00  0.00    -0.203 F 
ATOM     79  F   UNL A   1      34.403  32.990  33.048  1.00  0.00    -0.200 F 
ATOM     80  C   UNL A   1      34.765  33.248  30.736  1.00  0.00     0.200 A 
ATOM     81  F   UNL A   1      35.221  33.523  28.438  1.00  0.00    -0.200 F 
ATOM     82  F   UNL A   1      33.788  34.162  30.665  1.00  0.00    -0.200 F 
ENDBRANCH  48  72
BRANCH  60  83
ATOM     83  C   UNL A   1      42.382  29.695  33.532  1.00  0.00     0.064 A 
ATOM     84  C   UNL A   1      41.818  28.406  33.539  1.00  0.00     0.173 A 
ATOM     85  C   UNL A   1      42.888  30.182  34.744  1.00  0.00     0.173 A 
ATOM     86  F   UNL A   1      41.409  27.826  32.403  1.00  0.00    -0.203 F 
ATOM     87  C   UNL A   1      41.717  27.668  34.718  1.00  0.00     0.198 A 
ATOM     88  C   UNL A   1      42.824  29.427  35.910  1.00  0.00     0.198 A 
ATOM     89  F   UNL A   1      43.490  31.380  34.786  1.00  0.00    -0.203 F 
ATOM     90  F   UNL A   1      41.157  26.449  34.703  1.00  0.00    -0.200 F 
ATOM     91  C   UNL A   1      42.227  28.177  35.901  1.00  0.00     0.200 A 
ATOM     92  F   UNL A   1      43.366  29.903  37.040  1.00  0.00    -0.200 F 
ATOM     93  F   UNL A   1      42.167  27.453  37.027  1.00  0.00    -0.200 F 
ENDBRANCH  60  83
ENDBRANCH  34  35
ENDBRANCH  27  29
ENDBRANCH  26  27
ENDBRANCH  25  26
ENDBRANCH  24  25
ENDBRANCH   1  24
TORSDOF 16
ENDMDL
