MODEL 1
REMARK VINA RESULT:     -12.4      0.000      0.000
REMARK SMILES O=C(CC[N@H+]1CCC[C@@H](C(=O)OCCOC(=O)c2ccc(-c3c4nc(c(-c5c(F)c(F)c(F)c(F)c5F)c5ccc([nH]5)c(-c5c(F)c(F)c(F)c(F)c5F)c5nc(c(-c6c(F)c(F)c(F)c(F)c6F)c6ccc3[nH]6)C=C5)C=C4)cc2)C1)Nc1cccc(F)c1
REMARK SMILES IDX 13 1 12 2 10 3 11 4 9 5 5 6 6 7 81 8 7 10 8 11 4 12 3 13
REMARK SMILES IDX 2 14 1 15 82 16 83 18 84 19 89 20 85 21 87 22 86 23 88 24
REMARK SMILES IDX 14 25 15 26 16 27 17 28 18 29 19 30 80 31 20 32 79 33 21 34
REMARK SMILES IDX 22 35 23 36 73 37 24 38 78 39 72 40 74 41 25 42 77 43 71 44
REMARK SMILES IDX 70 45 26 47 58 48 38 49 57 50 39 51 42 52 56 53 75 54 40 55
REMARK SMILES IDX 41 56 55 58 76 59 43 60 27 61 28 62 36 63 29 64 30 65 34 66
REMARK SMILES IDX 37 67 31 68 32 69 35 70 33 71 59 72 60 73 68 74 61 75 62 76
REMARK SMILES IDX 66 77 69 78 63 79 64 80 67 81 65 82 44 83 45 84 53 85 46 86
REMARK SMILES IDX 47 87 51 88 54 89 48 90 49 91 52 92 50 93
REMARK H PARENT 5 9 82 17 74 46 42 57
REMARK Flexibility Score: inf
ROOT
ATOM      1  C   UNL A   1      31.812  30.110  25.975  1.00  0.00     0.274 C 
ENDROOT
BRANCH   1   2
ATOM      2  O   UNL A   1      32.721  29.195  26.626  1.00  0.00    -0.462 OA
BRANCH   2   3
ATOM      3  C   UNL A   1      32.091  28.113  27.144  1.00  0.00     0.314 C 
ATOM      4  O   UNL A   1      31.367  28.184  28.132  1.00  0.00    -0.252 OA
BRANCH   3   5
ATOM      5  C   UNL A   1      32.422  26.788  26.464  1.00  0.00     0.154 C 
ATOM      6  N   UNL A   1      31.316  25.444  24.578  1.00  0.00    -0.334 N 
ATOM      7  C   UNL A   1      32.533  25.616  23.764  1.00  0.00     0.262 C 
ATOM      8  C   UNL A   1      31.219  26.544  25.533  1.00  0.00     0.277 C 
ATOM      9  H   UNL A   1      31.357  24.569  25.102  1.00  0.00     0.348 HD
ATOM     10  C   UNL A   1      33.795  25.674  24.630  1.00  0.00     0.062 C 
ATOM     11  C   UNL A   1      33.753  26.756  25.714  1.00  0.00     0.027 C 
BRANCH   6  12
ATOM     12  C   UNL A   1      30.122  25.386  23.680  1.00  0.00     0.272 C 
BRANCH  12  13
ATOM     13  C   UNL A   1      29.017  26.455  23.867  1.00  0.00     0.161 C 
BRANCH  13  14
ATOM     14  C   UNL A   1      29.283  27.672  22.984  1.00  0.00     0.230 C 
ATOM     15  O   UNL A   1      30.313  27.749  22.317  1.00  0.00    -0.275 OA
ATOM     16  N   UNL A   1      28.290  28.635  23.045  1.00  0.00    -0.326 N 
ATOM     17  H   UNL A   1      27.413  28.345  23.384  1.00  0.00     0.169 HD
BRANCH  16  18
ATOM     18  C   UNL A   1      28.409  29.996  22.671  1.00  0.00     0.044 A 
ATOM     19  C   UNL A   1      28.790  31.010  23.558  1.00  0.00     0.026 A 
ATOM     20  C   UNL A   1      28.028  30.352  21.371  1.00  0.00     0.065 A 
ATOM     21  C   UNL A   1      28.781  32.353  23.163  1.00  0.00     0.005 A 
ATOM     22  C   UNL A   1      28.029  31.692  20.986  1.00  0.00     0.125 A 
ATOM     23  C   UNL A   1      28.399  32.696  21.870  1.00  0.00     0.039 A 
ATOM     24  F   UNL A   1      27.652  32.020  19.743  1.00  0.00    -0.207 F 
ENDBRANCH  16  18
ENDBRANCH  13  14
ENDBRANCH  12  13
ENDBRANCH   6  12
ENDBRANCH   3   5
ENDBRANCH   2   3
ENDBRANCH   1   2
BRANCH   1  25
ATOM     25  C   UNL A   1      31.891  31.550  26.501  1.00  0.00     0.275 C 
BRANCH  25  26
ATOM     26  O   UNL A   1      32.614  31.679  27.742  1.00  0.00    -0.458 OA
BRANCH  26  27
ATOM     27  C   UNL A   1      33.557  32.648  27.740  1.00  0.00     0.338 C 
ATOM     28  O   UNL A   1      33.375  33.849  27.623  1.00  0.00    -0.246 OA
BRANCH  27  29
ATOM     29  C   UNL A   1      34.902  32.105  28.000  1.00  0.00     0.060 A 
ATOM     30  C   UNL A   1      34.997  30.738  28.252  1.00  0.00     0.016 A 
ATOM     31  C   UNL A   1      36.002  32.930  28.227  1.00  0.00     0.016 A 
ATOM     32  C   UNL A   1      36.145  30.192  28.810  1.00  0.00     0.010 A 
ATOM     33  C   UNL A   1      37.181  32.376  28.753  1.00  0.00     0.010 A 
ATOM     34  C   UNL A   1      37.244  31.010  29.090  1.00  0.00    -0.014 A 
BRANCH  34  35
ATOM     35  C   UNL A   1      38.392  30.428  29.832  1.00  0.00     0.031 A 
ATOM     36  C   UNL A   1      38.622  30.800  31.272  1.00  0.00     0.074 A 
ATOM     37  C   UNL A   1      39.163  29.484  29.259  1.00  0.00     0.049 A 
ATOM     38  N   UNL A   1      39.589  30.440  32.080  1.00  0.00    -0.248 NA
ATOM     39  C   UNL A   1      37.624  31.685  31.891  1.00  0.00     0.031 C 
ATOM     40  C   UNL A   1      38.985  28.953  27.908  1.00  0.00     0.029 A 
ATOM     41  N   UNL A   1      40.238  28.787  29.753  1.00  0.00    -0.354 N 
ATOM     42  C   UNL A   1      39.331  31.074  33.287  1.00  0.00     0.074 A 
ATOM     43  C   UNL A   1      38.120  31.847  33.109  1.00  0.00     0.031 C 
ATOM     44  C   UNL A   1      39.909  28.005  27.684  1.00  0.00     0.029 A 
ATOM     45  C   UNL A   1      40.777  27.901  28.853  1.00  0.00     0.049 A 
ATOM     46  H   UNL A   1      40.590  28.911  30.664  1.00  0.00     0.167 HD
ATOM     47  C   UNL A   1      40.039  31.016  34.441  1.00  0.00     0.037 A 
ATOM     48  C   UNL A   1      41.866  27.114  28.950  1.00  0.00     0.037 A 
ATOM     49  C   UNL A   1      41.225  30.224  34.633  1.00  0.00     0.049 A 
ATOM     50  C   UNL A   1      42.677  27.125  30.216  1.00  0.00     0.074 A 
ATOM     51  C   UNL A   1      42.022  30.120  35.760  1.00  0.00     0.029 A 
ATOM     52  N   UNL A   1      41.776  29.388  33.674  1.00  0.00    -0.354 N 
ATOM     53  N   UNL A   1      42.458  27.772  31.334  1.00  0.00    -0.248 NA
ATOM     54  C   UNL A   1      43.897  26.304  30.229  1.00  0.00     0.031 C 
ATOM     55  C   UNL A   1      43.075  29.245  35.473  1.00  0.00     0.029 A 
ATOM     56  C   UNL A   1      42.914  28.777  34.179  1.00  0.00     0.049 A 
ATOM     57  H   UNL A   1      41.415  29.250  32.769  1.00  0.00     0.167 HD
ATOM     58  C   UNL A   1      43.498  27.427  32.186  1.00  0.00     0.074 A 
ATOM     59  C   UNL A   1      44.341  26.498  31.462  1.00  0.00     0.031 C 
ATOM     60  C   UNL A   1      43.736  27.847  33.452  1.00  0.00     0.037 A 
BRANCH  47  61
ATOM     61  C   UNL A   1      39.569  31.865  35.582  1.00  0.00     0.064 A 
ATOM     62  C   UNL A   1      40.022  33.179  35.761  1.00  0.00     0.173 A 
ATOM     63  C   UNL A   1      38.621  31.365  36.488  1.00  0.00     0.173 A 
ATOM     64  F   UNL A   1      40.938  33.697  34.929  1.00  0.00    -0.203 F 
ATOM     65  C   UNL A   1      39.556  33.957  36.818  1.00  0.00     0.198 A 
ATOM     66  C   UNL A   1      38.142  32.152  37.531  1.00  0.00     0.198 A 
ATOM     67  F   UNL A   1      38.155  30.113  36.356  1.00  0.00    -0.203 F 
ATOM     68  F   UNL A   1      40.027  35.200  36.993  1.00  0.00    -0.200 F 
ATOM     69  C   UNL A   1      38.613  33.445  37.698  1.00  0.00     0.200 A 
ATOM     70  F   UNL A   1      37.225  31.658  38.375  1.00  0.00    -0.200 F 
ATOM     71  F   UNL A   1      38.162  34.197  38.712  1.00  0.00    -0.200 F 
ENDBRANCH  47  61
BRANCH  48  72
ATOM     72  C   UNL A   1      42.277  26.275  27.795  1.00  0.00     0.064 A 
ATOM     73  C   UNL A   1      41.709  25.013  27.577  1.00  0.00     0.173 A 
ATOM     74  C   UNL A   1      43.268  26.710  26.902  1.00  0.00     0.173 A 
ATOM     75  F   UNL A   1      40.782  24.540  28.423  1.00  0.00    -0.203 F 
ATOM     76  C   UNL A   1      42.128  24.211  26.517  1.00  0.00     0.198 A 
ATOM     77  C   UNL A   1      43.666  25.919  25.827  1.00  0.00     0.198 A 
ATOM     78  F   UNL A   1      43.850  27.906  27.075  1.00  0.00    -0.203 F 
ATOM     79  F   UNL A   1      41.604  22.988  26.358  1.00  0.00    -0.200 F 
ATOM     80  C   UNL A   1      43.101  24.667  25.640  1.00  0.00     0.200 A 
ATOM     81  F   UNL A   1      44.604  26.364  24.981  1.00  0.00    -0.200 F 
ATOM     82  F   UNL A   1      43.505  23.893  24.624  1.00  0.00    -0.200 F 
ENDBRANCH  48  72
BRANCH  60  83
ATOM     83  C   UNL A   1      44.941  27.288  34.146  1.00  0.00     0.064 A 
ATOM     84  C   UNL A   1      44.877  26.089  34.870  1.00  0.00     0.173 A 
ATOM     85  C   UNL A   1      46.181  27.936  34.051  1.00  0.00     0.173 A 
ATOM     86  F   UNL A   1      43.710  25.442  35.002  1.00  0.00    -0.203 F 
ATOM     87  C   UNL A   1      46.010  25.566  35.487  1.00  0.00     0.198 A 
ATOM     88  C   UNL A   1      47.317  27.399  34.650  1.00  0.00     0.198 A 
ATOM     89  F   UNL A   1      46.293  29.083  33.366  1.00  0.00    -0.203 F 
ATOM     90  F   UNL A   1      45.920  24.437  36.203  1.00  0.00    -0.200 F 
ATOM     91  C   UNL A   1      47.230  26.217  35.372  1.00  0.00     0.200 A 
ATOM     92  F   UNL A   1      48.496  28.025  34.530  1.00  0.00    -0.200 F 
ATOM     93  F   UNL A   1      48.320  25.709  35.961  1.00  0.00    -0.200 F 
ENDBRANCH  60  83
ENDBRANCH  34  35
ENDBRANCH  27  29
ENDBRANCH  26  27
ENDBRANCH  25  26
ENDBRANCH   1  25
TORSDOF 15
ENDMDL
MODEL 2
REMARK VINA RESULT:     -12.3      2.598      4.443
REMARK SMILES O=C(CC[N@H+]1CCC[C@@H](C(=O)OCCOC(=O)c2ccc(-c3c4nc(c(-c5c(F)c(F)c(F)c(F)c5F)c5ccc([nH]5)c(-c5c(F)c(F)c(F)c(F)c5F)c5nc(c(-c6c(F)c(F)c(F)c(F)c6F)c6ccc3[nH]6)C=C5)C=C4)cc2)C1)Nc1cccc(F)c1
REMARK SMILES IDX 13 1 12 2 10 3 11 4 9 5 5 6 6 7 81 8 7 10 8 11 4 12 3 13
REMARK SMILES IDX 2 14 1 15 82 16 83 18 84 19 89 20 85 21 87 22 86 23 88 24
REMARK SMILES IDX 14 25 15 26 16 27 17 28 18 29 19 30 80 31 20 32 79 33 21 34
REMARK SMILES IDX 22 35 23 36 73 37 24 38 78 39 72 40 74 41 25 42 77 43 71 44
REMARK SMILES IDX 70 45 26 47 58 48 38 49 57 50 39 51 42 52 56 53 75 54 40 55
REMARK SMILES IDX 41 56 55 58 76 59 43 60 27 61 28 62 36 63 29 64 30 65 34 66
REMARK SMILES IDX 37 67 31 68 32 69 35 70 33 71 59 72 60 73 68 74 61 75 62 76
REMARK SMILES IDX 66 77 69 78 63 79 64 80 67 81 65 82 44 83 45 84 53 85 46 86
REMARK SMILES IDX 47 87 51 88 54 89 48 90 49 91 52 92 50 93
REMARK H PARENT 5 9 82 17 74 46 42 57
REMARK Flexibility Score: inf
ROOT
ATOM      1  C   UNL A   1      33.762  35.228  28.302  1.00  0.00     0.274 C 
ENDROOT
BRANCH   1   2
ATOM      2  O   UNL A   1      33.557  33.798  28.297  1.00  0.00    -0.462 OA
BRANCH   2   3
ATOM      3  C   UNL A   1      34.696  33.108  28.043  1.00  0.00     0.314 C 
ATOM      4  O   UNL A   1      35.694  33.638  27.564  1.00  0.00    -0.252 OA
BRANCH   3   5
ATOM      5  C   UNL A   1      34.615  31.608  28.311  1.00  0.00     0.154 C 
ATOM      6  N   UNL A   1      33.098  29.735  27.429  1.00  0.00    -0.334 N 
ATOM      7  C   UNL A   1      34.279  29.079  26.838  1.00  0.00     0.262 C 
ATOM      8  C   UNL A   1      33.353  31.168  27.544  1.00  0.00     0.277 C 
ATOM      9  H   UNL A   1      32.914  29.368  28.364  1.00  0.00     0.348 HD
ATOM     10  C   UNL A   1      35.541  29.323  27.670  1.00  0.00     0.062 C 
ATOM     11  C   UNL A   1      35.850  30.806  27.906  1.00  0.00     0.027 C 
BRANCH   6  12
ATOM     12  C   UNL A   1      31.898  29.454  26.582  1.00  0.00     0.272 C 
BRANCH  12  13
ATOM     13  C   UNL A   1      32.047  28.443  25.418  1.00  0.00     0.161 C 
BRANCH  13  14
ATOM     14  C   UNL A   1      31.477  29.017  24.123  1.00  0.00     0.230 C 
ATOM     15  O   UNL A   1      32.205  29.220  23.153  1.00  0.00    -0.275 OA
ATOM     16  N   UNL A   1      30.120  29.291  24.183  1.00  0.00    -0.326 N 
ATOM     17  H   UNL A   1      29.609  28.839  24.893  1.00  0.00     0.169 HD
BRANCH  16  18
ATOM     18  C   UNL A   1      29.394  30.154  23.327  1.00  0.00     0.044 A 
ATOM     19  C   UNL A   1      28.840  29.745  22.108  1.00  0.00     0.026 A 
ATOM     20  C   UNL A   1      29.314  31.508  23.677  1.00  0.00     0.065 A 
ATOM     21  C   UNL A   1      28.228  30.667  21.249  1.00  0.00     0.005 A 
ATOM     22  C   UNL A   1      28.698  32.416  22.818  1.00  0.00     0.125 A 
ATOM     23  C   UNL A   1      28.157  32.010  21.606  1.00  0.00     0.039 A 
ATOM     24  F   UNL A   1      28.639  33.710  23.161  1.00  0.00    -0.207 F 
ENDBRANCH  16  18
ENDBRANCH  13  14
ENDBRANCH  12  13
ENDBRANCH   6  12
ENDBRANCH   3   5
ENDBRANCH   2   3
ENDBRANCH   1   2
BRANCH   1  25
ATOM     25  C   UNL A   1      33.035  35.960  29.439  1.00  0.00     0.275 C 
BRANCH  25  26
ATOM     26  O   UNL A   1      32.557  35.087  30.483  1.00  0.00    -0.458 OA
BRANCH  26  27
ATOM     27  C   UNL A   1      32.640  35.610  31.727  1.00  0.00     0.338 C 
ATOM     28  O   UNL A   1      31.887  36.428  32.231  1.00  0.00    -0.246 OA
BRANCH  27  29
ATOM     29  C   UNL A   1      33.732  35.001  32.506  1.00  0.00     0.060 A 
ATOM     30  C   UNL A   1      34.967  35.646  32.481  1.00  0.00     0.016 A 
ATOM     31  C   UNL A   1      33.630  33.721  33.048  1.00  0.00     0.016 A 
ATOM     32  C   UNL A   1      36.119  35.001  32.910  1.00  0.00     0.010 A 
ATOM     33  C   UNL A   1      34.787  33.079  33.521  1.00  0.00     0.010 A 
ATOM     34  C   UNL A   1      36.046  33.700  33.413  1.00  0.00    -0.014 A 
BRANCH  34  35
ATOM     35  C   UNL A   1      37.312  32.981  33.712  1.00  0.00     0.031 A 
ATOM     36  C   UNL A   1      38.006  33.200  35.030  1.00  0.00     0.074 A 
ATOM     37  C   UNL A   1      37.784  32.052  32.860  1.00  0.00     0.049 A 
ATOM     38  N   UNL A   1      39.139  32.707  35.465  1.00  0.00    -0.248 NA
ATOM     39  C   UNL A   1      37.327  34.080  35.994  1.00  0.00     0.031 C 
ATOM     40  C   UNL A   1      37.153  31.663  31.599  1.00  0.00     0.029 A 
ATOM     41  N   UNL A   1      38.894  31.247  32.939  1.00  0.00    -0.354 N 
ATOM     42  C   UNL A   1      39.322  33.237  36.735  1.00  0.00     0.074 A 
ATOM     43  C   UNL A   1      38.187  34.095  37.003  1.00  0.00     0.031 C 
ATOM     44  C   UNL A   1      37.877  30.688  31.029  1.00  0.00     0.029 A 
ATOM     45  C   UNL A   1      39.051  30.421  31.854  1.00  0.00     0.049 A 
ATOM     46  H   UNL A   1      39.519  31.263  33.700  1.00  0.00     0.167 HD
ATOM     47  C   UNL A   1      40.343  33.026  37.600  1.00  0.00     0.037 A 
ATOM     48  C   UNL A   1      40.044  29.564  31.548  1.00  0.00     0.037 A 
ATOM     49  C   UNL A   1      41.457  32.150  37.352  1.00  0.00     0.049 A 
ATOM     50  C   UNL A   1      41.204  29.405  32.492  1.00  0.00     0.074 A 
ATOM     51  C   UNL A   1      42.550  31.891  38.161  1.00  0.00     0.029 A 
ATOM     52  N   UNL A   1      41.611  31.378  36.211  1.00  0.00    -0.354 N 
ATOM     53  N   UNL A   1      41.397  29.955  33.666  1.00  0.00    -0.248 NA
ATOM     54  C   UNL A   1      42.292  28.515  32.061  1.00  0.00     0.031 C 
ATOM     55  C   UNL A   1      43.383  30.986  37.496  1.00  0.00     0.029 A 
ATOM     56  C   UNL A   1      42.792  30.654  36.288  1.00  0.00     0.049 A 
ATOM     57  H   UNL A   1      40.979  31.349  35.458  1.00  0.00     0.167 HD
ATOM     58  C   UNL A   1      42.614  29.468  34.120  1.00  0.00     0.074 A 
ATOM     59  C   UNL A   1      43.109  28.563  33.103  1.00  0.00     0.031 C 
ATOM     60  C   UNL A   1      43.266  29.750  35.274  1.00  0.00     0.037 A 
BRANCH  47  61
ATOM     61  C   UNL A   1      40.323  33.790  38.890  1.00  0.00     0.064 A 
ATOM     62  C   UNL A   1      39.634  33.321  40.016  1.00  0.00     0.173 A 
ATOM     63  C   UNL A   1      41.039  34.991  39.007  1.00  0.00     0.173 A 
ATOM     64  F   UNL A   1      38.924  32.184  39.949  1.00  0.00    -0.203 F 
ATOM     65  C   UNL A   1      39.646  34.037  41.210  1.00  0.00     0.198 A 
ATOM     66  C   UNL A   1      41.066  35.694  40.208  1.00  0.00     0.198 A 
ATOM     67  F   UNL A   1      41.717  35.479  37.957  1.00  0.00    -0.203 F 
ATOM     68  F   UNL A   1      38.953  33.590  42.266  1.00  0.00    -0.200 F 
ATOM     69  C   UNL A   1      40.366  35.219  41.306  1.00  0.00     0.200 A 
ATOM     70  F   UNL A   1      41.769  36.831  40.301  1.00  0.00    -0.200 F 
ATOM     71  F   UNL A   1      40.381  35.905  42.459  1.00  0.00    -0.200 F 
ENDBRANCH  47  61
BRANCH  48  72
ATOM     72  C   UNL A   1      40.004  28.816  30.265  1.00  0.00     0.064 A 
ATOM     73  C   UNL A   1      39.432  27.540  30.187  1.00  0.00     0.173 A 
ATOM     74  C   UNL A   1      40.566  29.354  29.097  1.00  0.00     0.173 A 
ATOM     75  F   UNL A   1      38.912  26.971  31.284  1.00  0.00    -0.203 F 
ATOM     76  C   UNL A   1      39.435  26.824  28.991  1.00  0.00     0.198 A 
ATOM     77  C   UNL A   1      40.545  28.649  27.896  1.00  0.00     0.198 A 
ATOM     78  F   UNL A   1      41.138  30.567  29.124  1.00  0.00    -0.203 F 
ATOM     79  F   UNL A   1      38.924  25.585  28.954  1.00  0.00    -0.200 F 
ATOM     80  C   UNL A   1      39.986  27.381  27.846  1.00  0.00     0.200 A 
ATOM     81  F   UNL A   1      41.075  29.191  26.793  1.00  0.00    -0.200 F 
ATOM     82  F   UNL A   1      39.992  26.689  26.699  1.00  0.00    -0.200 F 
ENDBRANCH  48  72
BRANCH  60  83
ATOM     83  C   UNL A   1      44.573  29.056  35.513  1.00  0.00     0.064 A 
ATOM     84  C   UNL A   1      45.787  29.626  35.105  1.00  0.00     0.173 A 
ATOM     85  C   UNL A   1      44.615  27.831  36.194  1.00  0.00     0.173 A 
ATOM     86  F   UNL A   1      45.797  30.789  34.436  1.00  0.00    -0.203 F 
ATOM     87  C   UNL A   1      46.998  28.986  35.357  1.00  0.00     0.198 A 
ATOM     88  C   UNL A   1      45.828  27.205  36.464  1.00  0.00     0.198 A 
ATOM     89  F   UNL A   1      43.480  27.249  36.607  1.00  0.00    -0.203 F 
ATOM     90  F   UNL A   1      48.144  29.531  34.929  1.00  0.00    -0.200 F 
ATOM     91  C   UNL A   1      47.017  27.779  36.042  1.00  0.00     0.200 A 
ATOM     92  F   UNL A   1      45.846  26.044  37.134  1.00  0.00    -0.200 F 
ATOM     93  F   UNL A   1      48.183  27.168  36.290  1.00  0.00    -0.200 F 
ENDBRANCH  60  83
ENDBRANCH  34  35
ENDBRANCH  27  29
ENDBRANCH  26  27
ENDBRANCH  25  26
ENDBRANCH   1  25
TORSDOF 15
ENDMDL
MODEL 3
REMARK VINA RESULT:     -12.3      4.562      7.011
REMARK SMILES O=C(CC[N@H+]1CCC[C@@H](C(=O)OCCOC(=O)c2ccc(-c3c4nc(c(-c5c(F)c(F)c(F)c(F)c5F)c5ccc([nH]5)c(-c5c(F)c(F)c(F)c(F)c5F)c5nc(c(-c6c(F)c(F)c(F)c(F)c6F)c6ccc3[nH]6)C=C5)C=C4)cc2)C1)Nc1cccc(F)c1
REMARK SMILES IDX 13 1 12 2 10 3 11 4 9 5 5 6 6 7 81 8 7 10 8 11 4 12 3 13
REMARK SMILES IDX 2 14 1 15 82 16 83 18 84 19 89 20 85 21 87 22 86 23 88 24
REMARK SMILES IDX 14 25 15 26 16 27 17 28 18 29 19 30 80 31 20 32 79 33 21 34
REMARK SMILES IDX 22 35 23 36 73 37 24 38 78 39 72 40 74 41 25 42 77 43 71 44
REMARK SMILES IDX 70 45 26 47 58 48 38 49 57 50 39 51 42 52 56 53 75 54 40 55
REMARK SMILES IDX 41 56 55 58 76 59 43 60 27 61 28 62 36 63 29 64 30 65 34 66
REMARK SMILES IDX 37 67 31 68 32 69 35 70 33 71 59 72 60 73 68 74 61 75 62 76
REMARK SMILES IDX 66 77 69 78 63 79 64 80 67 81 65 82 44 83 45 84 53 85 46 86
REMARK SMILES IDX 47 87 51 88 54 89 48 90 49 91 52 92 50 93
REMARK H PARENT 5 9 82 17 74 46 42 57
REMARK Flexibility Score: inf
ROOT
ATOM      1  C   UNL A   1      35.694  21.195  25.060  1.00  0.00     0.274 C 
ENDROOT
BRANCH   1   2
ATOM      2  O   UNL A   1      35.433  22.119  23.980  1.00  0.00    -0.462 OA
BRANCH   2   3
ATOM      3  C   UNL A   1      34.149  22.554  23.963  1.00  0.00     0.314 C 
ATOM      4  O   UNL A   1      33.194  21.785  23.914  1.00  0.00    -0.252 OA
BRANCH   3   5
ATOM      5  C   UNL A   1      33.984  24.070  23.918  1.00  0.00     0.154 C 
ATOM      6  N   UNL A   1      31.946  25.622  23.745  1.00  0.00    -0.334 N 
ATOM      7  C   UNL A   1      32.278  26.178  25.070  1.00  0.00     0.262 C 
ATOM      8  C   UNL A   1      32.480  24.266  23.648  1.00  0.00     0.277 C 
ATOM      9  H   UNL A   1      32.367  26.184  23.005  1.00  0.00     0.348 HD
ATOM     10  C   UNL A   1      33.789  26.187  25.321  1.00  0.00     0.062 C 
ATOM     11  C   UNL A   1      34.451  24.813  25.168  1.00  0.00     0.027 C 
BRANCH   6  12
ATOM     12  C   UNL A   1      30.463  25.646  23.554  1.00  0.00     0.272 C 
BRANCH  12  13
ATOM     13  C   UNL A   1      29.683  26.885  24.060  1.00  0.00     0.161 C 
BRANCH  13  14
ATOM     14  C   UNL A   1      29.590  27.950  22.970  1.00  0.00     0.230 C 
ATOM     15  O   UNL A   1      30.410  27.984  22.055  1.00  0.00    -0.275 OA
ATOM     16  N   UNL A   1      28.541  28.838  23.144  1.00  0.00    -0.326 N 
ATOM     17  H   UNL A   1      27.811  28.549  23.738  1.00  0.00     0.169 HD
BRANCH  16  18
ATOM     18  C   UNL A   1      28.413  30.120  22.557  1.00  0.00     0.044 A 
ATOM     19  C   UNL A   1      28.031  30.324  21.225  1.00  0.00     0.026 A 
ATOM     20  C   UNL A   1      28.784  31.231  23.324  1.00  0.00     0.065 A 
ATOM     21  C   UNL A   1      28.029  31.607  20.665  1.00  0.00     0.005 A 
ATOM     22  C   UNL A   1      28.772  32.505  22.758  1.00  0.00     0.125 A 
ATOM     23  C   UNL A   1      28.401  32.704  21.436  1.00  0.00     0.039 A 
ATOM     24  F   UNL A   1      29.141  33.558  23.501  1.00  0.00    -0.207 F 
ENDBRANCH  16  18
ENDBRANCH  13  14
ENDBRANCH  12  13
ENDBRANCH   6  12
ENDBRANCH   3   5
ENDBRANCH   2   3
ENDBRANCH   1   2
BRANCH   1  25
ATOM     25  C   UNL A   1      37.086  20.551  25.009  1.00  0.00     0.275 C 
BRANCH  25  26
ATOM     26  O   UNL A   1      38.170  21.502  25.030  1.00  0.00    -0.458 OA
BRANCH  26  27
ATOM     27  C   UNL A   1      39.113  21.252  25.966  1.00  0.00     0.338 C 
ATOM     28  O   UNL A   1      39.638  20.178  26.211  1.00  0.00    -0.246 OA
BRANCH  27  29
ATOM     29  C   UNL A   1      39.547  22.484  26.649  1.00  0.00     0.060 A 
ATOM     30  C   UNL A   1      39.037  23.689  26.169  1.00  0.00     0.016 A 
ATOM     31  C   UNL A   1      40.596  22.491  27.566  1.00  0.00     0.016 A 
ATOM     32  C   UNL A   1      39.614  24.901  26.525  1.00  0.00     0.010 A 
ATOM     33  C   UNL A   1      41.157  23.717  27.961  1.00  0.00     0.010 A 
ATOM     34  C   UNL A   1      40.698  24.927  27.407  1.00  0.00    -0.014 A 
BRANCH  34  35
ATOM     35  C   UNL A   1      41.392  26.221  27.641  1.00  0.00     0.031 A 
ATOM     36  C   UNL A   1      40.716  27.302  28.440  1.00  0.00     0.074 A 
ATOM     37  C   UNL A   1      42.666  26.390  27.238  1.00  0.00     0.049 A 
ATOM     38  N   UNL A   1      41.131  28.513  28.718  1.00  0.00    -0.248 NA
ATOM     39  C   UNL A   1      39.404  26.971  29.017  1.00  0.00     0.031 C 
ATOM     40  C   UNL A   1      43.475  25.387  26.549  1.00  0.00     0.029 A 
ATOM     41  N   UNL A   1      43.510  27.465  27.374  1.00  0.00    -0.354 N 
ATOM     42  C   UNL A   1      40.123  29.096  29.474  1.00  0.00     0.074 A 
ATOM     43  C   UNL A   1      39.071  28.110  29.610  1.00  0.00     0.031 C 
ATOM     44  C   UNL A   1      44.702  25.886  26.333  1.00  0.00     0.029 A 
ATOM     45  C   UNL A   1      44.749  27.262  26.817  1.00  0.00     0.049 A 
ATOM     46  H   UNL A   1      43.252  28.302  27.825  1.00  0.00     0.167 HD
ATOM     47  C   UNL A   1      40.078  30.340  30.008  1.00  0.00     0.037 A 
ATOM     48  C   UNL A   1      45.794  28.101  26.688  1.00  0.00     0.037 A 
ATOM     49  C   UNL A   1      41.133  31.313  29.903  1.00  0.00     0.049 A 
ATOM     50  C   UNL A   1      45.690  29.503  27.225  1.00  0.00     0.074 A 
ATOM     51  C   UNL A   1      41.168  32.607  30.393  1.00  0.00     0.029 A 
ATOM     52  N   UNL A   1      42.349  31.090  29.275  1.00  0.00    -0.354 N 
ATOM     53  N   UNL A   1      44.710  30.064  27.888  1.00  0.00    -0.248 NA
ATOM     54  C   UNL A   1      46.835  30.392  26.981  1.00  0.00     0.031 C 
ATOM     55  C   UNL A   1      42.392  33.180  30.033  1.00  0.00     0.029 A 
ATOM     56  C   UNL A   1      43.134  32.231  29.349  1.00  0.00     0.049 A 
ATOM     57  H   UNL A   1      42.614  30.249  28.839  1.00  0.00     0.167 HD
ATOM     58  C   UNL A   1      45.123  31.362  28.155  1.00  0.00     0.074 A 
ATOM     59  C   UNL A   1      46.453  31.501  27.597  1.00  0.00     0.031 C 
ATOM     60  C   UNL A   1      44.459  32.351  28.800  1.00  0.00     0.037 A 
BRANCH  47  61
ATOM     61  C   UNL A   1      38.824  30.738  30.726  1.00  0.00     0.064 A 
ATOM     62  C   UNL A   1      38.692  30.599  32.114  1.00  0.00     0.173 A 
ATOM     63  C   UNL A   1      37.755  31.303  30.014  1.00  0.00     0.173 A 
ATOM     64  F   UNL A   1      39.682  30.053  32.836  1.00  0.00    -0.203 F 
ATOM     65  C   UNL A   1      37.526  30.995  32.763  1.00  0.00     0.198 A 
ATOM     66  C   UNL A   1      36.599  31.717  30.669  1.00  0.00     0.198 A 
ATOM     67  F   UNL A   1      37.836  31.460  28.684  1.00  0.00    -0.203 F 
ATOM     68  F   UNL A   1      37.404  30.823  34.087  1.00  0.00    -0.200 F 
ATOM     69  C   UNL A   1      36.483  31.558  32.041  1.00  0.00     0.200 A 
ATOM     70  F   UNL A   1      35.596  32.268  29.971  1.00  0.00    -0.200 F 
ATOM     71  F   UNL A   1      35.362  31.943  32.669  1.00  0.00    -0.200 F 
ENDBRANCH  47  61
BRANCH  48  72
ATOM     72  C   UNL A   1      47.022  27.649  25.985  1.00  0.00     0.064 A 
ATOM     73  C   UNL A   1      47.127  27.723  24.590  1.00  0.00     0.173 A 
ATOM     74  C   UNL A   1      48.104  27.107  26.695  1.00  0.00     0.173 A 
ATOM     75  F   UNL A   1      46.106  28.203  23.865  1.00  0.00    -0.203 F 
ATOM     76  C   UNL A   1      48.264  27.259  23.930  1.00  0.00     0.198 A 
ATOM     77  C   UNL A   1      49.250  26.669  26.037  1.00  0.00     0.198 A 
ATOM     78  F   UNL A   1      48.046  27.004  28.031  1.00  0.00    -0.203 F 
ATOM     79  F   UNL A   1      48.321  27.295  22.592  1.00  0.00    -0.200 F 
ATOM     80  C   UNL A   1      49.326  26.738  24.655  1.00  0.00     0.200 A 
ATOM     81  F   UNL A   1      50.275  26.169  26.740  1.00  0.00    -0.200 F 
ATOM     82  F   UNL A   1      50.416  26.287  24.019  1.00  0.00    -0.200 F 
ENDBRANCH  48  72
BRANCH  60  83
ATOM     83  C   UNL A   1      45.165  33.663  28.960  1.00  0.00     0.064 A 
ATOM     84  C   UNL A   1      46.019  33.906  30.045  1.00  0.00     0.173 A 
ATOM     85  C   UNL A   1      45.019  34.671  27.996  1.00  0.00     0.173 A 
ATOM     86  F   UNL A   1      46.178  32.977  31.000  1.00  0.00    -0.203 F 
ATOM     87  C   UNL A   1      46.691  35.119  30.167  1.00  0.00     0.198 A 
ATOM     88  C   UNL A   1      45.710  35.874  28.110  1.00  0.00     0.198 A 
ATOM     89  F   UNL A   1      44.216  34.484  26.938  1.00  0.00    -0.203 F 
ATOM     90  F   UNL A   1      47.476  35.343  31.230  1.00  0.00    -0.200 F 
ATOM     91  C   UNL A   1      46.541  36.099  29.197  1.00  0.00     0.200 A 
ATOM     92  F   UNL A   1      45.571  36.817  27.167  1.00  0.00    -0.200 F 
ATOM     93  F   UNL A   1      47.194  37.263  29.314  1.00  0.00    -0.200 F 
ENDBRANCH  60  83
ENDBRANCH  34  35
ENDBRANCH  27  29
ENDBRANCH  26  27
ENDBRANCH  25  26
ENDBRANCH   1  25
TORSDOF 15
ENDMDL
