MODEL 1
REMARK VINA RESULT:     -15.6      0.000      0.000
REMARK SMILES Cc1ccc(C[C@@H](Cc2cc(F)cc(Br)c2)C(=O)OCCOC(=O)c2ccc(-c3c4nc(c(-c5c(F)c(F)c(F)c(F)c5F)c5ccc([nH]5)c(-c5c(F)c(F)c(F)c(F)c5F)c5nc(c(-c6c(F)c(F)c(F)c(F)c6F)c6ccc3[nH]6)C=C5)C=C4)cc2)cc1
REMARK SMILES IDX 20 1 19 2 17 3 18 4 7 5 6 6 5 7 1 8 2 9 3 10 89 11 4 12
REMARK SMILES IDX 88 13 8 14 9 15 10 16 16 17 11 18 14 19 12 20 13 21 15 22
REMARK SMILES IDX 21 23 22 24 23 25 24 26 25 27 26 28 87 29 27 30 86 31 28 32
REMARK SMILES IDX 29 33 30 34 80 35 31 36 85 37 79 38 81 39 32 40 84 41 78 42
REMARK SMILES IDX 77 43 33 45 65 46 45 47 64 48 46 49 49 50 63 51 82 52 47 53
REMARK SMILES IDX 48 54 62 56 83 57 50 58 34 59 35 60 43 61 36 62 37 63 41 64
REMARK SMILES IDX 44 65 38 66 39 67 42 68 40 69 66 70 67 71 75 72 68 73 69 74
REMARK SMILES IDX 73 75 76 76 70 77 71 78 74 79 72 80 51 81 52 82 60 83 53 84
REMARK SMILES IDX 54 85 58 86 61 87 55 88 56 89 59 90 57 91
REMARK H PARENT 81 44 49 55
REMARK Flexibility Score: inf
ROOT
ATOM      1  C   UNL A   1      34.232  29.598  27.110  1.00  0.00     0.274 C 
ENDROOT
BRANCH   1   2
ATOM      2  O   UNL A   1      33.214  29.709  26.131  1.00  0.00    -0.462 OA
BRANCH   2   3
ATOM      3  C   UNL A   1      31.961  29.010  26.385  1.00  0.00     0.309 C 
ATOM      4  O   UNL A   1      31.479  29.623  27.390  1.00  0.00    -0.252 OA
BRANCH   3   5
ATOM      5  C   UNL A   1      31.318  27.254  25.262  1.00  0.00     0.108 C 
BRANCH   5   6
ATOM      6  C   UNL A   1      30.017  26.987  24.047  1.00  0.00     0.051 C 
BRANCH   6   7
ATOM      7  C   UNL A   1      29.532  28.121  23.111  1.00  0.00    -0.047 A 
ATOM      8  C   UNL A   1      28.026  31.618  20.973  1.00  0.00     0.044 C 
ATOM      9  C   UNL A   1      28.536  30.409  21.704  1.00  0.00    -0.051 A 
ATOM     10  C   UNL A   1      29.890  30.078  21.660  1.00  0.00     0.004 A 
ATOM     11  C   UNL A   1      27.682  29.590  22.446  1.00  0.00     0.004 A 
ATOM     12  C   UNL A   1      30.382  28.967  22.370  1.00  0.00     0.004 A 
ATOM     13  C   UNL A   1      28.170  28.463  23.128  1.00  0.00     0.004 A 
ENDBRANCH   6   7
ENDBRANCH   5   6
BRANCH   5  14
ATOM     14  C   UNL A   1      32.384  26.127  24.306  1.00  0.00     0.051 C 
BRANCH  14  15
ATOM     15  C   UNL A   1      32.891  24.818  24.883  1.00  0.00    -0.043 A 
ATOM     16  C   UNL A   1      34.617  24.981  25.375  1.00  0.00     0.043 A 
ATOM     17  C   UNL A   1      32.210  23.110  24.474  1.00  0.00     0.019 A 
ATOM     18  C   UNL A   1      35.636  23.545  25.482  1.00  0.00     0.124 A 
ATOM     19  C   UNL A   1      33.247  21.666  24.682  1.00  0.00     0.021 A 
ATOM     20  F   UNL A   1      36.833  23.732  26.048  1.00  0.00    -0.207 F 
ATOM     21  C   UNL A   1      34.952  21.890  25.203  1.00  0.00     0.055 A 
ATOM     22  Br  UNL A   1      32.531  19.986  24.181  1.00  0.00    -0.051 Br
ENDBRANCH  14  15
ENDBRANCH   5  14
ENDBRANCH   3   5
ENDBRANCH   2   3
ENDBRANCH   1   2
BRANCH   1  23
ATOM     23  C   UNL A   1      34.700  31.008  27.483  1.00  0.00     0.275 C 
BRANCH  23  24
ATOM     24  O   UNL A   1      33.690  32.031  27.854  1.00  0.00    -0.458 OA
BRANCH  24  25
ATOM     25  C   UNL A   1      33.653  33.176  28.614  1.00  0.00     0.338 C 
ATOM     26  O   UNL A   1      32.763  34.005  28.475  1.00  0.00    -0.246 OA
BRANCH  25  27
ATOM     27  C   UNL A   1      34.791  33.507  29.545  1.00  0.00     0.060 A 
ATOM     28  C   UNL A   1      36.256  34.181  28.760  1.00  0.00     0.016 A 
ATOM     29  C   UNL A   1      34.928  32.289  30.800  1.00  0.00     0.016 A 
ATOM     30  C   UNL A   1      37.878  33.407  29.047  1.00  0.00     0.010 A 
ATOM     31  C   UNL A   1      36.511  31.584  31.182  1.00  0.00     0.010 A 
ATOM     32  C   UNL A   1      38.009  31.995  30.154  1.00  0.00    -0.014 A 
BRANCH  32  33
ATOM     33  C   UNL A   1      39.524  31.129  30.357  1.00  0.00     0.031 A 
ATOM     34  C   UNL A   1      39.873  29.211  29.441  1.00  0.00     0.074 A 
ATOM     35  C   UNL A   1      40.275  32.204  31.006  1.00  0.00     0.049 A 
ATOM     36  N   UNL A   1      40.595  28.120  29.811  1.00  0.00    -0.248 NA
ATOM     37  C   UNL A   1      39.240  28.514  28.027  1.00  0.00     0.031 C 
ATOM     38  C   UNL A   1      41.753  32.535  31.054  1.00  0.00     0.029 A 
ATOM     39  N   UNL A   1      39.876  32.846  32.220  1.00  0.00    -0.354 N 
ATOM     40  C   UNL A   1      40.957  27.307  28.772  1.00  0.00     0.074 A 
ATOM     41  C   UNL A   1      39.919  27.405  27.813  1.00  0.00     0.031 C 
ATOM     42  C   UNL A   1      42.160  32.786  32.300  1.00  0.00     0.029 A 
ATOM     43  C   UNL A   1      40.990  32.777  33.110  1.00  0.00     0.049 A 
ATOM     44  H   UNL A   1      39.001  33.257  32.406  1.00  0.00     0.167 HD
ATOM     45  C   UNL A   1      42.233  26.821  28.739  1.00  0.00     0.037 A 
ATOM     46  C   UNL A   1      40.972  32.357  34.395  1.00  0.00     0.037 A 
ATOM     47  C   UNL A   1      43.051  27.348  29.876  1.00  0.00     0.049 A 
ATOM     48  C   UNL A   1      41.829  31.100  34.605  1.00  0.00     0.074 A 
ATOM     49  C   UNL A   1      44.106  28.253  29.928  1.00  0.00     0.029 A 
ATOM     50  N   UNL A   1      42.630  27.219  31.214  1.00  0.00    -0.354 N 
ATOM     51  N   UNL A   1      42.308  30.324  33.646  1.00  0.00    -0.248 NA
ATOM     52  C   UNL A   1      42.261  30.651  35.927  1.00  0.00     0.031 C 
ATOM     53  C   UNL A   1      44.320  28.648  31.284  1.00  0.00     0.029 A 
ATOM     54  C   UNL A   1      43.372  28.031  32.085  1.00  0.00     0.049 A 
ATOM     55  H   UNL A   1      41.898  26.628  31.503  1.00  0.00     0.167 HD
ATOM     56  C   UNL A   1      42.875  29.184  34.209  1.00  0.00     0.074 A 
ATOM     57  C   UNL A   1      42.940  29.532  35.622  1.00  0.00     0.031 C 
ATOM     58  C   UNL A   1      43.180  28.002  33.548  1.00  0.00     0.037 A 
BRANCH  45  59
ATOM     59  C   UNL A   1      42.824  26.173  27.481  1.00  0.00     0.064 A 
ATOM     60  C   UNL A   1      42.532  24.832  27.162  1.00  0.00     0.173 A 
ATOM     61  C   UNL A   1      43.690  26.795  26.547  1.00  0.00     0.173 A 
ATOM     62  F   UNL A   1      41.633  24.129  27.858  1.00  0.00    -0.203 F 
ATOM     63  C   UNL A   1      43.125  24.157  26.086  1.00  0.00     0.198 A 
ATOM     64  C   UNL A   1      44.332  26.108  25.510  1.00  0.00     0.198 A 
ATOM     65  F   UNL A   1      43.883  28.115  26.518  1.00  0.00    -0.203 F 
ATOM     66  F   UNL A   1      42.786  22.885  25.839  1.00  0.00    -0.200 F 
ATOM     67  C   UNL A   1      44.047  24.786  25.277  1.00  0.00     0.200 A 
ATOM     68  F   UNL A   1      45.202  26.757  24.722  1.00  0.00    -0.200 F 
ATOM     69  F   UNL A   1      44.615  24.139  24.251  1.00  0.00    -0.200 F 
ENDBRANCH  45  59
BRANCH  46  70
ATOM     70  C   UNL A   1      39.749  32.904  35.057  1.00  0.00     0.064 A 
ATOM     71  C   UNL A   1      38.800  31.916  35.447  1.00  0.00     0.173 A 
ATOM     72  C   UNL A   1      39.790  34.069  35.824  1.00  0.00     0.173 A 
ATOM     73  F   UNL A   1      38.688  30.783  34.730  1.00  0.00    -0.203 F 
ATOM     74  C   UNL A   1      38.155  31.967  36.683  1.00  0.00     0.198 A 
ATOM     75  C   UNL A   1      39.060  34.158  37.020  1.00  0.00     0.198 A 
ATOM     76  F   UNL A   1      40.669  35.037  35.532  1.00  0.00    -0.203 F 
ATOM     77  F   UNL A   1      37.493  30.893  37.140  1.00  0.00    -0.200 F 
ATOM     78  C   UNL A   1      38.316  33.079  37.486  1.00  0.00     0.200 A 
ATOM     79  F   UNL A   1      39.225  35.223  37.818  1.00  0.00    -0.200 F 
ATOM     80  F   UNL A   1      37.820  33.086  38.732  1.00  0.00    -0.200 F 
ENDBRANCH  46  70
BRANCH  58  81
ATOM     81  C   UNL A   1      43.438  26.657  34.255  1.00  0.00     0.064 A 
ATOM     82  C   UNL A   1      44.709  26.104  34.496  1.00  0.00     0.173 A 
ATOM     83  C   UNL A   1      42.369  25.906  34.817  1.00  0.00     0.173 A 
ATOM     84  F   UNL A   1      45.837  26.780  34.244  1.00  0.00    -0.203 F 
ATOM     85  C   UNL A   1      44.884  24.843  35.077  1.00  0.00     0.198 A 
ATOM     86  C   UNL A   1      42.557  24.701  35.496  1.00  0.00     0.198 A 
ATOM     87  F   UNL A   1      41.094  26.314  34.752  1.00  0.00    -0.203 F 
ATOM     88  F   UNL A   1      46.116  24.321  35.164  1.00  0.00    -0.200 F 
ATOM     89  C   UNL A   1      43.809  24.142  35.581  1.00  0.00     0.200 A 
ATOM     90  F   UNL A   1      41.509  24.090  36.068  1.00  0.00    -0.200 F 
ATOM     91  F   UNL A   1      43.983  22.951  36.169  1.00  0.00    -0.200 F 
ENDBRANCH  58  81
ENDBRANCH  32  33
ENDBRANCH  25  27
ENDBRANCH  24  25
ENDBRANCH  23  24
ENDBRANCH   1  23
TORSDOF 15
ENDMDL
MODEL 2
REMARK VINA RESULT:     -15.3      4.441     10.748
REMARK SMILES Cc1ccc(C[C@@H](Cc2cc(F)cc(Br)c2)C(=O)OCCOC(=O)c2ccc(-c3c4nc(c(-c5c(F)c(F)c(F)c(F)c5F)c5ccc([nH]5)c(-c5c(F)c(F)c(F)c(F)c5F)c5nc(c(-c6c(F)c(F)c(F)c(F)c6F)c6ccc3[nH]6)C=C5)C=C4)cc2)cc1
REMARK SMILES IDX 20 1 19 2 17 3 18 4 7 5 6 6 5 7 1 8 2 9 3 10 89 11 4 12
REMARK SMILES IDX 88 13 8 14 9 15 10 16 16 17 11 18 14 19 12 20 13 21 15 22
REMARK SMILES IDX 21 23 22 24 23 25 24 26 25 27 26 28 87 29 27 30 86 31 28 32
REMARK SMILES IDX 29 33 30 34 80 35 31 36 85 37 79 38 81 39 32 40 84 41 78 42
REMARK SMILES IDX 77 43 33 45 65 46 45 47 64 48 46 49 49 50 63 51 82 52 47 53
REMARK SMILES IDX 48 54 62 56 83 57 50 58 34 59 35 60 43 61 36 62 37 63 41 64
REMARK SMILES IDX 44 65 38 66 39 67 42 68 40 69 66 70 67 71 75 72 68 73 69 74
REMARK SMILES IDX 73 75 76 76 70 77 71 78 74 79 72 80 51 81 52 82 60 83 53 84
REMARK SMILES IDX 54 85 58 86 61 87 55 88 56 89 59 90 57 91
REMARK H PARENT 81 44 49 55
REMARK Flexibility Score: inf
ROOT
ATOM      1  C   UNL A   1      37.446  22.267  25.199  1.00  0.00     0.274 C 
ENDROOT
BRANCH   1   2
ATOM      2  O   UNL A   1      36.323  21.879  24.428  1.00  0.00    -0.462 OA
BRANCH   2   3
ATOM      3  C   UNL A   1      35.939  22.744  23.321  1.00  0.00     0.309 C 
ATOM      4  O   UNL A   1      37.039  23.275  22.966  1.00  0.00    -0.252 OA
BRANCH   3   5
ATOM      5  C   UNL A   1      33.874  23.019  22.674  1.00  0.00     0.108 C 
BRANCH   5   6
ATOM      6  C   UNL A   1      32.389  22.017  22.860  1.00  0.00     0.051 C 
BRANCH   6   7
ATOM      7  C   UNL A   1      32.428  20.622  23.530  1.00  0.00    -0.047 A 
ATOM      8  C   UNL A   1      33.046  16.601  25.116  1.00  0.00     0.044 C 
ATOM      9  C   UNL A   1      32.824  17.981  24.566  1.00  0.00    -0.051 A 
ATOM     10  C   UNL A   1      32.903  19.094  25.402  1.00  0.00     0.004 A 
ATOM     11  C   UNL A   1      32.541  18.190  23.214  1.00  0.00     0.004 A 
ATOM     12  C   UNL A   1      32.730  20.393  24.888  1.00  0.00     0.004 A 
ATOM     13  C   UNL A   1      32.336  19.486  22.710  1.00  0.00     0.004 A 
ENDBRANCH   6   7
ENDBRANCH   5   6
BRANCH   5  14
ATOM     14  C   UNL A   1      32.849  24.507  22.914  1.00  0.00     0.051 C 
BRANCH  14  15
ATOM     15  C   UNL A   1      32.665  25.144  24.278  1.00  0.00    -0.043 A 
ATOM     16  C   UNL A   1      30.966  24.930  24.841  1.00  0.00     0.043 A 
ATOM     17  C   UNL A   1      33.686  26.572  24.962  1.00  0.00     0.019 A 
ATOM     18  C   UNL A   1      30.291  26.045  26.030  1.00  0.00     0.124 A 
ATOM     19  C   UNL A   1      32.999  27.628  26.234  1.00  0.00     0.021 A 
ATOM     20  F   UNL A   1      29.106  25.692  26.539  1.00  0.00    -0.207 F 
ATOM     21  C   UNL A   1      31.309  27.346  26.775  1.00  0.00     0.055 A 
ATOM     22  Br  UNL A   1      34.045  29.091  26.825  1.00  0.00    -0.051 Br
ENDBRANCH  14  15
ENDBRANCH   5  14
ENDBRANCH   3   5
ENDBRANCH   2   3
ENDBRANCH   1   2
BRANCH   1  23
ATOM     23  C   UNL A   1      38.340  21.041  25.405  1.00  0.00     0.275 C 
BRANCH  23  24
ATOM     24  O   UNL A   1      39.638  21.203  26.107  1.00  0.00    -0.458 OA
BRANCH  24  25
ATOM     25  C   UNL A   1      40.869  20.589  26.095  1.00  0.00     0.338 C 
ATOM     26  O   UNL A   1      40.987  19.403  25.819  1.00  0.00    -0.246 OA
BRANCH  25  27
ATOM     27  C   UNL A   1      42.093  21.335  26.559  1.00  0.00     0.060 A 
ATOM     28  C   UNL A   1      42.301  21.444  28.337  1.00  0.00     0.016 A 
ATOM     29  C   UNL A   1      42.384  22.731  25.537  1.00  0.00     0.016 A 
ATOM     30  C   UNL A   1      42.530  23.067  29.127  1.00  0.00     0.010 A 
ATOM     31  C   UNL A   1      42.713  24.312  26.270  1.00  0.00     0.010 A 
ATOM     32  C   UNL A   1      42.593  24.551  28.113  1.00  0.00    -0.014 A 
BRANCH  32  33
ATOM     33  C   UNL A   1      42.673  26.150  28.836  1.00  0.00     0.031 A 
ATOM     34  C   UNL A   1      40.962  27.456  28.912  1.00  0.00     0.074 A 
ATOM     35  C   UNL A   1      44.003  26.025  29.434  1.00  0.00     0.049 A 
ATOM     36  N   UNL A   1      40.818  28.807  28.863  1.00  0.00    -0.248 NA
ATOM     37  C   UNL A   1      39.297  27.118  28.957  1.00  0.00     0.031 C 
ATOM     38  C   UNL A   1      44.646  26.672  30.645  1.00  0.00     0.029 A 
ATOM     39  N   UNL A   1      45.192  25.725  28.700  1.00  0.00    -0.354 N 
ATOM     40  C   UNL A   1      39.654  29.268  29.414  1.00  0.00     0.074 A 
ATOM     41  C   UNL A   1      38.684  28.262  29.190  1.00  0.00     0.031 C 
ATOM     42  C   UNL A   1      45.860  27.147  30.360  1.00  0.00     0.029 A 
ATOM     43  C   UNL A   1      46.147  26.733  29.029  1.00  0.00     0.049 A 
ATOM     44  H   UNL A   1      45.326  24.969  28.083  1.00  0.00     0.167 HD
ATOM     45  C   UNL A   1      39.706  30.369  30.222  1.00  0.00     0.037 A 
ATOM     46  C   UNL A   1      46.884  27.462  28.161  1.00  0.00     0.037 A 
ATOM     47  C   UNL A   1      41.112  30.847  30.407  1.00  0.00     0.049 A 
ATOM     48  C   UNL A   1      46.561  28.961  28.243  1.00  0.00     0.074 A 
ATOM     49  C   UNL A   1      41.970  30.826  31.501  1.00  0.00     0.029 A 
ATOM     50  N   UNL A   1      41.944  31.142  29.310  1.00  0.00    -0.354 N 
ATOM     51  N   UNL A   1      45.511  29.491  28.851  1.00  0.00    -0.248 NA
ATOM     52  C   UNL A   1      47.436  29.989  27.684  1.00  0.00     0.031 C 
ATOM     53  C   UNL A   1      43.298  31.118  31.063  1.00  0.00     0.029 A 
ATOM     54  C   UNL A   1      43.289  31.278  29.686  1.00  0.00     0.049 A 
ATOM     55  H   UNL A   1      41.620  31.240  28.386  1.00  0.00     0.167 HD
ATOM     56  C   UNL A   1      45.445  30.851  28.561  1.00  0.00     0.074 A 
ATOM     57  C   UNL A   1      46.746  31.109  27.963  1.00  0.00     0.031 C 
ATOM     58  C   UNL A   1      44.341  31.677  28.729  1.00  0.00     0.037 A 
BRANCH  45  59
ATOM     59  C   UNL A   1      38.534  30.772  31.125  1.00  0.00     0.064 A 
ATOM     60  C   UNL A   1      37.388  31.384  30.579  1.00  0.00     0.173 A 
ATOM     61  C   UNL A   1      38.461  30.600  32.530  1.00  0.00     0.173 A 
ATOM     62  F   UNL A   1      37.226  31.509  29.258  1.00  0.00    -0.203 F 
ATOM     63  C   UNL A   1      36.333  31.868  31.366  1.00  0.00     0.198 A 
ATOM     64  C   UNL A   1      37.441  31.136  33.324  1.00  0.00     0.198 A 
ATOM     65  F   UNL A   1      39.311  29.819  33.200  1.00  0.00    -0.203 F 
ATOM     66  F   UNL A   1      35.271  32.427  30.773  1.00  0.00    -0.200 F 
ATOM     67  C   UNL A   1      36.373  31.770  32.741  1.00  0.00     0.200 A 
ATOM     68  F   UNL A   1      37.494  30.997  34.657  1.00  0.00    -0.200 F 
ATOM     69  F   UNL A   1      35.366  32.235  33.491  1.00  0.00    -0.200 F 
ENDBRANCH  45  59
BRANCH  46  70
ATOM     70  C   UNL A   1      47.365  26.560  27.071  1.00  0.00     0.064 A 
ATOM     71  C   UNL A   1      46.854  26.876  25.779  1.00  0.00     0.173 A 
ATOM     72  C   UNL A   1      48.624  25.961  27.117  1.00  0.00     0.173 A 
ATOM     73  F   UNL A   1      45.631  27.425  25.664  1.00  0.00    -0.203 F 
ATOM     74  C   UNL A   1      47.669  26.866  24.647  1.00  0.00     0.198 A 
ATOM     75  C   UNL A   1      49.404  25.860  25.954  1.00  0.00     0.198 A 
ATOM     76  F   UNL A   1      49.180  25.652  28.295  1.00  0.00    -0.203 F 
ATOM     77  F   UNL A   1      47.244  27.434  23.508  1.00  0.00    -0.200 F 
ATOM     78  C   UNL A   1      48.960  26.388  24.746  1.00  0.00     0.200 A 
ATOM     79  F   UNL A   1      50.668  25.418  26.042  1.00  0.00    -0.200 F 
ATOM     80  F   UNL A   1      49.801  26.500  23.706  1.00  0.00    -0.200 F 
ENDBRANCH  46  70
BRANCH  58  81
ATOM     81  C   UNL A   1      44.178  33.052  28.054  1.00  0.00     0.064 A 
ATOM     82  C   UNL A   1      44.019  33.257  26.671  1.00  0.00     0.173 A 
ATOM     83  C   UNL A   1      44.079  34.243  28.826  1.00  0.00     0.173 A 
ATOM     84  F   UNL A   1      43.857  32.240  25.817  1.00  0.00    -0.203 F 
ATOM     85  C   UNL A   1      43.950  34.534  26.102  1.00  0.00     0.198 A 
ATOM     86  C   UNL A   1      43.897  35.506  28.262  1.00  0.00     0.198 A 
ATOM     87  F   UNL A   1      44.133  34.234  30.165  1.00  0.00    -0.203 F 
ATOM     88  F   UNL A   1      43.924  34.662  24.768  1.00  0.00    -0.200 F 
ATOM     89  C   UNL A   1      43.885  35.659  26.897  1.00  0.00     0.200 A 
ATOM     90  F   UNL A   1      43.731  36.572  29.059  1.00  0.00    -0.200 F 
ATOM     91  F   UNL A   1      43.782  36.878  26.350  1.00  0.00    -0.200 F 
ENDBRANCH  58  81
ENDBRANCH  32  33
ENDBRANCH  25  27
ENDBRANCH  24  25
ENDBRANCH  23  24
ENDBRANCH   1  23
TORSDOF 15
ENDMDL
MODEL 3
REMARK VINA RESULT:     -14.7      4.023     10.327
REMARK SMILES Cc1ccc(C[C@@H](Cc2cc(F)cc(Br)c2)C(=O)OCCOC(=O)c2ccc(-c3c4nc(c(-c5c(F)c(F)c(F)c(F)c5F)c5ccc([nH]5)c(-c5c(F)c(F)c(F)c(F)c5F)c5nc(c(-c6c(F)c(F)c(F)c(F)c6F)c6ccc3[nH]6)C=C5)C=C4)cc2)cc1
REMARK SMILES IDX 20 1 19 2 17 3 18 4 7 5 6 6 5 7 1 8 2 9 3 10 89 11 4 12
REMARK SMILES IDX 88 13 8 14 9 15 10 16 16 17 11 18 14 19 12 20 13 21 15 22
REMARK SMILES IDX 21 23 22 24 23 25 24 26 25 27 26 28 87 29 27 30 86 31 28 32
REMARK SMILES IDX 29 33 30 34 80 35 31 36 85 37 79 38 81 39 32 40 84 41 78 42
REMARK SMILES IDX 77 43 33 45 65 46 45 47 64 48 46 49 49 50 63 51 82 52 47 53
REMARK SMILES IDX 48 54 62 56 83 57 50 58 34 59 35 60 43 61 36 62 37 63 41 64
REMARK SMILES IDX 44 65 38 66 39 67 42 68 40 69 66 70 67 71 75 72 68 73 69 74
REMARK SMILES IDX 73 75 76 76 70 77 71 78 74 79 72 80 51 81 52 82 60 83 53 84
REMARK SMILES IDX 54 85 58 86 61 87 55 88 56 89 59 90 57 91
REMARK H PARENT 81 44 49 55
REMARK Flexibility Score: inf
ROOT
ATOM      1  C   UNL A   1      37.359  22.935  25.430  1.00  0.00     0.274 C 
ENDROOT
BRANCH   1   2
ATOM      2  O   UNL A   1      35.978  22.616  25.420  1.00  0.00    -0.462 OA
BRANCH   2   3
ATOM      3  C   UNL A   1      35.129  23.345  24.487  1.00  0.00     0.309 C 
ATOM      4  O   UNL A   1      35.953  23.803  23.634  1.00  0.00    -0.252 OA
BRANCH   3   5
ATOM      5  C   UNL A   1      32.978  23.582  24.760  1.00  0.00     0.108 C 
BRANCH   5   6
ATOM      6  C   UNL A   1      31.989  24.521  25.936  1.00  0.00     0.051 C 
BRANCH   6   7
ATOM      7  C   UNL A   1      32.287  26.008  26.244  1.00  0.00    -0.047 A 
ATOM      8  C   UNL A   1      33.268  30.253  26.536  1.00  0.00     0.044 C 
ATOM      9  C   UNL A   1      32.939  28.790  26.443  1.00  0.00    -0.051 A 
ATOM     10  C   UNL A   1      31.627  28.351  26.620  1.00  0.00     0.004 A 
ATOM     11  C   UNL A   1      33.923  27.837  26.174  1.00  0.00     0.004 A 
ATOM     12  C   UNL A   1      31.304  26.986  26.500  1.00  0.00     0.004 A 
ATOM     13  C   UNL A   1      33.603  26.471  26.087  1.00  0.00     0.004 A 
ENDBRANCH   6   7
ENDBRANCH   5   6
BRANCH   5  14
ATOM     14  C   UNL A   1      31.759  23.995  23.469  1.00  0.00     0.051 C 
BRANCH  14  15
ATOM     15  C   UNL A   1      31.667  25.384  22.866  1.00  0.00    -0.043 A 
ATOM     16  C   UNL A   1      33.318  26.044  22.568  1.00  0.00     0.043 A 
ATOM     17  C   UNL A   1      30.228  26.578  23.090  1.00  0.00     0.019 A 
ATOM     18  C   UNL A   1      33.560  27.789  22.475  1.00  0.00     0.124 A 
ATOM     19  C   UNL A   1      30.494  28.338  22.900  1.00  0.00     0.021 A 
ATOM     20  F   UNL A   1      34.766  28.180  22.050  1.00  0.00    -0.207 F 
ATOM     21  C   UNL A   1      32.157  28.933  22.574  1.00  0.00     0.055 A 
ATOM     22  Br  UNL A   1      29.026  29.492  23.214  1.00  0.00    -0.051 Br
ENDBRANCH  14  15
ENDBRANCH   5  14
ENDBRANCH   3   5
ENDBRANCH   2   3
ENDBRANCH   1   2
BRANCH   1  23
ATOM     23  C   UNL A   1      38.158  21.629  25.402  1.00  0.00     0.275 C 
BRANCH  23  24
ATOM     24  O   UNL A   1      39.391  21.519  26.223  1.00  0.00    -0.458 OA
BRANCH  24  25
ATOM     25  C   UNL A   1      40.612  20.893  26.123  1.00  0.00     0.338 C 
ATOM     26  O   UNL A   1      40.699  19.715  25.804  1.00  0.00    -0.246 OA
BRANCH  25  27
ATOM     27  C   UNL A   1      41.869  21.611  26.538  1.00  0.00     0.060 A 
ATOM     28  C   UNL A   1      42.163  21.687  28.306  1.00  0.00     0.016 A 
ATOM     29  C   UNL A   1      42.133  23.020  25.526  1.00  0.00     0.016 A 
ATOM     30  C   UNL A   1      42.457  23.293  29.110  1.00  0.00     0.010 A 
ATOM     31  C   UNL A   1      42.524  24.583  26.267  1.00  0.00     0.010 A 
ATOM     32  C   UNL A   1      42.497  24.793  28.117  1.00  0.00    -0.014 A 
BRANCH  32  33
ATOM     33  C   UNL A   1      42.639  26.378  28.861  1.00  0.00     0.031 A 
ATOM     34  C   UNL A   1      40.954  27.708  29.046  1.00  0.00     0.074 A 
ATOM     35  C   UNL A   1      43.995  26.223  29.388  1.00  0.00     0.049 A 
ATOM     36  N   UNL A   1      40.829  29.061  29.026  1.00  0.00    -0.248 NA
ATOM     37  C   UNL A   1      39.289  27.393  29.170  1.00  0.00     0.031 C 
ATOM     38  C   UNL A   1      44.709  26.840  30.574  1.00  0.00     0.029 A 
ATOM     39  N   UNL A   1      45.140  25.918  28.589  1.00  0.00    -0.354 N 
ATOM     40  C   UNL A   1      39.702  29.530  29.643  1.00  0.00     0.074 A 
ATOM     41  C   UNL A   1      38.706  28.542  29.452  1.00  0.00     0.031 C 
ATOM     42  C   UNL A   1      45.914  27.301  30.236  1.00  0.00     0.029 A 
ATOM     43  C   UNL A   1      46.127  26.906  28.885  1.00  0.00     0.049 A 
ATOM     44  H   UNL A   1      45.231  25.170  27.954  1.00  0.00     0.167 HD
ATOM     45  C   UNL A   1      39.812  30.616  30.464  1.00  0.00     0.037 A 
ATOM     46  C   UNL A   1      46.830  27.638  27.992  1.00  0.00     0.037 A 
ATOM     47  C   UNL A   1      41.233  31.071  30.585  1.00  0.00     0.049 A 
ATOM     48  C   UNL A   1      46.535  29.140  28.115  1.00  0.00     0.074 A 
ATOM     49  C   UNL A   1      42.146  31.018  31.633  1.00  0.00     0.029 A 
ATOM     50  N   UNL A   1      42.014  31.371  29.452  1.00  0.00    -0.354 N 
ATOM     51  N   UNL A   1      45.526  29.676  28.785  1.00  0.00    -0.248 NA
ATOM     52  C   UNL A   1      47.396  30.165  27.529  1.00  0.00     0.031 C 
ATOM     53  C   UNL A   1      43.454  31.298  31.132  1.00  0.00     0.029 A 
ATOM     54  C   UNL A   1      43.378  31.482  29.761  1.00  0.00     0.049 A 
ATOM     55  H   UNL A   1      41.644  31.489  28.547  1.00  0.00     0.167 HD
ATOM     56  C   UNL A   1      45.466  31.041  28.521  1.00  0.00     0.074 A 
ATOM     57  C   UNL A   1      46.740  31.290  27.860  1.00  0.00     0.031 C 
ATOM     58  C   UNL A   1      44.385  31.880  28.758  1.00  0.00     0.037 A 
BRANCH  45  59
ATOM     59  C   UNL A   1      38.694  31.021  31.432  1.00  0.00     0.064 A 
ATOM     60  C   UNL A   1      37.566  31.726  30.968  1.00  0.00     0.173 A 
ATOM     61  C   UNL A   1      38.659  30.764  32.826  1.00  0.00     0.173 A 
ATOM     62  F   UNL A   1      37.367  31.943  29.664  1.00  0.00    -0.203 F 
ATOM     63  C   UNL A   1      36.566  32.212  31.821  1.00  0.00     0.198 A 
ATOM     64  C   UNL A   1      37.696  31.300  33.688  1.00  0.00     0.198 A 
ATOM     65  F   UNL A   1      39.486  29.898  33.415  1.00  0.00    -0.203 F 
ATOM     66  F   UNL A   1      35.516  32.863  31.302  1.00  0.00    -0.200 F 
ATOM     67  C   UNL A   1      36.645  32.025  33.184  1.00  0.00     0.200 A 
ATOM     68  F   UNL A   1      37.785  31.075  35.007  1.00  0.00    -0.200 F 
ATOM     69  F   UNL A   1      35.690  32.493  33.998  1.00  0.00    -0.200 F 
ENDBRANCH  45  59
BRANCH  46  70
ATOM     70  C   UNL A   1      47.240  26.748  26.865  1.00  0.00     0.064 A 
ATOM     71  C   UNL A   1      46.652  27.080  25.610  1.00  0.00     0.173 A 
ATOM     72  C   UNL A   1      48.499  26.146  26.827  1.00  0.00     0.173 A 
ATOM     73  F   UNL A   1      45.427  27.633  25.577  1.00  0.00    -0.203 F 
ATOM     74  C   UNL A   1      47.397  27.081  24.431  1.00  0.00     0.198 A 
ATOM     75  C   UNL A   1      49.206  26.056  25.617  1.00  0.00     0.198 A 
ATOM     76  F   UNL A   1      49.124  25.821  27.966  1.00  0.00    -0.203 F 
ATOM     77  F   UNL A   1      46.905  27.663  23.327  1.00  0.00    -0.200 F 
ATOM     78  C   UNL A   1      48.691  26.599  24.445  1.00  0.00     0.200 A 
ATOM     79  F   UNL A   1      50.471  25.610  25.623  1.00  0.00    -0.200 F 
ATOM     80  F   UNL A   1      49.467  26.721  23.357  1.00  0.00    -0.200 F 
ENDBRANCH  46  70
BRANCH  58  81
ATOM     81  C   UNL A   1      44.210  33.269  28.114  1.00  0.00     0.064 A 
ATOM     82  C   UNL A   1      43.974  33.499  26.746  1.00  0.00     0.173 A 
ATOM     83  C   UNL A   1      44.179  34.449  28.909  1.00  0.00     0.173 A 
ATOM     84  F   UNL A   1      43.742  32.499  25.888  1.00  0.00    -0.203 F 
ATOM     85  C   UNL A   1      43.896  34.787  26.201  1.00  0.00     0.198 A 
ATOM     86  C   UNL A   1      43.990  35.724  28.375  1.00  0.00     0.198 A 
ATOM     87  F   UNL A   1      44.312  34.418  30.242  1.00  0.00    -0.203 F 
ATOM     88  F   UNL A   1      43.794  34.936  24.873  1.00  0.00    -0.200 F 
ATOM     89  C   UNL A   1      43.900  35.899  27.015  1.00  0.00     0.200 A 
ATOM     90  F   UNL A   1      43.892  36.780  29.196  1.00  0.00    -0.200 F 
ATOM     91  F   UNL A   1      43.789  37.128  26.494  1.00  0.00    -0.200 F 
ENDBRANCH  58  81
ENDBRANCH  32  33
ENDBRANCH  25  27
ENDBRANCH  24  25
ENDBRANCH  23  24
ENDBRANCH   1  23
TORSDOF 15
ENDMDL
