MODEL 1
REMARK VINA RESULT:     -12.2      0.000      0.000
REMARK SMILES C[C@H](NC(=O)N1CC[C@@H](C(=O)OCCOC(=O)c2ccc(-c3c4nc(c(-c5c(F)c(F)c(F)c(F)c5F)c5ccc([nH]5)c(-c5c(F)c(F)c(F)c(F)c5F)c5nc(c(-c6c(F)c(F)c(F)c(F)c6F)c6ccc3[nH]6)C=C5)C=C4)cc2)[C@H]1C)c1ccc(Cl)cc1
REMARK SMILES IDX 13 1 12 2 10 3 11 4 9 5 6 6 7 7 81 8 8 9 82 10 4 11 3 12
REMARK SMILES IDX 5 14 2 15 1 16 83 17 84 18 89 19 85 20 88 21 86 22 87 23
REMARK SMILES IDX 14 24 15 25 16 26 17 27 18 28 19 29 80 30 20 31 79 32 21 33
REMARK SMILES IDX 22 34 23 35 73 36 24 37 78 38 72 39 74 40 25 41 77 42 71 43
REMARK SMILES IDX 70 44 26 46 58 47 38 48 57 49 39 50 42 51 56 52 75 53 40 54
REMARK SMILES IDX 41 55 55 57 76 58 43 59 27 60 28 61 36 62 29 63 30 64 34 65
REMARK SMILES IDX 37 66 31 67 32 68 35 69 33 70 59 71 60 72 68 73 61 74 62 75
REMARK SMILES IDX 66 76 69 77 63 78 64 79 67 80 65 81 44 82 45 83 53 84 46 85
REMARK SMILES IDX 47 86 51 87 54 88 48 89 49 90 52 91 50 92
REMARK H PARENT 3 13 74 45 42 56
REMARK Flexibility Score: inf
ROOT
ATOM      1  C   UNL A   1      31.409  29.486  25.419  1.00  0.00     0.274 C 
ENDROOT
BRANCH   1   2
ATOM      2  O   UNL A   1      31.790  28.432  26.330  1.00  0.00    -0.462 OA
BRANCH   2   3
ATOM      3  C   UNL A   1      31.294  27.202  26.046  1.00  0.00     0.311 C 
ATOM      4  O   UNL A   1      30.846  26.421  26.877  1.00  0.00    -0.252 OA
BRANCH   3   5
ATOM      5  C   UNL A   1      31.370  26.844  24.581  1.00  0.00     0.123 C 
ATOM      6  N   UNL A   1      32.155  25.107  23.162  1.00  0.00    -0.321 N 
ATOM      7  C   UNL A   1      30.744  25.301  22.899  1.00  0.00     0.122 C 
ATOM      8  C   UNL A   1      32.651  26.214  23.982  1.00  0.00     0.098 C 
ATOM      9  C   UNL A   1      30.233  25.902  24.188  1.00  0.00     0.039 C 
ATOM     10  C   UNL A   1      33.768  25.776  24.919  1.00  0.00     0.032 C 
BRANCH   6  11
ATOM     11  C   UNL A   1      32.905  24.567  22.162  1.00  0.00     0.318 C 
ATOM     12  N   UNL A   1      33.279  23.271  22.296  1.00  0.00    -0.331 N 
ATOM     13  H   UNL A   1      33.625  22.867  21.468  1.00  0.00     0.165 HD
ATOM     14  O   UNL A   1      33.176  25.179  21.132  1.00  0.00    -0.249 OA
BRANCH  12  15
ATOM     15  C   UNL A   1      33.265  22.357  23.449  1.00  0.00     0.111 C 
ATOM     16  C   UNL A   1      32.525  21.038  23.154  1.00  0.00     0.036 C 
BRANCH  15  17
ATOM     17  C   UNL A   1      34.677  22.055  24.001  1.00  0.00    -0.026 A 
ATOM     18  C   UNL A   1      35.758  22.892  23.650  1.00  0.00     0.007 A 
ATOM     19  C   UNL A   1      34.972  20.964  24.839  1.00  0.00     0.007 A 
ATOM     20  C   UNL A   1      37.037  22.715  24.187  1.00  0.00     0.021 A 
ATOM     21  C   UNL A   1      36.255  20.777  25.372  1.00  0.00     0.021 A 
ATOM     22  C   UNL A   1      37.276  21.665  25.061  1.00  0.00     0.041 A 
ATOM     23  Cl  UNL A   1      38.837  21.462  25.751  1.00  0.00    -0.084 Cl
ENDBRANCH  15  17
ENDBRANCH  12  15
ENDBRANCH   6  11
ENDBRANCH   3   5
ENDBRANCH   2   3
ENDBRANCH   1   2
BRANCH   1  24
ATOM     24  C   UNL A   1      31.752  30.847  26.030  1.00  0.00     0.275 C 
BRANCH  24  25
ATOM     25  O   UNL A   1      33.141  30.845  26.401  1.00  0.00    -0.458 OA
BRANCH  25  26
ATOM     26  C   UNL A   1      33.530  31.821  27.251  1.00  0.00     0.338 C 
ATOM     27  O   UNL A   1      32.972  32.880  27.465  1.00  0.00    -0.246 OA
BRANCH  26  28
ATOM     28  C   UNL A   1      34.781  31.395  27.908  1.00  0.00     0.060 A 
ATOM     29  C   UNL A   1      34.929  30.085  28.377  1.00  0.00     0.016 A 
ATOM     30  C   UNL A   1      35.793  32.331  28.107  1.00  0.00     0.016 A 
ATOM     31  C   UNL A   1      36.083  29.710  29.064  1.00  0.00     0.010 A 
ATOM     32  C   UNL A   1      36.966  31.946  28.761  1.00  0.00     0.010 A 
ATOM     33  C   UNL A   1      37.111  30.639  29.261  1.00  0.00    -0.014 A 
BRANCH  33  34
ATOM     34  C   UNL A   1      38.312  30.284  30.057  1.00  0.00     0.031 A 
ATOM     35  C   UNL A   1      39.329  29.346  29.473  1.00  0.00     0.074 A 
ATOM     36  C   UNL A   1      38.482  30.779  31.296  1.00  0.00     0.049 A 
ATOM     37  N   UNL A   1      40.363  28.780  30.042  1.00  0.00    -0.248 NA
ATOM     38  C   UNL A   1      39.150  28.990  28.057  1.00  0.00     0.031 C 
ATOM     39  C   UNL A   1      37.590  31.730  31.957  1.00  0.00     0.029 A 
ATOM     40  N   UNL A   1      39.463  30.538  32.225  1.00  0.00    -0.354 N 
ATOM     41  C   UNL A   1      40.936  27.977  29.067  1.00  0.00     0.074 A 
ATOM     42  C   UNL A   1      40.132  28.119  27.872  1.00  0.00     0.031 C 
ATOM     43  C   UNL A   1      38.063  31.992  33.186  1.00  0.00     0.029 A 
ATOM     44  C   UNL A   1      39.262  31.190  33.416  1.00  0.00     0.049 A 
ATOM     45  H   UNL A   1      40.237  29.954  32.054  1.00  0.00     0.167 HD
ATOM     46  C   UNL A   1      42.036  27.193  29.161  1.00  0.00     0.037 A 
ATOM     47  C   UNL A   1      39.951  31.122  34.572  1.00  0.00     0.037 A 
ATOM     48  C   UNL A   1      42.848  27.075  30.343  1.00  0.00     0.049 A 
ATOM     49  C   UNL A   1      41.149  30.217  34.663  1.00  0.00     0.074 A 
ATOM     50  C   UNL A   1      43.986  26.312  30.537  1.00  0.00     0.029 A 
ATOM     51  N   UNL A   1      42.608  27.749  31.531  1.00  0.00    -0.354 N 
ATOM     52  N   UNL A   1      41.672  29.441  33.745  1.00  0.00    -0.248 NA
ATOM     53  C   UNL A   1      41.851  30.174  35.955  1.00  0.00     0.031 C 
ATOM     54  C   UNL A   1      44.418  26.502  31.855  1.00  0.00     0.029 A 
ATOM     55  C   UNL A   1      43.572  27.411  32.468  1.00  0.00     0.049 A 
ATOM     56  H   UNL A   1      41.864  28.374  31.686  1.00  0.00     0.167 HD
ATOM     57  C   UNL A   1      42.770  28.833  34.337  1.00  0.00     0.074 A 
ATOM     58  C   UNL A   1      42.847  29.339  35.693  1.00  0.00     0.031 C 
ATOM     59  C   UNL A   1      43.636  27.934  33.808  1.00  0.00     0.037 A 
BRANCH  46  60
ATOM     60  C   UNL A   1      42.404  26.376  27.958  1.00  0.00     0.064 A 
ATOM     61  C   UNL A   1      43.349  26.824  27.023  1.00  0.00     0.173 A 
ATOM     62  C   UNL A   1      41.818  25.119  27.751  1.00  0.00     0.173 A 
ATOM     63  F   UNL A   1      43.925  28.027  27.169  1.00  0.00    -0.203 F 
ATOM     64  C   UNL A   1      43.674  26.053  25.910  1.00  0.00     0.198 A 
ATOM     65  C   UNL A   1      42.163  24.339  26.650  1.00  0.00     0.198 A 
ATOM     66  F   UNL A   1      40.910  24.645  28.617  1.00  0.00    -0.203 F 
ATOM     67  F   UNL A   1      44.545  26.519  25.004  1.00  0.00    -0.200 F 
ATOM     68  C   UNL A   1      43.086  24.810  25.728  1.00  0.00     0.200 A 
ATOM     69  F   UNL A   1      41.601  23.135  26.479  1.00  0.00    -0.200 F 
ATOM     70  F   UNL A   1      43.402  24.068  24.657  1.00  0.00    -0.200 F 
ENDBRANCH  46  60
BRANCH  47  71
ATOM     71  C   UNL A   1      39.513  31.927  35.740  1.00  0.00     0.064 A 
ATOM     72  C   UNL A   1      40.080  33.181  36.002  1.00  0.00     0.173 A 
ATOM     73  C   UNL A   1      38.518  31.464  36.614  1.00  0.00     0.173 A 
ATOM     74  F   UNL A   1      41.054  33.654  35.211  1.00  0.00    -0.203 F 
ATOM     75  C   UNL A   1      39.675  33.940  37.098  1.00  0.00     0.198 A 
ATOM     76  C   UNL A   1      38.096  32.233  37.695  1.00  0.00     0.198 A 
ATOM     77  F   UNL A   1      37.948  30.268  36.409  1.00  0.00    -0.203 F 
ATOM     78  F   UNL A   1      40.257  35.120  37.347  1.00  0.00    -0.200 F 
ATOM     79  C   UNL A   1      38.677  33.469  37.940  1.00  0.00     0.200 A 
ATOM     80  F   UNL A   1      37.126  31.779  38.501  1.00  0.00    -0.200 F 
ATOM     81  F   UNL A   1      38.282  34.202  38.990  1.00  0.00    -0.200 F 
ENDBRANCH  47  71
BRANCH  59  82
ATOM     82  C   UNL A   1      44.759  27.468  34.684  1.00  0.00     0.064 A 
ATOM     83  C   UNL A   1      45.969  28.173  34.762  1.00  0.00     0.173 A 
ATOM     84  C   UNL A   1      44.607  26.328  35.486  1.00  0.00     0.173 A 
ATOM     85  F   UNL A   1      46.166  29.261  34.003  1.00  0.00    -0.203 F 
ATOM     86  C   UNL A   1      46.995  27.740  35.597  1.00  0.00     0.198 A 
ATOM     87  C   UNL A   1      45.626  25.910  36.338  1.00  0.00     0.198 A 
ATOM     88  F   UNL A   1      43.466  25.624  35.450  1.00  0.00    -0.203 F 
ATOM     89  F   UNL A   1      48.157  28.407  35.629  1.00  0.00    -0.200 F 
ATOM     90  C   UNL A   1      46.820  26.614  36.389  1.00  0.00     0.200 A 
ATOM     91  F   UNL A   1      45.453  24.828  37.108  1.00  0.00    -0.200 F 
ATOM     92  F   UNL A   1      47.807  26.201  37.196  1.00  0.00    -0.200 F 
ENDBRANCH  59  82
ENDBRANCH  33  34
ENDBRANCH  26  28
ENDBRANCH  25  26
ENDBRANCH  24  25
ENDBRANCH   1  24
TORSDOF 14
ENDMDL
MODEL 2
REMARK VINA RESULT:     -12.1      4.612      9.979
REMARK SMILES C[C@H](NC(=O)N1CC[C@@H](C(=O)OCCOC(=O)c2ccc(-c3c4nc(c(-c5c(F)c(F)c(F)c(F)c5F)c5ccc([nH]5)c(-c5c(F)c(F)c(F)c(F)c5F)c5nc(c(-c6c(F)c(F)c(F)c(F)c6F)c6ccc3[nH]6)C=C5)C=C4)cc2)[C@H]1C)c1ccc(Cl)cc1
REMARK SMILES IDX 13 1 12 2 10 3 11 4 9 5 6 6 7 7 81 8 8 9 82 10 4 11 3 12
REMARK SMILES IDX 5 14 2 15 1 16 83 17 84 18 89 19 85 20 88 21 86 22 87 23
REMARK SMILES IDX 14 24 15 25 16 26 17 27 18 28 19 29 80 30 20 31 79 32 21 33
REMARK SMILES IDX 22 34 23 35 73 36 24 37 78 38 72 39 74 40 25 41 77 42 71 43
REMARK SMILES IDX 70 44 26 46 58 47 38 48 57 49 39 50 42 51 56 52 75 53 40 54
REMARK SMILES IDX 41 55 55 57 76 58 43 59 27 60 28 61 36 62 29 63 30 64 34 65
REMARK SMILES IDX 37 66 31 67 32 68 35 69 33 70 59 71 60 72 68 73 61 74 62 75
REMARK SMILES IDX 66 76 69 77 63 78 64 79 67 80 65 81 44 82 45 83 53 84 46 85
REMARK SMILES IDX 47 86 51 87 54 88 48 89 49 90 52 91 50 92
REMARK H PARENT 3 13 74 45 42 56
REMARK Flexibility Score: inf
ROOT
ATOM      1  C   UNL A   1      36.216  20.829  24.927  1.00  0.00     0.274 C 
ENDROOT
BRANCH   1   2
ATOM      2  O   UNL A   1      36.345  22.110  24.274  1.00  0.00    -0.462 OA
BRANCH   2   3
ATOM      3  C   UNL A   1      35.196  22.641  23.788  1.00  0.00     0.311 C 
ATOM      4  O   UNL A   1      35.114  23.306  22.762  1.00  0.00    -0.252 OA
BRANCH   3   5
ATOM      5  C   UNL A   1      33.990  22.368  24.654  1.00  0.00     0.123 C 
ATOM      6  N   UNL A   1      32.058  23.465  25.498  1.00  0.00    -0.321 N 
ATOM      7  C   UNL A   1      31.627  22.289  24.769  1.00  0.00     0.122 C 
ATOM      8  C   UNL A   1      33.508  23.406  25.696  1.00  0.00     0.098 C 
ATOM      9  C   UNL A   1      32.763  22.048  23.802  1.00  0.00     0.039 C 
ATOM     10  C   UNL A   1      34.139  24.791  25.706  1.00  0.00     0.032 C 
BRANCH   6  11
ATOM     11  C   UNL A   1      31.223  23.936  26.464  1.00  0.00     0.318 C 
ATOM     12  N   UNL A   1      30.541  25.076  26.194  1.00  0.00    -0.331 N 
ATOM     13  H   UNL A   1      29.802  25.258  26.817  1.00  0.00     0.165 HD
ATOM     14  O   UNL A   1      31.014  23.332  27.513  1.00  0.00    -0.249 OA
BRANCH  12  15
ATOM     15  C   UNL A   1      30.701  26.093  25.142  1.00  0.00     0.111 C 
ATOM     16  C   UNL A   1      29.408  26.326  24.337  1.00  0.00     0.036 C 
BRANCH  15  17
ATOM     17  C   UNL A   1      31.237  27.440  25.677  1.00  0.00    -0.026 A 
ATOM     18  C   UNL A   1      31.720  27.524  27.001  1.00  0.00     0.007 A 
ATOM     19  C   UNL A   1      31.261  28.628  24.922  1.00  0.00     0.007 A 
ATOM     20  C   UNL A   1      32.293  28.695  27.509  1.00  0.00     0.021 A 
ATOM     21  C   UNL A   1      31.825  29.806  25.430  1.00  0.00     0.021 A 
ATOM     22  C   UNL A   1      32.358  29.829  26.713  1.00  0.00     0.041 A 
ATOM     23  Cl  UNL A   1      33.090  31.261  27.319  1.00  0.00    -0.084 Cl
ENDBRANCH  15  17
ENDBRANCH  12  15
ENDBRANCH   6  11
ENDBRANCH   3   5
ENDBRANCH   2   3
ENDBRANCH   1   2
BRANCH   1  24
ATOM     24  C   UNL A   1      37.603  20.242  25.195  1.00  0.00     0.275 C 
BRANCH  24  25
ATOM     25  O   UNL A   1      38.520  21.323  25.436  1.00  0.00    -0.458 OA
BRANCH  25  26
ATOM     26  C   UNL A   1      39.490  21.088  26.346  1.00  0.00     0.338 C 
ATOM     27  O   UNL A   1      39.853  20.009  26.777  1.00  0.00    -0.246 OA
BRANCH  26  28
ATOM     28  C   UNL A   1      40.068  22.382  26.757  1.00  0.00     0.060 A 
ATOM     29  C   UNL A   1      39.597  23.579  26.205  1.00  0.00     0.016 A 
ATOM     30  C   UNL A   1      41.128  22.395  27.661  1.00  0.00     0.016 A 
ATOM     31  C   UNL A   1      40.197  24.792  26.540  1.00  0.00     0.010 A 
ATOM     32  C   UNL A   1      41.704  23.613  28.027  1.00  0.00     0.010 A 
ATOM     33  C   UNL A   1      41.257  24.817  27.455  1.00  0.00    -0.014 A 
BRANCH  33  34
ATOM     34  C   UNL A   1      41.960  26.086  27.765  1.00  0.00     0.031 A 
ATOM     35  C   UNL A   1      41.251  27.143  28.563  1.00  0.00     0.074 A 
ATOM     36  C   UNL A   1      43.213  26.300  27.322  1.00  0.00     0.049 A 
ATOM     37  N   UNL A   1      41.611  28.376  28.814  1.00  0.00    -0.248 NA
ATOM     38  C   UNL A   1      39.958  26.760  29.148  1.00  0.00     0.031 C 
ATOM     39  C   UNL A   1      44.021  25.338  26.576  1.00  0.00     0.029 A 
ATOM     40  N   UNL A   1      44.018  27.406  27.427  1.00  0.00    -0.354 N 
ATOM     41  C   UNL A   1      40.574  28.925  29.556  1.00  0.00     0.074 A 
ATOM     42  C   UNL A   1      39.567  27.896  29.707  1.00  0.00     0.031 C 
ATOM     43  C   UNL A   1      45.209  25.895  26.289  1.00  0.00     0.029 A 
ATOM     44  C   UNL A   1      45.225  27.268  26.787  1.00  0.00     0.049 A 
ATOM     45  H   UNL A   1      43.757  28.220  27.916  1.00  0.00     0.167 HD
ATOM     46  C   UNL A   1      40.474  30.176  30.066  1.00  0.00     0.037 A 
ATOM     47  C   UNL A   1      46.216  28.160  26.597  1.00  0.00     0.037 A 
ATOM     48  C   UNL A   1      41.489  31.187  29.937  1.00  0.00     0.049 A 
ATOM     49  C   UNL A   1      46.066  29.554  27.144  1.00  0.00     0.074 A 
ATOM     50  C   UNL A   1      41.486  32.483  30.423  1.00  0.00     0.029 A 
ATOM     51  N   UNL A   1      42.696  31.009  29.277  1.00  0.00    -0.354 N 
ATOM     52  N   UNL A   1      45.074  30.075  27.823  1.00  0.00    -0.248 NA
ATOM     53  C   UNL A   1      47.174  30.487  26.892  1.00  0.00     0.031 C 
ATOM     54  C   UNL A   1      42.679  33.099  30.031  1.00  0.00     0.029 A 
ATOM     55  C   UNL A   1      43.441  32.176  29.333  1.00  0.00     0.049 A 
ATOM     56  H   UNL A   1      42.980  30.178  28.834  1.00  0.00     0.167 HD
ATOM     57  C   UNL A   1      45.441  31.385  28.095  1.00  0.00     0.074 A 
ATOM     58  C   UNL A   1      46.756  31.578  27.518  1.00  0.00     0.031 C 
ATOM     59  C   UNL A   1      44.752  32.343  28.761  1.00  0.00     0.037 A 
BRANCH  46  60
ATOM     60  C   UNL A   1      39.205  30.526  30.785  1.00  0.00     0.064 A 
ATOM     61  C   UNL A   1      39.078  30.376  32.174  1.00  0.00     0.173 A 
ATOM     62  C   UNL A   1      38.109  31.039  30.075  1.00  0.00     0.173 A 
ATOM     63  F   UNL A   1      40.092  29.875  32.894  1.00  0.00    -0.203 F 
ATOM     64  C   UNL A   1      37.890  30.703  32.822  1.00  0.00     0.198 A 
ATOM     65  C   UNL A   1      36.931  31.388  30.730  1.00  0.00     0.198 A 
ATOM     66  F   UNL A   1      38.181  31.203  28.745  1.00  0.00    -0.203 F 
ATOM     67  F   UNL A   1      37.773  30.509  34.143  1.00  0.00    -0.200 F 
ATOM     68  C   UNL A   1      36.820  31.214  32.101  1.00  0.00     0.200 A 
ATOM     69  F   UNL A   1      35.901  31.889  30.033  1.00  0.00    -0.200 F 
ATOM     70  F   UNL A   1      35.677  31.530  32.727  1.00  0.00    -0.200 F 
ENDBRANCH  46  60
BRANCH  47  71
ATOM     71  C   UNL A   1      47.432  27.763  25.844  1.00  0.00     0.064 A 
ATOM     72  C   UNL A   1      48.596  27.367  26.516  1.00  0.00     0.173 A 
ATOM     73  C   UNL A   1      47.455  27.766  24.441  1.00  0.00     0.173 A 
ATOM     74  F   UNL A   1      48.632  27.373  27.856  1.00  0.00    -0.203 F 
ATOM     75  C   UNL A   1      49.741  26.995  25.813  1.00  0.00     0.198 A 
ATOM     76  C   UNL A   1      48.591  27.371  23.740  1.00  0.00     0.198 A 
ATOM     77  F   UNL A   1      46.367  28.142  23.753  1.00  0.00    -0.203 F 
ATOM     78  F   UNL A   1      50.852  26.654  26.478  1.00  0.00    -0.200 F 
ATOM     79  C   UNL A   1      49.736  26.990  24.426  1.00  0.00     0.200 A 
ATOM     80  F   UNL A   1      48.579  27.359  22.400  1.00  0.00    -0.200 F 
ATOM     81  F   UNL A   1      50.834  26.626  23.750  1.00  0.00    -0.200 F 
ENDBRANCH  47  71
BRANCH  59  82
ATOM     82  C   UNL A   1      45.420  33.674  28.931  1.00  0.00     0.064 A 
ATOM     83  C   UNL A   1      46.264  33.937  30.020  1.00  0.00     0.173 A 
ATOM     84  C   UNL A   1      45.249  34.682  27.971  1.00  0.00     0.173 A 
ATOM     85  F   UNL A   1      46.446  33.010  30.972  1.00  0.00    -0.203 F 
ATOM     86  C   UNL A   1      46.895  35.171  30.153  1.00  0.00     0.198 A 
ATOM     87  C   UNL A   1      45.900  35.906  28.093  1.00  0.00     0.198 A 
ATOM     88  F   UNL A   1      44.456  34.475  26.908  1.00  0.00    -0.203 F 
ATOM     89  F   UNL A   1      47.667  35.415  31.221  1.00  0.00    -0.200 F 
ATOM     90  C   UNL A   1      46.718  36.151  29.187  1.00  0.00     0.200 A 
ATOM     91  F   UNL A   1      45.735  36.848  27.156  1.00  0.00    -0.200 F 
ATOM     92  F   UNL A   1      47.330  37.336  29.313  1.00  0.00    -0.200 F 
ENDBRANCH  59  82
ENDBRANCH  33  34
ENDBRANCH  26  28
ENDBRANCH  25  26
ENDBRANCH  24  25
ENDBRANCH   1  24
TORSDOF 14
ENDMDL
MODEL 3
REMARK VINA RESULT:     -12.1      4.712      7.829
REMARK SMILES C[C@H](NC(=O)N1CC[C@@H](C(=O)OCCOC(=O)c2ccc(-c3c4nc(c(-c5c(F)c(F)c(F)c(F)c5F)c5ccc([nH]5)c(-c5c(F)c(F)c(F)c(F)c5F)c5nc(c(-c6c(F)c(F)c(F)c(F)c6F)c6ccc3[nH]6)C=C5)C=C4)cc2)[C@H]1C)c1ccc(Cl)cc1
REMARK SMILES IDX 13 1 12 2 10 3 11 4 9 5 6 6 7 7 81 8 8 9 82 10 4 11 3 12
REMARK SMILES IDX 5 14 2 15 1 16 83 17 84 18 89 19 85 20 88 21 86 22 87 23
REMARK SMILES IDX 14 24 15 25 16 26 17 27 18 28 19 29 80 30 20 31 79 32 21 33
REMARK SMILES IDX 22 34 23 35 73 36 24 37 78 38 72 39 74 40 25 41 77 42 71 43
REMARK SMILES IDX 70 44 26 46 58 47 38 48 57 49 39 50 42 51 56 52 75 53 40 54
REMARK SMILES IDX 41 55 55 57 76 58 43 59 27 60 28 61 36 62 29 63 30 64 34 65
REMARK SMILES IDX 37 66 31 67 32 68 35 69 33 70 59 71 60 72 68 73 61 74 62 75
REMARK SMILES IDX 66 76 69 77 63 78 64 79 67 80 65 81 44 82 45 83 53 84 46 85
REMARK SMILES IDX 47 86 51 87 54 88 48 89 49 90 52 91 50 92
REMARK H PARENT 3 13 74 45 42 56
REMARK Flexibility Score: inf
ROOT
ATOM      1  C   UNL A   1      37.778  19.805  24.844  1.00  0.00     0.274 C 
ENDROOT
BRANCH   1   2
ATOM      2  O   UNL A   1      37.784  21.246  24.760  1.00  0.00    -0.462 OA
BRANCH   2   3
ATOM      3  C   UNL A   1      36.632  21.815  24.325  1.00  0.00     0.311 C 
ATOM      4  O   UNL A   1      36.536  22.524  23.330  1.00  0.00    -0.252 OA
BRANCH   3   5
ATOM      5  C   UNL A   1      35.443  21.523  25.208  1.00  0.00     0.123 C 
ATOM      6  N   UNL A   1      33.546  22.611  26.140  1.00  0.00    -0.321 N 
ATOM      7  C   UNL A   1      33.083  21.470  25.376  1.00  0.00     0.122 C 
ATOM      8  C   UNL A   1      34.999  22.527  26.301  1.00  0.00     0.098 C 
ATOM      9  C   UNL A   1      34.192  21.252  24.374  1.00  0.00     0.039 C 
ATOM     10  C   UNL A   1      35.649  23.902  26.349  1.00  0.00     0.032 C 
BRANCH   6  11
ATOM     11  C   UNL A   1      32.740  23.055  27.143  1.00  0.00     0.318 C 
ATOM     12  N   UNL A   1      31.920  24.097  26.865  1.00  0.00    -0.331 N 
ATOM     13  H   UNL A   1      31.214  24.241  27.536  1.00  0.00     0.165 HD
ATOM     14  O   UNL A   1      32.679  22.502  28.238  1.00  0.00    -0.249 OA
BRANCH  12  15
ATOM     15  C   UNL A   1      31.887  25.054  25.747  1.00  0.00     0.111 C 
ATOM     16  C   UNL A   1      30.505  25.131  25.070  1.00  0.00     0.036 C 
BRANCH  15  17
ATOM     17  C   UNL A   1      32.355  26.471  26.148  1.00  0.00    -0.026 A 
ATOM     18  C   UNL A   1      31.468  27.335  26.827  1.00  0.00     0.007 A 
ATOM     19  C   UNL A   1      33.634  26.982  25.860  1.00  0.00     0.007 A 
ATOM     20  C   UNL A   1      31.867  28.594  27.287  1.00  0.00     0.021 A 
ATOM     21  C   UNL A   1      34.035  28.248  26.311  1.00  0.00     0.021 A 
ATOM     22  C   UNL A   1      33.157  29.039  27.041  1.00  0.00     0.041 A 
ATOM     23  Cl  UNL A   1      33.663  30.572  27.632  1.00  0.00    -0.084 Cl
ENDBRANCH  15  17
ENDBRANCH  12  15
ENDBRANCH   6  11
ENDBRANCH   3   5
ENDBRANCH   2   3
ENDBRANCH   1   2
BRANCH   1  24
ATOM     24  C   UNL A   1      38.938  19.334  25.724  1.00  0.00     0.275 C 
BRANCH  24  25
ATOM     25  O   UNL A   1      39.896  20.401  25.830  1.00  0.00    -0.458 OA
BRANCH  25  26
ATOM     26  C   UNL A   1      40.535  20.509  27.015  1.00  0.00     0.338 C 
ATOM     27  O   UNL A   1      40.823  19.611  27.784  1.00  0.00    -0.246 OA
BRANCH  26  28
ATOM     28  C   UNL A   1      40.844  21.933  27.250  1.00  0.00     0.060 A 
ATOM     29  C   UNL A   1      40.211  22.932  26.502  1.00  0.00     0.016 A 
ATOM     30  C   UNL A   1      41.818  22.269  28.188  1.00  0.00     0.016 A 
ATOM     31  C   UNL A   1      40.561  24.270  26.675  1.00  0.00     0.010 A 
ATOM     32  C   UNL A   1      42.143  23.613  28.390  1.00  0.00     0.010 A 
ATOM     33  C   UNL A   1      41.532  24.620  27.622  1.00  0.00    -0.014 A 
BRANCH  33  34
ATOM     34  C   UNL A   1      41.976  26.028  27.766  1.00  0.00     0.031 A 
ATOM     35  C   UNL A   1      43.312  26.437  27.215  1.00  0.00     0.074 A 
ATOM     36  C   UNL A   1      41.202  26.928  28.399  1.00  0.00     0.049 A 
ATOM     37  N   UNL A   1      43.964  27.563  27.363  1.00  0.00    -0.248 NA
ATOM     38  C   UNL A   1      44.012  25.438  26.394  1.00  0.00     0.031 C 
ATOM     39  C   UNL A   1      39.869  26.665  28.939  1.00  0.00     0.029 A 
ATOM     40  N   UNL A   1      41.435  28.246  28.705  1.00  0.00    -0.354 N 
ATOM     41  C   UNL A   1      45.163  27.394  26.684  1.00  0.00     0.074 A 
ATOM     42  C   UNL A   1      45.155  26.056  26.132  1.00  0.00     0.031 C 
ATOM     43  C   UNL A   1      39.401  27.787  29.512  1.00  0.00     0.029 A 
ATOM     44  C   UNL A   1      40.421  28.829  29.423  1.00  0.00     0.049 A 
ATOM     45  H   UNL A   1      42.251  28.726  28.435  1.00  0.00     0.167 HD
ATOM     46  C   UNL A   1      46.177  28.279  26.535  1.00  0.00     0.037 A 
ATOM     47  C   UNL A   1      40.338  30.057  29.973  1.00  0.00     0.037 A 
ATOM     48  C   UNL A   1      46.169  29.617  27.064  1.00  0.00     0.049 A 
ATOM     49  C   UNL A   1      41.493  31.009  29.823  1.00  0.00     0.074 A 
ATOM     50  C   UNL A   1      47.146  30.593  26.962  1.00  0.00     0.029 A 
ATOM     51  N   UNL A   1      45.125  30.169  27.790  1.00  0.00    -0.354 N 
ATOM     52  N   UNL A   1      42.634  30.836  29.202  1.00  0.00    -0.248 NA
ATOM     53  C   UNL A   1      41.351  32.328  30.458  1.00  0.00     0.031 C 
ATOM     54  C   UNL A   1      46.704  31.726  27.653  1.00  0.00     0.029 A 
ATOM     55  C   UNL A   1      45.437  31.470  28.151  1.00  0.00     0.049 A 
ATOM     56  H   UNL A   1      44.286  29.706  28.014  1.00  0.00     0.167 HD
ATOM     57  C   UNL A   1      43.336  32.023  29.353  1.00  0.00     0.074 A 
ATOM     58  C   UNL A   1      42.488  32.916  30.116  1.00  0.00     0.031 C 
ATOM     59  C   UNL A   1      44.574  32.345  28.902  1.00  0.00     0.037 A 
BRANCH  46  60
ATOM     60  C   UNL A   1      47.395  27.811  25.795  1.00  0.00     0.064 A 
ATOM     61  C   UNL A   1      48.530  27.336  26.467  1.00  0.00     0.173 A 
ATOM     62  C   UNL A   1      47.416  27.821  24.393  1.00  0.00     0.173 A 
ATOM     63  F   UNL A   1      48.565  27.323  27.808  1.00  0.00    -0.203 F 
ATOM     64  C   UNL A   1      49.653  26.910  25.761  1.00  0.00     0.198 A 
ATOM     65  C   UNL A   1      48.530  27.371  23.689  1.00  0.00     0.198 A 
ATOM     66  F   UNL A   1      46.354  28.264  23.703  1.00  0.00    -0.203 F 
ATOM     67  F   UNL A   1      50.744  26.502  26.423  1.00  0.00    -0.200 F 
ATOM     68  C   UNL A   1      49.649  26.922  24.374  1.00  0.00     0.200 A 
ATOM     69  F   UNL A   1      48.523  27.375  22.349  1.00  0.00    -0.200 F 
ATOM     70  F   UNL A   1      50.730  26.510  23.696  1.00  0.00    -0.200 F 
ENDBRANCH  46  60
BRANCH  47  71
ATOM     71  C   UNL A   1      39.120  30.447  30.727  1.00  0.00     0.064 A 
ATOM     72  C   UNL A   1      39.027  30.222  32.107  1.00  0.00     0.173 A 
ATOM     73  C   UNL A   1      38.030  31.055  30.088  1.00  0.00     0.173 A 
ATOM     74  F   UNL A   1      40.032  29.618  32.756  1.00  0.00    -0.203 F 
ATOM     75  C   UNL A   1      37.885  30.584  32.819  1.00  0.00     0.198 A 
ATOM     76  C   UNL A   1      36.899  31.439  30.805  1.00  0.00     0.198 A 
ATOM     77  F   UNL A   1      38.069  31.288  28.768  1.00  0.00    -0.203 F 
ATOM     78  F   UNL A   1      37.806  30.326  34.131  1.00  0.00    -0.200 F 
ATOM     79  C   UNL A   1      36.826  31.200  32.169  1.00  0.00     0.200 A 
ATOM     80  F   UNL A   1      35.881  32.042  30.175  1.00  0.00    -0.200 F 
ATOM     81  F   UNL A   1      35.730  31.554  32.856  1.00  0.00    -0.200 F 
ENDBRANCH  47  71
BRANCH  59  82
ATOM     82  C   UNL A   1      45.069  33.729  29.193  1.00  0.00     0.064 A 
ATOM     83  C   UNL A   1      45.838  34.008  30.332  1.00  0.00     0.173 A 
ATOM     84  C   UNL A   1      44.808  34.778  28.299  1.00  0.00     0.173 A 
ATOM     85  F   UNL A   1      46.101  33.041  31.223  1.00  0.00    -0.203 F 
ATOM     86  C   UNL A   1      46.309  35.295  30.577  1.00  0.00     0.198 A 
ATOM     87  C   UNL A   1      45.300  36.059  28.535  1.00  0.00     0.198 A 
ATOM     88  F   UNL A   1      44.082  34.558  27.193  1.00  0.00    -0.203 F 
ATOM     89  F   UNL A   1      47.011  35.550  31.691  1.00  0.00    -0.200 F 
ATOM     90  C   UNL A   1      46.046  36.317  29.676  1.00  0.00     0.200 A 
ATOM     91  F   UNL A   1      45.053  37.042  27.660  1.00  0.00    -0.200 F 
ATOM     92  F   UNL A   1      46.505  37.554  29.910  1.00  0.00    -0.200 F 
ENDBRANCH  59  82
ENDBRANCH  33  34
ENDBRANCH  26  28
ENDBRANCH  25  26
ENDBRANCH  24  25
ENDBRANCH   1  24
TORSDOF 14
ENDMDL
