MODEL 1
REMARK VINA RESULT:     -10.7      0.000      0.000
REMARK SMILES COCCOCC[C@@H]1CCC[C@]1([NH3+])C(=O)OCCOC(=O)c1ccc(-c2c3nc(c(-c4c(F)c(F)c(F)c(F)c4F)c4ccc([nH]4)c(-c4c(F)c(F)c(F)c(F)c4F)c4nc(c(-c5c(F)c(F)c(F)c(F)c5F)c5ccc2[nH]5)C=C4)C=C3)cc1
REMARK SMILES IDX 14 1 15 2 12 3 8 4 9 5 10 6 11 7 7 8 6 9 5 10 4 11 3 12 2 13
REMARK SMILES IDX 1 14 13 15 16 19 17 20 18 21 19 22 20 23 21 24 22 25 23 26
REMARK SMILES IDX 84 27 24 28 83 29 25 30 26 31 27 32 77 33 28 34 82 35 76 36
REMARK SMILES IDX 78 37 29 38 81 39 75 40 74 41 30 43 62 44 42 45 61 46 43 47
REMARK SMILES IDX 46 48 60 49 79 50 44 51 45 52 59 54 80 55 47 56 31 57 32 58
REMARK SMILES IDX 40 59 33 60 34 61 38 62 41 63 35 64 36 65 39 66 37 67 63 68
REMARK SMILES IDX 64 69 72 70 65 71 66 72 70 73 73 74 67 75 68 76 71 77 69 78
REMARK SMILES IDX 48 79 49 80 57 81 50 82 51 83 55 84 58 85 52 86 53 87 56 88
REMARK SMILES IDX 54 89
REMARK H PARENT 13 16 13 17 13 18 78 42 46 53
REMARK Flexibility Score: inf
ROOT
ATOM      1  C   UNL A   1      31.173  26.744  26.132  1.00  0.00     0.368 C 
ATOM      2  O   UNL A   1      31.571  26.735  27.311  1.00  0.00    -0.245 OA
ENDROOT
BRANCH   1   3
ATOM      3  C   UNL A   1      30.514  25.235  25.548  1.00  0.00     0.195 C 
ATOM      4  C   UNL A   1      30.953  23.621  25.217  1.00  0.00     0.065 C 
ATOM      5  C   UNL A   1      31.293  23.522  23.707  1.00  0.00     0.011 C 
ATOM      6  C   UNL A   1      31.067  24.890  23.122  1.00  0.00     0.008 C 
ATOM      7  C   UNL A   1      30.100  25.596  24.060  1.00  0.00     0.081 C 
BRANCH   4   8
ATOM      8  C   UNL A   1      31.575  22.319  26.018  1.00  0.00     0.039 C 
BRANCH   8   9
ATOM      9  C   UNL A   1      32.718  21.282  25.686  1.00  0.00     0.161 C 
BRANCH   9  10
ATOM     10  O   UNL A   1      33.861  21.249  26.509  1.00  0.00    -0.379 OA
BRANCH  10  11
ATOM     11  C   UNL A   1      34.087  22.543  26.962  1.00  0.00     0.188 C 
BRANCH  11  12
ATOM     12  C   UNL A   1      35.170  23.310  26.123  1.00  0.00     0.188 C 
BRANCH  12  13
ATOM     13  O   UNL A   1      34.748  23.973  24.941  1.00  0.00    -0.382 OA
ATOM     14  C   UNL A   1      34.397  25.328  25.176  1.00  0.00     0.195 C 
ENDBRANCH  12  13
ENDBRANCH  11  12
ENDBRANCH  10  11
ENDBRANCH   9  10
ENDBRANCH   8   9
ENDBRANCH   4   8
BRANCH   3  15
ATOM     15  N   UNL A   1      29.194  25.202  26.259  1.00  0.00    -0.343 N 
ATOM     16  H   UNL A   1      28.484  24.808  25.642  1.00  0.00     0.345 HD
ATOM     17  H   UNL A   1      28.926  26.151  26.523  1.00  0.00     0.345 HD
ATOM     18  H   UNL A   1      29.273  24.626  27.098  1.00  0.00     0.345 HD
ENDBRANCH   3  15
ENDBRANCH   1   3
BRANCH   1  19
ATOM     19  O   UNL A   1      31.410  27.901  25.508  1.00  0.00    -0.457 OA
BRANCH  19  20
ATOM     20  C   UNL A   1      31.679  29.292  24.823  1.00  0.00     0.274 C 
BRANCH  20  21
ATOM     21  C   UNL A   1      31.663  30.513  25.761  1.00  0.00     0.275 C 
BRANCH  21  22
ATOM     22  O   UNL A   1      32.716  30.350  26.708  1.00  0.00    -0.458 OA
BRANCH  22  23
ATOM     23  C   UNL A   1      33.239  31.489  27.210  1.00  0.00     0.338 C 
ATOM     24  O   UNL A   1      32.694  32.578  27.273  1.00  0.00    -0.246 OA
BRANCH  23  25
ATOM     25  C   UNL A   1      34.574  31.219  27.777  1.00  0.00     0.060 A 
ATOM     26  C   UNL A   1      35.503  32.234  27.994  1.00  0.00     0.016 A 
ATOM     27  C   UNL A   1      34.940  29.900  28.012  1.00  0.00     0.016 A 
ATOM     28  C   UNL A   1      36.807  31.927  28.374  1.00  0.00     0.010 A 
ATOM     29  C   UNL A   1      36.191  29.616  28.561  1.00  0.00     0.010 A 
ATOM     30  C   UNL A   1      37.142  30.630  28.765  1.00  0.00    -0.014 A 
BRANCH  30  31
ATOM     31  C   UNL A   1      38.408  30.350  29.502  1.00  0.00     0.031 A 
ATOM     32  C   UNL A   1      39.424  29.389  28.948  1.00  0.00     0.074 A 
ATOM     33  C   UNL A   1      38.579  30.866  30.740  1.00  0.00     0.049 A 
ATOM     34  N   UNL A   1      40.408  28.784  29.564  1.00  0.00    -0.248 NA
ATOM     35  C   UNL A   1      39.300  29.033  27.525  1.00  0.00     0.031 C 
ATOM     36  C   UNL A   1      37.695  31.834  31.396  1.00  0.00     0.029 A 
ATOM     37  N   UNL A   1      39.545  30.626  31.689  1.00  0.00    -0.354 N 
ATOM     38  C   UNL A   1      40.985  27.942  28.624  1.00  0.00     0.074 A 
ATOM     39  C   UNL A   1      40.222  28.089  27.402  1.00  0.00     0.031 C 
ATOM     40  C   UNL A   1      38.167  32.129  32.611  1.00  0.00     0.029 A 
ATOM     41  C   UNL A   1      39.309  31.275  32.880  1.00  0.00     0.049 A 
ATOM     42  H   UNL A   1      40.326  30.048  31.533  1.00  0.00     0.167 HD
ATOM     43  C   UNL A   1      42.053  27.122  28.774  1.00  0.00     0.037 A 
ATOM     44  C   UNL A   1      39.888  31.155  34.088  1.00  0.00     0.037 A 
ATOM     45  C   UNL A   1      42.805  26.996  29.998  1.00  0.00     0.049 A 
ATOM     46  C   UNL A   1      41.007  30.170  34.250  1.00  0.00     0.074 A 
ATOM     47  C   UNL A   1      43.918  26.213  30.246  1.00  0.00     0.029 A 
ATOM     48  N   UNL A   1      42.513  27.660  31.182  1.00  0.00    -0.354 N 
ATOM     49  N   UNL A   1      41.541  29.375  33.357  1.00  0.00    -0.248 NA
ATOM     50  C   UNL A   1      41.602  30.064  35.586  1.00  0.00     0.031 C 
ATOM     51  C   UNL A   1      44.241  26.328  31.600  1.00  0.00     0.029 A 
ATOM     52  C   UNL A   1      43.400  27.270  32.172  1.00  0.00     0.049 A 
ATOM     53  H   UNL A   1      41.785  28.312  31.299  1.00  0.00     0.167 HD
ATOM     54  C   UNL A   1      42.566  28.708  34.010  1.00  0.00     0.074 A 
ATOM     55  C   UNL A   1      42.584  29.203  35.371  1.00  0.00     0.031 C 
ATOM     56  C   UNL A   1      43.417  27.774  33.522  1.00  0.00     0.037 A 
BRANCH  43  57
ATOM     57  C   UNL A   1      42.453  26.260  27.609  1.00  0.00     0.064 A 
ATOM     58  C   UNL A   1      43.459  26.640  26.708  1.00  0.00     0.173 A 
ATOM     59  C   UNL A   1      41.846  25.007  27.417  1.00  0.00     0.173 A 
ATOM     60  F   UNL A   1      44.074  27.824  26.842  1.00  0.00    -0.203 F 
ATOM     61  C   UNL A   1      43.810  25.821  25.637  1.00  0.00     0.198 A 
ATOM     62  C   UNL A   1      42.234  24.171  26.374  1.00  0.00     0.198 A 
ATOM     63  F   UNL A   1      40.886  24.583  28.254  1.00  0.00    -0.203 F 
ATOM     64  F   UNL A   1      44.725  26.238  24.751  1.00  0.00    -0.200 F 
ATOM     65  C   UNL A   1      43.204  24.584  25.477  1.00  0.00     0.200 A 
ATOM     66  F   UNL A   1      41.665  22.964  26.239  1.00  0.00    -0.200 F 
ATOM     67  F   UNL A   1      43.552  23.794  24.453  1.00  0.00    -0.200 F 
ENDBRANCH  43  57
BRANCH  44  68
ATOM     68  C   UNL A   1      39.394  31.955  35.243  1.00  0.00     0.064 A 
ATOM     69  C   UNL A   1      39.786  33.290  35.409  1.00  0.00     0.173 A 
ATOM     70  C   UNL A   1      38.543  31.402  36.213  1.00  0.00     0.173 A 
ATOM     71  F   UNL A   1      40.607  33.863  34.517  1.00  0.00    -0.203 F 
ATOM     72  C   UNL A   1      39.386  34.024  36.523  1.00  0.00     0.198 A 
ATOM     73  C   UNL A   1      38.101  32.154  37.299  1.00  0.00     0.198 A 
ATOM     74  F   UNL A   1      38.124  30.132  36.101  1.00  0.00    -0.203 F 
ATOM     75  F   UNL A   1      39.845  35.271  36.698  1.00  0.00    -0.200 F 
ATOM     76  C   UNL A   1      38.538  33.458  37.463  1.00  0.00     0.200 A 
ATOM     77  F   UNL A   1      37.258  31.611  38.189  1.00  0.00    -0.200 F 
ATOM     78  F   UNL A   1      38.156  34.166  38.535  1.00  0.00    -0.200 F 
ENDBRANCH  44  68
BRANCH  56  79
ATOM     79  C   UNL A   1      44.493  27.277  34.442  1.00  0.00     0.064 A 
ATOM     80  C   UNL A   1      45.728  27.931  34.574  1.00  0.00     0.173 A 
ATOM     81  C   UNL A   1      44.269  26.137  35.230  1.00  0.00     0.173 A 
ATOM     82  F   UNL A   1      45.998  29.021  33.839  1.00  0.00    -0.203 F 
ATOM     83  C   UNL A   1      46.711  27.435  35.424  1.00  0.00     0.198 A 
ATOM     84  C   UNL A   1      45.233  25.678  36.120  1.00  0.00     0.198 A 
ATOM     85  F   UNL A   1      43.103  25.477  35.152  1.00  0.00    -0.203 F 
ATOM     86  F   UNL A   1      47.910  28.031  35.476  1.00  0.00    -0.200 F 
ATOM     87  C   UNL A   1      46.460  26.317  36.204  1.00  0.00     0.200 A 
ATOM     88  F   UNL A   1      44.975  24.615  36.894  1.00  0.00    -0.200 F 
ATOM     89  F   UNL A   1      47.403  25.850  37.034  1.00  0.00    -0.200 F 
ENDBRANCH  56  79
ENDBRANCH  30  31
ENDBRANCH  23  25
ENDBRANCH  22  23
ENDBRANCH  21  22
ENDBRANCH  20  21
ENDBRANCH  19  20
ENDBRANCH   1  19
TORSDOF 18
ENDMDL
MODEL 2
REMARK VINA RESULT:     -10.5      0.393      2.049
REMARK SMILES COCCOCC[C@@H]1CCC[C@]1([NH3+])C(=O)OCCOC(=O)c1ccc(-c2c3nc(c(-c4c(F)c(F)c(F)c(F)c4F)c4ccc([nH]4)c(-c4c(F)c(F)c(F)c(F)c4F)c4nc(c(-c5c(F)c(F)c(F)c(F)c5F)c5ccc2[nH]5)C=C4)C=C3)cc1
REMARK SMILES IDX 14 1 15 2 12 3 8 4 9 5 10 6 11 7 7 8 6 9 5 10 4 11 3 12 2 13
REMARK SMILES IDX 1 14 13 15 16 19 17 20 18 21 19 22 20 23 21 24 22 25 23 26
REMARK SMILES IDX 84 27 24 28 83 29 25 30 26 31 27 32 77 33 28 34 82 35 76 36
REMARK SMILES IDX 78 37 29 38 81 39 75 40 74 41 30 43 62 44 42 45 61 46 43 47
REMARK SMILES IDX 46 48 60 49 79 50 44 51 45 52 59 54 80 55 47 56 31 57 32 58
REMARK SMILES IDX 40 59 33 60 34 61 38 62 41 63 35 64 36 65 39 66 37 67 63 68
REMARK SMILES IDX 64 69 72 70 65 71 66 72 70 73 73 74 67 75 68 76 71 77 69 78
REMARK SMILES IDX 48 79 49 80 57 81 50 82 51 83 55 84 58 85 52 86 53 87 56 88
REMARK SMILES IDX 54 89
REMARK H PARENT 13 16 13 17 13 18 78 42 46 53
REMARK Flexibility Score: inf
ROOT
ATOM      1  C   UNL A   1      31.168  26.735  26.176  1.00  0.00     0.368 C 
ATOM      2  O   UNL A   1      31.663  26.673  27.315  1.00  0.00    -0.245 OA
ENDROOT
BRANCH   1   3
ATOM      3  C   UNL A   1      30.407  25.269  25.605  1.00  0.00     0.195 C 
ATOM      4  C   UNL A   1      30.768  23.676  25.113  1.00  0.00     0.065 C 
ATOM      5  C   UNL A   1      30.879  23.671  23.566  1.00  0.00     0.011 C 
ATOM      6  C   UNL A   1      30.589  25.075  23.107  1.00  0.00     0.008 C 
ATOM      7  C   UNL A   1      29.782  25.726  24.220  1.00  0.00     0.081 C 
BRANCH   4   8
ATOM      8  C   UNL A   1      31.483  22.323  25.730  1.00  0.00     0.039 C 
BRANCH   8   9
ATOM      9  C   UNL A   1      32.935  21.713  25.621  1.00  0.00     0.161 C 
BRANCH   9  10
ATOM     10  O   UNL A   1      33.977  22.314  26.353  1.00  0.00    -0.379 OA
BRANCH  10  11
ATOM     11  C   UNL A   1      34.201  23.571  25.804  1.00  0.00     0.188 C 
BRANCH  11  12
ATOM     12  C   UNL A   1      34.795  23.514  24.352  1.00  0.00     0.188 C 
BRANCH  12  13
ATOM     13  O   UNL A   1      34.365  24.494  23.420  1.00  0.00    -0.382 OA
ATOM     14  C   UNL A   1      33.996  25.713  24.046  1.00  0.00     0.195 C 
ENDBRANCH  12  13
ENDBRANCH  11  12
ENDBRANCH  10  11
ENDBRANCH   9  10
ENDBRANCH   8   9
ENDBRANCH   4   8
BRANCH   3  15
ATOM     15  N   UNL A   1      29.207  25.199  26.501  1.00  0.00    -0.343 N 
ATOM     16  H   UNL A   1      29.140  24.266  26.908  1.00  0.00     0.345 HD
ATOM     17  H   UNL A   1      28.365  25.395  25.958  1.00  0.00     0.345 HD
ATOM     18  H   UNL A   1      29.298  25.889  27.247  1.00  0.00     0.345 HD
ENDBRANCH   3  15
ENDBRANCH   1   3
BRANCH   1  19
ATOM     19  O   UNL A   1      31.395  27.903  25.568  1.00  0.00    -0.457 OA
BRANCH  19  20
ATOM     20  C   UNL A   1      31.720  29.271  24.863  1.00  0.00     0.274 C 
BRANCH  20  21
ATOM     21  C   UNL A   1      31.772  30.503  25.786  1.00  0.00     0.275 C 
BRANCH  21  22
ATOM     22  O   UNL A   1      32.851  30.319  26.699  1.00  0.00    -0.458 OA
BRANCH  22  23
ATOM     23  C   UNL A   1      33.355  31.444  27.250  1.00  0.00     0.338 C 
ATOM     24  O   UNL A   1      32.794  32.522  27.356  1.00  0.00    -0.246 OA
BRANCH  23  25
ATOM     25  C   UNL A   1      34.692  31.170  27.812  1.00  0.00     0.060 A 
ATOM     26  C   UNL A   1      35.634  32.179  28.001  1.00  0.00     0.016 A 
ATOM     27  C   UNL A   1      35.046  29.852  28.068  1.00  0.00     0.016 A 
ATOM     28  C   UNL A   1      36.937  31.866  28.377  1.00  0.00     0.010 A 
ATOM     29  C   UNL A   1      36.299  29.565  28.613  1.00  0.00     0.010 A 
ATOM     30  C   UNL A   1      37.262  30.573  28.789  1.00  0.00    -0.014 A 
BRANCH  30  31
ATOM     31  C   UNL A   1      38.531  30.293  29.521  1.00  0.00     0.031 A 
ATOM     32  C   UNL A   1      39.532  29.311  28.978  1.00  0.00     0.074 A 
ATOM     33  C   UNL A   1      38.718  30.830  30.747  1.00  0.00     0.049 A 
ATOM     34  N   UNL A   1      40.515  28.707  29.597  1.00  0.00    -0.248 NA
ATOM     35  C   UNL A   1      39.393  28.929  27.563  1.00  0.00     0.031 C 
ATOM     36  C   UNL A   1      37.849  31.821  31.393  1.00  0.00     0.029 A 
ATOM     37  N   UNL A   1      39.689  30.598  31.694  1.00  0.00    -0.354 N 
ATOM     38  C   UNL A   1      41.075  27.841  28.668  1.00  0.00     0.074 A 
ATOM     39  C   UNL A   1      40.304  27.973  27.450  1.00  0.00     0.031 C 
ATOM     40  C   UNL A   1      38.335  32.133  32.598  1.00  0.00     0.029 A 
ATOM     41  C   UNL A   1      39.470  31.272  32.874  1.00  0.00     0.049 A 
ATOM     42  H   UNL A   1      40.462  30.009  31.543  1.00  0.00     0.167 HD
ATOM     43  C   UNL A   1      42.136  27.013  28.826  1.00  0.00     0.037 A 
ATOM     44  C   UNL A   1      40.057  31.168  34.079  1.00  0.00     0.037 A 
ATOM     45  C   UNL A   1      42.896  26.902  30.046  1.00  0.00     0.049 A 
ATOM     46  C   UNL A   1      41.167  30.175  34.251  1.00  0.00     0.074 A 
ATOM     47  C   UNL A   1      44.003  26.112  30.300  1.00  0.00     0.029 A 
ATOM     48  N   UNL A   1      42.621  27.592  31.219  1.00  0.00    -0.354 N 
ATOM     49  N   UNL A   1      41.685  29.357  33.369  1.00  0.00    -0.248 NA
ATOM     50  C   UNL A   1      41.772  30.088  35.584  1.00  0.00     0.031 C 
ATOM     51  C   UNL A   1      44.338  26.249  31.648  1.00  0.00     0.029 A 
ATOM     52  C   UNL A   1      43.512  27.211  32.209  1.00  0.00     0.049 A 
ATOM     53  H   UNL A   1      41.900  28.253  31.330  1.00  0.00     0.167 HD
ATOM     54  C   UNL A   1      42.708  28.692  34.026  1.00  0.00     0.074 A 
ATOM     55  C   UNL A   1      42.743  29.212  35.377  1.00  0.00     0.031 C 
ATOM     56  C   UNL A   1      43.545  27.740  33.549  1.00  0.00     0.037 A 
BRANCH  43  57
ATOM     57  C   UNL A   1      42.516  26.125  27.674  1.00  0.00     0.064 A 
ATOM     58  C   UNL A   1      41.893  24.889  27.445  1.00  0.00     0.173 A 
ATOM     59  C   UNL A   1      43.493  26.541  26.754  1.00  0.00     0.173 A 
ATOM     60  F   UNL A   1      40.952  24.439  28.289  1.00  0.00    -0.203 F 
ATOM     61  C   UNL A   1      42.264  24.086  26.369  1.00  0.00     0.198 A 
ATOM     62  C   UNL A   1      43.826  25.759  25.653  1.00  0.00     0.198 A 
ATOM     63  F   UNL A   1      44.115  27.720  26.913  1.00  0.00    -0.203 F 
ATOM     64  F   UNL A   1      41.704  22.879  26.212  1.00  0.00    -0.200 F 
ATOM     65  C   UNL A   1      43.223  24.526  25.469  1.00  0.00     0.200 A 
ATOM     66  F   UNL A   1      44.734  26.200  24.770  1.00  0.00    -0.200 F 
ATOM     67  F   UNL A   1      43.571  23.757  24.428  1.00  0.00    -0.200 F 
ENDBRANCH  43  57
BRANCH  44  68
ATOM     68  C   UNL A   1      39.581  31.996  35.223  1.00  0.00     0.064 A 
ATOM     69  C   UNL A   1      38.641  31.492  36.130  1.00  0.00     0.173 A 
ATOM     70  C   UNL A   1      40.036  33.310  35.421  1.00  0.00     0.173 A 
ATOM     71  F   UNL A   1      38.167  30.246  35.980  1.00  0.00    -0.203 F 
ATOM     72  C   UNL A   1      38.139  32.282  37.161  1.00  0.00     0.198 A 
ATOM     73  C   UNL A   1      39.572  34.082  36.484  1.00  0.00     0.198 A 
ATOM     74  F   UNL A   1      40.946  33.843  34.591  1.00  0.00    -0.203 F 
ATOM     75  F   UNL A   1      37.178  31.801  37.961  1.00  0.00    -0.200 F 
ATOM     76  C   UNL A   1      38.610  33.574  37.341  1.00  0.00     0.200 A 
ATOM     77  F   UNL A   1      40.052  35.319  36.670  1.00  0.00    -0.200 F 
ATOM     78  F   UNL A   1      38.124  34.334  38.332  1.00  0.00    -0.200 F 
ENDBRANCH  44  68
BRANCH  56  79
ATOM     79  C   UNL A   1      44.624  27.249  34.470  1.00  0.00     0.064 A 
ATOM     80  C   UNL A   1      44.461  26.112  35.276  1.00  0.00     0.173 A 
ATOM     81  C   UNL A   1      45.857  27.918  34.522  1.00  0.00     0.173 A 
ATOM     82  F   UNL A   1      43.300  25.440  35.271  1.00  0.00    -0.203 F 
ATOM     83  C   UNL A   1      45.475  25.693  36.132  1.00  0.00     0.198 A 
ATOM     84  C   UNL A   1      46.887  27.463  35.337  1.00  0.00     0.198 A 
ATOM     85  F   UNL A   1      46.072  29.006  33.766  1.00  0.00    -0.203 F 
ATOM     86  F   UNL A   1      45.269  24.651  36.949  1.00  0.00    -0.200 F 
ATOM     87  C   UNL A   1      46.690  26.360  36.153  1.00  0.00     0.200 A 
ATOM     88  F   UNL A   1      48.070  28.092  35.332  1.00  0.00    -0.200 F 
ATOM     89  F   UNL A   1      47.671  25.946  36.967  1.00  0.00    -0.200 F 
ENDBRANCH  56  79
ENDBRANCH  30  31
ENDBRANCH  23  25
ENDBRANCH  22  23
ENDBRANCH  21  22
ENDBRANCH  20  21
ENDBRANCH  19  20
ENDBRANCH   1  19
TORSDOF 18
ENDMDL
MODEL 3
REMARK VINA RESULT:     -10.4      4.282      9.573
REMARK SMILES COCCOCC[C@@H]1CCC[C@]1([NH3+])C(=O)OCCOC(=O)c1ccc(-c2c3nc(c(-c4c(F)c(F)c(F)c(F)c4F)c4ccc([nH]4)c(-c4c(F)c(F)c(F)c(F)c4F)c4nc(c(-c5c(F)c(F)c(F)c(F)c5F)c5ccc2[nH]5)C=C4)C=C3)cc1
REMARK SMILES IDX 14 1 15 2 12 3 8 4 9 5 10 6 11 7 7 8 6 9 5 10 4 11 3 12 2 13
REMARK SMILES IDX 1 14 13 15 16 19 17 20 18 21 19 22 20 23 21 24 22 25 23 26
REMARK SMILES IDX 84 27 24 28 83 29 25 30 26 31 27 32 77 33 28 34 82 35 76 36
REMARK SMILES IDX 78 37 29 38 81 39 75 40 74 41 30 43 62 44 42 45 61 46 43 47
REMARK SMILES IDX 46 48 60 49 79 50 44 51 45 52 59 54 80 55 47 56 31 57 32 58
REMARK SMILES IDX 40 59 33 60 34 61 38 62 41 63 35 64 36 65 39 66 37 67 63 68
REMARK SMILES IDX 64 69 72 70 65 71 66 72 70 73 73 74 67 75 68 76 71 77 69 78
REMARK SMILES IDX 48 79 49 80 57 81 50 82 51 83 55 84 58 85 52 86 53 87 56 88
REMARK SMILES IDX 54 89
REMARK H PARENT 13 16 13 17 13 18 78 42 46 53
REMARK Flexibility Score: inf
ROOT
ATOM      1  C   UNL A   1      34.140  24.186  23.157  1.00  0.00     0.368 C 
ATOM      2  O   UNL A   1      33.553  23.907  22.096  1.00  0.00    -0.245 OA
ENDROOT
BRANCH   1   3
ATOM      3  C   UNL A   1      33.393  25.435  24.124  1.00  0.00     0.195 C 
ATOM      4  C   UNL A   1      31.878  25.933  24.730  1.00  0.00     0.065 C 
ATOM      5  C   UNL A   1      31.301  26.990  23.753  1.00  0.00     0.011 C 
ATOM      6  C   UNL A   1      32.327  27.183  22.669  1.00  0.00     0.008 C 
ATOM      7  C   UNL A   1      33.656  26.739  23.260  1.00  0.00     0.081 C 
BRANCH   4   8
ATOM      8  C   UNL A   1      30.674  25.340  25.690  1.00  0.00     0.039 C 
BRANCH   8   9
ATOM      9  C   UNL A   1      30.459  23.970  26.444  1.00  0.00     0.161 C 
BRANCH   9  10
ATOM     10  O   UNL A   1      31.402  23.576  27.414  1.00  0.00    -0.379 OA
BRANCH  10  11
ATOM     11  C   UNL A   1      32.330  22.756  26.784  1.00  0.00     0.188 C 
BRANCH  11  12
ATOM     12  C   UNL A   1      31.783  22.106  25.464  1.00  0.00     0.188 C 
BRANCH  12  13
ATOM     13  O   UNL A   1      31.777  20.689  25.374  1.00  0.00    -0.382 OA
ATOM     14  C   UNL A   1      32.999  20.173  24.869  1.00  0.00     0.195 C 
ENDBRANCH  12  13
ENDBRANCH  11  12
ENDBRANCH  10  11
ENDBRANCH   9  10
ENDBRANCH   8   9
ENDBRANCH   4   8
BRANCH   3  15
ATOM     15  N   UNL A   1      34.387  25.571  25.238  1.00  0.00    -0.343 N 
ATOM     16  H   UNL A   1      33.925  25.397  26.130  1.00  0.00     0.345 HD
ATOM     17  H   UNL A   1      34.776  26.515  25.234  1.00  0.00     0.345 HD
ATOM     18  H   UNL A   1      35.139  24.894  25.108  1.00  0.00     0.345 HD
ENDBRANCH   3  15
ENDBRANCH   1   3
BRANCH   1  19
ATOM     19  O   UNL A   1      35.291  23.524  23.310  1.00  0.00    -0.457 OA
BRANCH  19  20
ATOM     20  C   UNL A   1      36.615  22.697  23.501  1.00  0.00     0.274 C 
BRANCH  20  21
ATOM     21  C   UNL A   1      36.537  21.534  24.507  1.00  0.00     0.275 C 
BRANCH  21  22
ATOM     22  O   UNL A   1      37.152  21.963  25.720  1.00  0.00    -0.458 OA
BRANCH  22  23
ATOM     23  C   UNL A   1      38.459  21.655  25.859  1.00  0.00     0.338 C 
ATOM     24  O   UNL A   1      39.016  20.640  25.478  1.00  0.00    -0.246 OA
BRANCH  23  25
ATOM     25  C   UNL A   1      39.175  22.788  26.478  1.00  0.00     0.060 A 
ATOM     26  C   UNL A   1      40.296  22.600  27.282  1.00  0.00     0.016 A 
ATOM     27  C   UNL A   1      38.654  24.066  26.323  1.00  0.00     0.016 A 
ATOM     28  C   UNL A   1      40.850  23.669  27.982  1.00  0.00     0.010 A 
ATOM     29  C   UNL A   1      39.320  25.156  26.885  1.00  0.00     0.010 A 
ATOM     30  C   UNL A   1      40.439  24.976  27.714  1.00  0.00    -0.014 A 
BRANCH  30  31
ATOM     31  C   UNL A   1      41.241  26.146  28.174  1.00  0.00     0.031 A 
ATOM     32  C   UNL A   1      40.600  27.261  28.953  1.00  0.00     0.074 A 
ATOM     33  C   UNL A   1      42.527  26.263  27.774  1.00  0.00     0.049 A 
ATOM     34  N   UNL A   1      41.035  28.478  29.163  1.00  0.00    -0.248 NA
ATOM     35  C   UNL A   1      39.280  26.988  29.545  1.00  0.00     0.031 C 
ATOM     36  C   UNL A   1      43.294  25.250  27.040  1.00  0.00     0.029 A 
ATOM     37  N   UNL A   1      43.418  27.304  27.899  1.00  0.00    -0.354 N 
ATOM     38  C   UNL A   1      40.028  29.128  29.862  1.00  0.00     0.074 A 
ATOM     39  C   UNL A   1      38.943  28.181  30.015  1.00  0.00     0.031 C 
ATOM     40  C   UNL A   1      44.532  25.697  26.811  1.00  0.00     0.029 A 
ATOM     41  C   UNL A   1      44.614  27.076  27.256  1.00  0.00     0.049 A 
ATOM     42  H   UNL A   1      43.220  28.129  28.397  1.00  0.00     0.167 HD
ATOM     43  C   UNL A   1      40.016  30.399  30.329  1.00  0.00     0.037 A 
ATOM     44  C   UNL A   1      45.645  27.893  26.979  1.00  0.00     0.037 A 
ATOM     45  C   UNL A   1      41.111  31.324  30.173  1.00  0.00     0.049 A 
ATOM     46  C   UNL A   1      45.564  29.322  27.426  1.00  0.00     0.074 A 
ATOM     47  C   UNL A   1      41.208  32.626  30.631  1.00  0.00     0.029 A 
ATOM     48  N   UNL A   1      42.292  31.050  29.497  1.00  0.00    -0.354 N 
ATOM     49  N   UNL A   1      44.605  29.928  28.081  1.00  0.00    -0.248 NA
ATOM     50  C   UNL A   1      46.705  30.181  27.094  1.00  0.00     0.031 C 
ATOM     51  C   UNL A   1      42.401  33.170  30.152  1.00  0.00     0.029 A 
ATOM     52  C   UNL A   1      43.103  32.175  29.491  1.00  0.00     0.049 A 
ATOM     53  H   UNL A   1      42.519  30.186  29.084  1.00  0.00     0.167 HD
ATOM     54  C   UNL A   1      45.046  31.227  28.281  1.00  0.00     0.074 A 
ATOM     55  C   UNL A   1      46.365  31.315  27.688  1.00  0.00     0.031 C 
ATOM     56  C   UNL A   1      44.417  32.250  28.906  1.00  0.00     0.037 A 
BRANCH  43  57
ATOM     57  C   UNL A   1      38.770  30.889  31.013  1.00  0.00     0.064 A 
ATOM     58  C   UNL A   1      38.623  30.862  32.408  1.00  0.00     0.173 A 
ATOM     59  C   UNL A   1      37.720  31.439  30.259  1.00  0.00     0.173 A 
ATOM     60  F   UNL A   1      39.593  30.350  33.181  1.00  0.00    -0.203 F 
ATOM     61  C   UNL A   1      37.458  31.323  33.016  1.00  0.00     0.198 A 
ATOM     62  C   UNL A   1      36.578  31.944  30.873  1.00  0.00     0.198 A 
ATOM     63  F   UNL A   1      37.808  31.504  28.921  1.00  0.00    -0.203 F 
ATOM     64  F   UNL A   1      37.314  31.222  34.345  1.00  0.00    -0.200 F 
ATOM     65  C   UNL A   1      36.441  31.873  32.250  1.00  0.00     0.200 A 
ATOM     66  F   UNL A   1      35.609  32.499  30.131  1.00  0.00    -0.200 F 
ATOM     67  F   UNL A   1      35.326  32.326  32.838  1.00  0.00    -0.200 F 
ENDBRANCH  43  57
BRANCH  44  68
ATOM     68  C   UNL A   1      46.818  27.393  26.209  1.00  0.00     0.064 A 
ATOM     69  C   UNL A   1      47.869  26.730  26.855  1.00  0.00     0.173 A 
ATOM     70  C   UNL A   1      46.925  27.585  24.822  1.00  0.00     0.173 A 
ATOM     71  F   UNL A   1      47.821  26.531  28.181  1.00  0.00    -0.203 F 
ATOM     72  C   UNL A   1      49.001  26.322  26.155  1.00  0.00     0.198 A 
ATOM     73  C   UNL A   1      48.034  27.128  24.114  1.00  0.00     0.198 A 
ATOM     74  F   UNL A   1      45.944  28.202  24.147  1.00  0.00    -0.203 F 
ATOM     75  F   UNL A   1      50.027  25.766  26.814  1.00  0.00    -0.200 F 
ATOM     76  C   UNL A   1      49.080  26.515  24.784  1.00  0.00     0.200 A 
ATOM     77  F   UNL A   1      48.092  27.292  22.785  1.00  0.00    -0.200 F 
ATOM     78  F   UNL A   1      50.171  26.122  24.112  1.00  0.00    -0.200 F 
ENDBRANCH  44  68
BRANCH  56  79
ATOM     79  C   UNL A   1      45.174  33.538  29.049  1.00  0.00     0.064 A 
ATOM     80  C   UNL A   1      45.082  34.571  28.104  1.00  0.00     0.173 A 
ATOM     81  C   UNL A   1      45.987  33.751  30.174  1.00  0.00     0.173 A 
ATOM     82  F   UNL A   1      44.326  34.418  27.005  1.00  0.00    -0.203 F 
ATOM     83  C   UNL A   1      45.811  35.747  28.258  1.00  0.00     0.198 A 
ATOM     84  C   UNL A   1      46.669  34.949  30.352  1.00  0.00     0.198 A 
ATOM     85  F   UNL A   1      46.105  32.800  31.115  1.00  0.00    -0.203 F 
ATOM     86  F   UNL A   1      45.768  36.687  27.304  1.00  0.00    -0.200 F 
ATOM     87  C   UNL A   1      46.593  35.939  29.386  1.00  0.00     0.200 A 
ATOM     88  F   UNL A   1      47.400  35.143  31.458  1.00  0.00    -0.200 F 
ATOM     89  F   UNL A   1      47.282  37.078  29.539  1.00  0.00    -0.200 F 
ENDBRANCH  56  79
ENDBRANCH  30  31
ENDBRANCH  23  25
ENDBRANCH  22  23
ENDBRANCH  21  22
ENDBRANCH  20  21
ENDBRANCH  19  20
ENDBRANCH   1  19
TORSDOF 18
ENDMDL
