MODEL 1
REMARK VINA RESULT:     -13.6      0.000      0.000
REMARK SMILES C[C@H](C(=O)OCCOC(=O)c1ccc(-c2c3nc(c(-c4c(F)c(F)c(F)c(F)c4F)c4ccc([nH]4)c(-c4c(F)c(F)c(F)c(F)c4F)c4nc(c(-c5c(F)c(F)c(F)c(F)c5F)c5ccc2[nH]5)C=C4)C=C3)cc1)N1C(=O)C[C@@H](N2C(=O)/C(=C/c3ccccc3)SC2=S)C1=O
REMARK SMILES IDX 6 1 5 2 3 3 4 4 2 5 1 6 74 7 75 8 93 9 76 10 77 11 78 12
REMARK SMILES IDX 94 13 79 14 80 15 91 16 81 17 82 18 90 19 92 20 83 21 84 22
REMARK SMILES IDX 85 23 89 24 86 25 88 26 87 27 7 28 8 29 9 30 10 31 11 32
REMARK SMILES IDX 12 33 73 34 13 35 72 36 14 37 15 38 16 39 66 40 17 41 71 42
REMARK SMILES IDX 65 43 67 44 18 45 70 46 64 47 63 48 19 50 51 51 31 52 50 53
REMARK SMILES IDX 32 54 35 55 49 56 68 57 33 58 34 59 48 61 69 62 36 63 20 64
REMARK SMILES IDX 21 65 29 66 22 67 23 68 27 69 30 70 24 71 25 72 28 73 26 74
REMARK SMILES IDX 52 75 53 76 61 77 54 78 55 79 59 80 62 81 56 82 57 83 60 84
REMARK SMILES IDX 58 85 37 86 38 87 46 88 39 89 40 90 44 91 47 92 41 93 42 94
REMARK SMILES IDX 45 95 43 96
REMARK H PARENT 67 49 35 60
REMARK Flexibility Score: inf
ROOT
ATOM      1  C   UNL A   1      32.776  29.339  24.608  1.00  0.00     0.274 C 
ENDROOT
BRANCH   1   2
ATOM      2  O   UNL A   1      32.052  28.886  23.446  1.00  0.00    -0.461 OA
BRANCH   2   3
ATOM      3  C   UNL A   1      32.611  27.834  22.785  1.00  0.00     0.329 C 
ATOM      4  O   UNL A   1      33.622  27.899  22.093  1.00  0.00    -0.250 OA
BRANCH   3   5
ATOM      5  C   UNL A   1      31.932  26.499  23.113  1.00  0.00     0.200 C 
ATOM      6  C   UNL A   1      32.290  25.498  22.005  1.00  0.00     0.044 C 
BRANCH   5   7
ATOM      7  N   UNL A   1      32.216  25.931  24.431  1.00  0.00    -0.267 N 
ATOM      8  C   UNL A   1      31.267  25.479  25.305  1.00  0.00     0.232 C 
ATOM      9  C   UNL A   1      33.430  25.338  24.676  1.00  0.00     0.253 C 
ATOM     10  O   UNL A   1      30.052  25.575  25.209  1.00  0.00    -0.274 OA
ATOM     11  C   UNL A   1      31.943  24.830  26.475  1.00  0.00     0.136 C 
ATOM     12  C   UNL A   1      33.348  24.563  25.970  1.00  0.00     0.191 C 
ATOM     13  O   UNL A   1      34.392  25.290  23.921  1.00  0.00    -0.272 OA
BRANCH  12  14
ATOM     14  N   UNL A   1      33.668  23.155  25.678  1.00  0.00    -0.280 N 
ATOM     15  C   UNL A   1      32.665  22.305  25.241  1.00  0.00     0.266 C 
ATOM     16  C   UNL A   1      34.939  22.619  25.715  1.00  0.00     0.149 C 
ATOM     17  O   UNL A   1      31.502  22.625  25.037  1.00  0.00    -0.268 OA
ATOM     18  C   UNL A   1      33.186  20.934  25.046  1.00  0.00     0.081 C 
ATOM     19  S   UNL A   1      34.879  20.909  25.304  1.00  0.00    -0.054 SA
ATOM     20  S   UNL A   1      36.367  23.376  26.126  1.00  0.00    -0.052 S 
ATOM     21  C   UNL A   1      32.366  19.917  24.748  1.00  0.00     0.029 C 
BRANCH  21  22
ATOM     22  C   UNL A   1      32.756  18.507  24.670  1.00  0.00    -0.024 A 
ATOM     23  C   UNL A   1      32.528  17.650  25.751  1.00  0.00     0.008 A 
ATOM     24  C   UNL A   1      33.410  18.021  23.531  1.00  0.00     0.008 A 
ATOM     25  C   UNL A   1      32.929  16.314  25.680  1.00  0.00     0.001 A 
ATOM     26  C   UNL A   1      33.808  16.686  23.462  1.00  0.00     0.001 A 
ATOM     27  C   UNL A   1      33.566  15.833  24.536  1.00  0.00     0.000 A 
ENDBRANCH  21  22
ENDBRANCH  12  14
ENDBRANCH   5   7
ENDBRANCH   3   5
ENDBRANCH   2   3
ENDBRANCH   1   2
BRANCH   1  28
ATOM     28  C   UNL A   1      31.843  30.048  25.586  1.00  0.00     0.275 C 
BRANCH  28  29
ATOM     29  O   UNL A   1      32.441  30.080  26.895  1.00  0.00    -0.458 OA
BRANCH  29  30
ATOM     30  C   UNL A   1      33.083  31.227  27.212  1.00  0.00     0.338 C 
ATOM     31  O   UNL A   1      32.639  32.361  27.181  1.00  0.00    -0.246 OA
BRANCH  30  32
ATOM     32  C   UNL A   1      34.450  30.936  27.680  1.00  0.00     0.060 A 
ATOM     33  C   UNL A   1      34.816  29.627  27.981  1.00  0.00     0.016 A 
ATOM     34  C   UNL A   1      35.303  31.990  28.001  1.00  0.00     0.016 A 
ATOM     35  C   UNL A   1      35.958  29.379  28.736  1.00  0.00     0.010 A 
ATOM     36  C   UNL A   1      36.520  31.723  28.635  1.00  0.00     0.010 A 
ATOM     37  C   UNL A   1      36.842  30.419  29.052  1.00  0.00    -0.014 A 
BRANCH  37  38
ATOM     38  C   UNL A   1      38.086  30.153  29.828  1.00  0.00     0.031 A 
ATOM     39  C   UNL A   1      39.170  29.280  29.251  1.00  0.00     0.074 A 
ATOM     40  C   UNL A   1      38.248  30.686  31.056  1.00  0.00     0.049 A 
ATOM     41  N   UNL A   1      40.197  28.729  29.847  1.00  0.00    -0.248 NA
ATOM     42  C   UNL A   1      39.074  28.968  27.816  1.00  0.00     0.031 C 
ATOM     43  C   UNL A   1      37.311  31.594  31.720  1.00  0.00     0.029 A 
ATOM     44  N   UNL A   1      39.263  30.539  31.969  1.00  0.00    -0.354 N 
ATOM     45  C   UNL A   1      40.824  27.951  28.882  1.00  0.00     0.074 A 
ATOM     46  C   UNL A   1      40.070  28.107  27.657  1.00  0.00     0.031 C 
ATOM     47  C   UNL A   1      37.811  31.955  32.908  1.00  0.00     0.029 A 
ATOM     48  C   UNL A   1      39.046  31.219  33.142  1.00  0.00     0.049 A 
ATOM     49  H   UNL A   1      40.069  29.998  31.799  1.00  0.00     0.167 HD
ATOM     50  C   UNL A   1      41.925  27.171  29.016  1.00  0.00     0.037 A 
ATOM     51  C   UNL A   1      39.727  31.209  34.303  1.00  0.00     0.037 A 
ATOM     52  C   UNL A   1      42.709  27.078  30.221  1.00  0.00     0.049 A 
ATOM     53  C   UNL A   1      40.927  30.319  34.435  1.00  0.00     0.074 A 
ATOM     54  C   UNL A   1      43.856  26.338  30.452  1.00  0.00     0.029 A 
ATOM     55  N   UNL A   1      42.436  27.767  31.394  1.00  0.00    -0.354 N 
ATOM     56  N   UNL A   1      41.470  29.526  33.544  1.00  0.00    -0.248 NA
ATOM     57  C   UNL A   1      41.592  30.298  35.744  1.00  0.00     0.031 C 
ATOM     58  C   UNL A   1      44.257  26.552  31.776  1.00  0.00     0.029 A 
ATOM     59  C   UNL A   1      43.384  27.459  32.356  1.00  0.00     0.049 A 
ATOM     60  H   UNL A   1      41.679  28.383  31.524  1.00  0.00     0.167 HD
ATOM     61  C   UNL A   1      42.545  28.922  34.177  1.00  0.00     0.074 A 
ATOM     62  C   UNL A   1      42.591  29.454  35.524  1.00  0.00     0.031 C 
ATOM     63  C   UNL A   1      43.413  28.002  33.689  1.00  0.00     0.037 A 
BRANCH  50  64
ATOM     64  C   UNL A   1      42.328  26.319  27.846  1.00  0.00     0.064 A 
ATOM     65  C   UNL A   1      41.712  25.092  27.566  1.00  0.00     0.173 A 
ATOM     66  C   UNL A   1      43.323  26.770  26.963  1.00  0.00     0.173 A 
ATOM     67  F   UNL A   1      40.765  24.610  28.385  1.00  0.00    -0.203 F 
ATOM     68  C   UNL A   1      42.092  24.337  26.458  1.00  0.00     0.198 A 
ATOM     69  C   UNL A   1      43.681  26.025  25.841  1.00  0.00     0.198 A 
ATOM     70  F   UNL A   1      43.942  27.940  27.180  1.00  0.00    -0.203 F 
ATOM     71  F   UNL A   1      41.517  23.146  26.231  1.00  0.00    -0.200 F 
ATOM     72  C   UNL A   1      43.069  24.807  25.593  1.00  0.00     0.200 A 
ATOM     73  F   UNL A   1      44.616  26.488  25.000  1.00  0.00    -0.200 F 
ATOM     74  F   UNL A   1      43.425  24.082  24.523  1.00  0.00    -0.200 F 
ENDBRANCH  50  64
BRANCH  51  75
ATOM     75  C   UNL A   1      39.251  32.033  35.443  1.00  0.00     0.064 A 
ATOM     76  C   UNL A   1      38.406  31.491  36.420  1.00  0.00     0.173 A 
ATOM     77  C   UNL A   1      39.650  33.371  35.594  1.00  0.00     0.173 A 
ATOM     78  F   UNL A   1      37.977  30.225  36.305  1.00  0.00    -0.203 F 
ATOM     79  C   UNL A   1      37.976  32.255  37.503  1.00  0.00     0.198 A 
ATOM     80  C   UNL A   1      39.245  34.123  36.693  1.00  0.00     0.198 A 
ATOM     81  F   UNL A   1      40.457  33.937  34.686  1.00  0.00    -0.203 F 
ATOM     82  F   UNL A   1      37.140  31.722  38.405  1.00  0.00    -0.200 F 
ATOM     83  C   UNL A   1      38.403  33.566  37.644  1.00  0.00     0.200 A 
ATOM     84  F   UNL A   1      39.675  35.385  36.834  1.00  0.00    -0.200 F 
ATOM     85  F   UNL A   1      38.002  34.296  38.694  1.00  0.00    -0.200 F 
ENDBRANCH  51  75
BRANCH  63  86
ATOM     86  C   UNL A   1      44.501  27.542  34.611  1.00  0.00     0.064 A 
ATOM     87  C   UNL A   1      44.313  26.460  35.484  1.00  0.00     0.173 A 
ATOM     88  C   UNL A   1      45.751  28.179  34.607  1.00  0.00     0.173 A 
ATOM     89  F   UNL A   1      43.130  25.832  35.536  1.00  0.00    -0.203 F 
ATOM     90  C   UNL A   1      45.334  26.047  36.337  1.00  0.00     0.198 A 
ATOM     91  C   UNL A   1      46.775  27.748  35.443  1.00  0.00     0.198 A 
ATOM     92  F   UNL A   1      45.977  29.217  33.788  1.00  0.00    -0.203 F 
ATOM     93  F   UNL A   1      45.119  25.043  37.197  1.00  0.00    -0.200 F 
ATOM     94  C   UNL A   1      46.563  26.688  36.313  1.00  0.00     0.200 A 
ATOM     95  F   UNL A   1      47.966  28.362  35.413  1.00  0.00    -0.200 F 
ATOM     96  F   UNL A   1      47.544  26.289  37.133  1.00  0.00    -0.200 F 
ENDBRANCH  63  86
ENDBRANCH  37  38
ENDBRANCH  30  32
ENDBRANCH  29  30
ENDBRANCH  28  29
ENDBRANCH   1  28
TORSDOF 14
ENDMDL
MODEL 2
REMARK VINA RESULT:     -13.5      0.538      1.660
REMARK SMILES C[C@H](C(=O)OCCOC(=O)c1ccc(-c2c3nc(c(-c4c(F)c(F)c(F)c(F)c4F)c4ccc([nH]4)c(-c4c(F)c(F)c(F)c(F)c4F)c4nc(c(-c5c(F)c(F)c(F)c(F)c5F)c5ccc2[nH]5)C=C4)C=C3)cc1)N1C(=O)C[C@@H](N2C(=O)/C(=C/c3ccccc3)SC2=S)C1=O
REMARK SMILES IDX 6 1 5 2 3 3 4 4 2 5 1 6 74 7 75 8 93 9 76 10 77 11 78 12
REMARK SMILES IDX 94 13 79 14 80 15 91 16 81 17 82 18 90 19 92 20 83 21 84 22
REMARK SMILES IDX 85 23 89 24 86 25 88 26 87 27 7 28 8 29 9 30 10 31 11 32
REMARK SMILES IDX 12 33 73 34 13 35 72 36 14 37 15 38 16 39 66 40 17 41 71 42
REMARK SMILES IDX 65 43 67 44 18 45 70 46 64 47 63 48 19 50 51 51 31 52 50 53
REMARK SMILES IDX 32 54 35 55 49 56 68 57 33 58 34 59 48 61 69 62 36 63 20 64
REMARK SMILES IDX 21 65 29 66 22 67 23 68 27 69 30 70 24 71 25 72 28 73 26 74
REMARK SMILES IDX 52 75 53 76 61 77 54 78 55 79 59 80 62 81 56 82 57 83 60 84
REMARK SMILES IDX 58 85 37 86 38 87 46 88 39 89 40 90 44 91 47 92 41 93 42 94
REMARK SMILES IDX 45 95 43 96
REMARK H PARENT 67 49 35 60
REMARK Flexibility Score: inf
ROOT
ATOM      1  C   UNL A   1      31.053  29.398  24.507  1.00  0.00     0.274 C 
ENDROOT
BRANCH   1   2
ATOM      2  O   UNL A   1      31.769  28.594  23.548  1.00  0.00    -0.461 OA
BRANCH   2   3
ATOM      3  C   UNL A   1      30.997  27.767  22.789  1.00  0.00     0.329 C 
ATOM      4  O   UNL A   1      30.134  28.141  22.001  1.00  0.00    -0.250 OA
BRANCH   3   5
ATOM      5  C   UNL A   1      31.419  26.297  22.899  1.00  0.00     0.200 C 
ATOM      6  C   UNL A   1      32.221  25.937  21.640  1.00  0.00     0.044 C 
BRANCH   5   7
ATOM      7  N   UNL A   1      32.157  25.920  24.105  1.00  0.00    -0.267 N 
ATOM      8  C   UNL A   1      31.581  25.633  25.312  1.00  0.00     0.232 C 
ATOM      9  C   UNL A   1      33.392  25.331  23.999  1.00  0.00     0.253 C 
ATOM     10  O   UNL A   1      30.407  25.753  25.630  1.00  0.00    -0.274 OA
ATOM     11  C   UNL A   1      32.636  25.142  26.257  1.00  0.00     0.136 C 
ATOM     12  C   UNL A   1      33.782  24.759  25.341  1.00  0.00     0.191 C 
ATOM     13  O   UNL A   1      34.031  25.141  22.973  1.00  0.00    -0.272 OA
BRANCH  12  14
ATOM     14  N   UNL A   1      34.010  23.314  25.170  1.00  0.00    -0.280 N 
ATOM     15  C   UNL A   1      32.957  22.498  24.791  1.00  0.00     0.266 C 
ATOM     16  C   UNL A   1      35.242  22.700  25.270  1.00  0.00     0.149 C 
ATOM     17  O   UNL A   1      31.820  22.875  24.544  1.00  0.00    -0.268 OA
ATOM     18  C   UNL A   1      33.386  21.084  24.716  1.00  0.00     0.081 C 
ATOM     19  S   UNL A   1      35.073  20.969  25.000  1.00  0.00    -0.054 SA
ATOM     20  S   UNL A   1      36.714  23.393  25.637  1.00  0.00    -0.052 S 
ATOM     21  C   UNL A   1      32.504  20.102  24.491  1.00  0.00     0.029 C 
BRANCH  21  22
ATOM     22  C   UNL A   1      32.799  18.668  24.534  1.00  0.00    -0.024 A 
ATOM     23  C   UNL A   1      32.589  17.938  25.708  1.00  0.00     0.008 A 
ATOM     24  C   UNL A   1      33.348  18.030  23.415  1.00  0.00     0.008 A 
ATOM     25  C   UNL A   1      32.901  16.578  25.750  1.00  0.00     0.001 A 
ATOM     26  C   UNL A   1      33.657  16.670  23.459  1.00  0.00     0.001 A 
ATOM     27  C   UNL A   1      33.431  15.944  24.626  1.00  0.00     0.000 A 
ENDBRANCH  21  22
ENDBRANCH  12  14
ENDBRANCH   5   7
ENDBRANCH   3   5
ENDBRANCH   2   3
ENDBRANCH   1   2
BRANCH   1  28
ATOM     28  C   UNL A   1      31.751  29.376  25.864  1.00  0.00     0.275 C 
BRANCH  28  29
ATOM     29  O   UNL A   1      33.005  30.078  25.781  1.00  0.00    -0.458 OA
BRANCH  29  30
ATOM     30  C   UNL A   1      33.273  30.912  26.810  1.00  0.00     0.338 C 
ATOM     31  O   UNL A   1      32.525  31.729  27.319  1.00  0.00    -0.246 OA
BRANCH  30  32
ATOM     32  C   UNL A   1      34.636  30.677  27.319  1.00  0.00     0.060 A 
ATOM     33  C   UNL A   1      35.058  29.380  27.598  1.00  0.00     0.016 A 
ATOM     34  C   UNL A   1      35.422  31.763  27.698  1.00  0.00     0.016 A 
ATOM     35  C   UNL A   1      36.184  29.169  28.387  1.00  0.00     0.010 A 
ATOM     36  C   UNL A   1      36.629  31.540  28.368  1.00  0.00     0.010 A 
ATOM     37  C   UNL A   1      37.002  30.243  28.763  1.00  0.00    -0.014 A 
BRANCH  37  38
ATOM     38  C   UNL A   1      38.230  30.018  29.575  1.00  0.00     0.031 A 
ATOM     39  C   UNL A   1      39.355  29.172  29.036  1.00  0.00     0.074 A 
ATOM     40  C   UNL A   1      38.342  30.564  30.803  1.00  0.00     0.049 A 
ATOM     41  N   UNL A   1      40.380  28.656  29.666  1.00  0.00    -0.248 NA
ATOM     42  C   UNL A   1      39.309  28.848  27.601  1.00  0.00     0.031 C 
ATOM     43  C   UNL A   1      37.361  31.450  31.433  1.00  0.00     0.029 A 
ATOM     44  N   UNL A   1      39.335  30.453  31.745  1.00  0.00    -0.354 N 
ATOM     45  C   UNL A   1      41.056  27.889  28.725  1.00  0.00     0.074 A 
ATOM     46  C   UNL A   1      40.333  28.015  27.478  1.00  0.00     0.031 C 
ATOM     47  C   UNL A   1      37.816  31.834  32.632  1.00  0.00     0.029 A 
ATOM     48  C   UNL A   1      39.065  31.135  32.907  1.00  0.00     0.049 A 
ATOM     49  H   UNL A   1      40.160  29.935  31.603  1.00  0.00     0.167 HD
ATOM     50  C   UNL A   1      42.174  27.142  28.896  1.00  0.00     0.037 A 
ATOM     51  C   UNL A   1      39.712  31.153  34.086  1.00  0.00     0.037 A 
ATOM     52  C   UNL A   1      42.926  27.080  30.123  1.00  0.00     0.049 A 
ATOM     53  C   UNL A   1      40.933  30.298  34.259  1.00  0.00     0.074 A 
ATOM     54  C   UNL A   1      44.086  26.375  30.393  1.00  0.00     0.029 A 
ATOM     55  N   UNL A   1      42.600  27.769  31.283  1.00  0.00    -0.354 N 
ATOM     56  N   UNL A   1      41.523  29.516  33.391  1.00  0.00    -0.248 NA
ATOM     57  C   UNL A   1      41.561  30.306  35.587  1.00  0.00     0.031 C 
ATOM     58  C   UNL A   1      44.443  26.610  31.726  1.00  0.00     0.029 A 
ATOM     59  C   UNL A   1      43.529  27.495  32.274  1.00  0.00     0.049 A 
ATOM     60  H   UNL A   1      41.822  28.364  31.386  1.00  0.00     0.167 HD
ATOM     61  C   UNL A   1      42.597  28.946  34.058  1.00  0.00     0.074 A 
ATOM     62  C   UNL A   1      42.588  29.489  35.402  1.00  0.00     0.031 C 
ATOM     63  C   UNL A   1      43.504  28.048  33.603  1.00  0.00     0.037 A 
BRANCH  50  64
ATOM     64  C   UNL A   1      42.635  26.293  27.745  1.00  0.00     0.064 A 
ATOM     65  C   UNL A   1      43.629  26.719  26.854  1.00  0.00     0.173 A 
ATOM     66  C   UNL A   1      42.099  25.008  27.564  1.00  0.00     0.173 A 
ATOM     67  F   UNL A   1      44.166  27.942  26.975  1.00  0.00    -0.203 F 
ATOM     68  C   UNL A   1      44.055  25.898  25.810  1.00  0.00     0.198 A 
ATOM     69  C   UNL A   1      42.545  24.180  26.536  1.00  0.00     0.198 A 
ATOM     70  F   UNL A   1      41.149  24.548  28.391  1.00  0.00    -0.203 F 
ATOM     71  F   UNL A   1      44.978  26.341  24.945  1.00  0.00    -0.200 F 
ATOM     72  C   UNL A   1      43.518  24.628  25.657  1.00  0.00     0.200 A 
ATOM     73  F   UNL A   1      42.035  22.948  26.399  1.00  0.00    -0.200 F 
ATOM     74  F   UNL A   1      43.936  23.838  24.658  1.00  0.00    -0.200 F 
ENDBRANCH  50  64
BRANCH  51  75
ATOM     75  C   UNL A   1      39.180  31.971  35.206  1.00  0.00     0.064 A 
ATOM     76  C   UNL A   1      38.425  31.385  36.230  1.00  0.00     0.173 A 
ATOM     77  C   UNL A   1      39.437  33.349  35.290  1.00  0.00     0.173 A 
ATOM     78  F   UNL A   1      38.131  30.077  36.180  1.00  0.00    -0.203 F 
ATOM     79  C   UNL A   1      37.943  32.146  37.294  1.00  0.00     0.198 A 
ATOM     80  C   UNL A   1      38.983  34.101  36.369  1.00  0.00     0.198 A 
ATOM     81  F   UNL A   1      40.155  33.958  34.335  1.00  0.00    -0.203 F 
ATOM     82  F   UNL A   1      37.194  31.568  38.241  1.00  0.00    -0.200 F 
ATOM     83  C   UNL A   1      38.231  33.501  37.368  1.00  0.00     0.200 A 
ATOM     84  F   UNL A   1      39.279  35.407  36.445  1.00  0.00    -0.200 F 
ATOM     85  F   UNL A   1      37.781  34.229  38.399  1.00  0.00    -0.200 F 
ENDBRANCH  51  75
BRANCH  63  86
ATOM     86  C   UNL A   1      44.577  27.626  34.558  1.00  0.00     0.064 A 
ATOM     87  C   UNL A   1      45.780  28.339  34.671  1.00  0.00     0.173 A 
ATOM     88  C   UNL A   1      44.393  26.508  35.385  1.00  0.00     0.173 A 
ATOM     89  F   UNL A   1      46.010  29.404  33.888  1.00  0.00    -0.203 F 
ATOM     90  C   UNL A   1      46.770  27.932  35.561  1.00  0.00     0.198 A 
ATOM     91  C   UNL A   1      45.374  26.119  36.291  1.00  0.00     0.198 A 
ATOM     92  F   UNL A   1      43.258  25.795  35.314  1.00  0.00    -0.203 F 
ATOM     93  F   UNL A   1      47.931  28.598  35.620  1.00  0.00    -0.200 F 
ATOM     94  C   UNL A   1      46.565  26.826  36.373  1.00  0.00     0.200 A 
ATOM     95  F   UNL A   1      45.172  25.055  37.081  1.00  0.00    -0.200 F 
ATOM     96  F   UNL A   1      47.518  26.436  37.229  1.00  0.00    -0.200 F 
ENDBRANCH  63  86
ENDBRANCH  37  38
ENDBRANCH  30  32
ENDBRANCH  29  30
ENDBRANCH  28  29
ENDBRANCH   1  28
TORSDOF 14
ENDMDL
MODEL 3
REMARK VINA RESULT:     -13.3      4.376      9.996
REMARK SMILES C[C@H](C(=O)OCCOC(=O)c1ccc(-c2c3nc(c(-c4c(F)c(F)c(F)c(F)c4F)c4ccc([nH]4)c(-c4c(F)c(F)c(F)c(F)c4F)c4nc(c(-c5c(F)c(F)c(F)c(F)c5F)c5ccc2[nH]5)C=C4)C=C3)cc1)N1C(=O)C[C@@H](N2C(=O)/C(=C/c3ccccc3)SC2=S)C1=O
REMARK SMILES IDX 6 1 5 2 3 3 4 4 2 5 1 6 74 7 75 8 93 9 76 10 77 11 78 12
REMARK SMILES IDX 94 13 79 14 80 15 91 16 81 17 82 18 90 19 92 20 83 21 84 22
REMARK SMILES IDX 85 23 89 24 86 25 88 26 87 27 7 28 8 29 9 30 10 31 11 32
REMARK SMILES IDX 12 33 73 34 13 35 72 36 14 37 15 38 16 39 66 40 17 41 71 42
REMARK SMILES IDX 65 43 67 44 18 45 70 46 64 47 63 48 19 50 51 51 31 52 50 53
REMARK SMILES IDX 32 54 35 55 49 56 68 57 33 58 34 59 48 61 69 62 36 63 20 64
REMARK SMILES IDX 21 65 29 66 22 67 23 68 27 69 30 70 24 71 25 72 28 73 26 74
REMARK SMILES IDX 52 75 53 76 61 77 54 78 55 79 59 80 62 81 56 82 57 83 60 84
REMARK SMILES IDX 58 85 37 86 38 87 46 88 39 89 40 90 44 91 47 92 41 93 42 94
REMARK SMILES IDX 45 95 43 96
REMARK H PARENT 67 49 35 60
REMARK Flexibility Score: inf
ROOT
ATOM      1  C   UNL A   1      36.013  20.623  24.990  1.00  0.00     0.274 C 
ENDROOT
BRANCH   1   2
ATOM      2  O   UNL A   1      35.530  21.424  26.087  1.00  0.00    -0.461 OA
BRANCH   2   3
ATOM      3  C   UNL A   1      34.184  21.374  26.295  1.00  0.00     0.329 C 
ATOM      4  O   UNL A   1      33.620  21.741  27.322  1.00  0.00    -0.250 OA
BRANCH   3   5
ATOM      5  C   UNL A   1      33.406  20.950  25.044  1.00  0.00     0.200 C 
ATOM      6  C   UNL A   1      32.650  19.653  25.372  1.00  0.00     0.044 C 
BRANCH   5   7
ATOM      7  N   UNL A   1      32.498  21.944  24.475  1.00  0.00    -0.267 N 
ATOM      8  C   UNL A   1      31.316  22.334  25.041  1.00  0.00     0.232 C 
ATOM      9  C   UNL A   1      32.983  22.917  23.635  1.00  0.00     0.253 C 
ATOM     10  O   UNL A   1      30.759  21.857  26.019  1.00  0.00    -0.274 OA
ATOM     11  C   UNL A   1      30.744  23.475  24.254  1.00  0.00     0.136 C 
ATOM     12  C   UNL A   1      31.928  23.983  23.454  1.00  0.00     0.191 C 
ATOM     13  O   UNL A   1      34.126  23.020  23.211  1.00  0.00    -0.272 OA
BRANCH  12  14
ATOM     14  N   UNL A   1      32.498  25.266  23.898  1.00  0.00    -0.280 N 
ATOM     15  C   UNL A   1      32.668  25.504  25.252  1.00  0.00     0.266 C 
ATOM     16  C   UNL A   1      32.976  26.244  23.050  1.00  0.00     0.149 C 
ATOM     17  O   UNL A   1      32.411  24.714  26.150  1.00  0.00    -0.268 OA
ATOM     18  C   UNL A   1      33.213  26.860  25.484  1.00  0.00     0.081 C 
ATOM     19  S   UNL A   1      33.565  27.613  23.985  1.00  0.00    -0.054 SA
ATOM     20  S   UNL A   1      32.991  26.247  21.382  1.00  0.00    -0.052 S 
ATOM     21  C   UNL A   1      33.341  27.354  26.723  1.00  0.00     0.029 C 
BRANCH  21  22
ATOM     22  C   UNL A   1      33.737  28.725  27.053  1.00  0.00    -0.024 A 
ATOM     23  C   UNL A   1      32.794  29.757  27.034  1.00  0.00     0.008 A 
ATOM     24  C   UNL A   1      35.076  29.020  27.339  1.00  0.00     0.008 A 
ATOM     25  C   UNL A   1      33.186  31.066  27.322  1.00  0.00     0.001 A 
ATOM     26  C   UNL A   1      35.464  30.328  27.628  1.00  0.00     0.001 A 
ATOM     27  C   UNL A   1      34.518  31.350  27.622  1.00  0.00     0.000 A 
ENDBRANCH  21  22
ENDBRANCH  12  14
ENDBRANCH   5   7
ENDBRANCH   3   5
ENDBRANCH   2   3
ENDBRANCH   1   2
BRANCH   1  28
ATOM     28  C   UNL A   1      37.538  20.632  24.942  1.00  0.00     0.275 C 
BRANCH  28  29
ATOM     29  O   UNL A   1      38.048  21.701  25.760  1.00  0.00    -0.458 OA
BRANCH  29  30
ATOM     30  C   UNL A   1      39.291  21.512  26.255  1.00  0.00     0.338 C 
ATOM     31  O   UNL A   1      39.965  20.497  26.205  1.00  0.00    -0.246 OA
BRANCH  30  32
ATOM     32  C   UNL A   1      39.798  22.758  26.856  1.00  0.00     0.060 A 
ATOM     33  C   UNL A   1      39.326  23.988  26.406  1.00  0.00     0.016 A 
ATOM     34  C   UNL A   1      40.883  22.705  27.730  1.00  0.00     0.016 A 
ATOM     35  C   UNL A   1      40.024  25.153  26.703  1.00  0.00     0.010 A 
ATOM     36  C   UNL A   1      41.495  23.893  28.141  1.00  0.00     0.010 A 
ATOM     37  C   UNL A   1      41.104  25.129  27.596  1.00  0.00    -0.014 A 
BRANCH  37  38
ATOM     38  C   UNL A   1      41.831  26.380  27.948  1.00  0.00     0.031 A 
ATOM     39  C   UNL A   1      41.165  27.436  28.791  1.00  0.00     0.074 A 
ATOM     40  C   UNL A   1      43.090  26.581  27.507  1.00  0.00     0.049 A 
ATOM     41  N   UNL A   1      41.520  28.679  28.998  1.00  0.00    -0.248 NA
ATOM     42  C   UNL A   1      39.923  27.047  29.478  1.00  0.00     0.031 C 
ATOM     43  C   UNL A   1      43.882  25.627  26.729  1.00  0.00     0.029 A 
ATOM     44  N   UNL A   1      43.927  27.660  27.650  1.00  0.00    -0.354 N 
ATOM     45  C   UNL A   1      40.512  29.239  29.773  1.00  0.00     0.074 A 
ATOM     46  C   UNL A   1      39.535  28.198  30.011  1.00  0.00     0.031 C 
ATOM     47  C   UNL A   1      45.097  26.141  26.501  1.00  0.00     0.029 A 
ATOM     48  C   UNL A   1      45.135  27.504  27.015  1.00  0.00     0.049 A 
ATOM     49  H   UNL A   1      43.685  28.469  28.157  1.00  0.00     0.167 HD
ATOM     50  C   UNL A   1      40.412  30.509  30.234  1.00  0.00     0.037 A 
ATOM     51  C   UNL A   1      46.140  28.374  26.810  1.00  0.00     0.037 A 
ATOM     52  C   UNL A   1      41.424  31.518  30.051  1.00  0.00     0.049 A 
ATOM     53  C   UNL A   1      45.996  29.783  27.308  1.00  0.00     0.074 A 
ATOM     54  C   UNL A   1      41.433  32.827  30.500  1.00  0.00     0.029 A 
ATOM     55  N   UNL A   1      42.622  31.320  29.378  1.00  0.00    -0.354 N 
ATOM     56  N   UNL A   1      45.007  30.326  27.973  1.00  0.00    -0.248 NA
ATOM     57  C   UNL A   1      47.095  30.706  27.001  1.00  0.00     0.031 C 
ATOM     58  C   UNL A   1      42.619  33.431  30.070  1.00  0.00     0.029 A 
ATOM     59  C   UNL A   1      43.369  32.486  29.390  1.00  0.00     0.049 A 
ATOM     60  H   UNL A   1      42.899  30.475  28.955  1.00  0.00     0.167 HD
ATOM     61  C   UNL A   1      45.366  31.650  28.175  1.00  0.00     0.074 A 
ATOM     62  C   UNL A   1      46.675  31.824  27.577  1.00  0.00     0.031 C 
ATOM     63  C   UNL A   1      44.671  32.637  28.792  1.00  0.00     0.037 A 
BRANCH  50  64
ATOM     64  C   UNL A   1      39.148  30.901  30.945  1.00  0.00     0.064 A 
ATOM     65  C   UNL A   1      38.976  30.713  32.323  1.00  0.00     0.173 A 
ATOM     66  C   UNL A   1      38.108  31.522  30.233  1.00  0.00     0.173 A 
ATOM     67  F   UNL A   1      39.933  30.114  33.047  1.00  0.00    -0.203 F 
ATOM     68  C   UNL A   1      37.801  31.111  32.959  1.00  0.00     0.198 A 
ATOM     69  C   UNL A   1      36.947  31.944  30.878  1.00  0.00     0.198 A 
ATOM     70  F   UNL A   1      38.223  31.733  28.914  1.00  0.00    -0.203 F 
ATOM     71  F   UNL A   1      37.642  30.884  34.271  1.00  0.00    -0.200 F 
ATOM     72  C   UNL A   1      36.792  31.732  32.238  1.00  0.00     0.200 A 
ATOM     73  F   UNL A   1      35.979  32.556  30.180  1.00  0.00    -0.200 F 
ATOM     74  F   UNL A   1      35.668  32.122  32.855  1.00  0.00    -0.200 F 
ENDBRANCH  50  64
BRANCH  51  75
ATOM     75  C   UNL A   1      47.345  27.944  26.055  1.00  0.00     0.064 A 
ATOM     76  C   UNL A   1      48.524  27.591  26.722  1.00  0.00     0.173 A 
ATOM     77  C   UNL A   1      47.334  27.853  24.654  1.00  0.00     0.173 A 
ATOM     78  F   UNL A   1      48.591  27.687  28.058  1.00  0.00    -0.203 F 
ATOM     79  C   UNL A   1      49.649  27.166  26.018  1.00  0.00     0.198 A 
ATOM     80  C   UNL A   1      48.448  27.398  23.954  1.00  0.00     0.198 A 
ATOM     81  F   UNL A   1      46.229  28.180  23.968  1.00  0.00    -0.203 F 
ATOM     82  F   UNL A   1      50.776  26.868  26.678  1.00  0.00    -0.200 F 
ATOM     83  C   UNL A   1      49.607  27.060  24.636  1.00  0.00     0.200 A 
ATOM     84  F   UNL A   1      48.396  27.280  22.619  1.00  0.00    -0.200 F 
ATOM     85  F   UNL A   1      50.684  26.636  23.960  1.00  0.00    -0.200 F 
ENDBRANCH  51  75
BRANCH  63  86
ATOM     86  C   UNL A   1      45.331  33.978  28.878  1.00  0.00     0.064 A 
ATOM     87  C   UNL A   1      45.128  34.960  27.896  1.00  0.00     0.173 A 
ATOM     88  C   UNL A   1      46.162  34.292  29.964  1.00  0.00     0.173 A 
ATOM     89  F   UNL A   1      44.357  34.699  26.830  1.00  0.00    -0.203 F 
ATOM     90  C   UNL A   1      45.752  36.201  27.989  1.00  0.00     0.198 A 
ATOM     91  C   UNL A   1      46.764  35.542  30.065  1.00  0.00     0.198 A 
ATOM     92  F   UNL A   1      46.385  33.386  30.928  1.00  0.00    -0.203 F 
ATOM     93  F   UNL A   1      45.583  37.108  27.017  1.00  0.00    -0.200 F 
ATOM     94  C   UNL A   1      46.565  36.492  29.074  1.00  0.00     0.200 A 
ATOM     95  F   UNL A   1      47.543  35.826  31.118  1.00  0.00    -0.200 F 
ATOM     96  F   UNL A   1      47.164  37.687  29.162  1.00  0.00    -0.200 F 
ENDBRANCH  63  86
ENDBRANCH  37  38
ENDBRANCH  30  32
ENDBRANCH  29  30
ENDBRANCH  28  29
ENDBRANCH   1  28
TORSDOF 14
ENDMDL
