MODEL 1
REMARK VINA RESULT:     -12.9      0.000      0.000
REMARK SMILES CCCc1cc(S(F)(F)(F)(F)F)cc2c1O[C@@H](C(F)(F)F)C(C(=O)OCCOC(=O)c1ccc(-c3c4nc(c(-c5c(F)c(F)c(F)c(F)c5F)c5ccc([nH]5)c(-c5c(F)c(F)c(F)c(F)c5F)c5nc(c(-c6c(F)c(F)c(F)c(F)c6F)c6ccc3[nH]6)C=C5)C=C4)cc1)=C2
REMARK SMILES IDX 26 1 25 2 23 3 24 4 22 5 4 6 5 7 15 8 6 9 14 10 16 11 13 12
REMARK SMILES IDX 94 13 17 14 3 15 2 16 1 17 7 18 8 19 9 20 10 21 11 22 12 23
REMARK SMILES IDX 18 24 19 25 20 26 21 27 27 28 28 29 29 30 30 31 31 32 32 33
REMARK SMILES IDX 93 34 33 35 92 36 34 37 35 38 36 39 86 40 37 41 91 42 85 43
REMARK SMILES IDX 87 44 38 45 90 46 84 47 83 48 39 50 71 51 51 52 70 53 52 54
REMARK SMILES IDX 55 55 69 56 88 57 53 58 54 59 68 61 89 62 56 63 40 64 41 65
REMARK SMILES IDX 49 66 42 67 43 68 47 69 50 70 44 71 45 72 48 73 46 74 72 75
REMARK SMILES IDX 73 76 81 77 74 78 75 79 79 80 82 81 76 82 77 83 80 84 78 85
REMARK SMILES IDX 57 86 58 87 66 88 59 89 60 90 64 91 67 92 61 93 62 94 65 95
REMARK SMILES IDX 63 96
REMARK H PARENT 87 49 55 60
REMARK Flexibility Score: inf
ROOT
ATOM      1  C   UNL A   1      42.562  21.324  25.831  1.00  0.00     0.275 C 
ENDROOT
BRANCH   1   2
ATOM      2  O   UNL A   1      41.364  22.068  25.665  1.00  0.00    -0.459 OA
BRANCH   2   3
ATOM      3  C   UNL A   1      40.251  21.819  26.512  1.00  0.00     0.338 C 
ATOM      4  O   UNL A   1      40.426  21.278  27.648  1.00  0.00    -0.246 OA
BRANCH   3   5
ATOM      5  C   UNL A   1      38.851  22.202  26.060  1.00  0.00     0.087 C 
ATOM      6  C   UNL A   1      34.908  23.361  25.311  1.00  0.00    -0.004 A 
ATOM      7  C   UNL A   1      33.981  22.423  24.892  1.00  0.00     0.032 A 
ATOM      8  C   UNL A   1      36.184  22.943  25.601  1.00  0.00     0.131 A 
ATOM      9  C   UNL A   1      34.320  21.101  24.773  1.00  0.00     0.108 A 
ATOM     10  C   UNL A   1      36.567  21.619  25.474  1.00  0.00     0.019 A 
ATOM     11  O   UNL A   1      37.061  23.863  26.122  1.00  0.00    -0.475 OA
ATOM     12  C   UNL A   1      35.610  20.703  25.057  1.00  0.00     0.036 A 
ATOM     13  C   UNL A   1      37.930  21.272  25.844  1.00  0.00     0.027 C 
ATOM     14  C   UNL A   1      38.476  23.663  25.845  1.00  0.00     0.316 C 
BRANCH   6  15
ATOM     15  C   UNL A   1      34.554  24.837  25.377  1.00  0.00     0.039 C 
BRANCH  15  16
ATOM     16  C   UNL A   1      34.007  25.287  24.032  1.00  0.00     0.001 C 
ATOM     17  C   UNL A   1      32.659  25.959  24.232  1.00  0.00     0.004 C 
ENDBRANCH  15  16
ENDBRANCH   6  15
BRANCH   9  18
ATOM     18  S   UNL A   1      33.085  19.886  24.249  1.00  0.00     0.310 S 
ATOM     19  F   UNL A   1      31.778  20.567  24.832  1.00  0.00    -0.094 F 
ATOM     20  F   UNL A   1      33.204  19.105  25.611  1.00  0.00    -0.094 F 
ATOM     21  F   UNL A   1      32.171  18.775  23.659  1.00  0.00    -0.094 F 
ATOM     22  F   UNL A   1      32.866  20.749  22.944  1.00  0.00    -0.094 F 
ATOM     23  F   UNL A   1      33.921  21.073  24.875  1.00  0.00    -0.094 F 
ENDBRANCH   9  18
BRANCH  14  24
ATOM     24  C   UNL A   1      39.293  24.529  26.790  1.00  0.00     0.430 C 
ATOM     25  F   UNL A   1      40.369  24.984  26.154  1.00  0.00    -0.167 F 
ATOM     26  F   UNL A   1      38.554  25.556  27.201  1.00  0.00    -0.167 F 
ATOM     27  F   UNL A   1      39.672  23.806  27.839  1.00  0.00    -0.167 F 
ENDBRANCH  14  24
ENDBRANCH   3   5
ENDBRANCH   2   3
ENDBRANCH   1   2
BRANCH   1  28
ATOM     28  C   UNL A   1      43.670  21.960  25.005  1.00  0.00     0.275 C 
BRANCH  28  29
ATOM     29  O   UNL A   1      43.310  23.294  24.677  1.00  0.00    -0.458 OA
BRANCH  29  30
ATOM     30  C   UNL A   1      44.085  24.378  25.164  1.00  0.00     0.338 C 
ATOM     31  O   UNL A   1      45.205  24.651  24.627  1.00  0.00    -0.246 OA
BRANCH  30  32
ATOM     32  C   UNL A   1      43.576  25.215  26.326  1.00  0.00     0.060 A 
ATOM     33  C   UNL A   1      43.156  24.585  27.486  1.00  0.00     0.016 A 
ATOM     34  C   UNL A   1      43.530  26.536  26.204  1.00  0.00     0.016 A 
ATOM     35  C   UNL A   1      42.429  25.424  28.364  1.00  0.00     0.010 A 
ATOM     36  C   UNL A   1      42.923  27.306  27.167  1.00  0.00     0.010 A 
ATOM     37  C   UNL A   1      42.433  26.743  28.313  1.00  0.00    -0.014 A 
BRANCH  37  38
ATOM     38  C   UNL A   1      41.921  27.591  29.466  1.00  0.00     0.031 A 
ATOM     39  C   UNL A   1      40.793  28.383  29.245  1.00  0.00     0.074 A 
ATOM     40  C   UNL A   1      42.593  27.521  30.674  1.00  0.00     0.049 A 
ATOM     41  N   UNL A   1      40.160  29.161  30.125  1.00  0.00    -0.248 NA
ATOM     42  C   UNL A   1      40.098  28.485  27.953  1.00  0.00     0.031 C 
ATOM     43  C   UNL A   1      43.726  26.717  30.907  1.00  0.00     0.029 A 
ATOM     44  N   UNL A   1      42.307  28.194  31.841  1.00  0.00    -0.354 N 
ATOM     45  C   UNL A   1      39.110  29.750  29.548  1.00  0.00     0.074 A 
ATOM     46  C   UNL A   1      39.059  29.328  28.141  1.00  0.00     0.031 C 
ATOM     47  C   UNL A   1      44.123  26.911  32.192  1.00  0.00     0.029 A 
ATOM     48  C   UNL A   1      43.246  27.838  32.784  1.00  0.00     0.049 A 
ATOM     49  H   UNL A   1      41.560  28.821  31.978  1.00  0.00     0.167 HD
ATOM     50  C   UNL A   1      38.194  30.621  30.140  1.00  0.00     0.037 A 
ATOM     51  C   UNL A   1      43.348  28.289  34.090  1.00  0.00     0.037 A 
ATOM     52  C   UNL A   1      38.272  31.036  31.460  1.00  0.00     0.049 A 
ATOM     53  C   UNL A   1      42.466  29.205  34.667  1.00  0.00     0.074 A 
ATOM     54  C   UNL A   1      37.352  31.909  32.075  1.00  0.00     0.029 A 
ATOM     55  N   UNL A   1      39.225  30.701  32.396  1.00  0.00    -0.354 N 
ATOM     56  N   UNL A   1      41.393  29.763  34.102  1.00  0.00    -0.248 NA
ATOM     57  C   UNL A   1      42.583  29.713  36.040  1.00  0.00     0.031 C 
ATOM     58  C   UNL A   1      37.750  32.102  33.360  1.00  0.00     0.029 A 
ATOM     59  C   UNL A   1      38.925  31.357  33.570  1.00  0.00     0.049 A 
ATOM     60  H   UNL A   1      39.989  30.097  32.250  1.00  0.00     0.167 HD
ATOM     61  C   UNL A   1      40.785  30.573  34.970  1.00  0.00     0.074 A 
ATOM     62  C   UNL A   1      41.546  30.558  36.227  1.00  0.00     0.031 C 
ATOM     63  C   UNL A   1      39.624  31.320  34.766  1.00  0.00     0.037 A 
BRANCH  50  64
ATOM     64  C   UNL A   1      37.047  31.141  29.291  1.00  0.00     0.064 A 
ATOM     65  C   UNL A   1      37.072  32.444  28.822  1.00  0.00     0.173 A 
ATOM     66  C   UNL A   1      36.046  30.322  28.994  1.00  0.00     0.173 A 
ATOM     67  F   UNL A   1      38.155  33.215  28.876  1.00  0.00    -0.203 F 
ATOM     68  C   UNL A   1      35.840  32.882  28.281  1.00  0.00     0.198 A 
ATOM     69  C   UNL A   1      34.930  30.788  28.343  1.00  0.00     0.198 A 
ATOM     70  F   UNL A   1      36.124  29.037  29.332  1.00  0.00    -0.203 F 
ATOM     71  F   UNL A   1      35.655  34.192  28.141  1.00  0.00    -0.200 F 
ATOM     72  C   UNL A   1      34.860  32.081  27.903  1.00  0.00     0.200 A 
ATOM     73  F   UNL A   1      33.901  29.970  28.136  1.00  0.00    -0.200 F 
ATOM     74  F   UNL A   1      33.861  32.508  27.136  1.00  0.00    -0.200 F 
ENDBRANCH  50  64
BRANCH  51  75
ATOM     75  C   UNL A   1      44.487  27.755  34.945  1.00  0.00     0.064 A 
ATOM     76  C   UNL A   1      45.696  28.430  34.983  1.00  0.00     0.173 A 
ATOM     77  C   UNL A   1      44.304  26.631  35.629  1.00  0.00     0.173 A 
ATOM     78  F   UNL A   1      45.847  29.672  34.529  1.00  0.00    -0.203 F 
ATOM     79  C   UNL A   1      46.754  27.680  35.547  1.00  0.00     0.198 A 
ATOM     80  C   UNL A   1      45.356  26.023  36.270  1.00  0.00     0.198 A 
ATOM     81  F   UNL A   1      43.091  26.088  35.693  1.00  0.00    -0.203 F 
ATOM     82  F   UNL A   1      47.997  28.085  35.304  1.00  0.00    -0.200 F 
ATOM     83  C   UNL A   1      46.594  26.605  36.297  1.00  0.00     0.200 A 
ATOM     84  F   UNL A   1      45.169  24.853  36.872  1.00  0.00    -0.200 F 
ATOM     85  F   UNL A   1      47.582  26.115  37.040  1.00  0.00    -0.200 F 
ENDBRANCH  51  75
BRANCH  63  86
ATOM     86  C   UNL A   1      39.094  32.146  35.927  1.00  0.00     0.064 A 
ATOM     87  C   UNL A   1      39.497  33.464  36.066  1.00  0.00     0.173 A 
ATOM     88  C   UNL A   1      38.263  31.584  36.798  1.00  0.00     0.173 A 
ATOM     89  F   UNL A   1      40.113  34.139  35.101  1.00  0.00    -0.203 F 
ATOM     90  C   UNL A   1      39.193  34.026  37.329  1.00  0.00     0.198 A 
ATOM     91  C   UNL A   1      37.901  32.246  37.947  1.00  0.00     0.198 A 
ATOM     92  F   UNL A   1      37.778  30.370  36.557  1.00  0.00    -0.203 F 
ATOM     93  F   UNL A   1      39.841  35.132  37.685  1.00  0.00    -0.200 F 
ATOM     94  C   UNL A   1      38.311  33.529  38.177  1.00  0.00     0.200 A 
ATOM     95  F   UNL A   1      37.141  31.629  38.847  1.00  0.00    -0.200 F 
ATOM     96  F   UNL A   1      37.847  34.240  39.201  1.00  0.00    -0.200 F 
ENDBRANCH  63  86
ENDBRANCH  37  38
ENDBRANCH  30  32
ENDBRANCH  29  30
ENDBRANCH  28  29
ENDBRANCH   1  28
TORSDOF 15
ENDMDL
MODEL 2
REMARK VINA RESULT:     -12.8      0.184      6.961
REMARK SMILES CCCc1cc(S(F)(F)(F)(F)F)cc2c1O[C@@H](C(F)(F)F)C(C(=O)OCCOC(=O)c1ccc(-c3c4nc(c(-c5c(F)c(F)c(F)c(F)c5F)c5ccc([nH]5)c(-c5c(F)c(F)c(F)c(F)c5F)c5nc(c(-c6c(F)c(F)c(F)c(F)c6F)c6ccc3[nH]6)C=C5)C=C4)cc1)=C2
REMARK SMILES IDX 26 1 25 2 23 3 24 4 22 5 4 6 5 7 15 8 6 9 14 10 16 11 13 12
REMARK SMILES IDX 94 13 17 14 3 15 2 16 1 17 7 18 8 19 9 20 10 21 11 22 12 23
REMARK SMILES IDX 18 24 19 25 20 26 21 27 27 28 28 29 29 30 30 31 31 32 32 33
REMARK SMILES IDX 93 34 33 35 92 36 34 37 35 38 36 39 86 40 37 41 91 42 85 43
REMARK SMILES IDX 87 44 38 45 90 46 84 47 83 48 39 50 71 51 51 52 70 53 52 54
REMARK SMILES IDX 55 55 69 56 88 57 53 58 54 59 68 61 89 62 56 63 40 64 41 65
REMARK SMILES IDX 49 66 42 67 43 68 47 69 50 70 44 71 45 72 48 73 46 74 72 75
REMARK SMILES IDX 73 76 81 77 74 78 75 79 79 80 82 81 76 82 77 83 80 84 78 85
REMARK SMILES IDX 57 86 58 87 66 88 59 89 60 90 64 91 67 92 61 93 62 94 65 95
REMARK SMILES IDX 63 96
REMARK H PARENT 87 49 55 60
REMARK Flexibility Score: inf
ROOT
ATOM      1  C   UNL A   1      42.600  21.492  25.915  1.00  0.00     0.275 C 
ENDROOT
BRANCH   1   2
ATOM      2  O   UNL A   1      41.345  22.105  25.658  1.00  0.00    -0.459 OA
BRANCH   2   3
ATOM      3  C   UNL A   1      40.234  21.825  26.497  1.00  0.00     0.338 C 
ATOM      4  O   UNL A   1      40.412  21.258  27.619  1.00  0.00    -0.246 OA
BRANCH   3   5
ATOM      5  C   UNL A   1      38.831  22.206  26.052  1.00  0.00     0.087 C 
ATOM      6  C   UNL A   1      34.882  23.356  25.324  1.00  0.00    -0.004 A 
ATOM      7  C   UNL A   1      33.956  22.418  24.905  1.00  0.00     0.032 A 
ATOM      8  C   UNL A   1      36.160  22.941  25.607  1.00  0.00     0.131 A 
ATOM      9  C   UNL A   1      34.298  21.097  24.780  1.00  0.00     0.108 A 
ATOM     10  C   UNL A   1      36.547  21.619  25.474  1.00  0.00     0.019 A 
ATOM     11  O   UNL A   1      37.036  23.861  26.128  1.00  0.00    -0.475 OA
ATOM     12  C   UNL A   1      35.590  20.701  25.056  1.00  0.00     0.036 A 
ATOM     13  C   UNL A   1      37.912  21.273  25.836  1.00  0.00     0.027 C 
ATOM     14  C   UNL A   1      38.451  23.666  25.844  1.00  0.00     0.316 C 
BRANCH   6  15
ATOM     15  C   UNL A   1      34.524  24.831  25.397  1.00  0.00     0.039 C 
BRANCH  15  16
ATOM     16  C   UNL A   1      33.920  25.272  24.074  1.00  0.00     0.001 C 
ATOM     17  C   UNL A   1      32.446  25.586  24.269  1.00  0.00     0.004 C 
ENDBRANCH  15  16
ENDBRANCH   6  15
BRANCH   9  18
ATOM     18  S   UNL A   1      33.064  19.880  24.255  1.00  0.00     0.310 S 
ATOM     19  F   UNL A   1      31.760  20.547  24.862  1.00  0.00    -0.094 F 
ATOM     20  F   UNL A   1      33.204  19.084  25.607  1.00  0.00    -0.094 F 
ATOM     21  F   UNL A   1      32.150  18.771  23.664  1.00  0.00    -0.094 F 
ATOM     22  F   UNL A   1      32.824  20.757  22.963  1.00  0.00    -0.094 F 
ATOM     23  F   UNL A   1      33.900  21.065  24.886  1.00  0.00    -0.094 F 
ENDBRANCH   9  18
BRANCH  14  24
ATOM     24  C   UNL A   1      39.269  24.531  26.789  1.00  0.00     0.430 C 
ATOM     25  F   UNL A   1      39.608  23.820  27.860  1.00  0.00    -0.167 F 
ATOM     26  F   UNL A   1      40.369  24.948  26.168  1.00  0.00    -0.167 F 
ATOM     27  F   UNL A   1      38.547  25.582  27.166  1.00  0.00    -0.167 F 
ENDBRANCH  14  24
ENDBRANCH   3   5
ENDBRANCH   2   3
ENDBRANCH   1   2
BRANCH   1  28
ATOM     28  C   UNL A   1      43.654  22.092  24.997  1.00  0.00     0.275 C 
BRANCH  28  29
ATOM     29  O   UNL A   1      43.307  23.435  24.693  1.00  0.00    -0.458 OA
BRANCH  29  30
ATOM     30  C   UNL A   1      44.086  24.504  25.209  1.00  0.00     0.338 C 
ATOM     31  O   UNL A   1      45.203  24.792  24.673  1.00  0.00    -0.246 OA
BRANCH  30  32
ATOM     32  C   UNL A   1      43.585  25.304  26.400  1.00  0.00     0.060 A 
ATOM     33  C   UNL A   1      43.137  24.638  27.527  1.00  0.00     0.016 A 
ATOM     34  C   UNL A   1      43.574  26.631  26.333  1.00  0.00     0.016 A 
ATOM     35  C   UNL A   1      42.421  25.458  28.432  1.00  0.00     0.010 A 
ATOM     36  C   UNL A   1      42.976  27.375  27.320  1.00  0.00     0.010 A 
ATOM     37  C   UNL A   1      42.459  26.778  28.437  1.00  0.00    -0.014 A 
BRANCH  37  38
ATOM     38  C   UNL A   1      41.956  27.590  29.619  1.00  0.00     0.031 A 
ATOM     39  C   UNL A   1      42.637  27.473  30.832  1.00  0.00     0.074 A 
ATOM     40  C   UNL A   1      40.857  28.409  29.425  1.00  0.00     0.049 A 
ATOM     41  N   UNL A   1      42.389  28.122  31.970  1.00  0.00    -0.248 NA
ATOM     42  C   UNL A   1      43.783  26.577  31.050  1.00  0.00     0.031 C 
ATOM     43  C   UNL A   1      40.170  28.540  28.202  1.00  0.00     0.029 A 
ATOM     44  N   UNL A   1      40.238  29.225  30.345  1.00  0.00    -0.354 N 
ATOM     45  C   UNL A   1      43.267  27.758  32.909  1.00  0.00     0.074 A 
ATOM     46  C   UNL A   1      44.171  26.754  32.331  1.00  0.00     0.031 C 
ATOM     47  C   UNL A   1      39.145  29.413  28.386  1.00  0.00     0.029 A 
ATOM     48  C   UNL A   1      39.174  29.844  29.725  1.00  0.00     0.049 A 
ATOM     49  H   UNL A   1      40.508  29.346  31.285  1.00  0.00     0.167 HD
ATOM     50  C   UNL A   1      43.347  28.225  34.222  1.00  0.00     0.037 A 
ATOM     51  C   UNL A   1      38.269  30.733  30.282  1.00  0.00     0.037 A 
ATOM     52  C   UNL A   1      42.468  29.148  34.764  1.00  0.00     0.049 A 
ATOM     53  C   UNL A   1      38.314  31.157  31.612  1.00  0.00     0.074 A 
ATOM     54  C   UNL A   1      42.540  29.635  36.084  1.00  0.00     0.029 A 
ATOM     55  N   UNL A   1      41.390  29.747  34.152  1.00  0.00    -0.354 N 
ATOM     56  N   UNL A   1      39.214  30.822  32.538  1.00  0.00    -0.248 NA
ATOM     57  C   UNL A   1      37.342  32.074  32.220  1.00  0.00     0.031 C 
ATOM     58  C   UNL A   1      41.514  30.508  36.267  1.00  0.00     0.029 A 
ATOM     59  C   UNL A   1      40.784  30.581  35.067  1.00  0.00     0.049 A 
ATOM     60  H   UNL A   1      41.102  29.604  33.222  1.00  0.00     0.167 HD
ATOM     61  C   UNL A   1      38.941  31.442  33.688  1.00  0.00     0.074 A 
ATOM     62  C   UNL A   1      37.728  32.249  33.502  1.00  0.00     0.031 C 
ATOM     63  C   UNL A   1      39.657  31.368  34.884  1.00  0.00     0.037 A 
BRANCH  50  64
ATOM     64  C   UNL A   1      44.462  27.691  35.105  1.00  0.00     0.064 A 
ATOM     65  C   UNL A   1      45.668  28.369  35.179  1.00  0.00     0.173 A 
ATOM     66  C   UNL A   1      44.249  26.587  35.811  1.00  0.00     0.173 A 
ATOM     67  F   UNL A   1      45.841  29.598  34.699  1.00  0.00    -0.203 F 
ATOM     68  C   UNL A   1      46.700  27.636  35.812  1.00  0.00     0.198 A 
ATOM     69  C   UNL A   1      45.271  25.999  36.516  1.00  0.00     0.198 A 
ATOM     70  F   UNL A   1      43.034  26.045  35.834  1.00  0.00    -0.203 F 
ATOM     71  F   UNL A   1      47.953  28.036  35.617  1.00  0.00    -0.200 F 
ATOM     72  C   UNL A   1      46.505  26.583  36.585  1.00  0.00     0.200 A 
ATOM     73  F   UNL A   1      45.056  24.846  37.143  1.00  0.00    -0.200 F 
ATOM     74  F   UNL A   1      47.458  26.116  37.387  1.00  0.00    -0.200 F 
ENDBRANCH  50  64
BRANCH  51  75
ATOM     75  C   UNL A   1      37.163  31.280  29.392  1.00  0.00     0.064 A 
ATOM     76  C   UNL A   1      37.219  32.592  28.952  1.00  0.00     0.173 A 
ATOM     77  C   UNL A   1      36.147  30.487  29.071  1.00  0.00     0.173 A 
ATOM     78  F   UNL A   1      38.319  33.337  29.031  1.00  0.00    -0.203 F 
ATOM     79  C   UNL A   1      36.002  33.067  28.409  1.00  0.00     0.198 A 
ATOM     80  C   UNL A   1      35.047  30.991  28.420  1.00  0.00     0.198 A 
ATOM     81  F   UNL A   1      36.194  29.195  29.382  1.00  0.00    -0.203 F 
ATOM     82  F   UNL A   1      35.847  34.383  28.297  1.00  0.00    -0.200 F 
ATOM     83  C   UNL A   1      35.009  32.295  28.008  1.00  0.00     0.200 A 
ATOM     84  F   UNL A   1      34.003  30.200  28.188  1.00  0.00    -0.200 F 
ATOM     85  F   UNL A   1      34.026  32.758  27.242  1.00  0.00    -0.200 F 
ENDBRANCH  51  75
BRANCH  63  86
ATOM     86  C   UNL A   1      39.172  32.201  36.059  1.00  0.00     0.064 A 
ATOM     87  C   UNL A   1      39.636  33.497  36.214  1.00  0.00     0.173 A 
ATOM     88  C   UNL A   1      38.320  31.666  36.927  1.00  0.00     0.173 A 
ATOM     89  F   UNL A   1      40.278  34.157  35.255  1.00  0.00    -0.203 F 
ATOM     90  C   UNL A   1      39.364  34.055  37.486  1.00  0.00     0.198 A 
ATOM     91  C   UNL A   1      37.994  32.329  38.086  1.00  0.00     0.198 A 
ATOM     92  F   UNL A   1      37.778  30.479  36.671  1.00  0.00    -0.203 F 
ATOM     93  F   UNL A   1      40.065  35.124  37.854  1.00  0.00    -0.200 F 
ATOM     94  C   UNL A   1      38.464  33.588  38.332  1.00  0.00     0.200 A 
ATOM     95  F   UNL A   1      37.210  31.735  38.981  1.00  0.00    -0.200 F 
ATOM     96  F   UNL A   1      38.039  34.305  39.368  1.00  0.00    -0.200 F 
ENDBRANCH  63  86
ENDBRANCH  37  38
ENDBRANCH  30  32
ENDBRANCH  29  30
ENDBRANCH  28  29
ENDBRANCH   1  28
TORSDOF 15
ENDMDL
MODEL 3
REMARK VINA RESULT:     -12.8      0.481      7.065
REMARK SMILES CCCc1cc(S(F)(F)(F)(F)F)cc2c1O[C@@H](C(F)(F)F)C(C(=O)OCCOC(=O)c1ccc(-c3c4nc(c(-c5c(F)c(F)c(F)c(F)c5F)c5ccc([nH]5)c(-c5c(F)c(F)c(F)c(F)c5F)c5nc(c(-c6c(F)c(F)c(F)c(F)c6F)c6ccc3[nH]6)C=C5)C=C4)cc1)=C2
REMARK SMILES IDX 26 1 25 2 23 3 24 4 22 5 4 6 5 7 15 8 6 9 14 10 16 11 13 12
REMARK SMILES IDX 94 13 17 14 3 15 2 16 1 17 7 18 8 19 9 20 10 21 11 22 12 23
REMARK SMILES IDX 18 24 19 25 20 26 21 27 27 28 28 29 29 30 30 31 31 32 32 33
REMARK SMILES IDX 93 34 33 35 92 36 34 37 35 38 36 39 86 40 37 41 91 42 85 43
REMARK SMILES IDX 87 44 38 45 90 46 84 47 83 48 39 50 71 51 51 52 70 53 52 54
REMARK SMILES IDX 55 55 69 56 88 57 53 58 54 59 68 61 89 62 56 63 40 64 41 65
REMARK SMILES IDX 49 66 42 67 43 68 47 69 50 70 44 71 45 72 48 73 46 74 72 75
REMARK SMILES IDX 73 76 81 77 74 78 75 79 79 80 82 81 76 82 77 83 80 84 78 85
REMARK SMILES IDX 57 86 58 87 66 88 59 89 60 90 64 91 67 92 61 93 62 94 65 95
REMARK SMILES IDX 63 96
REMARK H PARENT 87 49 55 60
REMARK Flexibility Score: inf
ROOT
ATOM      1  C   UNL A   1      42.606  21.536  25.920  1.00  0.00     0.275 C 
ENDROOT
BRANCH   1   2
ATOM      2  O   UNL A   1      41.298  21.965  25.571  1.00  0.00    -0.459 OA
BRANCH   2   3
ATOM      3  C   UNL A   1      40.216  21.741  26.464  1.00  0.00     0.338 C 
ATOM      4  O   UNL A   1      40.430  21.225  27.604  1.00  0.00    -0.246 OA
BRANCH   3   5
ATOM      5  C   UNL A   1      38.803  22.122  26.055  1.00  0.00     0.087 C 
ATOM      6  C   UNL A   1      34.837  23.276  25.428  1.00  0.00    -0.004 A 
ATOM      7  C   UNL A   1      33.897  22.337  25.044  1.00  0.00     0.032 A 
ATOM      8  C   UNL A   1      36.121  22.860  25.679  1.00  0.00     0.131 A 
ATOM      9  C   UNL A   1      34.233  21.015  24.920  1.00  0.00     0.108 A 
ATOM     10  C   UNL A   1      36.501  21.536  25.546  1.00  0.00     0.019 A 
ATOM     11  O   UNL A   1      37.014  23.782  26.167  1.00  0.00    -0.475 OA
ATOM     12  C   UNL A   1      35.531  20.617  25.164  1.00  0.00     0.036 A 
ATOM     13  C   UNL A   1      37.875  21.190  25.873  1.00  0.00     0.027 C 
ATOM     14  C   UNL A   1      38.420  23.581  25.846  1.00  0.00     0.316 C 
BRANCH   6  15
ATOM     15  C   UNL A   1      34.484  24.753  25.499  1.00  0.00     0.039 C 
BRANCH  15  16
ATOM     16  C   UNL A   1      33.015  24.906  25.858  1.00  0.00     0.001 C 
ATOM     17  C   UNL A   1      32.708  26.370  26.124  1.00  0.00     0.004 C 
ENDBRANCH  15  16
ENDBRANCH   6  15
BRANCH   9  18
ATOM     18  S   UNL A   1      32.982  19.797  24.441  1.00  0.00     0.310 S 
ATOM     19  F   UNL A   1      33.925  18.661  23.863  1.00  0.00    -0.094 F 
ATOM     20  F   UNL A   1      32.903  20.380  22.980  1.00  0.00    -0.094 F 
ATOM     21  F   UNL A   1      31.777  18.856  24.160  1.00  0.00    -0.094 F 
ATOM     22  F   UNL A   1      33.165  19.127  25.860  1.00  0.00    -0.094 F 
ATOM     23  F   UNL A   1      34.276  20.667  24.700  1.00  0.00    -0.094 F 
ENDBRANCH   9  18
BRANCH  14  24
ATOM     24  C   UNL A   1      39.267  24.453  26.760  1.00  0.00     0.430 C 
ATOM     25  F   UNL A   1      38.571  25.529  27.115  1.00  0.00    -0.167 F 
ATOM     26  F   UNL A   1      39.601  23.762  27.846  1.00  0.00    -0.167 F 
ATOM     27  F   UNL A   1      40.368  24.830  26.116  1.00  0.00    -0.167 F 
ENDBRANCH  14  24
ENDBRANCH   3   5
ENDBRANCH   2   3
ENDBRANCH   1   2
BRANCH   1  28
ATOM     28  C   UNL A   1      43.616  22.181  24.983  1.00  0.00     0.275 C 
BRANCH  28  29
ATOM     29  O   UNL A   1      43.253  23.535  24.755  1.00  0.00    -0.458 OA
BRANCH  29  30
ATOM     30  C   UNL A   1      44.050  24.583  25.284  1.00  0.00     0.338 C 
ATOM     31  O   UNL A   1      45.183  24.843  24.768  1.00  0.00    -0.246 OA
BRANCH  30  32
ATOM     32  C   UNL A   1      43.550  25.395  26.468  1.00  0.00     0.060 A 
ATOM     33  C   UNL A   1      43.002  24.741  27.558  1.00  0.00     0.016 A 
ATOM     34  C   UNL A   1      43.636  26.719  26.430  1.00  0.00     0.016 A 
ATOM     35  C   UNL A   1      42.303  25.594  28.446  1.00  0.00     0.010 A 
ATOM     36  C   UNL A   1      43.046  27.486  27.404  1.00  0.00     0.010 A 
ATOM     37  C   UNL A   1      42.435  26.907  28.482  1.00  0.00    -0.014 A 
BRANCH  37  38
ATOM     38  C   UNL A   1      41.933  27.731  29.657  1.00  0.00     0.031 A 
ATOM     39  C   UNL A   1      42.618  27.628  30.868  1.00  0.00     0.074 A 
ATOM     40  C   UNL A   1      40.831  28.545  29.458  1.00  0.00     0.049 A 
ATOM     41  N   UNL A   1      42.373  28.290  32.001  1.00  0.00    -0.248 NA
ATOM     42  C   UNL A   1      43.768  26.738  31.092  1.00  0.00     0.031 C 
ATOM     43  C   UNL A   1      40.140  28.660  28.236  1.00  0.00     0.029 A 
ATOM     44  N   UNL A   1      40.213  29.370  30.371  1.00  0.00    -0.354 N 
ATOM     45  C   UNL A   1      43.255  27.938  32.940  1.00  0.00     0.074 A 
ATOM     46  C   UNL A   1      44.160  26.931  32.370  1.00  0.00     0.031 C 
ATOM     47  C   UNL A   1      39.114  29.534  28.413  1.00  0.00     0.029 A 
ATOM     48  C   UNL A   1      39.147  29.979  29.748  1.00  0.00     0.049 A 
ATOM     49  H   UNL A   1      40.487  29.502  31.308  1.00  0.00     0.167 HD
ATOM     50  C   UNL A   1      43.339  28.420  34.247  1.00  0.00     0.037 A 
ATOM     51  C   UNL A   1      38.241  30.872  30.297  1.00  0.00     0.037 A 
ATOM     52  C   UNL A   1      42.459  29.347  34.782  1.00  0.00     0.049 A 
ATOM     53  C   UNL A   1      38.290  31.311  31.622  1.00  0.00     0.074 A 
ATOM     54  C   UNL A   1      42.535  29.849  36.097  1.00  0.00     0.029 A 
ATOM     55  N   UNL A   1      41.377  29.937  34.167  1.00  0.00    -0.354 N 
ATOM     56  N   UNL A   1      39.194  30.989  32.549  1.00  0.00    -0.248 NA
ATOM     57  C   UNL A   1      37.317  32.232  32.224  1.00  0.00     0.031 C 
ATOM     58  C   UNL A   1      41.507  30.721  36.274  1.00  0.00     0.029 A 
ATOM     59  C   UNL A   1      40.773  30.779  35.075  1.00  0.00     0.049 A 
ATOM     60  H   UNL A   1      41.086  29.783  33.240  1.00  0.00     0.167 HD
ATOM     61  C   UNL A   1      38.923  31.620  33.693  1.00  0.00     0.074 A 
ATOM     62  C   UNL A   1      37.708  32.423  33.502  1.00  0.00     0.031 C 
ATOM     63  C   UNL A   1      39.644  31.562  34.887  1.00  0.00     0.037 A 
BRANCH  50  64
ATOM     64  C   UNL A   1      44.458  27.899  35.132  1.00  0.00     0.064 A 
ATOM     65  C   UNL A   1      44.241  26.795  35.941  1.00  0.00     0.173 A 
ATOM     66  C   UNL A   1      45.639  28.504  35.096  1.00  0.00     0.173 A 
ATOM     67  F   UNL A   1      43.173  26.010  35.826  1.00  0.00    -0.203 F 
ATOM     68  C   UNL A   1      45.258  26.579  36.901  1.00  0.00     0.198 A 
ATOM     69  C   UNL A   1      46.634  28.149  35.974  1.00  0.00     0.198 A 
ATOM     70  F   UNL A   1      45.861  29.464  34.202  1.00  0.00    -0.203 F 
ATOM     71  F   UNL A   1      44.978  25.789  37.933  1.00  0.00    -0.200 F 
ATOM     72  C   UNL A   1      46.468  27.106  36.843  1.00  0.00     0.200 A 
ATOM     73  F   UNL A   1      47.777  28.829  35.980  1.00  0.00    -0.200 F 
ATOM     74  F   UNL A   1      47.469  26.647  37.588  1.00  0.00    -0.200 F 
ENDBRANCH  50  64
BRANCH  51  75
ATOM     75  C   UNL A   1      37.131  31.407  29.406  1.00  0.00     0.064 A 
ATOM     76  C   UNL A   1      37.189  32.710  28.939  1.00  0.00     0.173 A 
ATOM     77  C   UNL A   1      36.109  30.613  29.107  1.00  0.00     0.173 A 
ATOM     78  F   UNL A   1      38.292  33.452  28.996  1.00  0.00    -0.203 F 
ATOM     79  C   UNL A   1      35.970  33.179  28.397  1.00  0.00     0.198 A 
ATOM     80  C   UNL A   1      35.006  31.108  28.455  1.00  0.00     0.198 A 
ATOM     81  F   UNL A   1      36.154  29.326  29.443  1.00  0.00    -0.203 F 
ATOM     82  F   UNL A   1      35.819  34.493  28.260  1.00  0.00    -0.200 F 
ATOM     83  C   UNL A   1      34.970  32.404  28.018  1.00  0.00     0.200 A 
ATOM     84  F   UNL A   1      33.958  30.317  28.246  1.00  0.00    -0.200 F 
ATOM     85  F   UNL A   1      33.983  32.857  27.251  1.00  0.00    -0.200 F 
ENDBRANCH  51  75
BRANCH  63  86
ATOM     86  C   UNL A   1      39.160  32.407  36.055  1.00  0.00     0.064 A 
ATOM     87  C   UNL A   1      39.616  33.707  36.190  1.00  0.00     0.173 A 
ATOM     88  C   UNL A   1      38.317  31.877  36.935  1.00  0.00     0.173 A 
ATOM     89  F   UNL A   1      40.248  34.359  35.219  1.00  0.00    -0.203 F 
ATOM     90  C   UNL A   1      39.349  34.280  37.456  1.00  0.00     0.198 A 
ATOM     91  C   UNL A   1      37.995  32.552  38.088  1.00  0.00     0.198 A 
ATOM     92  F   UNL A   1      37.782  30.684  36.698  1.00  0.00    -0.203 F 
ATOM     93  F   UNL A   1      40.045  35.359  37.806  1.00  0.00    -0.200 F 
ATOM     94  C   UNL A   1      38.458  33.818  38.314  1.00  0.00     0.200 A 
ATOM     95  F   UNL A   1      37.220  31.965  38.995  1.00  0.00    -0.200 F 
ATOM     96  F   UNL A   1      38.034  34.545  39.344  1.00  0.00    -0.200 F 
ENDBRANCH  63  86
ENDBRANCH  37  38
ENDBRANCH  30  32
ENDBRANCH  29  30
ENDBRANCH  28  29
ENDBRANCH   1  28
TORSDOF 15
ENDMDL
