MODEL 1
REMARK VINA RESULT:     -14.9      0.000      0.000
REMARK SMILES Cc1ccc(S(=O)(=O)n2cc(C(=O)C(=O)NCC(=O)N[C@@H](Cc3c[nH]c4ccccc34)C(=O)OCCOC(=O)c3ccc(-c4c5nc(c(-c6c(F)c(F)c(F)c(F)c6F)c6ccc([nH]6)c(-c6c(F)c(F)c(F)c(F)c6F)c6nc(c(-c7c(F)c(F)c(F)c(F)c7F)c7ccc4[nH]7)C=C6)C=C5)cc3)c3ccccc32)cc1
REMARK SMILES IDX 32 1 33 2 21 3 20 4 18 5 19 6 17 8 16 9 14 10 15 11 12 13
REMARK SMILES IDX 13 14 11 15 9 16 10 17 108 18 103 19 107 20 104 21 106 22
REMARK SMILES IDX 105 23 6 24 7 25 8 26 5 27 1 28 2 29 3 30 110 31 4 32 109 33
REMARK SMILES IDX 22 34 23 35 24 36 31 37 25 38 26 39 30 40 27 42 29 43 28 44
REMARK SMILES IDX 34 45 35 46 36 47 37 48 38 49 39 50 40 51 41 52 102 53 42 54
REMARK SMILES IDX 101 55 43 56 44 57 45 58 95 59 46 60 100 61 94 62 96 63
REMARK SMILES IDX 47 64 99 65 93 66 92 67 48 69 80 70 60 71 79 72 61 73 64 74
REMARK SMILES IDX 78 75 97 76 62 77 63 78 77 80 98 81 65 82 49 83 50 84 58 85
REMARK SMILES IDX 51 86 52 87 56 88 59 89 53 90 54 91 57 92 55 93 81 94 82 95
REMARK SMILES IDX 90 96 83 97 84 98 88 99 91 100 85 101 86 102 89 103 87 104
REMARK SMILES IDX 66 105 67 106 75 107 68 108 69 109 73 110 76 111 70 112
REMARK SMILES IDX 71 113 74 114 72 115
REMARK H PARENT 20 7 16 12 25 41 96 68 64 79
REMARK Flexibility Score: inf
ROOT
ATOM      1  C   UNL A   1      31.754  27.455  26.217  1.00  0.00     0.329 C 
ATOM      2  O   UNL A   1      31.345  27.600  27.363  1.00  0.00    -0.250 OA
ENDROOT
BRANCH   1   3
ATOM      3  C   UNL A   1      31.831  26.077  25.557  1.00  0.00     0.196 C 
BRANCH   3   4
ATOM      4  N   UNL A   1      31.276  24.968  26.323  1.00  0.00    -0.341 N 
ATOM      5  C   UNL A   1      31.759  23.703  26.507  1.00  0.00     0.240 C 
ATOM      6  O   UNL A   1      31.128  22.983  27.288  1.00  0.00    -0.273 OA
ATOM      7  H   UNL A   1      30.423  25.160  26.777  1.00  0.00     0.164 HD
BRANCH   5   8
ATOM      8  C   UNL A   1      33.102  23.221  25.886  1.00  0.00     0.216 C 
BRANCH   8   9
ATOM      9  N   UNL A   1      33.281  21.772  25.703  1.00  0.00    -0.340 N 
ATOM     10  C   UNL A   1      34.380  21.094  25.167  1.00  0.00     0.292 C 
ATOM     11  O   UNL A   1      34.371  19.869  25.098  1.00  0.00    -0.265 OA
ATOM     12  H   UNL A   1      32.530  21.207  25.995  1.00  0.00     0.164 HD
BRANCH  10  13
ATOM     13  C   UNL A   1      35.620  21.869  24.690  1.00  0.00     0.252 C 
ATOM     14  O   UNL A   1      35.409  22.685  23.790  1.00  0.00    -0.283 OA
BRANCH  13  15
ATOM     15  C   UNL A   1      37.006  21.657  25.198  1.00  0.00     0.054 A 
ATOM     16  N   UNL A   1      39.074  20.926  25.776  1.00  0.00    -0.240 N 
ATOM     17  C   UNL A   1      37.895  20.551  25.146  1.00  0.00     0.117 A 
ATOM     18  C   UNL A   1      38.968  22.262  26.202  1.00  0.00     0.065 A 
ATOM     19  C   UNL A   1      37.707  22.725  25.875  1.00  0.00     0.012 A 
ATOM     20  C   UNL A   1      39.932  23.120  26.803  1.00  0.00     0.028 A 
ATOM     21  C   UNL A   1      37.408  24.077  26.185  1.00  0.00     0.011 A 
ATOM     22  C   UNL A   1      39.642  24.452  27.034  1.00  0.00     0.002 A 
ATOM     23  C   UNL A   1      38.380  24.926  26.744  1.00  0.00     0.001 A 
BRANCH  16  24
ATOM     24  S   UNL A   1      40.600  20.259  26.112  1.00  0.00     0.268 S 
ATOM     25  O   UNL A   1      40.398  18.931  25.540  1.00  0.00    -0.201 OA
ATOM     26  O   UNL A   1      40.558  20.465  27.562  1.00  0.00    -0.201 OA
BRANCH  24  27
ATOM     27  C   UNL A   1      42.342  20.370  25.964  1.00  0.00     0.088 A 
ATOM     28  C   UNL A   1      46.415  19.287  24.895  1.00  0.00     0.044 C 
ATOM     29  C   UNL A   1      45.043  19.712  25.337  1.00  0.00    -0.051 A 
ATOM     30  C   UNL A   1      44.134  18.695  25.532  1.00  0.00     0.005 A 
ATOM     31  C   UNL A   1      44.610  21.052  25.503  1.00  0.00     0.005 A 
ATOM     32  C   UNL A   1      42.832  19.028  25.828  1.00  0.00     0.022 A 
ATOM     33  C   UNL A   1      43.253  21.396  25.817  1.00  0.00     0.022 A 
ENDBRANCH  24  27
ENDBRANCH  16  24
ENDBRANCH  13  15
ENDBRANCH  10  13
ENDBRANCH   8   9
ENDBRANCH   5   8
ENDBRANCH   3   4
BRANCH   3  34
ATOM     34  C   UNL A   1      31.313  26.107  24.105  1.00  0.00     0.074 C 
BRANCH  34  35
ATOM     35  C   UNL A   1      29.906  26.582  23.804  1.00  0.00    -0.020 A 
ATOM     36  C   UNL A   1      28.680  26.039  24.152  1.00  0.00     0.087 A 
ATOM     37  C   UNL A   1      29.600  27.828  23.149  1.00  0.00     0.003 A 
ATOM     38  N   UNL A   1      27.699  26.960  23.905  1.00  0.00    -0.361 N 
ATOM     39  C   UNL A   1      28.224  28.034  23.241  1.00  0.00     0.046 A 
ATOM     40  C   UNL A   1      30.379  28.818  22.517  1.00  0.00     0.010 A 
ATOM     41  H   UNL A   1      26.755  26.863  24.166  1.00  0.00     0.166 HD
ATOM     42  C   UNL A   1      27.582  29.171  22.741  1.00  0.00     0.026 A 
ATOM     43  C   UNL A   1      29.750  29.945  21.974  1.00  0.00     0.001 A 
ATOM     44  C   UNL A   1      28.373  30.117  22.088  1.00  0.00     0.002 A 
ENDBRANCH  34  35
ENDBRANCH   3  34
ENDBRANCH   1   3
BRANCH   1  45
ATOM     45  O   UNL A   1      32.094  28.513  25.429  1.00  0.00    -0.461 OA
BRANCH  45  46
ATOM     46  C   UNL A   1      33.209  29.264  25.944  1.00  0.00     0.274 C 
BRANCH  46  47
ATOM     47  C   UNL A   1      32.835  30.652  26.472  1.00  0.00     0.275 C 
BRANCH  47  48
ATOM     48  O   UNL A   1      33.258  31.075  27.800  1.00  0.00    -0.458 OA
BRANCH  48  49
ATOM     49  C   UNL A   1      34.098  32.089  28.094  1.00  0.00     0.338 C 
ATOM     50  O   UNL A   1      33.709  33.255  28.196  1.00  0.00    -0.246 OA
BRANCH  49  51
ATOM     51  C   UNL A   1      35.515  31.749  28.304  1.00  0.00     0.060 A 
ATOM     52  C   UNL A   1      36.451  32.786  28.484  1.00  0.00     0.016 A 
ATOM     53  C   UNL A   1      35.893  30.425  28.461  1.00  0.00     0.016 A 
ATOM     54  C   UNL A   1      37.739  32.507  28.947  1.00  0.00     0.010 A 
ATOM     55  C   UNL A   1      37.115  30.160  29.027  1.00  0.00     0.010 A 
ATOM     56  C   UNL A   1      38.054  31.185  29.237  1.00  0.00    -0.014 A 
BRANCH  56  57
ATOM     57  C   UNL A   1      39.367  30.725  29.669  1.00  0.00     0.031 A 
ATOM     58  C   UNL A   1      39.990  29.492  29.145  1.00  0.00     0.074 A 
ATOM     59  C   UNL A   1      39.988  31.596  30.497  1.00  0.00     0.049 A 
ATOM     60  N   UNL A   1      40.889  28.812  29.768  1.00  0.00    -0.248 NA
ATOM     61  C   UNL A   1      39.643  28.882  27.867  1.00  0.00     0.031 C 
ATOM     62  C   UNL A   1      41.363  31.673  30.946  1.00  0.00     0.029 A 
ATOM     63  N   UNL A   1      39.348  32.611  31.233  1.00  0.00    -0.354 N 
ATOM     64  C   UNL A   1      41.477  27.959  28.848  1.00  0.00     0.074 A 
ATOM     65  C   UNL A   1      40.561  27.917  27.744  1.00  0.00     0.031 C 
ATOM     66  C   UNL A   1      41.400  32.401  32.082  1.00  0.00     0.029 A 
ATOM     67  C   UNL A   1      40.025  32.701  32.455  1.00  0.00     0.049 A 
ATOM     68  H   UNL A   1      38.577  33.152  30.945  1.00  0.00     0.167 HD
ATOM     69  C   UNL A   1      42.773  27.575  29.056  1.00  0.00     0.037 A 
ATOM     70  C   UNL A   1      39.379  32.272  33.581  1.00  0.00     0.037 A 
ATOM     71  C   UNL A   1      43.219  28.100  30.342  1.00  0.00     0.049 A 
ATOM     72  C   UNL A   1      40.034  31.042  34.148  1.00  0.00     0.074 A 
ATOM     73  C   UNL A   1      43.919  29.248  30.672  1.00  0.00     0.029 A 
ATOM     74  N   UNL A   1      42.593  27.664  31.503  1.00  0.00    -0.354 N 
ATOM     75  N   UNL A   1      40.714  30.184  33.437  1.00  0.00    -0.248 NA
ATOM     76  C   UNL A   1      40.026  30.727  35.569  1.00  0.00     0.031 C 
ATOM     77  C   UNL A   1      43.637  29.550  32.029  1.00  0.00     0.029 A 
ATOM     78  C   UNL A   1      42.777  28.582  32.518  1.00  0.00     0.049 A 
ATOM     79  H   UNL A   1      42.091  26.821  31.590  1.00  0.00     0.167 HD
ATOM     80  C   UNL A   1      41.320  29.290  34.277  1.00  0.00     0.074 A 
ATOM     81  C   UNL A   1      40.841  29.659  35.597  1.00  0.00     0.031 C 
ATOM     82  C   UNL A   1      42.206  28.350  33.833  1.00  0.00     0.037 A 
BRANCH  69  83
ATOM     83  C   UNL A   1      43.742  27.047  28.010  1.00  0.00     0.064 A 
ATOM     84  C   UNL A   1      44.275  27.925  27.033  1.00  0.00     0.173 A 
ATOM     85  C   UNL A   1      44.157  25.710  27.871  1.00  0.00     0.173 A 
ATOM     86  F   UNL A   1      44.046  29.244  27.071  1.00  0.00    -0.203 F 
ATOM     87  C   UNL A   1      45.069  27.490  25.969  1.00  0.00     0.198 A 
ATOM     88  C   UNL A   1      44.937  25.269  26.790  1.00  0.00     0.198 A 
ATOM     89  F   UNL A   1      43.871  24.789  28.794  1.00  0.00    -0.203 F 
ATOM     90  F   UNL A   1      45.517  28.378  25.068  1.00  0.00    -0.200 F 
ATOM     91  C   UNL A   1      45.384  26.157  25.833  1.00  0.00     0.200 A 
ATOM     92  F   UNL A   1      45.254  23.969  26.685  1.00  0.00    -0.200 F 
ATOM     93  F   UNL A   1      46.131  25.736  24.805  1.00  0.00    -0.200 F 
ENDBRANCH  69  83
BRANCH  70  94
ATOM     94  C   UNL A   1      37.905  32.501  33.482  1.00  0.00     0.064 A 
ATOM     95  C   UNL A   1      37.444  33.838  33.505  1.00  0.00     0.173 A 
ATOM     96  C   UNL A   1      37.092  31.555  32.853  1.00  0.00     0.173 A 
ATOM     97  F   UNL A   1      38.186  34.788  34.097  1.00  0.00    -0.203 F 
ATOM     98  C   UNL A   1      36.334  34.237  32.763  1.00  0.00     0.198 A 
ATOM     99  C   UNL A   1      35.976  31.964  32.130  1.00  0.00     0.198 A 
ATOM    100  F   UNL A   1      37.430  30.257  32.826  1.00  0.00    -0.203 F 
ATOM    101  F   UNL A   1      36.020  35.538  32.664  1.00  0.00    -0.200 F 
ATOM    102  C   UNL A   1      35.634  33.304  32.029  1.00  0.00     0.200 A 
ATOM    103  F   UNL A   1      35.267  31.040  31.472  1.00  0.00    -0.200 F 
ATOM    104  F   UNL A   1      34.672  33.701  31.184  1.00  0.00    -0.200 F 
ENDBRANCH  70  94
BRANCH  82 105
ATOM    105  C   UNL A   1      42.736  27.187  34.630  1.00  0.00     0.064 A 
ATOM    106  C   UNL A   1      41.947  26.105  35.044  1.00  0.00     0.173 A 
ATOM    107  C   UNL A   1      44.126  27.061  34.885  1.00  0.00     0.173 A 
ATOM    108  F   UNL A   1      40.650  26.019  34.723  1.00  0.00    -0.203 F 
ATOM    109  C   UNL A   1      42.488  25.033  35.755  1.00  0.00     0.198 A 
ATOM    110  C   UNL A   1      44.672  25.949  35.513  1.00  0.00     0.198 A 
ATOM    111  F   UNL A   1      45.008  27.998  34.504  1.00  0.00    -0.203 F 
ATOM    112  F   UNL A   1      41.677  24.062  36.196  1.00  0.00    -0.200 F 
ATOM    113  C   UNL A   1      43.848  24.949  35.979  1.00  0.00     0.200 A 
ATOM    114  F   UNL A   1      46.002  25.848  35.648  1.00  0.00    -0.200 F 
ATOM    115  F   UNL A   1      44.366  23.893  36.618  1.00  0.00    -0.200 F 
ENDBRANCH  82 105
ENDBRANCH  56  57
ENDBRANCH  49  51
ENDBRANCH  48  49
ENDBRANCH  47  48
ENDBRANCH  46  47
ENDBRANCH  45  46
ENDBRANCH   1  45
TORSDOF 20
ENDMDL
MODEL 2
REMARK VINA RESULT:     -14.3      1.589      2.268
REMARK SMILES Cc1ccc(S(=O)(=O)n2cc(C(=O)C(=O)NCC(=O)N[C@@H](Cc3c[nH]c4ccccc34)C(=O)OCCOC(=O)c3ccc(-c4c5nc(c(-c6c(F)c(F)c(F)c(F)c6F)c6ccc([nH]6)c(-c6c(F)c(F)c(F)c(F)c6F)c6nc(c(-c7c(F)c(F)c(F)c(F)c7F)c7ccc4[nH]7)C=C6)C=C5)cc3)c3ccccc32)cc1
REMARK SMILES IDX 32 1 33 2 21 3 20 4 18 5 19 6 17 8 16 9 14 10 15 11 12 13
REMARK SMILES IDX 13 14 11 15 9 16 10 17 108 18 103 19 107 20 104 21 106 22
REMARK SMILES IDX 105 23 6 24 7 25 8 26 5 27 1 28 2 29 3 30 110 31 4 32 109 33
REMARK SMILES IDX 22 34 23 35 24 36 31 37 25 38 26 39 30 40 27 42 29 43 28 44
REMARK SMILES IDX 34 45 35 46 36 47 37 48 38 49 39 50 40 51 41 52 102 53 42 54
REMARK SMILES IDX 101 55 43 56 44 57 45 58 95 59 46 60 100 61 94 62 96 63
REMARK SMILES IDX 47 64 99 65 93 66 92 67 48 69 80 70 60 71 79 72 61 73 64 74
REMARK SMILES IDX 78 75 97 76 62 77 63 78 77 80 98 81 65 82 49 83 50 84 58 85
REMARK SMILES IDX 51 86 52 87 56 88 59 89 53 90 54 91 57 92 55 93 81 94 82 95
REMARK SMILES IDX 90 96 83 97 84 98 88 99 91 100 85 101 86 102 89 103 87 104
REMARK SMILES IDX 66 105 67 106 75 107 68 108 69 109 73 110 76 111 70 112
REMARK SMILES IDX 71 113 74 114 72 115
REMARK H PARENT 20 7 16 12 25 41 96 68 64 79
REMARK Flexibility Score: inf
ROOT
ATOM      1  C   UNL A   1      31.379  25.888  26.665  1.00  0.00     0.329 C 
ATOM      2  O   UNL A   1      30.177  25.958  26.442  1.00  0.00    -0.250 OA
ENDROOT
BRANCH   1   3
ATOM      3  C   UNL A   1      32.150  24.574  26.525  1.00  0.00     0.196 C 
BRANCH   3   4
ATOM      4  N   UNL A   1      31.398  23.443  25.996  1.00  0.00    -0.341 N 
ATOM      5  C   UNL A   1      31.774  22.139  25.836  1.00  0.00     0.240 C 
ATOM      6  O   UNL A   1      30.899  21.360  25.445  1.00  0.00    -0.273 OA
ATOM      7  H   UNL A   1      30.478  23.651  25.711  1.00  0.00     0.164 HD
BRANCH   5   8
ATOM      8  C   UNL A   1      33.181  21.617  26.248  1.00  0.00     0.216 C 
BRANCH   8   9
ATOM      9  N   UNL A   1      33.590  20.300  25.736  1.00  0.00    -0.340 N 
ATOM     10  C   UNL A   1      34.749  19.965  25.027  1.00  0.00     0.292 C 
ATOM     11  O   UNL A   1      34.943  18.804  24.683  1.00  0.00    -0.265 OA
ATOM     12  H   UNL A   1      32.969  19.558  25.916  1.00  0.00     0.164 HD
BRANCH  10  13
ATOM     13  C   UNL A   1      35.802  21.038  24.701  1.00  0.00     0.252 C 
ATOM     14  O   UNL A   1      35.426  21.917  23.922  1.00  0.00    -0.283 OA
BRANCH  13  15
ATOM     15  C   UNL A   1      37.204  21.039  25.209  1.00  0.00     0.054 A 
ATOM     16  N   UNL A   1      39.352  20.623  25.809  1.00  0.00    -0.240 N 
ATOM     17  C   UNL A   1      38.235  20.064  25.202  1.00  0.00     0.117 A 
ATOM     18  C   UNL A   1      39.065  21.950  26.175  1.00  0.00     0.065 A 
ATOM     19  C   UNL A   1      37.753  22.222  25.834  1.00  0.00     0.012 A 
ATOM     20  C   UNL A   1      39.903  22.957  26.732  1.00  0.00     0.028 A 
ATOM     21  C   UNL A   1      37.272  23.534  26.085  1.00  0.00     0.011 A 
ATOM     22  C   UNL A   1      39.434  24.246  26.904  1.00  0.00     0.002 A 
ATOM     23  C   UNL A   1      38.119  24.531  26.600  1.00  0.00     0.001 A 
BRANCH  16  24
ATOM     24  S   UNL A   1      40.955  20.185  26.165  1.00  0.00     0.268 S 
ATOM     25  O   UNL A   1      40.934  18.817  25.658  1.00  0.00    -0.201 OA
ATOM     26  O   UNL A   1      40.885  20.453  27.604  1.00  0.00    -0.201 OA
BRANCH  24  27
ATOM     27  C   UNL A   1      42.665  20.524  26.001  1.00  0.00     0.088 A 
ATOM     28  C   UNL A   1      46.742  20.268  24.512  1.00  0.00     0.044 C 
ATOM     29  C   UNL A   1      45.369  20.386  25.109  1.00  0.00    -0.051 A 
ATOM     30  C   UNL A   1      44.572  19.266  25.009  1.00  0.00     0.005 A 
ATOM     31  C   UNL A   1      44.825  21.556  25.699  1.00  0.00     0.005 A 
ATOM     32  C   UNL A   1      43.267  19.350  25.437  1.00  0.00     0.022 A 
ATOM     33  C   UNL A   1      43.466  21.639  26.149  1.00  0.00     0.022 A 
ENDBRANCH  24  27
ENDBRANCH  16  24
ENDBRANCH  13  15
ENDBRANCH  10  13
ENDBRANCH   8   9
ENDBRANCH   5   8
ENDBRANCH   3   4
BRANCH   3  34
ATOM     34  C   UNL A   1      33.497  24.774  25.802  1.00  0.00     0.074 C 
BRANCH  34  35
ATOM     35  C   UNL A   1      33.531  25.126  24.329  1.00  0.00    -0.020 A 
ATOM     36  C   UNL A   1      33.316  24.338  23.211  1.00  0.00     0.087 A 
ATOM     37  C   UNL A   1      33.698  26.465  23.825  1.00  0.00     0.003 A 
ATOM     38  N   UNL A   1      33.171  25.146  22.117  1.00  0.00    -0.361 N 
ATOM     39  C   UNL A   1      33.457  26.441  22.452  1.00  0.00     0.046 A 
ATOM     40  C   UNL A   1      33.998  27.706  24.424  1.00  0.00     0.010 A 
ATOM     41  H   UNL A   1      32.902  24.841  21.220  1.00  0.00     0.166 HD
ATOM     42  C   UNL A   1      33.496  27.581  21.644  1.00  0.00     0.026 A 
ATOM     43  C   UNL A   1      34.081  28.853  23.626  1.00  0.00     0.001 A 
ATOM     44  C   UNL A   1      33.832  28.789  22.257  1.00  0.00     0.002 A 
ENDBRANCH  34  35
ENDBRANCH   3  34
ENDBRANCH   1   3
BRANCH   1  45
ATOM     45  O   UNL A   1      32.124  26.985  26.978  1.00  0.00    -0.461 OA
BRANCH  45  46
ATOM     46  C   UNL A   1      31.426  28.223  26.756  1.00  0.00     0.274 C 
BRANCH  46  47
ATOM     47  C   UNL A   1      32.090  29.440  27.407  1.00  0.00     0.275 C 
BRANCH  47  48
ATOM     48  O   UNL A   1      33.496  29.731  27.165  1.00  0.00    -0.458 OA
BRANCH  48  49
ATOM     49  C   UNL A   1      34.184  30.808  27.599  1.00  0.00     0.338 C 
ATOM     50  O   UNL A   1      33.639  31.895  27.804  1.00  0.00    -0.246 OA
BRANCH  49  51
ATOM     51  C   UNL A   1      35.626  30.634  27.833  1.00  0.00     0.060 A 
ATOM     52  C   UNL A   1      36.425  31.769  28.073  1.00  0.00     0.016 A 
ATOM     53  C   UNL A   1      36.160  29.361  27.953  1.00  0.00     0.016 A 
ATOM     54  C   UNL A   1      37.727  31.631  28.559  1.00  0.00     0.010 A 
ATOM     55  C   UNL A   1      37.393  29.224  28.540  1.00  0.00     0.010 A 
ATOM     56  C   UNL A   1      38.196  30.346  28.810  1.00  0.00    -0.014 A 
BRANCH  56  57
ATOM     57  C   UNL A   1      39.545  30.033  29.260  1.00  0.00     0.031 A 
ATOM     58  C   UNL A   1      40.279  28.837  28.799  1.00  0.00     0.074 A 
ATOM     59  C   UNL A   1      40.084  31.001  30.037  1.00  0.00     0.049 A 
ATOM     60  N   UNL A   1      41.237  28.276  29.453  1.00  0.00    -0.248 NA
ATOM     61  C   UNL A   1      39.989  28.130  27.557  1.00  0.00     0.031 C 
ATOM     62  C   UNL A   1      41.445  31.228  30.475  1.00  0.00     0.029 A 
ATOM     63  N   UNL A   1      39.352  31.990  30.721  1.00  0.00    -0.354 N 
ATOM     64  C   UNL A   1      41.901  27.433  28.576  1.00  0.00     0.074 A 
ATOM     65  C   UNL A   1      40.992  27.249  27.481  1.00  0.00     0.031 C 
ATOM     66  C   UNL A   1      41.416  32.016  31.570  1.00  0.00     0.029 A 
ATOM     67  C   UNL A   1      40.019  32.207  31.933  1.00  0.00     0.049 A 
ATOM     68  H   UNL A   1      38.535  32.442  30.409  1.00  0.00     0.167 HD
ATOM     69  C   UNL A   1      43.226  27.182  28.797  1.00  0.00     0.037 A 
ATOM     70  C   UNL A   1      39.415  31.781  33.084  1.00  0.00     0.037 A 
ATOM     71  C   UNL A   1      43.622  27.813  30.052  1.00  0.00     0.049 A 
ATOM     72  C   UNL A   1      40.181  30.648  33.712  1.00  0.00     0.074 A 
ATOM     73  C   UNL A   1      44.214  29.036  30.317  1.00  0.00     0.029 A 
ATOM     74  N   UNL A   1      43.040  27.383  31.238  1.00  0.00    -0.354 N 
ATOM     75  N   UNL A   1      40.937  29.820  33.044  1.00  0.00    -0.248 NA
ATOM     76  C   UNL A   1      40.202  30.411  35.148  1.00  0.00     0.031 C 
ATOM     77  C   UNL A   1      43.906  29.383  31.657  1.00  0.00     0.029 A 
ATOM     78  C   UNL A   1      43.138  28.367  32.201  1.00  0.00     0.049 A 
ATOM     79  H   UNL A   1      42.618  26.504  31.372  1.00  0.00     0.167 HD
ATOM     80  C   UNL A   1      41.623  29.031  33.927  1.00  0.00     0.074 A 
ATOM     81  C   UNL A   1      41.112  29.425  35.228  1.00  0.00     0.031 C 
ATOM     82  C   UNL A   1      42.591  28.154  33.529  1.00  0.00     0.037 A 
BRANCH  69  83
ATOM     83  C   UNL A   1      44.240  26.690  27.776  1.00  0.00     0.064 A 
ATOM     84  C   UNL A   1      44.961  25.493  28.016  1.00  0.00     0.173 A 
ATOM     85  C   UNL A   1      44.591  27.343  26.581  1.00  0.00     0.173 A 
ATOM     86  F   UNL A   1      44.692  24.707  29.066  1.00  0.00    -0.203 F 
ATOM     87  C   UNL A   1      45.994  25.046  27.188  1.00  0.00     0.198 A 
ATOM     88  C   UNL A   1      45.642  26.908  25.760  1.00  0.00     0.198 A 
ATOM     89  F   UNL A   1      43.903  28.397  26.132  1.00  0.00    -0.203 F 
ATOM     90  F   UNL A   1      46.648  23.915  27.494  1.00  0.00    -0.200 F 
ATOM     91  C   UNL A   1      46.351  25.764  26.069  1.00  0.00     0.200 A 
ATOM     92  F   UNL A   1      45.963  27.607  24.661  1.00  0.00    -0.200 F 
ATOM     93  F   UNL A   1      47.352  25.347  25.284  1.00  0.00    -0.200 F 
ENDBRANCH  69  83
BRANCH  70  94
ATOM     94  C   UNL A   1      37.926  31.868  32.980  1.00  0.00     0.064 A 
ATOM     95  C   UNL A   1      37.342  33.156  32.959  1.00  0.00     0.173 A 
ATOM     96  C   UNL A   1      37.206  30.830  32.386  1.00  0.00     0.173 A 
ATOM     97  F   UNL A   1      37.992  34.191  33.515  1.00  0.00    -0.203 F 
ATOM     98  C   UNL A   1      36.201  33.424  32.206  1.00  0.00     0.198 A 
ATOM     99  C   UNL A   1      36.057  31.107  31.652  1.00  0.00     0.198 A 
ATOM    100  F   UNL A   1      37.663  29.569  32.403  1.00  0.00    -0.203 F 
ATOM    101  F   UNL A   1      35.768  34.685  32.062  1.00  0.00    -0.200 F 
ATOM    102  C   UNL A   1      35.592  32.405  31.506  1.00  0.00     0.200 A 
ATOM    103  F   UNL A   1      35.438  30.099  31.028  1.00  0.00    -0.200 F 
ATOM    104  F   UNL A   1      34.598  32.681  30.650  1.00  0.00    -0.200 F 
ENDBRANCH  70  94
BRANCH  82 105
ATOM    105  C   UNL A   1      43.226  27.089  34.385  1.00  0.00     0.064 A 
ATOM    106  C   UNL A   1      44.564  27.122  34.800  1.00  0.00     0.173 A 
ATOM    107  C   UNL A   1      42.439  26.049  34.942  1.00  0.00     0.173 A 
ATOM    108  F   UNL A   1      45.373  28.140  34.482  1.00  0.00    -0.203 F 
ATOM    109  C   UNL A   1      45.102  26.129  35.620  1.00  0.00     0.198 A 
ATOM    110  C   UNL A   1      42.958  25.113  35.829  1.00  0.00     0.198 A 
ATOM    111  F   UNL A   1      41.131  25.921  34.671  1.00  0.00    -0.203 F 
ATOM    112  F   UNL A   1      46.406  26.163  35.923  1.00  0.00    -0.200 F 
ATOM    113  C   UNL A   1      44.298  25.134  36.142  1.00  0.00     0.200 A 
ATOM    114  F   UNL A   1      42.145  24.206  36.389  1.00  0.00    -0.200 F 
ATOM    115  F   UNL A   1      44.810  24.212  36.967  1.00  0.00    -0.200 F 
ENDBRANCH  82 105
ENDBRANCH  56  57
ENDBRANCH  49  51
ENDBRANCH  48  49
ENDBRANCH  47  48
ENDBRANCH  46  47
ENDBRANCH  45  46
ENDBRANCH   1  45
TORSDOF 20
ENDMDL
MODEL 3
REMARK VINA RESULT:     -14.1      3.125     10.272
REMARK SMILES Cc1ccc(S(=O)(=O)n2cc(C(=O)C(=O)NCC(=O)N[C@@H](Cc3c[nH]c4ccccc34)C(=O)OCCOC(=O)c3ccc(-c4c5nc(c(-c6c(F)c(F)c(F)c(F)c6F)c6ccc([nH]6)c(-c6c(F)c(F)c(F)c(F)c6F)c6nc(c(-c7c(F)c(F)c(F)c(F)c7F)c7ccc4[nH]7)C=C6)C=C5)cc3)c3ccccc32)cc1
REMARK SMILES IDX 32 1 33 2 21 3 20 4 18 5 19 6 17 8 16 9 14 10 15 11 12 13
REMARK SMILES IDX 13 14 11 15 9 16 10 17 108 18 103 19 107 20 104 21 106 22
REMARK SMILES IDX 105 23 6 24 7 25 8 26 5 27 1 28 2 29 3 30 110 31 4 32 109 33
REMARK SMILES IDX 22 34 23 35 24 36 31 37 25 38 26 39 30 40 27 42 29 43 28 44
REMARK SMILES IDX 34 45 35 46 36 47 37 48 38 49 39 50 40 51 41 52 102 53 42 54
REMARK SMILES IDX 101 55 43 56 44 57 45 58 95 59 46 60 100 61 94 62 96 63
REMARK SMILES IDX 47 64 99 65 93 66 92 67 48 69 80 70 60 71 79 72 61 73 64 74
REMARK SMILES IDX 78 75 97 76 62 77 63 78 77 80 98 81 65 82 49 83 50 84 58 85
REMARK SMILES IDX 51 86 52 87 56 88 59 89 53 90 54 91 57 92 55 93 81 94 82 95
REMARK SMILES IDX 90 96 83 97 84 98 88 99 91 100 85 101 86 102 89 103 87 104
REMARK SMILES IDX 66 105 67 106 75 107 68 108 69 109 73 110 76 111 70 112
REMARK SMILES IDX 71 113 74 114 72 115
REMARK H PARENT 20 7 16 12 25 41 96 68 64 79
REMARK Flexibility Score: inf
ROOT
ATOM      1  C   UNL A   1      34.515  22.635  26.461  1.00  0.00     0.329 C 
ATOM      2  O   UNL A   1      34.606  23.149  27.569  1.00  0.00    -0.250 OA
ENDROOT
BRANCH   1   3
ATOM      3  C   UNL A   1      33.183  22.107  25.924  1.00  0.00     0.196 C 
BRANCH   3   4
ATOM      4  N   UNL A   1      31.987  22.547  26.633  1.00  0.00    -0.341 N 
ATOM      5  C   UNL A   1      31.417  23.787  26.702  1.00  0.00     0.240 C 
ATOM      6  O   UNL A   1      30.342  23.864  27.306  1.00  0.00    -0.273 OA
ATOM      7  H   UNL A   1      31.519  21.843  27.139  1.00  0.00     0.164 HD
BRANCH   5   8
ATOM      8  C   UNL A   1      32.001  25.021  25.954  1.00  0.00     0.216 C 
BRANCH   8   9
ATOM      9  N   UNL A   1      31.047  25.926  25.295  1.00  0.00    -0.340 N 
ATOM     10  C   UNL A   1      31.299  27.161  24.688  1.00  0.00     0.292 C 
ATOM     11  O   UNL A   1      30.381  27.787  24.168  1.00  0.00    -0.265 OA
ATOM     12  H   UNL A   1      30.110  25.623  25.279  1.00  0.00     0.164 HD
BRANCH  10  13
ATOM     13  C   UNL A   1      32.727  27.729  24.638  1.00  0.00     0.252 C 
ATOM     14  O   UNL A   1      33.397  27.367  23.667  1.00  0.00    -0.283 OA
BRANCH  13  15
ATOM     15  C   UNL A   1      33.333  28.607  25.679  1.00  0.00     0.054 A 
ATOM     16  N   UNL A   1      34.597  29.647  27.250  1.00  0.00    -0.240 N 
ATOM     17  C   UNL A   1      34.543  28.535  26.419  1.00  0.00     0.117 A 
ATOM     18  C   UNL A   1      33.461  30.446  27.031  1.00  0.00     0.065 A 
ATOM     19  C   UNL A   1      32.666  29.823  26.087  1.00  0.00     0.012 A 
ATOM     20  C   UNL A   1      33.111  31.720  27.561  1.00  0.00     0.028 A 
ATOM     21  C   UNL A   1      31.478  30.492  25.691  1.00  0.00     0.011 A 
ATOM     22  C   UNL A   1      31.986  32.384  27.110  1.00  0.00     0.002 A 
ATOM     23  C   UNL A   1      31.161  31.766  26.193  1.00  0.00     0.001 A 
BRANCH  16  24
ATOM     24  S   UNL A   1      35.662  30.332  28.384  1.00  0.00     0.268 S 
ATOM     25  O   UNL A   1      36.016  31.547  27.657  1.00  0.00    -0.201 OA
ATOM     26  O   UNL A   1      36.589  29.199  28.448  1.00  0.00    -0.201 OA
BRANCH  24  27
ATOM     27  C   UNL A   1      35.941  30.887  30.021  1.00  0.00     0.088 A 
ATOM     28  C   UNL A   1      35.427  33.155  33.695  1.00  0.00     0.044 C 
ATOM     29  C   UNL A   1      35.697  32.361  32.449  1.00  0.00    -0.051 A 
ATOM     30  C   UNL A   1      35.287  32.942  31.268  1.00  0.00     0.005 A 
ATOM     31  C   UNL A   1      36.271  31.065  32.405  1.00  0.00     0.005 A 
ATOM     32  C   UNL A   1      35.405  32.215  30.105  1.00  0.00     0.022 A 
ATOM     33  C   UNL A   1      36.398  30.313  31.191  1.00  0.00     0.022 A 
ENDBRANCH  24  27
ENDBRANCH  16  24
ENDBRANCH  13  15
ENDBRANCH  10  13
ENDBRANCH   8   9
ENDBRANCH   5   8
ENDBRANCH   3   4
BRANCH   3  34
ATOM     34  C   UNL A   1      33.064  22.296  24.399  1.00  0.00     0.074 C 
BRANCH  34  35
ATOM     35  C   UNL A   1      32.558  21.166  23.525  1.00  0.00    -0.020 A 
ATOM     36  C   UNL A   1      31.816  21.197  22.357  1.00  0.00     0.087 A 
ATOM     37  C   UNL A   1      32.890  19.779  23.730  1.00  0.00     0.003 A 
ATOM     38  N   UNL A   1      31.843  19.957  21.778  1.00  0.00    -0.361 N 
ATOM     39  C   UNL A   1      32.441  19.061  22.622  1.00  0.00     0.046 A 
ATOM     40  C   UNL A   1      33.568  19.075  24.746  1.00  0.00     0.010 A 
ATOM     41  H   UNL A   1      31.485  19.741  20.887  1.00  0.00     0.166 HD
ATOM     42  C   UNL A   1      32.629  17.685  22.470  1.00  0.00     0.026 A 
ATOM     43  C   UNL A   1      33.732  17.690  24.631  1.00  0.00     0.001 A 
ATOM     44  C   UNL A   1      33.270  17.008  23.508  1.00  0.00     0.002 A 
ENDBRANCH  34  35
ENDBRANCH   3  34
ENDBRANCH   1   3
BRANCH   1  45
ATOM     45  O   UNL A   1      35.571  22.565  25.604  1.00  0.00    -0.461 OA
BRANCH  45  46
ATOM     46  C   UNL A   1      36.337  21.355  25.750  1.00  0.00     0.274 C 
BRANCH  46  47
ATOM     47  C   UNL A   1      37.656  21.353  24.972  1.00  0.00     0.275 C 
BRANCH  47  48
ATOM     48  O   UNL A   1      38.755  22.217  25.380  1.00  0.00    -0.458 OA
BRANCH  48  49
ATOM     49  C   UNL A   1      39.721  21.926  26.276  1.00  0.00     0.338 C 
ATOM     50  O   UNL A   1      40.203  20.795  26.377  1.00  0.00    -0.246 OA
BRANCH  49  51
ATOM     51  C   UNL A   1      40.195  23.024  27.134  1.00  0.00     0.060 A 
ATOM     52  C   UNL A   1      41.282  22.798  28.000  1.00  0.00     0.016 A 
ATOM     53  C   UNL A   1      39.665  24.296  26.986  1.00  0.00     0.016 A 
ATOM     54  C   UNL A   1      41.926  23.869  28.624  1.00  0.00     0.010 A 
ATOM     55  C   UNL A   1      40.366  25.357  27.502  1.00  0.00     0.010 A 
ATOM     56  C   UNL A   1      41.470  25.153  28.349  1.00  0.00    -0.014 A 
BRANCH  56  57
ATOM     57  C   UNL A   1      41.994  26.365  28.964  1.00  0.00     0.031 A 
ATOM     58  C   UNL A   1      41.125  27.482  29.387  1.00  0.00     0.074 A 
ATOM     59  C   UNL A   1      43.324  26.304  29.208  1.00  0.00     0.049 A 
ATOM     60  N   UNL A   1      41.520  28.702  29.513  1.00  0.00    -0.248 NA
ATOM     61  C   UNL A   1      39.706  27.343  29.689  1.00  0.00     0.031 C 
ATOM     62  C   UNL A   1      44.187  27.141  30.015  1.00  0.00     0.029 A 
ATOM     63  N   UNL A   1      44.221  25.415  28.586  1.00  0.00    -0.354 N 
ATOM     64  C   UNL A   1      40.559  29.377  30.249  1.00  0.00     0.074 A 
ATOM     65  C   UNL A   1      39.391  28.546  30.181  1.00  0.00     0.031 C 
ATOM     66  C   UNL A   1      45.458  26.974  29.594  1.00  0.00     0.029 A 
ATOM     67  C   UNL A   1      45.420  26.118  28.417  1.00  0.00     0.049 A 
ATOM     68  H   UNL A   1      44.041  24.483  28.323  1.00  0.00     0.167 HD
ATOM     69  C   UNL A   1      40.953  30.446  31.003  1.00  0.00     0.037 A 
ATOM     70  C   UNL A   1      45.786  26.468  27.148  1.00  0.00     0.037 A 
ATOM     71  C   UNL A   1      42.365  30.709  30.747  1.00  0.00     0.049 A 
ATOM     72  C   UNL A   1      45.742  27.961  26.962  1.00  0.00     0.074 A 
ATOM     73  C   UNL A   1      43.509  30.313  31.420  1.00  0.00     0.029 A 
ATOM     74  N   UNL A   1      42.761  31.087  29.470  1.00  0.00    -0.354 N 
ATOM     75  N   UNL A   1      44.967  28.758  27.645  1.00  0.00    -0.248 NA
ATOM     76  C   UNL A   1      46.619  28.667  26.039  1.00  0.00     0.031 C 
ATOM     77  C   UNL A   1      44.590  30.374  30.504  1.00  0.00     0.029 A 
ATOM     78  C   UNL A   1      44.102  30.814  29.286  1.00  0.00     0.049 A 
ATOM     79  H   UNL A   1      42.171  31.493  28.794  1.00  0.00     0.167 HD
ATOM     80  C   UNL A   1      45.298  30.054  27.360  1.00  0.00     0.074 A 
ATOM     81  C   UNL A   1      46.321  29.944  26.335  1.00  0.00     0.031 C 
ATOM     82  C   UNL A   1      44.747  31.115  28.020  1.00  0.00     0.037 A 
BRANCH  69  83
ATOM     83  C   UNL A   1      40.217  31.037  32.196  1.00  0.00     0.064 A 
ATOM     84  C   UNL A   1      39.807  32.393  32.172  1.00  0.00     0.173 A 
ATOM     85  C   UNL A   1      39.921  30.366  33.396  1.00  0.00     0.173 A 
ATOM     86  F   UNL A   1      39.939  33.150  31.076  1.00  0.00    -0.203 F 
ATOM     87  C   UNL A   1      39.241  33.038  33.275  1.00  0.00     0.198 A 
ATOM     88  C   UNL A   1      39.372  31.018  34.511  1.00  0.00     0.198 A 
ATOM     89  F   UNL A   1      40.102  29.049  33.525  1.00  0.00    -0.203 F 
ATOM     90  F   UNL A   1      38.900  34.332  33.185  1.00  0.00    -0.200 F 
ATOM     91  C   UNL A   1      39.041  32.357  34.454  1.00  0.00     0.200 A 
ATOM     92  F   UNL A   1      39.164  30.334  35.647  1.00  0.00    -0.200 F 
ATOM     93  F   UNL A   1      38.515  32.977  35.517  1.00  0.00    -0.200 F 
ENDBRANCH  69  83
BRANCH  70  94
ATOM     94  C   UNL A   1      45.323  25.456  26.150  1.00  0.00     0.064 A 
ATOM     95  C   UNL A   1      45.929  24.178  26.178  1.00  0.00     0.173 A 
ATOM     96  C   UNL A   1      44.035  25.541  25.617  1.00  0.00     0.173 A 
ATOM     97  F   UNL A   1      47.166  24.040  26.679  1.00  0.00    -0.203 F 
ATOM     98  C   UNL A   1      45.207  23.025  25.878  1.00  0.00     0.198 A 
ATOM     99  C   UNL A   1      43.330  24.383  25.304  1.00  0.00     0.198 A 
ATOM    100  F   UNL A   1      43.405  26.721  25.508  1.00  0.00    -0.203 F 
ATOM    101  F   UNL A   1      45.753  21.816  26.079  1.00  0.00    -0.200 F 
ATOM    102  C   UNL A   1      43.887  23.128  25.495  1.00  0.00     0.200 A 
ATOM    103  F   UNL A   1      42.069  24.498  24.873  1.00  0.00    -0.200 F 
ATOM    104  F   UNL A   1      43.139  22.023  25.367  1.00  0.00    -0.200 F 
ENDBRANCH  70  94
BRANCH  82 105
ATOM    105  C   UNL A   1      44.868  32.564  27.624  1.00  0.00     0.064 A 
ATOM    106  C   UNL A   1      45.648  33.497  28.321  1.00  0.00     0.173 A 
ATOM    107  C   UNL A   1      44.295  33.030  26.413  1.00  0.00     0.173 A 
ATOM    108  F   UNL A   1      46.377  33.145  29.388  1.00  0.00    -0.203 F 
ATOM    109  C   UNL A   1      45.757  34.822  27.899  1.00  0.00     0.198 A 
ATOM    110  C   UNL A   1      44.480  34.327  25.951  1.00  0.00     0.198 A 
ATOM    111  F   UNL A   1      43.562  32.235  25.619  1.00  0.00    -0.203 F 
ATOM    112  F   UNL A   1      46.450  35.694  28.643  1.00  0.00    -0.200 F 
ATOM    113  C   UNL A   1      45.184  35.234  26.711  1.00  0.00     0.200 A 
ATOM    114  F   UNL A   1      43.985  34.684  24.757  1.00  0.00    -0.200 F 
ATOM    115  F   UNL A   1      45.333  36.495  26.287  1.00  0.00    -0.200 F 
ENDBRANCH  82 105
ENDBRANCH  56  57
ENDBRANCH  49  51
ENDBRANCH  48  49
ENDBRANCH  47  48
ENDBRANCH  46  47
ENDBRANCH  45  46
ENDBRANCH   1  45
TORSDOF 20
ENDMDL
