MODEL 1
REMARK VINA RESULT:     -11.0      0.000      0.000
REMARK SMILES O=C(C[N@H+](Cc1c(F)cccc1Cl)C1CC1)OCCOC(=O)c1ccc(-c2c3nc(c(-c4c(F)c(F)c(F)c(F)c4F)c4ccc([nH]4)c(-c4c(F)c(F)c(F)c(F)c4F)c4nc(c(-c5c(F)c(F)c(F)c(F)c5F)c5ccc2[nH]5)C=C4)C=C3)cc1
REMARK SMILES IDX 18 1 17 2 2 3 1 4 3 5 4 6 5 8 6 9 7 10 12 11 8 12 9 13 11 14
REMARK SMILES IDX 13 15 10 16 14 17 15 18 16 19 19 20 20 21 21 22 22 23 23 24
REMARK SMILES IDX 24 25 85 26 25 27 84 28 26 29 27 30 28 31 78 32 29 33 83 34
REMARK SMILES IDX 77 35 79 36 30 37 82 38 76 39 75 40 31 42 63 43 43 44 62 45
REMARK SMILES IDX 44 46 47 47 61 48 80 49 45 50 46 51 60 53 81 54 48 55 32 56
REMARK SMILES IDX 33 57 41 58 34 59 35 60 39 61 42 62 36 63 37 64 40 65 38 66
REMARK SMILES IDX 64 67 65 68 73 69 66 70 67 71 71 72 74 73 68 74 69 75 72 76
REMARK SMILES IDX 70 77 49 78 50 79 58 80 51 81 52 82 56 83 59 84 53 85 54 86
REMARK SMILES IDX 57 87 55 88
REMARK H PARENT 4 7 79 41 47 52
REMARK Flexibility Score: inf
ROOT
ATOM      1  C   UNL A   1      35.362  20.804  25.327  1.00  0.00     0.274 C 
ENDROOT
BRANCH   1   2
ATOM      2  O   UNL A   1      34.316  20.017  24.709  1.00  0.00    -0.458 OA
BRANCH   2   3
ATOM      3  C   UNL A   1      33.001  20.373  24.649  1.00  0.00     0.361 C 
ATOM      4  O   UNL A   1      32.154  19.605  25.096  1.00  0.00    -0.245 OA
BRANCH   3   5
ATOM      5  C   UNL A   1      32.683  21.621  23.850  1.00  0.00     0.387 C 
BRANCH   5   6
ATOM      6  N   UNL A   1      32.618  22.926  24.510  1.00  0.00    -0.319 N 
ATOM      7  H   UNL A   1      31.822  23.358  24.041  1.00  0.00     0.349 HD
BRANCH   6   8
ATOM      8  C   UNL A   1      33.843  23.698  24.245  1.00  0.00     0.304 C 
BRANCH   8   9
ATOM      9  C   UNL A   1      33.584  25.052  23.643  1.00  0.00     0.061 A 
ATOM     10  C   UNL A   1      33.293  25.107  22.276  1.00  0.00     0.133 A 
ATOM     11  C   UNL A   1      33.584  26.262  24.358  1.00  0.00     0.052 A 
ATOM     12  F   UNL A   1      33.121  23.970  21.582  1.00  0.00    -0.206 F 
ATOM     13  C   UNL A   1      33.157  26.316  21.603  1.00  0.00     0.040 A 
ATOM     14  C   UNL A   1      33.476  27.480  23.684  1.00  0.00     0.021 A 
ATOM     15  Cl  UNL A   1      33.691  26.371  26.080  1.00  0.00    -0.084 Cl
ATOM     16  C   UNL A   1      33.299  27.510  22.304  1.00  0.00     0.005 A 
ENDBRANCH   8   9
ENDBRANCH   6   8
BRANCH   6  17
ATOM     17  C   UNL A   1      32.035  23.086  25.838  1.00  0.00     0.185 C 
ATOM     18  C   UNL A   1      30.889  24.067  25.993  1.00  0.00     0.071 C 
ATOM     19  C   UNL A   1      30.635  22.603  26.114  1.00  0.00     0.071 C 
ENDBRANCH   6  17
ENDBRANCH   5   6
ENDBRANCH   3   5
ENDBRANCH   2   3
ENDBRANCH   1   2
BRANCH   1  20
ATOM     20  C   UNL A   1      36.769  20.281  24.999  1.00  0.00     0.275 C 
BRANCH  20  21
ATOM     21  O   UNL A   1      37.789  21.307  25.095  1.00  0.00    -0.458 OA
BRANCH  21  22
ATOM     22  C   UNL A   1      38.863  21.025  25.879  1.00  0.00     0.338 C 
ATOM     23  O   UNL A   1      39.361  19.920  26.031  1.00  0.00    -0.246 OA
BRANCH  22  24
ATOM     24  C   UNL A   1      39.475  22.268  26.437  1.00  0.00     0.060 A 
ATOM     25  C   UNL A   1      38.939  23.498  26.036  1.00  0.00     0.016 A 
ATOM     26  C   UNL A   1      40.551  22.258  27.334  1.00  0.00     0.016 A 
ATOM     27  C   UNL A   1      39.465  24.703  26.524  1.00  0.00     0.010 A 
ATOM     28  C   UNL A   1      41.093  23.471  27.803  1.00  0.00     0.010 A 
ATOM     29  C   UNL A   1      40.560  24.706  27.400  1.00  0.00    -0.014 A 
BRANCH  29  30
ATOM     30  C   UNL A   1      41.183  26.006  27.795  1.00  0.00     0.031 A 
ATOM     31  C   UNL A   1      42.567  26.339  27.326  1.00  0.00     0.074 A 
ATOM     32  C   UNL A   1      40.550  26.901  28.579  1.00  0.00     0.049 A 
ATOM     33  N   UNL A   1      43.266  27.431  27.515  1.00  0.00    -0.248 NA
ATOM     34  C   UNL A   1      43.277  25.282  26.595  1.00  0.00     0.031 C 
ATOM     35  C   UNL A   1      39.266  26.672  29.217  1.00  0.00     0.029 A 
ATOM     36  N   UNL A   1      40.897  28.176  28.974  1.00  0.00    -0.354 N 
ATOM     37  C   UNL A   1      44.511  27.180  26.961  1.00  0.00     0.074 A 
ATOM     38  C   UNL A   1      44.464  25.839  26.411  1.00  0.00     0.031 C 
ATOM     39  C   UNL A   1      38.907  27.787  29.874  1.00  0.00     0.029 A 
ATOM     40  C   UNL A   1      39.915  28.818  29.691  1.00  0.00     0.049 A 
ATOM     41  H   UNL A   1      41.766  28.588  28.762  1.00  0.00     0.167 HD
ATOM     42  C   UNL A   1      45.607  27.977  26.946  1.00  0.00     0.037 A 
ATOM     43  C   UNL A   1      39.815  30.089  30.140  1.00  0.00     0.037 A 
ATOM     44  C   UNL A   1      45.682  29.292  27.530  1.00  0.00     0.049 A 
ATOM     45  C   UNL A   1      41.004  31.001  30.003  1.00  0.00     0.074 A 
ATOM     46  C   UNL A   1      46.766  30.153  27.573  1.00  0.00     0.029 A 
ATOM     47  N   UNL A   1      44.642  29.932  28.186  1.00  0.00    -0.354 N 
ATOM     48  N   UNL A   1      42.161  30.767  29.438  1.00  0.00    -0.248 NA
ATOM     49  C   UNL A   1      40.897  32.334  30.619  1.00  0.00     0.031 C 
ATOM     50  C   UNL A   1      46.394  31.296  28.290  1.00  0.00     0.029 A 
ATOM     51  C   UNL A   1      45.062  31.172  28.646  1.00  0.00     0.049 A 
ATOM     52  H   UNL A   1      43.737  29.561  28.307  1.00  0.00     0.167 HD
ATOM     53  C   UNL A   1      42.927  31.903  29.655  1.00  0.00     0.074 A 
ATOM     54  C   UNL A   1      42.084  32.856  30.344  1.00  0.00     0.031 C 
ATOM     55  C   UNL A   1      44.227  32.115  29.344  1.00  0.00     0.037 A 
BRANCH  42  56
ATOM     56  C   UNL A   1      46.844  27.401  26.329  1.00  0.00     0.064 A 
ATOM     57  C   UNL A   1      47.793  26.706  27.091  1.00  0.00     0.173 A 
ATOM     58  C   UNL A   1      47.086  27.561  24.956  1.00  0.00     0.173 A 
ATOM     59  F   UNL A   1      47.614  26.549  28.411  1.00  0.00    -0.203 F 
ATOM     60  C   UNL A   1      48.958  26.220  26.506  1.00  0.00     0.198 A 
ATOM     61  C   UNL A   1      48.239  27.049  24.370  1.00  0.00     0.198 A 
ATOM     62  F   UNL A   1      46.208  28.221  24.185  1.00  0.00    -0.203 F 
ATOM     63  F   UNL A   1      49.881  25.611  27.263  1.00  0.00    -0.200 F 
ATOM     64  C   UNL A   1      49.179  26.388  25.147  1.00  0.00     0.200 A 
ATOM     65  F   UNL A   1      48.447  27.206  23.056  1.00  0.00    -0.200 F 
ATOM     66  F   UNL A   1      50.304  25.924  24.587  1.00  0.00    -0.200 F 
ENDBRANCH  42  56
BRANCH  43  67
ATOM     67  C   UNL A   1      38.550  30.605  30.743  1.00  0.00     0.064 A 
ATOM     68  C   UNL A   1      37.514  31.081  29.920  1.00  0.00     0.173 A 
ATOM     69  C   UNL A   1      38.349  30.675  32.128  1.00  0.00     0.173 A 
ATOM     70  F   UNL A   1      37.657  31.068  28.586  1.00  0.00    -0.203 F 
ATOM     71  C   UNL A   1      36.346  31.622  30.457  1.00  0.00     0.198 A 
ATOM     72  C   UNL A   1      37.162  31.176  32.665  1.00  0.00     0.198 A 
ATOM     73  F   UNL A   1      39.302  30.246  32.968  1.00  0.00    -0.203 F 
ATOM     74  F   UNL A   1      35.404  32.122  29.646  1.00  0.00    -0.200 F 
ATOM     75  C   UNL A   1      36.167  31.660  31.831  1.00  0.00     0.200 A 
ATOM     76  F   UNL A   1      36.986  31.189  33.993  1.00  0.00    -0.200 F 
ATOM     77  F   UNL A   1      35.042  32.169  32.350  1.00  0.00    -0.200 F 
ENDBRANCH  43  67
BRANCH  55  78
ATOM     78  C   UNL A   1      44.825  33.427  29.761  1.00  0.00     0.064 A 
ATOM     79  C   UNL A   1      44.788  34.549  28.918  1.00  0.00     0.173 A 
ATOM     80  C   UNL A   1      45.418  33.574  31.023  1.00  0.00     0.173 A 
ATOM     81  F   UNL A   1      44.249  34.456  27.693  1.00  0.00    -0.203 F 
ATOM     82  C   UNL A   1      45.343  35.763  29.316  1.00  0.00     0.198 A 
ATOM     83  C   UNL A   1      45.948  34.796  31.428  1.00  0.00     0.198 A 
ATOM     84  F   UNL A   1      45.479  32.532  31.866  1.00  0.00    -0.203 F 
ATOM     85  F   UNL A   1      45.338  36.808  28.476  1.00  0.00    -0.200 F 
ATOM     86  C   UNL A   1      45.917  35.887  30.572  1.00  0.00     0.200 A 
ATOM     87  F   UNL A   1      46.495  34.917  32.645  1.00  0.00    -0.200 F 
ATOM     88  F   UNL A   1      46.448  37.056  30.955  1.00  0.00    -0.200 F 
ENDBRANCH  55  78
ENDBRANCH  29  30
ENDBRANCH  22  24
ENDBRANCH  21  22
ENDBRANCH  20  21
ENDBRANCH   1  20
TORSDOF 15
ENDMDL
MODEL 2
REMARK VINA RESULT:     -11.0      4.547      6.684
REMARK SMILES O=C(C[N@H+](Cc1c(F)cccc1Cl)C1CC1)OCCOC(=O)c1ccc(-c2c3nc(c(-c4c(F)c(F)c(F)c(F)c4F)c4ccc([nH]4)c(-c4c(F)c(F)c(F)c(F)c4F)c4nc(c(-c5c(F)c(F)c(F)c(F)c5F)c5ccc2[nH]5)C=C4)C=C3)cc1
REMARK SMILES IDX 18 1 17 2 2 3 1 4 3 5 4 6 5 8 6 9 7 10 12 11 8 12 9 13 11 14
REMARK SMILES IDX 13 15 10 16 14 17 15 18 16 19 19 20 20 21 21 22 22 23 23 24
REMARK SMILES IDX 24 25 85 26 25 27 84 28 26 29 27 30 28 31 78 32 29 33 83 34
REMARK SMILES IDX 77 35 79 36 30 37 82 38 76 39 75 40 31 42 63 43 43 44 62 45
REMARK SMILES IDX 44 46 47 47 61 48 80 49 45 50 46 51 60 53 81 54 48 55 32 56
REMARK SMILES IDX 33 57 41 58 34 59 35 60 39 61 42 62 36 63 37 64 40 65 38 66
REMARK SMILES IDX 64 67 65 68 73 69 66 70 67 71 71 72 74 73 68 74 69 75 72 76
REMARK SMILES IDX 70 77 49 78 50 79 58 80 51 81 52 82 56 83 59 84 53 85 54 86
REMARK SMILES IDX 57 87 55 88
REMARK H PARENT 4 7 79 41 47 52
REMARK Flexibility Score: inf
ROOT
ATOM      1  C   UNL A   1      31.672  27.820  26.989  1.00  0.00     0.274 C 
ENDROOT
BRANCH   1   2
ATOM      2  O   UNL A   1      30.701  26.782  26.722  1.00  0.00    -0.458 OA
BRANCH   2   3
ATOM      3  C   UNL A   1      31.001  25.496  26.382  1.00  0.00     0.361 C 
ATOM      4  O   UNL A   1      31.408  24.729  27.250  1.00  0.00    -0.245 OA
BRANCH   3   5
ATOM      5  C   UNL A   1      30.985  25.176  24.901  1.00  0.00     0.387 C 
BRANCH   5   6
ATOM      6  N   UNL A   1      31.648  26.064  23.944  1.00  0.00    -0.319 N 
ATOM      7  H   UNL A   1      31.765  26.915  24.495  1.00  0.00     0.349 HD
BRANCH   6   8
ATOM      8  C   UNL A   1      30.773  26.322  22.789  1.00  0.00     0.304 C 
BRANCH   8   9
ATOM      9  C   UNL A   1      30.024  27.622  22.880  1.00  0.00     0.061 A 
ATOM     10  C   UNL A   1      28.680  27.568  23.268  1.00  0.00     0.133 A 
ATOM     11  C   UNL A   1      30.580  28.888  22.631  1.00  0.00     0.052 A 
ATOM     12  F   UNL A   1      28.146  26.405  23.672  1.00  0.00    -0.206 F 
ATOM     13  C   UNL A   1      27.871  28.698  23.266  1.00  0.00     0.040 A 
ATOM     14  C   UNL A   1      29.765  30.023  22.599  1.00  0.00     0.021 A 
ATOM     15  Cl  UNL A   1      32.264  29.173  22.368  1.00  0.00    -0.084 Cl
ATOM     16  C   UNL A   1      28.406  29.924  22.880  1.00  0.00     0.005 A 
ENDBRANCH   8   9
ENDBRANCH   6   8
BRANCH   6  17
ATOM     17  C   UNL A   1      33.075  25.951  23.655  1.00  0.00     0.185 C 
ATOM     18  C   UNL A   1      34.021  26.874  24.398  1.00  0.00     0.071 C 
ATOM     19  C   UNL A   1      34.019  25.414  24.698  1.00  0.00     0.071 C 
ENDBRANCH   6  17
ENDBRANCH   5   6
ENDBRANCH   3   5
ENDBRANCH   2   3
ENDBRANCH   1   2
BRANCH   1  20
ATOM     20  C   UNL A   1      31.485  29.053  26.091  1.00  0.00     0.275 C 
BRANCH  20  21
ATOM     21  O   UNL A   1      32.715  29.791  25.881  1.00  0.00    -0.458 OA
BRANCH  21  22
ATOM     22  C   UNL A   1      32.950  30.833  26.722  1.00  0.00     0.338 C 
ATOM     23  O   UNL A   1      32.181  31.757  26.940  1.00  0.00    -0.246 OA
BRANCH  22  24
ATOM     24  C   UNL A   1      34.223  30.649  27.481  1.00  0.00     0.060 A 
ATOM     25  C   UNL A   1      34.728  29.347  27.605  1.00  0.00     0.016 A 
ATOM     26  C   UNL A   1      34.927  31.707  28.068  1.00  0.00     0.016 A 
ATOM     27  C   UNL A   1      35.920  29.104  28.302  1.00  0.00     0.010 A 
ATOM     28  C   UNL A   1      36.111  31.457  28.790  1.00  0.00     0.010 A 
ATOM     29  C   UNL A   1      36.618  30.153  28.919  1.00  0.00    -0.014 A 
BRANCH  29  30
ATOM     30  C   UNL A   1      37.809  29.845  29.767  1.00  0.00     0.031 A 
ATOM     31  C   UNL A   1      38.947  29.058  29.191  1.00  0.00     0.074 A 
ATOM     32  C   UNL A   1      37.900  30.236  31.053  1.00  0.00     0.049 A 
ATOM     33  N   UNL A   1      40.089  28.728  29.742  1.00  0.00    -0.248 NA
ATOM     34  C   UNL A   1      38.750  28.528  27.836  1.00  0.00     0.031 C 
ATOM     35  C   UNL A   1      36.833  30.889  31.792  1.00  0.00     0.029 A 
ATOM     36  N   UNL A   1      38.930  30.144  31.966  1.00  0.00    -0.354 N 
ATOM     37  C   UNL A   1      40.732  27.920  28.818  1.00  0.00     0.074 A 
ATOM     38  C   UNL A   1      39.860  27.827  27.663  1.00  0.00     0.031 C 
ATOM     39  C   UNL A   1      37.282  31.189  33.021  1.00  0.00     0.029 A 
ATOM     40  C   UNL A   1      38.669  30.776  33.160  1.00  0.00     0.049 A 
ATOM     41  H   UNL A   1      39.773  29.670  31.781  1.00  0.00     0.167 HD
ATOM     42  C   UNL A   1      41.921  27.280  28.935  1.00  0.00     0.037 A 
ATOM     43  C   UNL A   1      39.447  31.017  34.238  1.00  0.00     0.037 A 
ATOM     44  C   UNL A   1      42.775  27.326  30.095  1.00  0.00     0.049 A 
ATOM     45  C   UNL A   1      40.817  30.398  34.296  1.00  0.00     0.074 A 
ATOM     46  C   UNL A   1      43.987  26.687  30.296  1.00  0.00     0.029 A 
ATOM     47  N   UNL A   1      42.504  28.035  31.255  1.00  0.00    -0.354 N 
ATOM     48  N   UNL A   1      41.431  29.672  33.397  1.00  0.00    -0.248 NA
ATOM     49  C   UNL A   1      41.580  30.581  35.541  1.00  0.00     0.031 C 
ATOM     50  C   UNL A   1      44.429  26.975  31.592  1.00  0.00     0.029 A 
ATOM     51  C   UNL A   1      43.521  27.840  32.179  1.00  0.00     0.049 A 
ATOM     52  H   UNL A   1      41.707  28.595  31.402  1.00  0.00     0.167 HD
ATOM     53  C   UNL A   1      42.632  29.287  33.975  1.00  0.00     0.074 A 
ATOM     54  C   UNL A   1      42.694  29.914  35.277  1.00  0.00     0.031 C 
ATOM     55  C   UNL A   1      43.576  28.452  33.480  1.00  0.00     0.037 A 
BRANCH  42  56
ATOM     56  C   UNL A   1      42.329  26.412  27.785  1.00  0.00     0.064 A 
ATOM     57  C   UNL A   1      41.832  25.110  27.632  1.00  0.00     0.173 A 
ATOM     58  C   UNL A   1      43.241  26.888  26.832  1.00  0.00     0.173 A 
ATOM     59  F   UNL A   1      40.975  24.605  28.532  1.00  0.00    -0.203 F 
ATOM     60  C   UNL A   1      42.259  24.303  26.582  1.00  0.00     0.198 A 
ATOM     61  C   UNL A   1      43.645  26.089  25.768  1.00  0.00     0.198 A 
ATOM     62  F   UNL A   1      43.747  28.127  26.937  1.00  0.00    -0.203 F 
ATOM     63  F   UNL A   1      41.819  23.041  26.488  1.00  0.00    -0.200 F 
ATOM     64  C   UNL A   1      43.162  24.793  25.649  1.00  0.00     0.200 A 
ATOM     65  F   UNL A   1      44.511  26.566  24.864  1.00  0.00    -0.200 F 
ATOM     66  F   UNL A   1      43.577  24.013  24.643  1.00  0.00    -0.200 F 
ENDBRANCH  42  56
BRANCH  43  67
ATOM     67  C   UNL A   1      38.983  31.898  35.351  1.00  0.00     0.064 A 
ATOM     68  C   UNL A   1      39.277  33.273  35.339  1.00  0.00     0.173 A 
ATOM     69  C   UNL A   1      38.280  31.404  36.459  1.00  0.00     0.173 A 
ATOM     70  F   UNL A   1      39.973  33.800  34.321  1.00  0.00    -0.203 F 
ATOM     71  C   UNL A   1      38.907  34.107  36.394  1.00  0.00     0.198 A 
ATOM     72  C   UNL A   1      37.871  32.247  37.493  1.00  0.00     0.198 A 
ATOM     73  F   UNL A   1      37.977  30.100  36.537  1.00  0.00    -0.203 F 
ATOM     74  F   UNL A   1      39.255  35.401  36.379  1.00  0.00    -0.200 F 
ATOM     75  C   UNL A   1      38.195  33.595  37.467  1.00  0.00     0.200 A 
ATOM     76  F   UNL A   1      37.163  31.751  38.517  1.00  0.00    -0.200 F 
ATOM     77  F   UNL A   1      37.829  34.395  38.476  1.00  0.00    -0.200 F 
ENDBRANCH  43  67
BRANCH  55  78
ATOM     78  C   UNL A   1      44.756  28.157  34.359  1.00  0.00     0.064 A 
ATOM     79  C   UNL A   1      44.762  27.060  35.234  1.00  0.00     0.173 A 
ATOM     80  C   UNL A   1      45.903  28.962  34.309  1.00  0.00     0.173 A 
ATOM     81  F   UNL A   1      43.682  26.269  35.333  1.00  0.00    -0.203 F 
ATOM     82  C   UNL A   1      45.864  26.793  36.043  1.00  0.00     0.198 A 
ATOM     83  C   UNL A   1      47.014  28.678  35.100  1.00  0.00     0.198 A 
ATOM     84  F   UNL A   1      45.949  30.024  33.490  1.00  0.00    -0.203 F 
ATOM     85  F   UNL A   1      45.829  25.767  36.905  1.00  0.00    -0.200 F 
ATOM     86  C   UNL A   1      46.991  27.599  35.971  1.00  0.00     0.200 A 
ATOM     87  F   UNL A   1      48.105  29.451  35.024  1.00  0.00    -0.200 F 
ATOM     88  F   UNL A   1      48.052  27.340  36.748  1.00  0.00    -0.200 F 
ENDBRANCH  55  78
ENDBRANCH  29  30
ENDBRANCH  22  24
ENDBRANCH  21  22
ENDBRANCH  20  21
ENDBRANCH   1  20
TORSDOF 15
ENDMDL
MODEL 3
REMARK VINA RESULT:     -10.8      4.426      9.429
REMARK SMILES O=C(C[N@H+](Cc1c(F)cccc1Cl)C1CC1)OCCOC(=O)c1ccc(-c2c3nc(c(-c4c(F)c(F)c(F)c(F)c4F)c4ccc([nH]4)c(-c4c(F)c(F)c(F)c(F)c4F)c4nc(c(-c5c(F)c(F)c(F)c(F)c5F)c5ccc2[nH]5)C=C4)C=C3)cc1
REMARK SMILES IDX 18 1 17 2 2 3 1 4 3 5 4 6 5 8 6 9 7 10 12 11 8 12 9 13 11 14
REMARK SMILES IDX 13 15 10 16 14 17 15 18 16 19 19 20 20 21 21 22 22 23 23 24
REMARK SMILES IDX 24 25 85 26 25 27 84 28 26 29 27 30 28 31 78 32 29 33 83 34
REMARK SMILES IDX 77 35 79 36 30 37 82 38 76 39 75 40 31 42 63 43 43 44 62 45
REMARK SMILES IDX 44 46 47 47 61 48 80 49 45 50 46 51 60 53 81 54 48 55 32 56
REMARK SMILES IDX 33 57 41 58 34 59 35 60 39 61 42 62 36 63 37 64 40 65 38 66
REMARK SMILES IDX 64 67 65 68 73 69 66 70 67 71 71 72 74 73 68 74 69 75 72 76
REMARK SMILES IDX 70 77 49 78 50 79 58 80 51 81 52 82 56 83 59 84 53 85 54 86
REMARK SMILES IDX 57 87 55 88
REMARK H PARENT 4 7 79 41 47 52
REMARK Flexibility Score: inf
ROOT
ATOM      1  C   UNL A   1      32.539  29.159  24.395  1.00  0.00     0.274 C 
ENDROOT
BRANCH   1   2
ATOM      2  O   UNL A   1      31.724  28.705  23.289  1.00  0.00    -0.458 OA
BRANCH   2   3
ATOM      3  C   UNL A   1      31.822  27.480  22.695  1.00  0.00     0.361 C 
ATOM      4  O   UNL A   1      31.038  27.189  21.797  1.00  0.00    -0.245 OA
BRANCH   3   5
ATOM      5  C   UNL A   1      32.784  26.502  23.339  1.00  0.00     0.387 C 
BRANCH   5   6
ATOM      6  N   UNL A   1      32.312  25.198  23.807  1.00  0.00    -0.319 N 
ATOM      7  H   UNL A   1      32.820  25.095  24.686  1.00  0.00     0.349 HD
BRANCH   6   8
ATOM      8  C   UNL A   1      32.707  24.139  22.864  1.00  0.00     0.304 C 
BRANCH   8   9
ATOM      9  C   UNL A   1      33.188  22.882  23.536  1.00  0.00     0.061 A 
ATOM     10  C   UNL A   1      32.540  21.686  23.210  1.00  0.00     0.133 A 
ATOM     11  C   UNL A   1      34.258  22.817  24.446  1.00  0.00     0.052 A 
ATOM     12  F   UNL A   1      31.623  21.667  22.230  1.00  0.00    -0.206 F 
ATOM     13  C   UNL A   1      32.830  20.494  23.864  1.00  0.00     0.040 A 
ATOM     14  C   UNL A   1      34.534  21.629  25.126  1.00  0.00     0.021 A 
ATOM     15  Cl  UNL A   1      35.318  24.138  24.792  1.00  0.00    -0.084 Cl
ATOM     16  C   UNL A   1      33.798  20.478  24.864  1.00  0.00     0.005 A 
ENDBRANCH   8   9
ENDBRANCH   6   8
BRANCH   6  17
ATOM     17  C   UNL A   1      31.007  25.036  24.441  1.00  0.00     0.185 C 
ATOM     18  C   UNL A   1      30.960  24.357  25.797  1.00  0.00     0.071 C 
ATOM     19  C   UNL A   1      30.668  25.815  25.686  1.00  0.00     0.071 C 
ENDBRANCH   6  17
ENDBRANCH   5   6
ENDBRANCH   3   5
ENDBRANCH   2   3
ENDBRANCH   1   2
BRANCH   1  20
ATOM     20  C   UNL A   1      31.775  30.088  25.351  1.00  0.00     0.275 C 
BRANCH  20  21
ATOM     21  O   UNL A   1      32.334  30.106  26.689  1.00  0.00    -0.458 OA
BRANCH  21  22
ATOM     22  C   UNL A   1      32.960  31.250  27.071  1.00  0.00     0.338 C 
ATOM     23  O   UNL A   1      32.472  32.370  27.046  1.00  0.00    -0.246 OA
BRANCH  22  24
ATOM     24  C   UNL A   1      34.295  30.968  27.678  1.00  0.00     0.060 A 
ATOM     25  C   UNL A   1      34.615  29.633  27.962  1.00  0.00     0.016 A 
ATOM     26  C   UNL A   1      35.231  31.966  27.973  1.00  0.00     0.016 A 
ATOM     27  C   UNL A   1      35.853  29.298  28.530  1.00  0.00     0.010 A 
ATOM     28  C   UNL A   1      36.464  31.629  28.566  1.00  0.00     0.010 A 
ATOM     29  C   UNL A   1      36.787  30.293  28.856  1.00  0.00    -0.014 A 
BRANCH  29  30
ATOM     30  C   UNL A   1      38.037  29.918  29.583  1.00  0.00     0.031 A 
ATOM     31  C   UNL A   1      38.234  30.364  31.001  1.00  0.00     0.074 A 
ATOM     32  C   UNL A   1      39.020  29.199  29.006  1.00  0.00     0.049 A 
ATOM     33  N   UNL A   1      39.222  30.104  31.821  1.00  0.00    -0.248 NA
ATOM     34  C   UNL A   1      37.211  31.264  31.547  1.00  0.00     0.031 C 
ATOM     35  C   UNL A   1      39.038  28.805  27.608  1.00  0.00     0.029 A 
ATOM     36  N   UNL A   1      40.187  28.671  29.517  1.00  0.00    -0.354 N 
ATOM     37  C   UNL A   1      38.960  30.837  32.967  1.00  0.00     0.074 A 
ATOM     38  C   UNL A   1      37.710  31.537  32.742  1.00  0.00     0.031 C 
ATOM     39  C   UNL A   1      40.128  28.054  27.387  1.00  0.00     0.029 A 
ATOM     40  C   UNL A   1      40.877  27.887  28.622  1.00  0.00     0.049 A 
ATOM     41  H   UNL A   1      40.497  28.840  30.436  1.00  0.00     0.167 HD
ATOM     42  C   UNL A   1      39.711  30.951  34.089  1.00  0.00     0.037 A 
ATOM     43  C   UNL A   1      41.972  27.109  28.767  1.00  0.00     0.037 A 
ATOM     44  C   UNL A   1      40.977  30.299  34.308  1.00  0.00     0.049 A 
ATOM     45  C   UNL A   1      42.726  27.154  30.069  1.00  0.00     0.074 A 
ATOM     46  C   UNL A   1      41.808  30.382  35.413  1.00  0.00     0.029 A 
ATOM     47  N   UNL A   1      41.606  29.459  33.402  1.00  0.00    -0.354 N 
ATOM     48  N   UNL A   1      42.445  27.819  31.160  1.00  0.00    -0.248 NA
ATOM     49  C   UNL A   1      43.982  26.390  30.139  1.00  0.00     0.031 C 
ATOM     50  C   UNL A   1      42.958  29.625  35.159  1.00  0.00     0.029 A 
ATOM     51  C   UNL A   1      42.819  29.025  33.919  1.00  0.00     0.049 A 
ATOM     52  H   UNL A   1      41.245  29.206  32.521  1.00  0.00     0.167 HD
ATOM     53  C   UNL A   1      43.497  27.580  32.032  1.00  0.00     0.074 A 
ATOM     54  C   UNL A   1      44.392  26.654  31.371  1.00  0.00     0.031 C 
ATOM     55  C   UNL A   1      43.716  28.116  33.256  1.00  0.00     0.037 A 
BRANCH  42  56
ATOM     56  C   UNL A   1      39.199  31.882  35.145  1.00  0.00     0.064 A 
ATOM     57  C   UNL A   1      39.460  33.259  35.103  1.00  0.00     0.173 A 
ATOM     58  C   UNL A   1      38.449  31.384  36.220  1.00  0.00     0.173 A 
ATOM     59  F   UNL A   1      40.194  33.776  34.105  1.00  0.00    -0.203 F 
ATOM     60  C   UNL A   1      39.016  34.100  36.118  1.00  0.00     0.198 A 
ATOM     61  C   UNL A   1      37.981  32.233  37.218  1.00  0.00     0.198 A 
ATOM     62  F   UNL A   1      38.175  30.073  36.306  1.00  0.00    -0.203 F 
ATOM     63  F   UNL A   1      39.327  35.403  36.090  1.00  0.00    -0.200 F 
ATOM     64  C   UNL A   1      38.274  33.588  37.172  1.00  0.00     0.200 A 
ATOM     65  F   UNL A   1      37.259  31.737  38.233  1.00  0.00    -0.200 F 
ATOM     66  F   UNL A   1      37.851  34.398  38.152  1.00  0.00    -0.200 F 
ENDBRANCH  42  56
BRANCH  43  67
ATOM     67  C   UNL A   1      42.429  26.196  27.677  1.00  0.00     0.064 A 
ATOM     68  C   UNL A   1      43.412  26.616  26.764  1.00  0.00     0.173 A 
ATOM     69  C   UNL A   1      41.887  24.916  27.489  1.00  0.00     0.173 A 
ATOM     70  F   UNL A   1      43.948  27.841  26.873  1.00  0.00    -0.203 F 
ATOM     71  C   UNL A   1      43.815  25.806  25.702  1.00  0.00     0.198 A 
ATOM     72  C   UNL A   1      42.323  24.090  26.453  1.00  0.00     0.198 A 
ATOM     73  F   UNL A   1      40.939  24.459  28.320  1.00  0.00    -0.203 F 
ATOM     74  F   UNL A   1      44.710  26.261  24.815  1.00  0.00    -0.200 F 
ATOM     75  C   UNL A   1      43.276  24.538  25.553  1.00  0.00     0.200 A 
ATOM     76  F   UNL A   1      41.815  22.856  26.328  1.00  0.00    -0.200 F 
ATOM     77  F   UNL A   1      43.669  23.754  24.541  1.00  0.00    -0.200 F 
ENDBRANCH  43  67
BRANCH  55  78
ATOM     78  C   UNL A   1      44.985  27.725  33.957  1.00  0.00     0.064 A 
ATOM     79  C   UNL A   1      45.039  26.607  34.803  1.00  0.00     0.173 A 
ATOM     80  C   UNL A   1      46.164  28.458  33.761  1.00  0.00     0.173 A 
ATOM     81  F   UNL A   1      43.934  25.883  35.038  1.00  0.00    -0.203 F 
ATOM     82  C   UNL A   1      46.222  26.251  35.447  1.00  0.00     0.198 A 
ATOM     83  C   UNL A   1      47.352  28.085  34.385  1.00  0.00     0.198 A 
ATOM     84  F   UNL A   1      46.165  29.536  32.962  1.00  0.00    -0.203 F 
ATOM     85  F   UNL A   1      46.239  25.207  36.287  1.00  0.00    -0.200 F 
ATOM     86  C   UNL A   1      47.378  26.987  35.232  1.00  0.00     0.200 A 
ATOM     87  F   UNL A   1      48.470  28.790  34.171  1.00  0.00    -0.200 F 
ATOM     88  F   UNL A   1      48.517  26.642  35.849  1.00  0.00    -0.200 F 
ENDBRANCH  55  78
ENDBRANCH  29  30
ENDBRANCH  22  24
ENDBRANCH  21  22
ENDBRANCH  20  21
ENDBRANCH   1  20
TORSDOF 15
ENDMDL
