MODEL 1
REMARK VINA RESULT:     -12.2      0.000      0.000
REMARK SMILES O=C(OCCOC(=O)[C@@H]1CN(Cc2ccccc2)c2ccccc2O1)c1ccc(-c2c3nc(c(-c4c(F)c(F)c(F)c(F)c4F)c4ccc([nH]4)c(-c4c(F)c(F)c(F)c(F)c4F)c4nc(c(-c5c(F)c(F)c(F)c(F)c5F)c5ccc2[nH]5)C=C4)C=C3)cc1
REMARK SMILES IDX 4 1 3 2 2 3 1 4 26 5 27 6 88 7 28 8 87 9 29 10 30 11 31 12
REMARK SMILES IDX 81 13 32 14 86 15 80 16 82 17 33 18 85 19 79 20 78 21 34 23
REMARK SMILES IDX 66 24 46 25 65 26 47 27 50 28 64 29 83 30 48 31 49 32 63 34
REMARK SMILES IDX 84 35 51 36 35 37 36 38 44 39 37 40 38 41 42 42 45 43 39 44
REMARK SMILES IDX 40 45 43 46 41 47 67 48 68 49 76 50 69 51 70 52 74 53 77 54
REMARK SMILES IDX 71 55 72 56 75 57 73 58 52 59 53 60 61 61 54 62 55 63 59 64
REMARK SMILES IDX 62 65 56 66 57 67 60 68 58 69 5 70 6 71 7 72 8 73 9 74 10 75
REMARK SMILES IDX 25 76 11 77 24 78 19 79 23 80 20 81 22 82 21 83 12 84 13 85
REMARK SMILES IDX 14 86 18 87 15 88 17 89 16 90
REMARK H PARENT 82 22 50 33
REMARK Flexibility Score: inf
ROOT
ATOM      1  C   UNL A   1      31.896  32.779  26.809  1.00  0.00     0.275 C 
ENDROOT
BRANCH   1   2
ATOM      2  O   UNL A   1      32.589  33.499  27.851  1.00  0.00    -0.458 OA
BRANCH   2   3
ATOM      3  C   UNL A   1      33.877  33.921  27.874  1.00  0.00     0.338 C 
ATOM      4  O   UNL A   1      34.237  34.796  27.090  1.00  0.00    -0.246 OA
BRANCH   3   5
ATOM      5  C   UNL A   1      34.945  33.171  28.614  1.00  0.00     0.060 A 
ATOM      6  C   UNL A   1      34.765  31.993  29.340  1.00  0.00     0.016 A 
ATOM      7  C   UNL A   1      36.256  33.681  28.502  1.00  0.00     0.016 A 
ATOM      8  C   UNL A   1      35.859  31.268  29.819  1.00  0.00     0.010 A 
ATOM      9  C   UNL A   1      37.357  32.967  28.991  1.00  0.00     0.010 A 
ATOM     10  C   UNL A   1      37.159  31.739  29.632  1.00  0.00    -0.014 A 
BRANCH  10  11
ATOM     11  C   UNL A   1      38.282  31.018  30.266  1.00  0.00     0.031 A 
ATOM     12  C   UNL A   1      38.576  31.329  31.700  1.00  0.00     0.074 A 
ATOM     13  C   UNL A   1      38.978  30.078  29.599  1.00  0.00     0.049 A 
ATOM     14  N   UNL A   1      39.470  30.806  32.495  1.00  0.00    -0.248 NA
ATOM     15  C   UNL A   1      37.734  32.361  32.331  1.00  0.00     0.031 C 
ATOM     16  C   UNL A   1      38.735  29.665  28.219  1.00  0.00     0.029 A 
ATOM     17  N   UNL A   1      40.039  29.298  29.991  1.00  0.00    -0.354 N 
ATOM     18  C   UNL A   1      39.290  31.437  33.717  1.00  0.00     0.074 A 
ATOM     19  C   UNL A   1      38.226  32.401  33.558  1.00  0.00     0.031 C 
ATOM     20  C   UNL A   1      39.638  28.734  27.866  1.00  0.00     0.029 A 
ATOM     21  C   UNL A   1      40.531  28.490  28.993  1.00  0.00     0.049 A 
ATOM     22  H   UNL A   1      40.412  29.317  30.902  1.00  0.00     0.167 HD
ATOM     23  C   UNL A   1      39.955  31.217  34.872  1.00  0.00     0.037 A 
ATOM     24  C   UNL A   1      41.595  27.662  28.995  1.00  0.00     0.037 A 
ATOM     25  C   UNL A   1      41.021  30.267  35.008  1.00  0.00     0.049 A 
ATOM     26  C   UNL A   1      42.379  27.513  30.275  1.00  0.00     0.074 A 
ATOM     27  C   UNL A   1      41.752  29.948  36.135  1.00  0.00     0.029 A 
ATOM     28  N   UNL A   1      41.523  29.499  33.966  1.00  0.00    -0.354 N 
ATOM     29  N   UNL A   1      42.154  28.053  31.450  1.00  0.00    -0.248 NA
ATOM     30  C   UNL A   1      43.560  26.639  30.238  1.00  0.00     0.031 C 
ATOM     31  C   UNL A   1      42.741  29.034  35.762  1.00  0.00     0.029 A 
ATOM     32  C   UNL A   1      42.590  28.741  34.415  1.00  0.00     0.049 A 
ATOM     33  H   UNL A   1      41.173  29.494  33.046  1.00  0.00     0.167 HD
ATOM     34  C   UNL A   1      43.146  27.571  32.292  1.00  0.00     0.074 A 
ATOM     35  C   UNL A   1      43.961  26.672  31.501  1.00  0.00     0.031 C 
ATOM     36  C   UNL A   1      43.373  27.849  33.598  1.00  0.00     0.037 A 
BRANCH  23  37
ATOM     37  C   UNL A   1      39.574  32.052  36.054  1.00  0.00     0.064 A 
ATOM     38  C   UNL A   1      38.496  31.709  36.883  1.00  0.00     0.173 A 
ATOM     39  C   UNL A   1      40.306  33.207  36.366  1.00  0.00     0.173 A 
ATOM     40  F   UNL A   1      37.748  30.629  36.608  1.00  0.00    -0.203 F 
ATOM     41  C   UNL A   1      38.155  32.504  37.975  1.00  0.00     0.198 A 
ATOM     42  C   UNL A   1      39.978  33.983  37.472  1.00  0.00     0.198 A 
ATOM     43  F   UNL A   1      41.338  33.580  35.594  1.00  0.00    -0.203 F 
ATOM     44  F   UNL A   1      37.095  32.182  38.730  1.00  0.00    -0.200 F 
ATOM     45  C   UNL A   1      38.901  33.634  38.273  1.00  0.00     0.200 A 
ATOM     46  F   UNL A   1      40.701  35.075  37.759  1.00  0.00    -0.200 F 
ATOM     47  F   UNL A   1      38.575  34.395  39.327  1.00  0.00    -0.200 F 
ENDBRANCH  23  37
BRANCH  24  48
ATOM     48  C   UNL A   1      42.013  26.941  27.758  1.00  0.00     0.064 A 
ATOM     49  C   UNL A   1      41.588  25.630  27.493  1.00  0.00     0.173 A 
ATOM     50  C   UNL A   1      42.912  27.522  26.850  1.00  0.00     0.173 A 
ATOM     51  F   UNL A   1      40.748  25.016  28.339  1.00  0.00    -0.203 F 
ATOM     52  C   UNL A   1      42.076  24.918  26.397  1.00  0.00     0.198 A 
ATOM     53  C   UNL A   1      43.374  26.821  25.736  1.00  0.00     0.198 A 
ATOM     54  F   UNL A   1      43.360  28.769  27.053  1.00  0.00    -0.203 F 
ATOM     55  F   UNL A   1      41.708  23.642  26.213  1.00  0.00    -0.200 F 
ATOM     56  C   UNL A   1      42.967  25.514  25.519  1.00  0.00     0.200 A 
ATOM     57  F   UNL A   1      44.230  27.404  24.886  1.00  0.00    -0.200 F 
ATOM     58  F   UNL A   1      43.448  24.824  24.475  1.00  0.00    -0.200 F 
ENDBRANCH  24  48
BRANCH  36  59
ATOM     59  C   UNL A   1      44.538  27.171  34.254  1.00  0.00     0.064 A 
ATOM     60  C   UNL A   1      45.792  27.794  34.339  1.00  0.00     0.173 A 
ATOM     61  C   UNL A   1      44.376  25.924  34.876  1.00  0.00     0.173 A 
ATOM     62  F   UNL A   1      45.997  28.981  33.747  1.00  0.00    -0.203 F 
ATOM     63  C   UNL A   1      46.845  27.186  35.012  1.00  0.00     0.198 A 
ATOM     64  C   UNL A   1      45.423  25.334  35.576  1.00  0.00     0.198 A 
ATOM     65  F   UNL A   1      43.193  25.293  34.829  1.00  0.00    -0.203 F 
ATOM     66  F   UNL A   1      48.045  27.782  35.051  1.00  0.00    -0.200 F 
ATOM     67  C   UNL A   1      46.657  25.963  35.641  1.00  0.00     0.200 A 
ATOM     68  F   UNL A   1      45.235  24.163  36.199  1.00  0.00    -0.200 F 
ATOM     69  F   UNL A   1      47.668  25.391  36.307  1.00  0.00    -0.200 F 
ENDBRANCH  36  59
ENDBRANCH  10  11
ENDBRANCH   3   5
ENDBRANCH   2   3
ENDBRANCH   1   2
BRANCH   1  70
ATOM     70  C   UNL A   1      32.130  31.264  26.851  1.00  0.00     0.274 C 
BRANCH  70  71
ATOM     71  O   UNL A   1      31.802  30.631  25.606  1.00  0.00    -0.459 OA
BRANCH  71  72
ATOM     72  C   UNL A   1      31.977  29.273  25.592  1.00  0.00     0.349 C 
ATOM     73  O   UNL A   1      31.631  28.547  26.517  1.00  0.00    -0.248 OA
BRANCH  72  74
ATOM     74  C   UNL A   1      32.609  28.830  24.274  1.00  0.00     0.301 C 
ATOM     75  C   UNL A   1      31.709  29.007  23.049  1.00  0.00     0.174 C 
ATOM     76  O   UNL A   1      33.175  27.532  24.353  1.00  0.00    -0.475 OA
ATOM     77  N   UNL A   1      30.596  28.055  23.045  1.00  0.00    -0.360 N 
ATOM     78  C   UNL A   1      32.271  26.544  24.052  1.00  0.00     0.144 A 
ATOM     79  C   UNL A   1      31.014  26.770  23.436  1.00  0.00     0.080 A 
ATOM     80  C   UNL A   1      32.706  25.267  24.421  1.00  0.00     0.049 A 
ATOM     81  C   UNL A   1      30.239  25.633  23.198  1.00  0.00     0.030 A 
ATOM     82  C   UNL A   1      31.880  24.172  24.220  1.00  0.00     0.004 A 
ATOM     83  C   UNL A   1      30.646  24.356  23.607  1.00  0.00     0.002 A 
BRANCH  77  84
ATOM     84  C   UNL A   1      29.288  28.601  23.473  1.00  0.00     0.152 C 
BRANCH  84  85
ATOM     85  C   UNL A   1      28.904  29.935  22.884  1.00  0.00    -0.029 A 
ATOM     86  C   UNL A   1      28.945  31.116  23.636  1.00  0.00     0.005 A 
ATOM     87  C   UNL A   1      28.438  29.991  21.561  1.00  0.00     0.005 A 
ATOM     88  C   UNL A   1      28.566  32.330  23.058  1.00  0.00     0.000 A 
ATOM     89  C   UNL A   1      28.100  31.206  20.972  1.00  0.00     0.000 A 
ATOM     90  C   UNL A   1      28.165  32.377  21.722  1.00  0.00     0.000 A 
ENDBRANCH  84  85
ENDBRANCH  77  84
ENDBRANCH  72  74
ENDBRANCH  71  72
ENDBRANCH  70  71
ENDBRANCH   1  70
TORSDOF 13
ENDMDL
MODEL 2
REMARK VINA RESULT:     -12.2      5.193     11.043
REMARK SMILES O=C(OCCOC(=O)[C@@H]1CN(Cc2ccccc2)c2ccccc2O1)c1ccc(-c2c3nc(c(-c4c(F)c(F)c(F)c(F)c4F)c4ccc([nH]4)c(-c4c(F)c(F)c(F)c(F)c4F)c4nc(c(-c5c(F)c(F)c(F)c(F)c5F)c5ccc2[nH]5)C=C4)C=C3)cc1
REMARK SMILES IDX 4 1 3 2 2 3 1 4 26 5 27 6 88 7 28 8 87 9 29 10 30 11 31 12
REMARK SMILES IDX 81 13 32 14 86 15 80 16 82 17 33 18 85 19 79 20 78 21 34 23
REMARK SMILES IDX 66 24 46 25 65 26 47 27 50 28 64 29 83 30 48 31 49 32 63 34
REMARK SMILES IDX 84 35 51 36 35 37 36 38 44 39 37 40 38 41 42 42 45 43 39 44
REMARK SMILES IDX 40 45 43 46 41 47 67 48 68 49 76 50 69 51 70 52 74 53 77 54
REMARK SMILES IDX 71 55 72 56 75 57 73 58 52 59 53 60 61 61 54 62 55 63 59 64
REMARK SMILES IDX 62 65 56 66 57 67 60 68 58 69 5 70 6 71 7 72 8 73 9 74 10 75
REMARK SMILES IDX 25 76 11 77 24 78 19 79 23 80 20 81 22 82 21 83 12 84 13 85
REMARK SMILES IDX 14 86 18 87 15 88 17 89 16 90
REMARK H PARENT 82 22 50 33
REMARK Flexibility Score: inf
ROOT
ATOM      1  C   UNL A   1      38.768  19.602  25.600  1.00  0.00     0.275 C 
ENDROOT
BRANCH   1   2
ATOM      2  O   UNL A   1      40.178  19.767  25.861  1.00  0.00    -0.458 OA
BRANCH   2   3
ATOM      3  C   UNL A   1      40.780  20.267  26.968  1.00  0.00     0.338 C 
ATOM      4  O   UNL A   1      40.777  19.605  28.003  1.00  0.00    -0.246 OA
BRANCH   3   5
ATOM      5  C   UNL A   1      41.198  21.704  27.064  1.00  0.00     0.060 A 
ATOM      6  C   UNL A   1      40.877  22.713  26.156  1.00  0.00     0.016 A 
ATOM      7  C   UNL A   1      41.928  22.064  28.218  1.00  0.00     0.016 A 
ATOM      8  C   UNL A   1      41.144  24.054  26.445  1.00  0.00     0.010 A 
ATOM      9  C   UNL A   1      42.210  23.404  28.508  1.00  0.00     0.010 A 
ATOM     10  C   UNL A   1      41.793  24.409  27.628  1.00  0.00    -0.014 A 
BRANCH  10  11
ATOM     11  C   UNL A   1      42.178  25.820  27.840  1.00  0.00     0.031 A 
ATOM     12  C   UNL A   1      43.498  26.262  27.289  1.00  0.00     0.074 A 
ATOM     13  C   UNL A   1      41.352  26.688  28.455  1.00  0.00     0.049 A 
ATOM     14  N   UNL A   1      44.044  27.448  27.298  1.00  0.00    -0.248 NA
ATOM     15  C   UNL A   1      44.306  25.228  26.617  1.00  0.00     0.031 C 
ATOM     16  C   UNL A   1      40.027  26.368  28.978  1.00  0.00     0.029 A 
ATOM     17  N   UNL A   1      41.507  28.021  28.748  1.00  0.00    -0.354 N 
ATOM     18  C   UNL A   1      45.251  27.303  26.629  1.00  0.00     0.074 A 
ATOM     19  C   UNL A   1      45.375  25.914  26.250  1.00  0.00     0.031 C 
ATOM     20  C   UNL A   1      39.501  27.461  29.559  1.00  0.00     0.029 A 
ATOM     21  C   UNL A   1      40.456  28.558  29.455  1.00  0.00     0.049 A 
ATOM     22  H   UNL A   1      42.297  28.543  28.478  1.00  0.00     0.167 HD
ATOM     23  C   UNL A   1      46.166  28.255  26.350  1.00  0.00     0.037 A 
ATOM     24  C   UNL A   1      40.302  29.794  29.971  1.00  0.00     0.037 A 
ATOM     25  C   UNL A   1      46.034  29.627  26.748  1.00  0.00     0.049 A 
ATOM     26  C   UNL A   1      41.390  30.809  29.726  1.00  0.00     0.074 A 
ATOM     27  C   UNL A   1      46.891  30.682  26.502  1.00  0.00     0.029 A 
ATOM     28  N   UNL A   1      44.980  30.126  27.501  1.00  0.00    -0.354 N 
ATOM     29  N   UNL A   1      42.492  30.686  29.024  1.00  0.00    -0.248 NA
ATOM     30  C   UNL A   1      41.218  32.135  30.337  1.00  0.00     0.031 C 
ATOM     31  C   UNL A   1      46.388  31.807  27.163  1.00  0.00     0.029 A 
ATOM     32  C   UNL A   1      45.191  31.466  27.772  1.00  0.00     0.049 A 
ATOM     33  H   UNL A   1      44.199  29.605  27.798  1.00  0.00     0.167 HD
ATOM     34  C   UNL A   1      43.130  31.918  29.090  1.00  0.00     0.074 A 
ATOM     35  C   UNL A   1      42.279  32.783  29.879  1.00  0.00     0.031 C 
ATOM     36  C   UNL A   1      44.315  32.299  28.556  1.00  0.00     0.037 A 
BRANCH  23  37
ATOM     37  C   UNL A   1      47.402  27.829  25.621  1.00  0.00     0.064 A 
ATOM     38  C   UNL A   1      47.471  27.832  24.221  1.00  0.00     0.173 A 
ATOM     39  C   UNL A   1      48.536  27.420  26.339  1.00  0.00     0.173 A 
ATOM     40  F   UNL A   1      46.402  28.187  23.491  1.00  0.00    -0.203 F 
ATOM     41  C   UNL A   1      48.630  27.425  23.563  1.00  0.00     0.198 A 
ATOM     42  C   UNL A   1      49.699  27.039  25.678  1.00  0.00     0.198 A 
ATOM     43  F   UNL A   1      48.511  27.390  27.680  1.00  0.00    -0.203 F 
ATOM     44  F   UNL A   1      48.662  27.394  22.224  1.00  0.00    -0.200 F 
ATOM     45  C   UNL A   1      49.744  27.038  24.292  1.00  0.00     0.200 A 
ATOM     46  F   UNL A   1      50.776  26.667  26.385  1.00  0.00    -0.200 F 
ATOM     47  F   UNL A   1      50.860  26.652  23.658  1.00  0.00    -0.200 F 
ENDBRANCH  23  37
BRANCH  24  48
ATOM     48  C   UNL A   1      39.108  30.141  30.795  1.00  0.00     0.064 A 
ATOM     49  C   UNL A   1      37.961  30.709  30.223  1.00  0.00     0.173 A 
ATOM     50  C   UNL A   1      39.121  29.983  32.190  1.00  0.00     0.173 A 
ATOM     51  F   UNL A   1      37.902  30.907  28.897  1.00  0.00    -0.203 F 
ATOM     52  C   UNL A   1      36.895  31.141  31.012  1.00  0.00     0.198 A 
ATOM     53  C   UNL A   1      38.040  30.385  32.977  1.00  0.00     0.198 A 
ATOM     54  F   UNL A   1      40.192  29.452  32.797  1.00  0.00    -0.203 F 
ATOM     55  F   UNL A   1      35.845  31.748  30.441  1.00  0.00    -0.200 F 
ATOM     56  C   UNL A   1      36.935  30.978  32.388  1.00  0.00     0.200 A 
ATOM     57  F   UNL A   1      38.082  30.219  34.306  1.00  0.00    -0.200 F 
ATOM     58  F   UNL A   1      35.918  31.409  33.147  1.00  0.00    -0.200 F 
ENDBRANCH  24  48
BRANCH  36  59
ATOM     59  C   UNL A   1      44.756  33.711  28.799  1.00  0.00     0.064 A 
ATOM     60  C   UNL A   1      45.603  34.037  29.868  1.00  0.00     0.173 A 
ATOM     61  C   UNL A   1      44.395  34.732  27.906  1.00  0.00     0.173 A 
ATOM     62  F   UNL A   1      45.961  33.097  30.755  1.00  0.00    -0.203 F 
ATOM     63  C   UNL A   1      46.062  35.338  30.042  1.00  0.00     0.198 A 
ATOM     64  C   UNL A   1      44.884  36.024  28.065  1.00  0.00     0.198 A 
ATOM     65  F   UNL A   1      43.594  34.467  26.864  1.00  0.00    -0.203 F 
ATOM     66  F   UNL A   1      46.843  35.636  31.091  1.00  0.00    -0.200 F 
ATOM     67  C   UNL A   1      45.714  36.327  29.133  1.00  0.00     0.200 A 
ATOM     68  F   UNL A   1      44.562  36.974  27.176  1.00  0.00    -0.200 F 
ATOM     69  F   UNL A   1      46.176  37.574  29.291  1.00  0.00    -0.200 F 
ENDBRANCH  36  59
ENDBRANCH  10  11
ENDBRANCH   3   5
ENDBRANCH   2   3
ENDBRANCH   1   2
BRANCH   1  70
ATOM     70  C   UNL A   1      38.104  20.846  25.000  1.00  0.00     0.274 C 
BRANCH  70  71
ATOM     71  O   UNL A   1      37.473  21.659  26.000  1.00  0.00    -0.459 OA
BRANCH  71  72
ATOM     72  C   UNL A   1      36.711  22.684  25.506  1.00  0.00     0.349 C 
ATOM     73  O   UNL A   1      37.045  23.356  24.536  1.00  0.00    -0.248 OA
BRANCH  72  74
ATOM     74  C   UNL A   1      35.415  22.818  26.304  1.00  0.00     0.301 C 
ATOM     75  C   UNL A   1      34.670  21.499  26.526  1.00  0.00     0.174 C 
ATOM     76  O   UNL A   1      34.574  23.843  25.802  1.00  0.00    -0.475 OA
ATOM     77  N   UNL A   1      34.070  20.993  25.290  1.00  0.00    -0.360 N 
ATOM     78  C   UNL A   1      33.722  23.394  24.824  1.00  0.00     0.144 A 
ATOM     79  C   UNL A   1      33.473  22.027  24.544  1.00  0.00     0.080 A 
ATOM     80  C   UNL A   1      33.113  24.428  24.105  1.00  0.00     0.049 A 
ATOM     81  C   UNL A   1      32.562  21.770  23.518  1.00  0.00     0.030 A 
ATOM     82  C   UNL A   1      32.260  24.129  23.055  1.00  0.00     0.004 A 
ATOM     83  C   UNL A   1      31.984  22.799  22.762  1.00  0.00     0.002 A 
BRANCH  77  84
ATOM     84  C   UNL A   1      34.809  19.895  24.626  1.00  0.00     0.152 C 
BRANCH  84  85
ATOM     85  C   UNL A   1      34.150  18.539  24.660  1.00  0.00    -0.029 A 
ATOM     86  C   UNL A   1      34.687  17.439  23.980  1.00  0.00     0.005 A 
ATOM     87  C   UNL A   1      32.935  18.384  25.348  1.00  0.00     0.005 A 
ATOM     88  C   UNL A   1      34.038  16.202  24.024  1.00  0.00     0.000 A 
ATOM     89  C   UNL A   1      32.311  17.143  25.426  1.00  0.00     0.000 A 
ATOM     90  C   UNL A   1      32.863  16.051  24.763  1.00  0.00     0.000 A 
ENDBRANCH  84  85
ENDBRANCH  77  84
ENDBRANCH  72  74
ENDBRANCH  71  72
ENDBRANCH  70  71
ENDBRANCH   1  70
TORSDOF 13
ENDMDL
MODEL 3
REMARK VINA RESULT:     -12.1      5.140     10.975
REMARK SMILES O=C(OCCOC(=O)[C@@H]1CN(Cc2ccccc2)c2ccccc2O1)c1ccc(-c2c3nc(c(-c4c(F)c(F)c(F)c(F)c4F)c4ccc([nH]4)c(-c4c(F)c(F)c(F)c(F)c4F)c4nc(c(-c5c(F)c(F)c(F)c(F)c5F)c5ccc2[nH]5)C=C4)C=C3)cc1
REMARK SMILES IDX 4 1 3 2 2 3 1 4 26 5 27 6 88 7 28 8 87 9 29 10 30 11 31 12
REMARK SMILES IDX 81 13 32 14 86 15 80 16 82 17 33 18 85 19 79 20 78 21 34 23
REMARK SMILES IDX 66 24 46 25 65 26 47 27 50 28 64 29 83 30 48 31 49 32 63 34
REMARK SMILES IDX 84 35 51 36 35 37 36 38 44 39 37 40 38 41 42 42 45 43 39 44
REMARK SMILES IDX 40 45 43 46 41 47 67 48 68 49 76 50 69 51 70 52 74 53 77 54
REMARK SMILES IDX 71 55 72 56 75 57 73 58 52 59 53 60 61 61 54 62 55 63 59 64
REMARK SMILES IDX 62 65 56 66 57 67 60 68 58 69 5 70 6 71 7 72 8 73 9 74 10 75
REMARK SMILES IDX 25 76 11 77 24 78 19 79 23 80 20 81 22 82 21 83 12 84 13 85
REMARK SMILES IDX 14 86 18 87 15 88 17 89 16 90
REMARK H PARENT 82 22 50 33
REMARK Flexibility Score: inf
ROOT
ATOM      1  C   UNL A   1      38.595  19.917  25.548  1.00  0.00     0.275 C 
ENDROOT
BRANCH   1   2
ATOM      2  O   UNL A   1      40.009  20.081  25.791  1.00  0.00    -0.458 OA
BRANCH   2   3
ATOM      3  C   UNL A   1      40.636  20.391  26.952  1.00  0.00     0.338 C 
ATOM      4  O   UNL A   1      40.704  19.548  27.843  1.00  0.00    -0.246 OA
BRANCH   3   5
ATOM      5  C   UNL A   1      40.999  21.803  27.306  1.00  0.00     0.060 A 
ATOM      6  C   UNL A   1      41.680  22.211  28.454  1.00  0.00     0.016 A 
ATOM      7  C   UNL A   1      40.675  22.788  26.349  1.00  0.00     0.016 A 
ATOM      8  C   UNL A   1      42.147  23.521  28.588  1.00  0.00     0.010 A 
ATOM      9  C   UNL A   1      41.128  24.106  26.481  1.00  0.00     0.010 A 
ATOM     10  C   UNL A   1      41.891  24.470  27.596  1.00  0.00    -0.014 A 
BRANCH  10  11
ATOM     11  C   UNL A   1      42.282  25.876  27.830  1.00  0.00     0.031 A 
ATOM     12  C   UNL A   1      43.611  26.316  27.301  1.00  0.00     0.074 A 
ATOM     13  C   UNL A   1      41.453  26.741  28.443  1.00  0.00     0.049 A 
ATOM     14  N   UNL A   1      44.165  27.497  27.332  1.00  0.00    -0.248 NA
ATOM     15  C   UNL A   1      44.422  25.284  26.629  1.00  0.00     0.031 C 
ATOM     16  C   UNL A   1      40.118  26.424  28.946  1.00  0.00     0.029 A 
ATOM     17  N   UNL A   1      41.612  28.070  28.755  1.00  0.00    -0.354 N 
ATOM     18  C   UNL A   1      45.379  27.352  26.677  1.00  0.00     0.074 A 
ATOM     19  C   UNL A   1      45.500  25.967  26.285  1.00  0.00     0.031 C 
ATOM     20  C   UNL A   1      39.592  27.514  29.531  1.00  0.00     0.029 A 
ATOM     21  C   UNL A   1      40.555  28.605  29.454  1.00  0.00     0.049 A 
ATOM     22  H   UNL A   1      42.409  28.590  28.501  1.00  0.00     0.167 HD
ATOM     23  C   UNL A   1      46.305  28.302  26.422  1.00  0.00     0.037 A 
ATOM     24  C   UNL A   1      40.402  29.836  29.982  1.00  0.00     0.037 A 
ATOM     25  C   UNL A   1      46.176  29.670  26.835  1.00  0.00     0.049 A 
ATOM     26  C   UNL A   1      41.500  30.848  29.763  1.00  0.00     0.074 A 
ATOM     27  C   UNL A   1      47.043  30.722  26.613  1.00  0.00     0.029 A 
ATOM     28  N   UNL A   1      45.115  30.167  27.579  1.00  0.00    -0.354 N 
ATOM     29  N   UNL A   1      42.610  30.726  29.075  1.00  0.00    -0.248 NA
ATOM     30  C   UNL A   1      41.327  32.167  30.387  1.00  0.00     0.031 C 
ATOM     31  C   UNL A   1      46.538  31.843  27.279  1.00  0.00     0.029 A 
ATOM     32  C   UNL A   1      45.330  31.502  27.868  1.00  0.00     0.049 A 
ATOM     33  H   UNL A   1      44.326  29.647  27.859  1.00  0.00     0.167 HD
ATOM     34  C   UNL A   1      43.255  31.952  29.164  1.00  0.00     0.074 A 
ATOM     35  C   UNL A   1      42.399  32.814  29.951  1.00  0.00     0.031 C 
ATOM     36  C   UNL A   1      44.449  32.332  28.650  1.00  0.00     0.037 A 
BRANCH  23  37
ATOM     37  C   UNL A   1      47.548  27.876  25.705  1.00  0.00     0.064 A 
ATOM     38  C   UNL A   1      48.724  27.554  26.397  1.00  0.00     0.173 A 
ATOM     39  C   UNL A   1      47.555  27.780  24.306  1.00  0.00     0.173 A 
ATOM     40  F   UNL A   1      48.774  27.658  27.733  1.00  0.00    -0.203 F 
ATOM     41  C   UNL A   1      49.871  27.165  25.709  1.00  0.00     0.198 A 
ATOM     42  C   UNL A   1      48.695  27.367  23.625  1.00  0.00     0.198 A 
ATOM     43  F   UNL A   1      46.455  28.090  23.603  1.00  0.00    -0.203 F 
ATOM     44  F   UNL A   1      50.999  26.902  26.384  1.00  0.00    -0.200 F 
ATOM     45  C   UNL A   1      49.853  27.063  24.326  1.00  0.00     0.200 A 
ATOM     46  F   UNL A   1      48.674  27.267  22.289  1.00  0.00    -0.200 F 
ATOM     47  F   UNL A   1      50.956  26.684  23.666  1.00  0.00    -0.200 F 
ENDBRANCH  23  37
BRANCH  24  48
ATOM     48  C   UNL A   1      39.199  30.182  30.794  1.00  0.00     0.064 A 
ATOM     49  C   UNL A   1      38.076  30.794  30.219  1.00  0.00     0.173 A 
ATOM     50  C   UNL A   1      39.180  29.976  32.183  1.00  0.00     0.173 A 
ATOM     51  F   UNL A   1      38.049  31.037  28.900  1.00  0.00    -0.203 F 
ATOM     52  C   UNL A   1      37.003  31.223  31.002  1.00  0.00     0.198 A 
ATOM     53  C   UNL A   1      38.093  30.376  32.961  1.00  0.00     0.198 A 
ATOM     54  F   UNL A   1      40.227  29.402  32.792  1.00  0.00    -0.203 F 
ATOM     55  F   UNL A   1      35.978  31.871  30.431  1.00  0.00    -0.200 F 
ATOM     56  C   UNL A   1      37.013  31.012  32.371  1.00  0.00     0.200 A 
ATOM     57  F   UNL A   1      38.103  30.164  34.284  1.00  0.00    -0.200 F 
ATOM     58  F   UNL A   1      35.990  31.439  33.125  1.00  0.00    -0.200 F 
ENDBRANCH  24  48
BRANCH  36  59
ATOM     59  C   UNL A   1      44.895  33.738  28.915  1.00  0.00     0.064 A 
ATOM     60  C   UNL A   1      44.505  34.797  28.081  1.00  0.00     0.173 A 
ATOM     61  C   UNL A   1      45.651  34.041  30.058  1.00  0.00     0.173 A 
ATOM     62  F   UNL A   1      43.796  34.553  26.969  1.00  0.00    -0.203 F 
ATOM     63  C   UNL A   1      44.867  36.107  28.377  1.00  0.00     0.198 A 
ATOM     64  C   UNL A   1      45.981  35.355  30.368  1.00  0.00     0.198 A 
ATOM     65  F   UNL A   1      46.039  33.063  30.890  1.00  0.00    -0.203 F 
ATOM     66  F   UNL A   1      44.514  37.100  27.548  1.00  0.00    -0.200 F 
ATOM     67  C   UNL A   1      45.593  36.387  29.526  1.00  0.00     0.200 A 
ATOM     68  F   UNL A   1      46.666  35.627  31.487  1.00  0.00    -0.200 F 
ATOM     69  F   UNL A   1      45.921  37.652  29.819  1.00  0.00    -0.200 F 
ENDBRANCH  36  59
ENDBRANCH  10  11
ENDBRANCH   3   5
ENDBRANCH   2   3
ENDBRANCH   1   2
BRANCH   1  70
ATOM     70  C   UNL A   1      37.918  21.176  24.996  1.00  0.00     0.274 C 
BRANCH  70  71
ATOM     71  O   UNL A   1      37.283  21.946  26.026  1.00  0.00    -0.459 OA
BRANCH  71  72
ATOM     72  C   UNL A   1      36.423  22.910  25.572  1.00  0.00     0.349 C 
ATOM     73  O   UNL A   1      36.659  23.605  24.590  1.00  0.00    -0.248 OA
BRANCH  72  74
ATOM     74  C   UNL A   1      35.159  22.944  26.429  1.00  0.00     0.301 C 
ATOM     75  C   UNL A   1      34.495  21.580  26.633  1.00  0.00     0.174 C 
ATOM     76  O   UNL A   1      34.243  23.939  26.005  1.00  0.00    -0.475 OA
ATOM     77  N   UNL A   1      33.867  21.087  25.406  1.00  0.00    -0.360 N 
ATOM     78  C   UNL A   1      33.372  23.481  25.048  1.00  0.00     0.144 A 
ATOM     79  C   UNL A   1      33.183  22.113  24.727  1.00  0.00     0.080 A 
ATOM     80  C   UNL A   1      32.678  24.505  24.396  1.00  0.00     0.049 A 
ATOM     81  C   UNL A   1      32.242  21.844  23.732  1.00  0.00     0.030 A 
ATOM     82  C   UNL A   1      31.795  24.199  23.373  1.00  0.00     0.004 A 
ATOM     83  C   UNL A   1      31.577  22.867  23.042  1.00  0.00     0.002 A 
BRANCH  77  84
ATOM     84  C   UNL A   1      34.632  20.055  24.669  1.00  0.00     0.152 C 
BRANCH  84  85
ATOM     85  C   UNL A   1      34.079  18.654  24.728  1.00  0.00    -0.029 A 
ATOM     86  C   UNL A   1      34.653  17.601  24.005  1.00  0.00     0.005 A 
ATOM     87  C   UNL A   1      32.923  18.405  25.485  1.00  0.00     0.005 A 
ATOM     88  C   UNL A   1      34.102  16.319  24.075  1.00  0.00     0.000 A 
ATOM     89  C   UNL A   1      32.398  17.120  25.586  1.00  0.00     0.000 A 
ATOM     90  C   UNL A   1      32.989  16.076  24.881  1.00  0.00     0.000 A 
ENDBRANCH  84  85
ENDBRANCH  77  84
ENDBRANCH  72  74
ENDBRANCH  71  72
ENDBRANCH  70  71
ENDBRANCH   1  70
TORSDOF 13
ENDMDL
