MODEL 1
REMARK VINA RESULT:      -9.6      0.000      0.000
REMARK SMILES O=C(OCCOC(=O)[C@H](F)Sc1cc2ccccc2[nH]1)c1ccc(-c2c3nc(c(-c4c(F)c(F)c(F)c(F)c4F)c4ccc([nH]4)c(-c4c(F)c(F)c(F)c(F)c4F)c4nc(c(-c5c(F)c(F)c(F)c(F)c5F)c5ccc2[nH]5)C=C4)C=C3)cc1
REMARK SMILES IDX 4 1 3 2 2 3 1 4 21 5 22 6 83 7 23 8 82 9 24 10 25 11 26 12
REMARK SMILES IDX 76 13 27 14 81 15 75 16 77 17 28 18 80 19 74 20 73 21 29 23
REMARK SMILES IDX 61 24 41 25 60 26 42 27 45 28 59 29 78 30 43 31 44 32 58 34
REMARK SMILES IDX 79 35 46 36 30 37 31 38 39 39 32 40 33 41 37 42 40 43 34 44
REMARK SMILES IDX 35 45 38 46 36 47 62 48 63 49 71 50 64 51 65 52 69 53 72 54
REMARK SMILES IDX 66 55 67 56 70 57 68 58 47 59 48 60 56 61 49 62 50 63 54 64
REMARK SMILES IDX 57 65 51 66 52 67 55 68 53 69 5 70 6 71 7 72 8 73 9 74 10 75
REMARK SMILES IDX 11 76 12 77 13 78 20 79 14 80 19 81 15 83 18 84 16 85 17 86
REMARK H PARENT 77 22 45 33 20 82
REMARK Flexibility Score: inf
ROOT
ATOM      1  C   UNL A   1      44.128  19.066  25.199  1.00  0.00     0.275 C 
ENDROOT
BRANCH   1   2
ATOM      2  O   UNL A   1      42.760  19.479  25.010  1.00  0.00    -0.458 OA
BRANCH   2   3
ATOM      3  C   UNL A   1      41.854  20.006  25.868  1.00  0.00     0.338 C 
ATOM      4  O   UNL A   1      40.787  19.422  26.042  1.00  0.00    -0.246 OA
BRANCH   3   5
ATOM      5  C   UNL A   1      42.029  21.332  26.542  1.00  0.00     0.060 A 
ATOM      6  C   UNL A   1      41.990  22.570  25.904  1.00  0.00     0.016 A 
ATOM      7  C   UNL A   1      42.249  21.318  27.936  1.00  0.00     0.016 A 
ATOM      8  C   UNL A   1      42.110  23.754  26.624  1.00  0.00     0.010 A 
ATOM      9  C   UNL A   1      42.386  22.505  28.667  1.00  0.00     0.010 A 
ATOM     10  C   UNL A   1      42.318  23.730  28.004  1.00  0.00    -0.014 A 
BRANCH  10  11
ATOM     11  C   UNL A   1      42.587  25.028  28.655  1.00  0.00     0.031 A 
ATOM     12  C   UNL A   1      44.009  25.389  28.956  1.00  0.00     0.074 A 
ATOM     13  C   UNL A   1      41.594  25.929  28.762  1.00  0.00     0.049 A 
ATOM     14  N   UNL A   1      44.510  26.539  29.319  1.00  0.00    -0.248 NA
ATOM     15  C   UNL A   1      45.007  24.320  28.789  1.00  0.00     0.031 C 
ATOM     16  C   UNL A   1      40.194  25.680  28.416  1.00  0.00     0.029 A 
ATOM     17  N   UNL A   1      41.616  27.244  29.143  1.00  0.00    -0.354 N 
ATOM     18  C   UNL A   1      45.881  26.341  29.393  1.00  0.00     0.074 A 
ATOM     19  C   UNL A   1      46.133  24.952  29.079  1.00  0.00     0.031 C 
ATOM     20  C   UNL A   1      39.493  26.814  28.582  1.00  0.00     0.029 A 
ATOM     21  C   UNL A   1      40.388  27.857  29.071  1.00  0.00     0.049 A 
ATOM     22  H   UNL A   1      42.432  27.707  29.440  1.00  0.00     0.167 HD
ATOM     23  C   UNL A   1      46.843  27.247  29.683  1.00  0.00     0.037 A 
ATOM     24  C   UNL A   1      40.035  29.121  29.377  1.00  0.00     0.037 A 
ATOM     25  C   UNL A   1      46.569  28.614  30.034  1.00  0.00     0.049 A 
ATOM     26  C   UNL A   1      41.119  30.077  29.807  1.00  0.00     0.074 A 
ATOM     27  C   UNL A   1      47.453  29.603  30.425  1.00  0.00     0.029 A 
ATOM     28  N   UNL A   1      45.301  29.181  30.047  1.00  0.00    -0.354 N 
ATOM     29  N   UNL A   1      42.415  29.881  29.883  1.00  0.00    -0.248 NA
ATOM     30  C   UNL A   1      40.694  31.430  30.188  1.00  0.00     0.031 C 
ATOM     31  C   UNL A   1      46.713  30.754  30.720  1.00  0.00     0.029 A 
ATOM     32  C   UNL A   1      45.375  30.501  30.457  1.00  0.00     0.049 A 
ATOM     33  H   UNL A   1      44.471  28.712  29.801  1.00  0.00     0.167 HD
ATOM     34  C   UNL A   1      42.961  31.086  30.302  1.00  0.00     0.074 A 
ATOM     35  C   UNL A   1      41.857  32.017  30.429  1.00  0.00     0.031 C 
ATOM     36  C   UNL A   1      44.253  31.399  30.572  1.00  0.00     0.037 A 
BRANCH  23  37
ATOM     37  C   UNL A   1      48.263  26.766  29.671  1.00  0.00     0.064 A 
ATOM     38  C   UNL A   1      48.827  26.113  30.779  1.00  0.00     0.173 A 
ATOM     39  C   UNL A   1      49.074  26.965  28.544  1.00  0.00     0.173 A 
ATOM     40  F   UNL A   1      48.101  25.921  31.891  1.00  0.00    -0.203 F 
ATOM     41  C   UNL A   1      50.156  25.698  30.766  1.00  0.00     0.198 A 
ATOM     42  C   UNL A   1      50.395  26.526  28.525  1.00  0.00     0.198 A 
ATOM     43  F   UNL A   1      48.585  27.590  27.463  1.00  0.00    -0.203 F 
ATOM     44  F   UNL A   1      50.688  25.122  31.853  1.00  0.00    -0.200 F 
ATOM     45  C   UNL A   1      50.937  25.900  29.638  1.00  0.00     0.200 A 
ATOM     46  F   UNL A   1      51.147  26.718  27.433  1.00  0.00    -0.200 F 
ATOM     47  F   UNL A   1      52.217  25.501  29.627  1.00  0.00    -0.200 F 
ENDBRANCH  23  37
BRANCH  24  48
ATOM     48  C   UNL A   1      38.609  29.544  29.328  1.00  0.00     0.064 A 
ATOM     49  C   UNL A   1      37.964  29.839  28.117  1.00  0.00     0.173 A 
ATOM     50  C   UNL A   1      37.871  29.717  30.511  1.00  0.00     0.173 A 
ATOM     51  F   UNL A   1      38.625  29.709  26.958  1.00  0.00    -0.203 F 
ATOM     52  C   UNL A   1      36.657  30.324  28.095  1.00  0.00     0.198 A 
ATOM     53  C   UNL A   1      36.553  30.167  30.484  1.00  0.00     0.198 A 
ATOM     54  F   UNL A   1      38.433  29.450  31.698  1.00  0.00    -0.203 F 
ATOM     55  F   UNL A   1      36.091  30.662  26.928  1.00  0.00    -0.200 F 
ATOM     56  C   UNL A   1      35.951  30.484  29.278  1.00  0.00     0.200 A 
ATOM     57  F   UNL A   1      35.872  30.306  31.631  1.00  0.00    -0.200 F 
ATOM     58  F   UNL A   1      34.698  30.959  29.256  1.00  0.00    -0.200 F 
ENDBRANCH  24  48
BRANCH  36  59
ATOM     59  C   UNL A   1      44.533  32.808  31.005  1.00  0.00     0.064 A 
ATOM     60  C   UNL A   1      44.789  33.826  30.074  1.00  0.00     0.173 A 
ATOM     61  C   UNL A   1      44.520  33.148  32.366  1.00  0.00     0.173 A 
ATOM     62  F   UNL A   1      44.827  33.548  28.763  1.00  0.00    -0.203 F 
ATOM     63  C   UNL A   1      45.061  35.125  30.493  1.00  0.00     0.198 A 
ATOM     64  C   UNL A   1      44.756  34.455  32.779  1.00  0.00     0.198 A 
ATOM     65  F   UNL A   1      44.270  32.213  33.295  1.00  0.00    -0.203 F 
ATOM     66  F   UNL A   1      45.367  36.067  29.590  1.00  0.00    -0.200 F 
ATOM     67  C   UNL A   1      45.037  35.440  31.844  1.00  0.00     0.200 A 
ATOM     68  F   UNL A   1      44.715  34.763  34.083  1.00  0.00    -0.200 F 
ATOM     69  F   UNL A   1      45.296  36.692  32.245  1.00  0.00    -0.200 F 
ENDBRANCH  36  59
ENDBRANCH  10  11
ENDBRANCH   3   5
ENDBRANCH   2   3
ENDBRANCH   1   2
BRANCH   1  70
ATOM     70  C   UNL A   1      45.192  19.941  24.515  1.00  0.00     0.274 C 
BRANCH  70  71
ATOM     71  O   UNL A   1      44.829  21.325  24.372  1.00  0.00    -0.459 OA
BRANCH  71  72
ATOM     72  C   UNL A   1      45.500  22.171  25.219  1.00  0.00     0.351 C 
ATOM     73  O   UNL A   1      45.653  21.922  26.412  1.00  0.00    -0.248 OA
BRANCH  72  74
ATOM     74  C   UNL A   1      46.102  23.359  24.472  1.00  0.00     0.339 C 
ATOM     75  F   UNL A   1      47.083  22.965  23.605  1.00  0.00    -0.222 F 
BRANCH  74  76
ATOM     76  S   UNL A   1      46.796  24.633  25.579  1.00  0.00    -0.059 SA
BRANCH  76  77
ATOM     77  C   UNL A   1      45.575  25.851  25.471  1.00  0.00     0.077 A 
ATOM     78  C   UNL A   1      44.298  25.765  24.983  1.00  0.00     0.043 A 
ATOM     79  N   UNL A   1      45.748  27.083  26.038  1.00  0.00    -0.350 N 
ATOM     80  C   UNL A   1      43.606  26.921  25.431  1.00  0.00     0.001 A 
ATOM     81  C   UNL A   1      44.541  27.754  26.050  1.00  0.00     0.046 A 
ATOM     82  H   UNL A   1      46.599  27.436  26.383  1.00  0.00     0.167 HD
ATOM     83  C   UNL A   1      42.254  27.307  25.406  1.00  0.00     0.010 A 
ATOM     84  C   UNL A   1      44.191  28.997  26.593  1.00  0.00     0.027 A 
ATOM     85  C   UNL A   1      41.884  28.527  25.976  1.00  0.00     0.001 A 
ATOM     86  C   UNL A   1      42.842  29.366  26.543  1.00  0.00     0.002 A 
ENDBRANCH  76  77
ENDBRANCH  74  76
ENDBRANCH  72  74
ENDBRANCH  71  72
ENDBRANCH  70  71
ENDBRANCH   1  70
TORSDOF 13
ENDMDL
MODEL 2
REMARK VINA RESULT:      -9.6      6.273     11.425
REMARK SMILES O=C(OCCOC(=O)[C@H](F)Sc1cc2ccccc2[nH]1)c1ccc(-c2c3nc(c(-c4c(F)c(F)c(F)c(F)c4F)c4ccc([nH]4)c(-c4c(F)c(F)c(F)c(F)c4F)c4nc(c(-c5c(F)c(F)c(F)c(F)c5F)c5ccc2[nH]5)C=C4)C=C3)cc1
REMARK SMILES IDX 4 1 3 2 2 3 1 4 21 5 22 6 83 7 23 8 82 9 24 10 25 11 26 12
REMARK SMILES IDX 76 13 27 14 81 15 75 16 77 17 28 18 80 19 74 20 73 21 29 23
REMARK SMILES IDX 61 24 41 25 60 26 42 27 45 28 59 29 78 30 43 31 44 32 58 34
REMARK SMILES IDX 79 35 46 36 30 37 31 38 39 39 32 40 33 41 37 42 40 43 34 44
REMARK SMILES IDX 35 45 38 46 36 47 62 48 63 49 71 50 64 51 65 52 69 53 72 54
REMARK SMILES IDX 66 55 67 56 70 57 68 58 47 59 48 60 56 61 49 62 50 63 54 64
REMARK SMILES IDX 57 65 51 66 52 67 55 68 53 69 5 70 6 71 7 72 8 73 9 74 10 75
REMARK SMILES IDX 11 76 12 77 13 78 20 79 14 80 19 81 15 83 18 84 16 85 17 86
REMARK H PARENT 77 22 45 33 20 82
REMARK Flexibility Score: inf
ROOT
ATOM      1  C   UNL A   1      31.554  32.054  26.937  1.00  0.00     0.275 C 
ENDROOT
BRANCH   1   2
ATOM      2  O   UNL A   1      32.412  33.210  27.018  1.00  0.00    -0.458 OA
BRANCH   2   3
ATOM      3  C   UNL A   1      33.119  33.732  28.049  1.00  0.00     0.338 C 
ATOM      4  O   UNL A   1      32.777  34.815  28.518  1.00  0.00    -0.246 OA
BRANCH   3   5
ATOM      5  C   UNL A   1      34.375  33.117  28.585  1.00  0.00     0.060 A 
ATOM      6  C   UNL A   1      34.446  31.916  29.288  1.00  0.00     0.016 A 
ATOM      7  C   UNL A   1      35.579  33.816  28.357  1.00  0.00     0.016 A 
ATOM      8  C   UNL A   1      35.668  31.397  29.702  1.00  0.00     0.010 A 
ATOM      9  C   UNL A   1      36.813  33.308  28.784  1.00  0.00     0.010 A 
ATOM     10  C   UNL A   1      36.855  32.091  29.463  1.00  0.00    -0.014 A 
BRANCH  10  11
ATOM     11  C   UNL A   1      38.080  31.538  30.074  1.00  0.00     0.031 A 
ATOM     12  C   UNL A   1      38.378  31.880  31.501  1.00  0.00     0.074 A 
ATOM     13  C   UNL A   1      38.769  30.585  29.420  1.00  0.00     0.049 A 
ATOM     14  N   UNL A   1      39.259  31.356  32.310  1.00  0.00    -0.248 NA
ATOM     15  C   UNL A   1      37.546  32.931  32.111  1.00  0.00     0.031 C 
ATOM     16  C   UNL A   1      38.494  30.138  28.054  1.00  0.00     0.029 A 
ATOM     17  N   UNL A   1      39.806  29.790  29.829  1.00  0.00    -0.354 N 
ATOM     18  C   UNL A   1      39.067  31.989  33.530  1.00  0.00     0.074 A 
ATOM     19  C   UNL A   1      38.016  32.965  33.348  1.00  0.00     0.031 C 
ATOM     20  C   UNL A   1      39.329  29.133  27.745  1.00  0.00     0.029 A 
ATOM     21  C   UNL A   1      40.214  28.886  28.878  1.00  0.00     0.049 A 
ATOM     22  H   UNL A   1      40.221  29.859  30.719  1.00  0.00     0.167 HD
ATOM     23  C   UNL A   1      39.704  31.759  34.701  1.00  0.00     0.037 A 
ATOM     24  C   UNL A   1      41.200  27.969  28.926  1.00  0.00     0.037 A 
ATOM     25  C   UNL A   1      40.776  30.813  34.851  1.00  0.00     0.049 A 
ATOM     26  C   UNL A   1      41.968  27.818  30.214  1.00  0.00     0.074 A 
ATOM     27  C   UNL A   1      41.551  30.550  35.966  1.00  0.00     0.029 A 
ATOM     28  N   UNL A   1      41.232  29.978  33.839  1.00  0.00    -0.354 N 
ATOM     29  N   UNL A   1      41.786  28.424  31.364  1.00  0.00    -0.248 NA
ATOM     30  C   UNL A   1      43.073  26.851  30.215  1.00  0.00     0.031 C 
ATOM     31  C   UNL A   1      42.506  29.591  35.614  1.00  0.00     0.029 A 
ATOM     32  C   UNL A   1      42.291  29.212  34.297  1.00  0.00     0.049 A 
ATOM     33  H   UNL A   1      40.858  29.937  32.929  1.00  0.00     0.167 HD
ATOM     34  C   UNL A   1      42.739  27.904  32.228  1.00  0.00     0.074 A 
ATOM     35  C   UNL A   1      43.473  26.904  31.478  1.00  0.00     0.031 C 
ATOM     36  C   UNL A   1      42.998  28.225  33.520  1.00  0.00     0.037 A 
BRANCH  23  37
ATOM     37  C   UNL A   1      39.279  32.577  35.883  1.00  0.00     0.064 A 
ATOM     38  C   UNL A   1      39.814  33.853  36.123  1.00  0.00     0.173 A 
ATOM     39  C   UNL A   1      38.335  32.079  36.792  1.00  0.00     0.173 A 
ATOM     40  F   UNL A   1      40.740  34.363  35.298  1.00  0.00    -0.203 F 
ATOM     41  C   UNL A   1      39.433  34.590  37.242  1.00  0.00     0.198 A 
ATOM     42  C   UNL A   1      37.937  32.830  37.896  1.00  0.00     0.198 A 
ATOM     43  F   UNL A   1      37.800  30.863  36.612  1.00  0.00    -0.203 F 
ATOM     44  F   UNL A   1      39.993  35.784  37.479  1.00  0.00    -0.200 F 
ATOM     45  C   UNL A   1      38.492  34.081  38.124  1.00  0.00     0.200 A 
ATOM     46  F   UNL A   1      37.024  32.338  38.745  1.00  0.00    -0.200 F 
ATOM     47  F   UNL A   1      38.127  34.790  39.201  1.00  0.00    -0.200 F 
ENDBRANCH  23  37
BRANCH  24  48
ATOM     48  C   UNL A   1      41.543  27.160  27.724  1.00  0.00     0.064 A 
ATOM     49  C   UNL A   1      41.048  25.860  27.540  1.00  0.00     0.173 A 
ATOM     50  C   UNL A   1      42.427  27.657  26.753  1.00  0.00     0.173 A 
ATOM     51  F   UNL A   1      40.214  25.327  28.444  1.00  0.00    -0.203 F 
ATOM     52  C   UNL A   1      41.452  25.080  26.456  1.00  0.00     0.198 A 
ATOM     53  C   UNL A   1      42.802  26.890  25.652  1.00  0.00     0.198 A 
ATOM     54  F   UNL A   1      42.932  28.894  26.874  1.00  0.00    -0.203 F 
ATOM     55  F   UNL A   1      41.016  23.818  26.344  1.00  0.00    -0.200 F 
ATOM     56  C   UNL A   1      42.326  25.597  25.512  1.00  0.00     0.200 A 
ATOM     57  F   UNL A   1      43.636  27.402  24.736  1.00  0.00    -0.200 F 
ATOM     58  F   UNL A   1      42.721  24.844  24.476  1.00  0.00    -0.200 F 
ENDBRANCH  24  48
BRANCH  36  59
ATOM     59  C   UNL A   1      44.104  27.469  34.198  1.00  0.00     0.064 A 
ATOM     60  C   UNL A   1      45.417  27.962  34.230  1.00  0.00     0.173 A 
ATOM     61  C   UNL A   1      43.841  26.252  34.842  1.00  0.00     0.173 A 
ATOM     62  F   UNL A   1      45.722  29.114  33.616  1.00  0.00    -0.203 F 
ATOM     63  C   UNL A   1      46.434  27.243  34.851  1.00  0.00     0.198 A 
ATOM     64  C   UNL A   1      44.853  25.554  35.493  1.00  0.00     0.198 A 
ATOM     65  F   UNL A   1      42.599  25.743  34.848  1.00  0.00    -0.203 F 
ATOM     66  F   UNL A   1      47.694  27.700  34.813  1.00  0.00    -0.200 F 
ATOM     67  C   UNL A   1      46.150  26.044  35.488  1.00  0.00     0.200 A 
ATOM     68  F   UNL A   1      44.574  24.404  36.123  1.00  0.00    -0.200 F 
ATOM     69  F   UNL A   1      47.130  25.354  36.086  1.00  0.00    -0.200 F 
ENDBRANCH  36  59
ENDBRANCH  10  11
ENDBRANCH   3   5
ENDBRANCH   2   3
ENDBRANCH   1   2
BRANCH   1  70
ATOM     70  C   UNL A   1      32.158  30.818  26.249  1.00  0.00     0.274 C 
BRANCH  70  71
ATOM     71  O   UNL A   1      32.570  29.773  27.146  1.00  0.00    -0.459 OA
BRANCH  71  72
ATOM     72  C   UNL A   1      33.629  29.029  26.691  1.00  0.00     0.351 C 
ATOM     73  O   UNL A   1      34.791  29.283  26.995  1.00  0.00    -0.248 OA
BRANCH  72  74
ATOM     74  C   UNL A   1      33.164  27.821  25.879  1.00  0.00     0.339 C 
ATOM     75  F   UNL A   1      33.756  26.667  26.309  1.00  0.00    -0.222 F 
BRANCH  74  76
ATOM     76  S   UNL A   1      33.473  27.991  24.089  1.00  0.00    -0.059 SA
BRANCH  76  77
ATOM     77  C   UNL A   1      31.862  28.200  23.502  1.00  0.00     0.077 A 
ATOM     78  C   UNL A   1      30.785  27.356  23.589  1.00  0.00     0.043 A 
ATOM     79  N   UNL A   1      31.448  29.389  22.970  1.00  0.00    -0.350 N 
ATOM     80  C   UNL A   1      29.635  28.123  23.269  1.00  0.00     0.001 A 
ATOM     81  C   UNL A   1      30.073  29.378  22.841  1.00  0.00     0.046 A 
ATOM     82  H   UNL A   1      32.038  30.136  22.719  1.00  0.00     0.167 HD
ATOM     83  C   UNL A   1      28.254  27.872  23.353  1.00  0.00     0.010 A 
ATOM     84  C   UNL A   1      29.186  30.380  22.428  1.00  0.00     0.027 A 
ATOM     85  C   UNL A   1      27.355  28.874  22.979  1.00  0.00     0.001 A 
ATOM     86  C   UNL A   1      27.816  30.101  22.507  1.00  0.00     0.002 A 
ENDBRANCH  76  77
ENDBRANCH  74  76
ENDBRANCH  72  74
ENDBRANCH  71  72
ENDBRANCH  70  71
ENDBRANCH   1  70
TORSDOF 13
ENDMDL
MODEL 3
REMARK VINA RESULT:      -9.5      3.993      5.816
REMARK SMILES O=C(OCCOC(=O)[C@H](F)Sc1cc2ccccc2[nH]1)c1ccc(-c2c3nc(c(-c4c(F)c(F)c(F)c(F)c4F)c4ccc([nH]4)c(-c4c(F)c(F)c(F)c(F)c4F)c4nc(c(-c5c(F)c(F)c(F)c(F)c5F)c5ccc2[nH]5)C=C4)C=C3)cc1
REMARK SMILES IDX 4 1 3 2 2 3 1 4 21 5 22 6 83 7 23 8 82 9 24 10 25 11 26 12
REMARK SMILES IDX 76 13 27 14 81 15 75 16 77 17 28 18 80 19 74 20 73 21 29 23
REMARK SMILES IDX 61 24 41 25 60 26 42 27 45 28 59 29 78 30 43 31 44 32 58 34
REMARK SMILES IDX 79 35 46 36 30 37 31 38 39 39 32 40 33 41 37 42 40 43 34 44
REMARK SMILES IDX 35 45 38 46 36 47 62 48 63 49 71 50 64 51 65 52 69 53 72 54
REMARK SMILES IDX 66 55 67 56 70 57 68 58 47 59 48 60 56 61 49 62 50 63 54 64
REMARK SMILES IDX 57 65 51 66 52 67 55 68 53 69 5 70 6 71 7 72 8 73 9 74 10 75
REMARK SMILES IDX 11 76 12 77 13 78 20 79 14 80 19 81 15 83 18 84 16 85 17 86
REMARK H PARENT 77 22 45 33 20 82
REMARK Flexibility Score: inf
ROOT
ATOM      1  C   UNL A   1      38.926  19.703  25.148  1.00  0.00     0.275 C 
ENDROOT
BRANCH   1   2
ATOM      2  O   UNL A   1      40.008  19.144  25.920  1.00  0.00    -0.458 OA
BRANCH   2   3
ATOM      3  C   UNL A   1      41.319  19.473  25.996  1.00  0.00     0.338 C 
ATOM      4  O   UNL A   1      42.165  18.617  25.746  1.00  0.00    -0.246 OA
BRANCH   3   5
ATOM      5  C   UNL A   1      41.812  20.803  26.480  1.00  0.00     0.060 A 
ATOM      6  C   UNL A   1      42.041  21.139  27.812  1.00  0.00     0.016 A 
ATOM      7  C   UNL A   1      42.062  21.789  25.501  1.00  0.00     0.016 A 
ATOM      8  C   UNL A   1      42.550  22.385  28.162  1.00  0.00     0.010 A 
ATOM      9  C   UNL A   1      42.561  23.052  25.845  1.00  0.00     0.010 A 
ATOM     10  C   UNL A   1      42.804  23.350  27.186  1.00  0.00    -0.014 A 
BRANCH  10  11
ATOM     11  C   UNL A   1      43.196  24.690  27.666  1.00  0.00     0.031 A 
ATOM     12  C   UNL A   1      44.592  25.161  27.396  1.00  0.00     0.074 A 
ATOM     13  C   UNL A   1      42.249  25.526  28.130  1.00  0.00     0.049 A 
ATOM     14  N   UNL A   1      45.100  26.357  27.524  1.00  0.00    -0.248 NA
ATOM     15  C   UNL A   1      45.534  24.155  26.877  1.00  0.00     0.031 C 
ATOM     16  C   UNL A   1      40.847  25.168  28.348  1.00  0.00     0.029 A 
ATOM     17  N   UNL A   1      42.309  26.855  28.454  1.00  0.00    -0.354 N 
ATOM     18  C   UNL A   1      46.408  26.256  27.072  1.00  0.00     0.074 A 
ATOM     19  C   UNL A   1      46.632  24.875  26.707  1.00  0.00     0.031 C 
ATOM     20  C   UNL A   1      40.173  26.257  28.752  1.00  0.00     0.029 A 
ATOM     21  C   UNL A   1      41.101  27.380  28.847  1.00  0.00     0.049 A 
ATOM     22  H   UNL A   1      43.137  27.385  28.410  1.00  0.00     0.167 HD
ATOM     23  C   UNL A   1      47.333  27.237  26.959  1.00  0.00     0.037 A 
ATOM     24  C   UNL A   1      40.791  28.629  29.245  1.00  0.00     0.037 A 
ATOM     25  C   UNL A   1      47.104  28.597  27.368  1.00  0.00     0.049 A 
ATOM     26  C   UNL A   1      41.877  29.674  29.215  1.00  0.00     0.074 A 
ATOM     27  C   UNL A   1      47.988  29.659  27.377  1.00  0.00     0.029 A 
ATOM     28  N   UNL A   1      45.894  29.075  27.854  1.00  0.00    -0.354 N 
ATOM     29  N   UNL A   1      43.116  29.571  28.793  1.00  0.00    -0.248 NA
ATOM     30  C   UNL A   1      41.522  31.011  29.708  1.00  0.00     0.031 C 
ATOM     31  C   UNL A   1      47.327  30.769  27.914  1.00  0.00     0.029 A 
ATOM     32  C   UNL A   1      46.014  30.414  28.186  1.00  0.00     0.049 A 
ATOM     33  H   UNL A   1      45.073  28.541  27.951  1.00  0.00     0.167 HD
ATOM     34  C   UNL A   1      43.682  30.827  28.954  1.00  0.00     0.074 A 
ATOM     35  C   UNL A   1      42.639  31.686  29.478  1.00  0.00     0.031 C 
ATOM     36  C   UNL A   1      44.951  31.239  28.706  1.00  0.00     0.037 A 
BRANCH  23  37
ATOM     37  C   UNL A   1      48.675  26.854  26.413  1.00  0.00     0.064 A 
ATOM     38  C   UNL A   1      49.685  26.341  27.243  1.00  0.00     0.173 A 
ATOM     39  C   UNL A   1      48.960  27.006  25.049  1.00  0.00     0.173 A 
ATOM     40  F   UNL A   1      49.471  26.199  28.560  1.00  0.00    -0.203 F 
ATOM     41  C   UNL A   1      50.939  26.016  26.728  1.00  0.00     0.198 A 
ATOM     42  C   UNL A   1      50.206  26.657  24.534  1.00  0.00     0.198 A 
ATOM     43  F   UNL A   1      48.032  27.498  24.216  1.00  0.00    -0.203 F 
ATOM     44  F   UNL A   1      51.904  25.576  27.547  1.00  0.00    -0.200 F 
ATOM     45  C   UNL A   1      51.196  26.169  25.374  1.00  0.00     0.200 A 
ATOM     46  F   UNL A   1      50.452  26.801  23.224  1.00  0.00    -0.200 F 
ATOM     47  F   UNL A   1      52.403  25.858  24.880  1.00  0.00    -0.200 F 
ENDBRANCH  23  37
BRANCH  24  48
ATOM     48  C   UNL A   1      39.424  28.951  29.738  1.00  0.00     0.064 A 
ATOM     49  C   UNL A   1      38.447  29.511  28.900  1.00  0.00     0.173 A 
ATOM     50  C   UNL A   1      39.083  28.756  31.086  1.00  0.00     0.173 A 
ATOM     51  F   UNL A   1      38.723  29.737  27.608  1.00  0.00    -0.203 F 
ATOM     52  C   UNL A   1      37.202  29.894  29.398  1.00  0.00     0.198 A 
ATOM     53  C   UNL A   1      37.826  29.106  31.574  1.00  0.00     0.198 A 
ATOM     54  F   UNL A   1      39.974  28.224  31.934  1.00  0.00    -0.203 F 
ATOM     55  F   UNL A   1      36.314  30.489  28.590  1.00  0.00    -0.200 F 
ATOM     56  C   UNL A   1      36.891  29.688  30.734  1.00  0.00     0.200 A 
ATOM     57  F   UNL A   1      37.527  28.890  32.863  1.00  0.00    -0.200 F 
ATOM     58  F   UNL A   1      35.698  30.065  31.214  1.00  0.00    -0.200 F 
ENDBRANCH  24  48
BRANCH  36  59
ATOM     59  C   UNL A   1      45.261  32.681  28.979  1.00  0.00     0.064 A 
ATOM     60  C   UNL A   1      45.050  33.674  28.010  1.00  0.00     0.173 A 
ATOM     61  C   UNL A   1      45.752  33.077  30.231  1.00  0.00     0.173 A 
ATOM     62  F   UNL A   1      44.596  33.343  26.792  1.00  0.00    -0.203 F 
ATOM     63  C   UNL A   1      45.356  35.006  28.273  1.00  0.00     0.198 A 
ATOM     64  C   UNL A   1      46.022  34.415  30.504  1.00  0.00     0.198 A 
ATOM     65  F   UNL A   1      45.961  32.168  31.195  1.00  0.00    -0.203 F 
ATOM     66  F   UNL A   1      45.208  35.928  27.312  1.00  0.00    -0.200 F 
ATOM     67  C   UNL A   1      45.834  35.376  29.522  1.00  0.00     0.200 A 
ATOM     68  F   UNL A   1      46.467  34.774  31.715  1.00  0.00    -0.200 F 
ATOM     69  F   UNL A   1      46.126  36.659  29.774  1.00  0.00    -0.200 F 
ENDBRANCH  36  59
ENDBRANCH  10  11
ENDBRANCH   3   5
ENDBRANCH   2   3
ENDBRANCH   1   2
BRANCH   1  70
ATOM     70  C   UNL A   1      38.443  21.096  25.583  1.00  0.00     0.274 C 
BRANCH  70  71
ATOM     71  O   UNL A   1      37.311  21.596  24.850  1.00  0.00    -0.459 OA
BRANCH  71  72
ATOM     72  C   UNL A   1      36.856  22.815  25.284  1.00  0.00     0.351 C 
ATOM     73  O   UNL A   1      37.559  23.590  25.927  1.00  0.00    -0.248 OA
BRANCH  72  74
ATOM     74  C   UNL A   1      35.444  23.105  24.777  1.00  0.00     0.339 C 
ATOM     75  F   UNL A   1      35.276  24.431  24.488  1.00  0.00    -0.222 F 
BRANCH  74  76
ATOM     76  S   UNL A   1      34.137  22.604  25.946  1.00  0.00    -0.059 SA
BRANCH  76  77
ATOM     77  C   UNL A   1      33.739  21.039  25.332  1.00  0.00     0.077 A 
ATOM     78  C   UNL A   1      32.633  20.631  24.633  1.00  0.00     0.043 A 
ATOM     79  N   UNL A   1      34.636  20.008  25.379  1.00  0.00    -0.350 N 
ATOM     80  C   UNL A   1      32.944  19.364  24.073  1.00  0.00     0.001 A 
ATOM     81  C   UNL A   1      34.181  18.971  24.588  1.00  0.00     0.046 A 
ATOM     82  H   UNL A   1      35.473  20.005  25.895  1.00  0.00     0.167 HD
ATOM     83  C   UNL A   1      32.299  18.540  23.135  1.00  0.00     0.010 A 
ATOM     84  C   UNL A   1      34.777  17.750  24.251  1.00  0.00     0.027 A 
ATOM     85  C   UNL A   1      32.898  17.335  22.761  1.00  0.00     0.001 A 
ATOM     86  C   UNL A   1      34.109  16.939  23.326  1.00  0.00     0.002 A 
ENDBRANCH  76  77
ENDBRANCH  74  76
ENDBRANCH  72  74
ENDBRANCH  71  72
ENDBRANCH  70  71
ENDBRANCH   1  70
TORSDOF 13
ENDMDL
