MODEL 1
REMARK VINA RESULT:     -14.4      0.000      0.000
REMARK SMILES Cc1ccc(C(=O)N2C[C@@H](C(=O)OCCOC(=O)c3ccc(-c4c5nc(c(-c6c(F)c(F)c(F)c(F)c6F)c6ccc([nH]6)c(-c6c(F)c(F)c(F)c(F)c6F)c6nc(c(-c7c(F)c(F)c(F)c(F)c7F)c7ccc4[nH]7)C=C6)C=C5)cc3)C[C@H](C(=O)N3CCOCC3)C2)cc1F
REMARK SMILES IDX 14 1 13 2 11 3 12 4 10 5 8 6 9 7 92 8 83 9 82 10 6 11 7 12
REMARK SMILES IDX 5 13 1 14 2 15 3 16 94 17 4 18 93 19 95 20 84 21 85 22 86 23
REMARK SMILES IDX 87 24 91 25 88 26 90 27 89 28 15 29 16 30 17 31 18 32 19 33
REMARK SMILES IDX 20 34 81 35 21 36 80 37 22 38 23 39 24 40 74 41 25 42 79 43
REMARK SMILES IDX 73 44 75 45 26 46 78 47 72 48 71 49 27 51 59 52 39 53 58 54
REMARK SMILES IDX 40 55 43 56 57 57 76 58 41 59 42 60 56 62 77 63 44 64 28 65
REMARK SMILES IDX 29 66 37 67 30 68 31 69 35 70 38 71 32 72 33 73 36 74 34 75
REMARK SMILES IDX 60 76 61 77 69 78 62 79 63 80 67 81 70 82 64 83 65 84 68 85
REMARK SMILES IDX 66 86 45 87 46 88 54 89 47 90 48 91 52 92 55 93 49 94 50 95
REMARK SMILES IDX 53 96 51 97
REMARK H PARENT 75 50 43 61
REMARK Flexibility Score: inf
ROOT
ATOM      1  C   UNL A   1      33.183  30.012  26.802  1.00  0.00     0.274 C 
ENDROOT
BRANCH   1   2
ATOM      2  O   UNL A   1      33.431  28.660  27.255  1.00  0.00    -0.462 OA
BRANCH   2   3
ATOM      3  C   UNL A   1      32.351  27.836  27.278  1.00  0.00     0.310 C 
ATOM      4  O   UNL A   1      31.466  27.876  28.129  1.00  0.00    -0.252 OA
BRANCH   3   5
ATOM      5  C   UNL A   1      32.333  26.812  26.164  1.00  0.00     0.119 C 
ATOM      6  N   UNL A   1      31.000  25.940  24.332  1.00  0.00    -0.337 N 
ATOM      7  C   UNL A   1      30.991  26.834  25.479  1.00  0.00     0.135 C 
ATOM      8  C   UNL A   1      31.292  24.529  24.592  1.00  0.00     0.133 C 
ATOM      9  C   UNL A   1      32.568  24.332  25.431  1.00  0.00     0.099 C 
ATOM     10  C   UNL A   1      32.730  25.384  26.550  1.00  0.00     0.032 C 
BRANCH   6  11
ATOM     11  C   UNL A   1      30.853  26.480  23.065  1.00  0.00     0.254 C 
ATOM     12  O   UNL A   1      31.416  26.017  22.076  1.00  0.00    -0.269 OA
BRANCH  11  13
ATOM     13  C   UNL A   1      30.122  27.763  22.931  1.00  0.00     0.042 A 
ATOM     14  C   UNL A   1      27.795  31.171  21.740  1.00  0.00     0.047 C 
ATOM     15  C   UNL A   1      28.631  30.025  22.219  1.00  0.00    -0.015 A 
ATOM     16  C   UNL A   1      30.005  29.986  21.965  1.00  0.00     0.007 A 
ATOM     17  C   UNL A   1      28.029  28.939  22.865  1.00  0.00     0.126 A 
ATOM     18  C   UNL A   1      30.746  28.858  22.312  1.00  0.00     0.014 A 
ATOM     19  C   UNL A   1      28.758  27.808  23.219  1.00  0.00     0.053 A 
ATOM     20  F   UNL A   1      26.711  28.960  23.108  1.00  0.00    -0.207 F 
ENDBRANCH  11  13
ENDBRANCH   6  11
BRANCH   9  21
ATOM     21  C   UNL A   1      33.715  23.952  24.464  1.00  0.00     0.227 C 
ATOM     22  O   UNL A   1      34.278  24.861  23.840  1.00  0.00    -0.275 OA
ATOM     23  N   UNL A   1      34.266  22.695  24.494  1.00  0.00    -0.338 N 
ATOM     24  C   UNL A   1      33.542  21.463  24.221  1.00  0.00     0.148 C 
ATOM     25  C   UNL A   1      35.707  22.530  24.308  1.00  0.00     0.148 C 
ATOM     26  C   UNL A   1      34.072  20.328  25.099  1.00  0.00     0.181 C 
ATOM     27  C   UNL A   1      36.199  21.363  25.176  1.00  0.00     0.181 C 
ATOM     28  O   UNL A   1      35.482  20.151  24.878  1.00  0.00    -0.378 OA
ENDBRANCH   9  21
ENDBRANCH   3   5
ENDBRANCH   2   3
ENDBRANCH   1   2
BRANCH   1  29
ATOM     29  C   UNL A   1      33.710  31.104  27.742  1.00  0.00     0.275 C 
BRANCH  29  30
ATOM     30  O   UNL A   1      34.958  31.662  27.309  1.00  0.00    -0.458 OA
BRANCH  30  31
ATOM     31  C   UNL A   1      35.919  31.528  28.243  1.00  0.00     0.338 C 
ATOM     32  O   UNL A   1      36.333  32.387  29.007  1.00  0.00    -0.246 OA
BRANCH  31  33
ATOM     33  C   UNL A   1      36.574  30.226  28.198  1.00  0.00     0.060 A 
ATOM     34  C   UNL A   1      36.534  29.470  29.377  1.00  0.00     0.016 A 
ATOM     35  C   UNL A   1      37.615  30.114  27.288  1.00  0.00     0.016 A 
ATOM     36  C   UNL A   1      37.659  28.765  29.781  1.00  0.00     0.010 A 
ATOM     37  C   UNL A   1      38.726  29.400  27.680  1.00  0.00     0.010 A 
ATOM     38  C   UNL A   1      38.779  28.812  28.960  1.00  0.00    -0.014 A 
BRANCH  38  39
ATOM     39  C   UNL A   1      40.071  28.248  29.312  1.00  0.00     0.031 A 
ATOM     40  C   UNL A   1      40.466  26.930  28.782  1.00  0.00     0.074 A 
ATOM     41  C   UNL A   1      40.999  29.063  29.862  1.00  0.00     0.049 A 
ATOM     42  N   UNL A   1      41.563  26.329  29.098  1.00  0.00    -0.248 NA
ATOM     43  C   UNL A   1      39.627  26.164  27.866  1.00  0.00     0.031 C 
ATOM     44  C   UNL A   1      42.441  28.985  29.658  1.00  0.00     0.029 A 
ATOM     45  N   UNL A   1      40.834  30.097  30.796  1.00  0.00    -0.354 N 
ATOM     46  C   UNL A   1      41.712  25.270  28.240  1.00  0.00     0.074 A 
ATOM     47  C   UNL A   1      40.447  25.157  27.547  1.00  0.00     0.031 C 
ATOM     48  C   UNL A   1      43.059  29.756  30.563  1.00  0.00     0.029 A 
ATOM     49  C   UNL A   1      42.055  30.170  31.522  1.00  0.00     0.049 A 
ATOM     50  H   UNL A   1      40.035  30.657  30.923  1.00  0.00     0.167 HD
ATOM     51  C   UNL A   1      42.933  24.682  28.110  1.00  0.00     0.037 A 
ATOM     52  C   UNL A   1      42.122  29.905  32.865  1.00  0.00     0.037 A 
ATOM     53  C   UNL A   1      43.933  25.300  28.969  1.00  0.00     0.049 A 
ATOM     54  C   UNL A   1      43.043  28.778  33.264  1.00  0.00     0.074 A 
ATOM     55  C   UNL A   1      44.875  26.298  28.781  1.00  0.00     0.029 A 
ATOM     56  N   UNL A   1      43.854  25.099  30.331  1.00  0.00    -0.354 N 
ATOM     57  N   UNL A   1      43.630  27.986  32.417  1.00  0.00    -0.248 NA
ATOM     58  C   UNL A   1      43.246  28.366  34.655  1.00  0.00     0.031 C 
ATOM     59  C   UNL A   1      45.376  26.679  30.056  1.00  0.00     0.029 A 
ATOM     60  C   UNL A   1      44.736  25.913  31.011  1.00  0.00     0.049 A 
ATOM     61  H   UNL A   1      43.245  24.456  30.762  1.00  0.00     0.167 HD
ATOM     62  C   UNL A   1      44.182  26.939  33.098  1.00  0.00     0.074 A 
ATOM     63  C   UNL A   1      43.935  27.224  34.498  1.00  0.00     0.031 C 
ATOM     64  C   UNL A   1      44.746  25.879  32.460  1.00  0.00     0.037 A 
BRANCH  51  65
ATOM     65  C   UNL A   1      43.274  23.688  27.039  1.00  0.00     0.064 A 
ATOM     66  C   UNL A   1      42.916  22.331  27.178  1.00  0.00     0.173 A 
ATOM     67  C   UNL A   1      43.955  24.014  25.853  1.00  0.00     0.173 A 
ATOM     68  F   UNL A   1      42.209  21.896  28.229  1.00  0.00    -0.203 F 
ATOM     69  C   UNL A   1      43.285  21.363  26.245  1.00  0.00     0.198 A 
ATOM     70  C   UNL A   1      44.371  23.036  24.945  1.00  0.00     0.198 A 
ATOM     71  F   UNL A   1      44.202  25.290  25.525  1.00  0.00    -0.203 F 
ATOM     72  F   UNL A   1      42.912  20.088  26.428  1.00  0.00    -0.200 F 
ATOM     73  C   UNL A   1      44.040  21.710  25.144  1.00  0.00     0.200 A 
ATOM     74  F   UNL A   1      45.095  23.388  23.873  1.00  0.00    -0.200 F 
ATOM     75  F   UNL A   1      44.431  20.773  24.269  1.00  0.00    -0.200 F 
ENDBRANCH  51  65
BRANCH  52  76
ATOM     76  C   UNL A   1      40.826  30.141  33.548  1.00  0.00     0.064 A 
ATOM     77  C   UNL A   1      40.468  31.470  33.829  1.00  0.00     0.173 A 
ATOM     78  C   UNL A   1      39.813  29.181  33.404  1.00  0.00     0.173 A 
ATOM     79  F   UNL A   1      41.417  32.408  33.984  1.00  0.00    -0.203 F 
ATOM     80  C   UNL A   1      39.143  31.862  33.750  1.00  0.00     0.198 A 
ATOM     81  C   UNL A   1      38.490  29.581  33.321  1.00  0.00     0.198 A 
ATOM     82  F   UNL A   1      40.116  27.895  33.178  1.00  0.00    -0.203 F 
ATOM     83  F   UNL A   1      38.817  33.159  33.840  1.00  0.00    -0.200 F 
ATOM     84  C   UNL A   1      38.173  30.924  33.441  1.00  0.00     0.200 A 
ATOM     85  F   UNL A   1      37.543  28.688  32.999  1.00  0.00    -0.200 F 
ATOM     86  F   UNL A   1      36.936  31.339  33.178  1.00  0.00    -0.200 F 
ENDBRANCH  52  76
BRANCH  64  87
ATOM     87  C   UNL A   1      45.348  24.721  33.181  1.00  0.00     0.064 A 
ATOM     88  C   UNL A   1      44.582  23.609  33.558  1.00  0.00     0.173 A 
ATOM     89  C   UNL A   1      46.684  24.751  33.626  1.00  0.00     0.173 A 
ATOM     90  F   UNL A   1      43.290  23.519  33.209  1.00  0.00    -0.203 F 
ATOM     91  C   UNL A   1      45.129  22.574  34.314  1.00  0.00     0.198 A 
ATOM     92  C   UNL A   1      47.213  23.741  34.423  1.00  0.00     0.198 A 
ATOM     93  F   UNL A   1      47.512  25.748  33.279  1.00  0.00    -0.203 F 
ATOM     94  F   UNL A   1      44.381  21.505  34.618  1.00  0.00    -0.200 F 
ATOM     95  C   UNL A   1      46.439  22.648  34.761  1.00  0.00     0.200 A 
ATOM     96  F   UNL A   1      48.476  23.834  34.862  1.00  0.00    -0.200 F 
ATOM     97  F   UNL A   1      46.955  21.665  35.510  1.00  0.00    -0.200 F 
ENDBRANCH  64  87
ENDBRANCH  38  39
ENDBRANCH  31  33
ENDBRANCH  30  31
ENDBRANCH  29  30
ENDBRANCH   1  29
TORSDOF 14
ENDMDL
MODEL 2
REMARK VINA RESULT:     -14.3      3.998      9.381
REMARK SMILES Cc1ccc(C(=O)N2C[C@@H](C(=O)OCCOC(=O)c3ccc(-c4c5nc(c(-c6c(F)c(F)c(F)c(F)c6F)c6ccc([nH]6)c(-c6c(F)c(F)c(F)c(F)c6F)c6nc(c(-c7c(F)c(F)c(F)c(F)c7F)c7ccc4[nH]7)C=C6)C=C5)cc3)C[C@H](C(=O)N3CCOCC3)C2)cc1F
REMARK SMILES IDX 14 1 13 2 11 3 12 4 10 5 8 6 9 7 92 8 83 9 82 10 6 11 7 12
REMARK SMILES IDX 5 13 1 14 2 15 3 16 94 17 4 18 93 19 95 20 84 21 85 22 86 23
REMARK SMILES IDX 87 24 91 25 88 26 90 27 89 28 15 29 16 30 17 31 18 32 19 33
REMARK SMILES IDX 20 34 81 35 21 36 80 37 22 38 23 39 24 40 74 41 25 42 79 43
REMARK SMILES IDX 73 44 75 45 26 46 78 47 72 48 71 49 27 51 59 52 39 53 58 54
REMARK SMILES IDX 40 55 43 56 57 57 76 58 41 59 42 60 56 62 77 63 44 64 28 65
REMARK SMILES IDX 29 66 37 67 30 68 31 69 35 70 38 71 32 72 33 73 36 74 34 75
REMARK SMILES IDX 60 76 61 77 69 78 62 79 63 80 67 81 70 82 64 83 65 84 68 85
REMARK SMILES IDX 66 86 45 87 46 88 54 89 47 90 48 91 52 92 55 93 49 94 50 95
REMARK SMILES IDX 53 96 51 97
REMARK H PARENT 75 50 43 61
REMARK Flexibility Score: inf
ROOT
ATOM      1  C   UNL A   1      38.147  20.961  25.600  1.00  0.00     0.274 C 
ENDROOT
BRANCH   1   2
ATOM      2  O   UNL A   1      37.527  21.593  24.455  1.00  0.00    -0.462 OA
BRANCH   2   3
ATOM      3  C   UNL A   1      36.650  22.593  24.735  1.00  0.00     0.310 C 
ATOM      4  O   UNL A   1      36.965  23.672  25.230  1.00  0.00    -0.252 OA
BRANCH   3   5
ATOM      5  C   UNL A   1      35.210  22.259  24.412  1.00  0.00     0.119 C 
ATOM      6  N   UNL A   1      33.000  23.219  24.115  1.00  0.00    -0.337 N 
ATOM      7  C   UNL A   1      34.363  23.499  24.537  1.00  0.00     0.135 C 
ATOM      8  C   UNL A   1      32.282  22.171  24.843  1.00  0.00     0.133 C 
ATOM      9  C   UNL A   1      33.087  20.863  24.947  1.00  0.00     0.099 C 
ATOM     10  C   UNL A   1      34.595  21.092  25.191  1.00  0.00     0.032 C 
BRANCH   6  11
ATOM     11  C   UNL A   1      32.504  23.862  22.992  1.00  0.00     0.254 C 
ATOM     12  O   UNL A   1      32.756  23.490  21.848  1.00  0.00    -0.269 OA
BRANCH  11  13
ATOM     13  C   UNL A   1      31.781  25.142  23.180  1.00  0.00     0.042 A 
ATOM     14  C   UNL A   1      29.201  28.573  23.038  1.00  0.00     0.047 C 
ATOM     15  C   UNL A   1      30.147  27.417  23.140  1.00  0.00    -0.015 A 
ATOM     16  C   UNL A   1      31.339  27.401  22.410  1.00  0.00     0.007 A 
ATOM     17  C   UNL A   1      29.811  26.301  23.915  1.00  0.00     0.126 A 
ATOM     18  C   UNL A   1      32.148  26.266  22.423  1.00  0.00     0.014 A 
ATOM     19  C   UNL A   1      30.611  25.164  23.939  1.00  0.00     0.053 A 
ATOM     20  F   UNL A   1      28.667  26.300  24.615  1.00  0.00    -0.207 F 
ENDBRANCH  11  13
ENDBRANCH   6  11
BRANCH   9  21
ATOM     21  C   UNL A   1      32.550  19.891  23.869  1.00  0.00     0.227 C 
ATOM     22  O   UNL A   1      32.142  20.369  22.803  1.00  0.00    -0.275 OA
ATOM     23  N   UNL A   1      32.763  18.539  23.979  1.00  0.00    -0.338 N 
ATOM     24  C   UNL A   1      32.273  17.706  25.065  1.00  0.00     0.148 C 
ATOM     25  C   UNL A   1      33.059  17.752  22.782  1.00  0.00     0.148 C 
ATOM     26  C   UNL A   1      33.280  16.599  25.384  1.00  0.00     0.181 C 
ATOM     27  C   UNL A   1      34.045  16.632  23.145  1.00  0.00     0.181 C 
ATOM     28  O   UNL A   1      33.534  15.809  24.210  1.00  0.00    -0.378 OA
ENDBRANCH   9  21
ENDBRANCH   3   5
ENDBRANCH   2   3
ENDBRANCH   1   2
BRANCH   1  29
ATOM     29  C   UNL A   1      39.562  21.465  25.915  1.00  0.00     0.275 C 
BRANCH  29  30
ATOM     30  O   UNL A   1      39.625  22.246  27.116  1.00  0.00    -0.458 OA
BRANCH  30  31
ATOM     31  C   UNL A   1      40.494  23.269  27.005  1.00  0.00     0.338 C 
ATOM     32  O   UNL A   1      41.711  23.199  26.932  1.00  0.00    -0.246 OA
BRANCH  31  33
ATOM     33  C   UNL A   1      39.850  24.573  27.112  1.00  0.00     0.060 A 
ATOM     34  C   UNL A   1      40.263  25.546  26.192  1.00  0.00     0.016 A 
ATOM     35  C   UNL A   1      39.386  24.906  28.375  1.00  0.00     0.016 A 
ATOM     36  C   UNL A   1      40.445  26.856  26.611  1.00  0.00     0.010 A 
ATOM     37  C   UNL A   1      39.550  26.210  28.787  1.00  0.00     0.010 A 
ATOM     38  C   UNL A   1      40.165  27.153  27.939  1.00  0.00    -0.014 A 
BRANCH  38  39
ATOM     39  C   UNL A   1      40.439  28.437  28.562  1.00  0.00     0.031 A 
ATOM     40  C   UNL A   1      39.366  29.442  28.676  1.00  0.00     0.074 A 
ATOM     41  C   UNL A   1      41.571  28.570  29.288  1.00  0.00     0.049 A 
ATOM     42  N   UNL A   1      39.541  30.627  29.151  1.00  0.00    -0.248 NA
ATOM     43  C   UNL A   1      38.000  29.192  28.225  1.00  0.00     0.031 C 
ATOM     44  C   UNL A   1      41.732  29.383  30.488  1.00  0.00     0.029 A 
ATOM     45  N   UNL A   1      42.851  28.051  29.043  1.00  0.00    -0.354 N 
ATOM     46  C   UNL A   1      38.301  31.183  29.336  1.00  0.00     0.074 A 
ATOM     47  C   UNL A   1      37.378  30.289  28.670  1.00  0.00     0.031 C 
ATOM     48  C   UNL A   1      43.037  29.498  30.774  1.00  0.00     0.029 A 
ATOM     49  C   UNL A   1      43.766  28.961  29.643  1.00  0.00     0.049 A 
ATOM     50  H   UNL A   1      43.071  27.226  28.555  1.00  0.00     0.167 HD
ATOM     51  C   UNL A   1      38.169  32.270  30.144  1.00  0.00     0.037 A 
ATOM     52  C   UNL A   1      44.672  29.677  28.905  1.00  0.00     0.037 A 
ATOM     53  C   UNL A   1      39.445  32.701  30.697  1.00  0.00     0.049 A 
ATOM     54  C   UNL A   1      44.564  31.179  29.015  1.00  0.00     0.074 A 
ATOM     55  C   UNL A   1      40.115  32.442  31.882  1.00  0.00     0.029 A 
ATOM     56  N   UNL A   1      40.366  33.293  29.858  1.00  0.00    -0.354 N 
ATOM     57  N   UNL A   1      43.597  31.794  29.629  1.00  0.00    -0.248 NA
ATOM     58  C   UNL A   1      45.456  32.099  28.306  1.00  0.00     0.031 C 
ATOM     59  C   UNL A   1      41.451  32.908  31.746  1.00  0.00     0.029 A 
ATOM     60  C   UNL A   1      41.588  33.447  30.481  1.00  0.00     0.049 A 
ATOM     61  H   UNL A   1      40.175  33.571  28.933  1.00  0.00     0.167 HD
ATOM     62  C   UNL A   1      43.660  33.125  29.334  1.00  0.00     0.074 A 
ATOM     63  C   UNL A   1      44.848  33.277  28.518  1.00  0.00     0.031 C 
ATOM     64  C   UNL A   1      42.694  33.998  29.726  1.00  0.00     0.037 A 
BRANCH  51  65
ATOM     65  C   UNL A   1      36.849  32.812  30.611  1.00  0.00     0.064 A 
ATOM     66  C   UNL A   1      36.058  33.610  29.759  1.00  0.00     0.173 A 
ATOM     67  C   UNL A   1      36.314  32.579  31.890  1.00  0.00     0.173 A 
ATOM     68  F   UNL A   1      36.420  33.856  28.493  1.00  0.00    -0.203 F 
ATOM     69  C   UNL A   1      34.866  34.197  30.181  1.00  0.00     0.198 A 
ATOM     70  C   UNL A   1      35.148  33.211  32.330  1.00  0.00     0.198 A 
ATOM     71  F   UNL A   1      36.885  31.706  32.731  1.00  0.00    -0.203 F 
ATOM     72  F   UNL A   1      34.153  34.942  29.325  1.00  0.00    -0.200 F 
ATOM     73  C   UNL A   1      34.427  34.024  31.477  1.00  0.00     0.200 A 
ATOM     74  F   UNL A   1      34.725  33.027  33.590  1.00  0.00    -0.200 F 
ATOM     75  F   UNL A   1      33.304  34.624  31.896  1.00  0.00    -0.200 F 
ENDBRANCH  51  65
BRANCH  52  76
ATOM     76  C   UNL A   1      45.011  29.004  27.627  1.00  0.00     0.064 A 
ATOM     77  C   UNL A   1      45.969  27.978  27.663  1.00  0.00     0.173 A 
ATOM     78  C   UNL A   1      44.054  29.004  26.600  1.00  0.00     0.173 A 
ATOM     79  F   UNL A   1      46.904  27.959  28.626  1.00  0.00    -0.203 F 
ATOM     80  C   UNL A   1      45.837  26.878  26.834  1.00  0.00     0.198 A 
ATOM     81  C   UNL A   1      43.924  27.898  25.778  1.00  0.00     0.198 A 
ATOM     82  F   UNL A   1      43.150  29.989  26.508  1.00  0.00    -0.203 F 
ATOM     83  F   UNL A   1      46.642  25.817  26.988  1.00  0.00    -0.200 F 
ATOM     84  C   UNL A   1      44.783  26.823  25.939  1.00  0.00     0.200 A 
ATOM     85  F   UNL A   1      42.895  27.820  24.923  1.00  0.00    -0.200 F 
ATOM     86  F   UNL A   1      44.552  25.687  25.284  1.00  0.00    -0.200 F 
ENDBRANCH  52  76
BRANCH  64  87
ATOM     87  C   UNL A   1      42.737  35.455  29.410  1.00  0.00     0.064 A 
ATOM     88  C   UNL A   1      42.274  35.957  28.185  1.00  0.00     0.173 A 
ATOM     89  C   UNL A   1      43.361  36.374  30.276  1.00  0.00     0.173 A 
ATOM     90  F   UNL A   1      41.702  35.143  27.285  1.00  0.00    -0.203 F 
ATOM     91  C   UNL A   1      42.404  37.306  27.857  1.00  0.00     0.198 A 
ATOM     92  C   UNL A   1      43.534  37.709  29.925  1.00  0.00     0.198 A 
ATOM     93  F   UNL A   1      43.795  36.003  31.490  1.00  0.00    -0.203 F 
ATOM     94  F   UNL A   1      41.910  37.759  26.698  1.00  0.00    -0.200 F 
ATOM     95  C   UNL A   1      43.049  38.177  28.720  1.00  0.00     0.200 A 
ATOM     96  F   UNL A   1      44.175  38.537  30.762  1.00  0.00    -0.200 F 
ATOM     97  F   UNL A   1      43.197  39.467  28.392  1.00  0.00    -0.200 F 
ENDBRANCH  64  87
ENDBRANCH  38  39
ENDBRANCH  31  33
ENDBRANCH  30  31
ENDBRANCH  29  30
ENDBRANCH   1  29
TORSDOF 14
ENDMDL
MODEL 3
REMARK VINA RESULT:     -14.2      1.672      4.170
REMARK SMILES Cc1ccc(C(=O)N2C[C@@H](C(=O)OCCOC(=O)c3ccc(-c4c5nc(c(-c6c(F)c(F)c(F)c(F)c6F)c6ccc([nH]6)c(-c6c(F)c(F)c(F)c(F)c6F)c6nc(c(-c7c(F)c(F)c(F)c(F)c7F)c7ccc4[nH]7)C=C6)C=C5)cc3)C[C@H](C(=O)N3CCOCC3)C2)cc1F
REMARK SMILES IDX 14 1 13 2 11 3 12 4 10 5 8 6 9 7 92 8 83 9 82 10 6 11 7 12
REMARK SMILES IDX 5 13 1 14 2 15 3 16 94 17 4 18 93 19 95 20 84 21 85 22 86 23
REMARK SMILES IDX 87 24 91 25 88 26 90 27 89 28 15 29 16 30 17 31 18 32 19 33
REMARK SMILES IDX 20 34 81 35 21 36 80 37 22 38 23 39 24 40 74 41 25 42 79 43
REMARK SMILES IDX 73 44 75 45 26 46 78 47 72 48 71 49 27 51 59 52 39 53 58 54
REMARK SMILES IDX 40 55 43 56 57 57 76 58 41 59 42 60 56 62 77 63 44 64 28 65
REMARK SMILES IDX 29 66 37 67 30 68 31 69 35 70 38 71 32 72 33 73 36 74 34 75
REMARK SMILES IDX 60 76 61 77 69 78 62 79 63 80 67 81 70 82 64 83 65 84 68 85
REMARK SMILES IDX 66 86 45 87 46 88 54 89 47 90 48 91 52 92 55 93 49 94 50 95
REMARK SMILES IDX 53 96 51 97
REMARK H PARENT 75 50 43 61
REMARK Flexibility Score: inf
ROOT
ATOM      1  C   UNL A   1      32.753  30.983  27.284  1.00  0.00     0.274 C 
ENDROOT
BRANCH   1   2
ATOM      2  O   UNL A   1      33.151  29.599  27.432  1.00  0.00    -0.462 OA
BRANCH   2   3
ATOM      3  C   UNL A   1      32.179  28.676  27.203  1.00  0.00     0.310 C 
ATOM      4  O   UNL A   1      31.419  28.242  28.064  1.00  0.00    -0.252 OA
BRANCH   3   5
ATOM      5  C   UNL A   1      32.122  28.185  25.773  1.00  0.00     0.119 C 
ATOM      6  N   UNL A   1      33.239  26.771  24.146  1.00  0.00    -0.337 N 
ATOM      7  C   UNL A   1      33.339  27.346  25.477  1.00  0.00     0.135 C 
ATOM      8  C   UNL A   1      33.118  27.706  23.026  1.00  0.00     0.133 C 
ATOM      9  C   UNL A   1      32.005  28.748  23.241  1.00  0.00     0.099 C 
ATOM     10  C   UNL A   1      31.918  29.256  24.697  1.00  0.00     0.032 C 
BRANCH   6  11
ATOM     11  C   UNL A   1      33.145  25.394  24.020  1.00  0.00     0.254 C 
ATOM     12  O   UNL A   1      32.082  24.818  23.802  1.00  0.00    -0.269 OA
BRANCH  11  13
ATOM     13  C   UNL A   1      34.345  24.579  24.327  1.00  0.00     0.042 A 
ATOM     14  C   UNL A   1      37.264  21.534  25.137  1.00  0.00     0.047 C 
ATOM     15  C   UNL A   1      36.301  22.651  24.877  1.00  0.00    -0.015 A 
ATOM     16  C   UNL A   1      35.575  23.228  25.924  1.00  0.00     0.007 A 
ATOM     17  C   UNL A   1      36.061  23.081  23.567  1.00  0.00     0.126 A 
ATOM     18  C   UNL A   1      34.596  24.181  25.650  1.00  0.00     0.014 A 
ATOM     19  C   UNL A   1      35.089  24.033  23.281  1.00  0.00     0.053 A 
ATOM     20  F   UNL A   1      36.744  22.531  22.554  1.00  0.00    -0.207 F 
ENDBRANCH  11  13
ENDBRANCH   6  11
BRANCH   9  21
ATOM     21  C   UNL A   1      30.765  28.287  22.437  1.00  0.00     0.227 C 
ATOM     22  O   UNL A   1      30.791  27.164  21.917  1.00  0.00    -0.275 OA
ATOM     23  N   UNL A   1      29.583  28.980  22.519  1.00  0.00    -0.338 N 
ATOM     24  C   UNL A   1      29.403  30.367  22.123  1.00  0.00     0.148 C 
ATOM     25  C   UNL A   1      28.315  28.251  22.534  1.00  0.00     0.148 C 
ATOM     26  C   UNL A   1      28.396  31.058  23.043  1.00  0.00     0.181 C 
ATOM     27  C   UNL A   1      27.318  28.989  23.439  1.00  0.00     0.181 C 
ATOM     28  O   UNL A   1      27.142  30.354  23.020  1.00  0.00    -0.378 OA
ENDBRANCH   9  21
ENDBRANCH   3   5
ENDBRANCH   2   3
ENDBRANCH   1   2
BRANCH   1  29
ATOM     29  C   UNL A   1      33.757  31.996  27.851  1.00  0.00     0.275 C 
BRANCH  29  30
ATOM     30  O   UNL A   1      34.676  31.414  28.784  1.00  0.00    -0.458 OA
BRANCH  30  31
ATOM     31  C   UNL A   1      35.951  31.513  28.362  1.00  0.00     0.338 C 
ATOM     32  O   UNL A   1      36.523  32.517  27.968  1.00  0.00    -0.246 OA
BRANCH  31  33
ATOM     33  C   UNL A   1      36.622  30.220  28.279  1.00  0.00     0.060 A 
ATOM     34  C   UNL A   1      36.586  29.428  29.434  1.00  0.00     0.016 A 
ATOM     35  C   UNL A   1      37.666  30.149  27.369  1.00  0.00     0.016 A 
ATOM     36  C   UNL A   1      37.718  28.724  29.820  1.00  0.00     0.010 A 
ATOM     37  C   UNL A   1      38.784  29.436  27.743  1.00  0.00     0.010 A 
ATOM     38  C   UNL A   1      38.840  28.809  29.005  1.00  0.00    -0.014 A 
BRANCH  38  39
ATOM     39  C   UNL A   1      40.138  28.249  29.344  1.00  0.00     0.031 A 
ATOM     40  C   UNL A   1      40.533  26.935  28.806  1.00  0.00     0.074 A 
ATOM     41  C   UNL A   1      41.067  29.066  29.887  1.00  0.00     0.049 A 
ATOM     42  N   UNL A   1      41.635  26.337  29.111  1.00  0.00    -0.248 NA
ATOM     43  C   UNL A   1      39.689  26.167  27.896  1.00  0.00     0.031 C 
ATOM     44  C   UNL A   1      42.507  28.996  29.670  1.00  0.00     0.029 A 
ATOM     45  N   UNL A   1      40.906  30.098  30.825  1.00  0.00    -0.354 N 
ATOM     46  C   UNL A   1      41.781  25.281  28.249  1.00  0.00     0.074 A 
ATOM     47  C   UNL A   1      40.510  25.164  27.567  1.00  0.00     0.031 C 
ATOM     48  C   UNL A   1      43.131  29.767  30.572  1.00  0.00     0.029 A 
ATOM     49  C   UNL A   1      42.133  30.174  31.541  1.00  0.00     0.049 A 
ATOM     50  H   UNL A   1      40.106  30.654  30.961  1.00  0.00     0.167 HD
ATOM     51  C   UNL A   1      43.003  24.699  28.107  1.00  0.00     0.037 A 
ATOM     52  C   UNL A   1      42.213  29.906  32.882  1.00  0.00     0.037 A 
ATOM     53  C   UNL A   1      44.008  25.318  28.958  1.00  0.00     0.049 A 
ATOM     54  C   UNL A   1      43.143  28.782  33.271  1.00  0.00     0.074 A 
ATOM     55  C   UNL A   1      44.945  26.320  28.765  1.00  0.00     0.029 A 
ATOM     56  N   UNL A   1      43.942  25.113  30.320  1.00  0.00    -0.354 N 
ATOM     57  N   UNL A   1      43.725  27.994  32.416  1.00  0.00    -0.248 NA
ATOM     58  C   UNL A   1      43.360  28.366  34.658  1.00  0.00     0.031 C 
ATOM     59  C   UNL A   1      45.455  26.700  30.036  1.00  0.00     0.029 A 
ATOM     60  C   UNL A   1      44.827  25.929  30.995  1.00  0.00     0.049 A 
ATOM     61  H   UNL A   1      43.340  24.466  30.756  1.00  0.00     0.167 HD
ATOM     62  C   UNL A   1      44.288  26.948  33.090  1.00  0.00     0.074 A 
ATOM     63  C   UNL A   1      44.052  27.228  34.492  1.00  0.00     0.031 C 
ATOM     64  C   UNL A   1      44.850  25.892  32.443  1.00  0.00     0.037 A 
BRANCH  51  65
ATOM     65  C   UNL A   1      43.338  23.708  27.030  1.00  0.00     0.064 A 
ATOM     66  C   UNL A   1      42.927  22.363  27.137  1.00  0.00     0.173 A 
ATOM     67  C   UNL A   1      44.065  24.026  25.870  1.00  0.00     0.173 A 
ATOM     68  F   UNL A   1      42.174  21.940  28.161  1.00  0.00    -0.203 F 
ATOM     69  C   UNL A   1      43.287  21.396  26.200  1.00  0.00     0.198 A 
ATOM     70  C   UNL A   1      44.471  23.047  24.958  1.00  0.00     0.198 A 
ATOM     71  F   UNL A   1      44.369  25.296  25.570  1.00  0.00    -0.203 F 
ATOM     72  F   UNL A   1      42.862  20.134  26.351  1.00  0.00    -0.200 F 
ATOM     73  C   UNL A   1      44.086  21.732  25.127  1.00  0.00     0.200 A 
ATOM     74  F   UNL A   1      45.240  23.388  23.914  1.00  0.00    -0.200 F 
ATOM     75  F   UNL A   1      44.468  20.794  24.249  1.00  0.00    -0.200 F 
ENDBRANCH  51  65
BRANCH  52  76
ATOM     76  C   UNL A   1      40.923  30.135  33.577  1.00  0.00     0.064 A 
ATOM     77  C   UNL A   1      40.572  31.460  33.884  1.00  0.00     0.173 A 
ATOM     78  C   UNL A   1      39.905  29.181  33.423  1.00  0.00     0.173 A 
ATOM     79  F   UNL A   1      41.525  32.391  34.049  1.00  0.00    -0.203 F 
ATOM     80  C   UNL A   1      39.248  31.858  33.820  1.00  0.00     0.198 A 
ATOM     81  C   UNL A   1      38.583  29.588  33.355  1.00  0.00     0.198 A 
ATOM     82  F   UNL A   1      40.201  27.899  33.172  1.00  0.00    -0.203 F 
ATOM     83  F   UNL A   1      38.928  33.155  33.934  1.00  0.00    -0.200 F 
ATOM     84  C   UNL A   1      38.273  30.930  33.500  1.00  0.00     0.200 A 
ATOM     85  F   UNL A   1      37.631  28.705  33.024  1.00  0.00    -0.200 F 
ATOM     86  F   UNL A   1      37.035  31.354  33.253  1.00  0.00    -0.200 F 
ENDBRANCH  52  76
BRANCH  64  87
ATOM     87  C   UNL A   1      45.463  24.734  33.156  1.00  0.00     0.064 A 
ATOM     88  C   UNL A   1      44.716  23.598  33.495  1.00  0.00     0.173 A 
ATOM     89  C   UNL A   1      46.788  24.786  33.631  1.00  0.00     0.173 A 
ATOM     90  F   UNL A   1      43.433  23.484  33.116  1.00  0.00    -0.203 F 
ATOM     91  C   UNL A   1      45.270  22.561  34.244  1.00  0.00     0.198 A 
ATOM     92  C   UNL A   1      47.323  23.774  34.421  1.00  0.00     0.198 A 
ATOM     93  F   UNL A   1      47.600  25.809  33.321  1.00  0.00    -0.203 F 
ATOM     94  F   UNL A   1      44.541  21.470  34.512  1.00  0.00    -0.200 F 
ATOM     95  C   UNL A   1      46.567  22.657  34.721  1.00  0.00     0.200 A 
ATOM     96  F   UNL A   1      48.574  23.888  34.890  1.00  0.00    -0.200 F 
ATOM     97  F   UNL A   1      47.090  21.672  35.464  1.00  0.00    -0.200 F 
ENDBRANCH  64  87
ENDBRANCH  38  39
ENDBRANCH  31  33
ENDBRANCH  30  31
ENDBRANCH  29  30
ENDBRANCH   1  29
TORSDOF 14
ENDMDL
