MODEL 1
REMARK VINA RESULT:     -13.7      0.000      0.000
REMARK SMILES O=C(OCCOC(=O)[C@H]1[C@H]2CC[C@H](CC2)[C@@H]1C(=O)Nc1sc2c(c1C(=O)N1CCCCC1)CCCC2)c1ccc(-c2c3nc(c(-c4c(F)c(F)c(F)c(F)c4F)c4ccc([nH]4)c(-c4c(F)c(F)c(F)c(F)c4F)c4nc(c(-c5c(F)c(F)c(F)c(F)c5F)c5ccc2[nH]5)C=C4)C=C3)cc1
REMARK SMILES IDX 5 1 4 2 3 3 2 4 1 5 37 6 38 7 99 8 39 9 98 10 40 11 41 12
REMARK SMILES IDX 42 13 92 14 43 15 97 16 91 17 93 18 44 19 96 20 90 21 89 22
REMARK SMILES IDX 45 24 77 25 57 26 76 27 58 28 61 29 75 30 94 31 59 32 60 33
REMARK SMILES IDX 74 35 95 36 62 37 46 38 47 39 55 40 48 41 49 42 53 43 56 44
REMARK SMILES IDX 50 45 51 46 54 47 52 48 78 49 79 50 87 51 80 52 81 53 85 54
REMARK SMILES IDX 88 55 82 56 83 57 86 58 84 59 63 60 64 61 72 62 65 63 66 64
REMARK SMILES IDX 70 65 73 66 67 67 68 68 71 69 69 70 6 71 7 72 8 73 9 74
REMARK SMILES IDX 10 75 16 76 15 77 11 78 13 79 14 80 12 81 17 82 18 83 19 84
REMARK SMILES IDX 20 86 21 87 24 88 22 89 23 90 36 91 33 92 35 93 34 94 25 95
REMARK SMILES IDX 26 96 27 97 28 98 32 99 29 100 31 101 30 102
REMARK H PARENT 93 23 61 34 19 85
REMARK Flexibility Score: inf
ROOT
ATOM      1  C   UNL A   1      32.482  29.508  25.152  1.00  0.00     0.274 C 
ENDROOT
BRANCH   1   2
ATOM      2  C   UNL A   1      32.658  30.400  26.383  1.00  0.00     0.275 C 
BRANCH   2   3
ATOM      3  O   UNL A   1      33.727  29.997  27.266  1.00  0.00    -0.458 OA
BRANCH   3   4
ATOM      4  C   UNL A   1      34.580  30.742  28.011  1.00  0.00     0.338 C 
ATOM      5  O   UNL A   1      34.277  31.907  28.265  1.00  0.00    -0.246 OA
BRANCH   4   6
ATOM      6  C   UNL A   1      35.936  30.273  28.445  1.00  0.00     0.060 A 
ATOM      7  C   UNL A   1      36.261  29.785  29.714  1.00  0.00     0.016 A 
ATOM      8  C   UNL A   1      36.958  30.312  27.477  1.00  0.00     0.016 A 
ATOM      9  C   UNL A   1      37.520  29.236  29.983  1.00  0.00     0.010 A 
ATOM     10  C   UNL A   1      38.228  29.789  27.749  1.00  0.00     0.010 A 
ATOM     11  C   UNL A   1      38.508  29.223  29.001  1.00  0.00    -0.014 A 
BRANCH  11  12
ATOM     12  C   UNL A   1      39.882  28.789  29.342  1.00  0.00     0.031 A 
ATOM     13  C   UNL A   1      40.745  29.766  30.075  1.00  0.00     0.074 A 
ATOM     14  C   UNL A   1      40.342  27.554  29.061  1.00  0.00     0.049 A 
ATOM     15  N   UNL A   1      41.948  29.596  30.550  1.00  0.00    -0.248 NA
ATOM     16  C   UNL A   1      40.146  31.075  30.389  1.00  0.00     0.031 C 
ATOM     17  C   UNL A   1      39.550  26.447  28.544  1.00  0.00     0.029 A 
ATOM     18  N   UNL A   1      41.605  27.023  29.139  1.00  0.00    -0.354 N 
ATOM     19  C   UNL A   1      42.214  30.738  31.287  1.00  0.00     0.074 A 
ATOM     20  C   UNL A   1      41.093  31.633  31.127  1.00  0.00     0.031 C 
ATOM     21  C   UNL A   1      40.357  25.442  28.169  1.00  0.00     0.029 A 
ATOM     22  C   UNL A   1      41.720  25.796  28.524  1.00  0.00     0.049 A 
ATOM     23  H   UNL A   1      42.355  27.475  29.589  1.00  0.00     0.167 HD
ATOM     24  C   UNL A   1      43.288  30.980  32.070  1.00  0.00     0.037 A 
ATOM     25  C   UNL A   1      42.805  25.033  28.299  1.00  0.00     0.037 A 
ATOM     26  C   UNL A   1      44.414  30.095  32.164  1.00  0.00     0.049 A 
ATOM     27  C   UNL A   1      44.077  25.435  28.988  1.00  0.00     0.074 A 
ATOM     28  C   UNL A   1      45.572  30.247  32.902  1.00  0.00     0.029 A 
ATOM     29  N   UNL A   1      44.535  28.902  31.462  1.00  0.00    -0.354 N 
ATOM     30  N   UNL A   1      44.297  26.476  29.756  1.00  0.00    -0.248 NA
ATOM     31  C   UNL A   1      45.219  24.523  28.866  1.00  0.00     0.031 C 
ATOM     32  C   UNL A   1      46.423  29.181  32.590  1.00  0.00     0.029 A 
ATOM     33  C   UNL A   1      45.770  28.331  31.709  1.00  0.00     0.049 A 
ATOM     34  H   UNL A   1      43.842  28.519  30.876  1.00  0.00     0.167 HD
ATOM     35  C   UNL A   1      45.571  26.309  30.268  1.00  0.00     0.074 A 
ATOM     36  C   UNL A   1      46.079  25.068  29.713  1.00  0.00     0.031 C 
ATOM     37  C   UNL A   1      46.248  27.096  31.139  1.00  0.00     0.037 A 
BRANCH  24  38
ATOM     38  C   UNL A   1      43.282  32.259  32.847  1.00  0.00     0.064 A 
ATOM     39  C   UNL A   1      42.761  32.324  34.150  1.00  0.00     0.173 A 
ATOM     40  C   UNL A   1      43.785  33.436  32.279  1.00  0.00     0.173 A 
ATOM     41  F   UNL A   1      42.241  31.230  34.726  1.00  0.00    -0.203 F 
ATOM     42  C   UNL A   1      42.727  33.529  34.847  1.00  0.00     0.198 A 
ATOM     43  C   UNL A   1      43.772  34.634  32.988  1.00  0.00     0.198 A 
ATOM     44  F   UNL A   1      44.280  33.427  31.032  1.00  0.00    -0.203 F 
ATOM     45  F   UNL A   1      42.182  33.579  36.071  1.00  0.00    -0.200 F 
ATOM     46  C   UNL A   1      43.238  34.681  34.268  1.00  0.00     0.200 A 
ATOM     47  F   UNL A   1      44.266  35.746  32.428  1.00  0.00    -0.200 F 
ATOM     48  F   UNL A   1      43.205  35.841  34.938  1.00  0.00    -0.200 F 
ENDBRANCH  24  38
BRANCH  25  49
ATOM     49  C   UNL A   1      42.721  23.805  27.464  1.00  0.00     0.064 A 
ATOM     50  C   UNL A   1      42.313  22.576  27.999  1.00  0.00     0.173 A 
ATOM     51  C   UNL A   1      43.100  23.827  26.112  1.00  0.00     0.173 A 
ATOM     52  F   UNL A   1      41.946  22.495  29.286  1.00  0.00    -0.203 F 
ATOM     53  C   UNL A   1      42.328  21.411  27.231  1.00  0.00     0.198 A 
ATOM     54  C   UNL A   1      43.094  22.667  25.338  1.00  0.00     0.198 A 
ATOM     55  F   UNL A   1      43.492  24.977  25.544  1.00  0.00    -0.203 F 
ATOM     56  F   UNL A   1      41.988  20.241  27.787  1.00  0.00    -0.200 F 
ATOM     57  C   UNL A   1      42.722  21.457  25.902  1.00  0.00     0.200 A 
ATOM     58  F   UNL A   1      43.469  22.716  24.052  1.00  0.00    -0.200 F 
ATOM     59  F   UNL A   1      42.754  20.334  25.171  1.00  0.00    -0.200 F 
ENDBRANCH  25  49
BRANCH  37  60
ATOM     60  C   UNL A   1      47.602  26.617  31.568  1.00  0.00     0.064 A 
ATOM     61  C   UNL A   1      47.773  25.832  32.715  1.00  0.00     0.173 A 
ATOM     62  C   UNL A   1      48.734  26.916  30.794  1.00  0.00     0.173 A 
ATOM     63  F   UNL A   1      46.722  25.537  33.496  1.00  0.00    -0.203 F 
ATOM     64  C   UNL A   1      49.035  25.385  33.089  1.00  0.00     0.198 A 
ATOM     65  C   UNL A   1      49.987  26.434  31.149  1.00  0.00     0.198 A 
ATOM     66  F   UNL A   1      48.618  27.663  29.684  1.00  0.00    -0.203 F 
ATOM     67  F   UNL A   1      49.186  24.683  34.221  1.00  0.00    -0.200 F 
ATOM     68  C   UNL A   1      50.138  25.676  32.300  1.00  0.00     0.200 A 
ATOM     69  F   UNL A   1      51.049  26.701  30.377  1.00  0.00    -0.200 F 
ATOM     70  F   UNL A   1      51.352  25.232  32.655  1.00  0.00    -0.200 F 
ENDBRANCH  37  60
ENDBRANCH  11  12
ENDBRANCH   4   6
ENDBRANCH   3   4
ENDBRANCH   2   3
ENDBRANCH   1   2
BRANCH   1  71
ATOM     71  O   UNL A   1      31.748  28.330  25.502  1.00  0.00    -0.462 OA
BRANCH  71  72
ATOM     72  C   UNL A   1      32.437  27.160  25.555  1.00  0.00     0.310 C 
ATOM     73  O   UNL A   1      33.635  27.070  25.794  1.00  0.00    -0.252 OA
BRANCH  72  74
ATOM     74  C   UNL A   1      31.489  26.001  25.263  1.00  0.00     0.115 C 
ATOM     75  C   UNL A   1      30.855  26.202  23.880  1.00  0.00     0.004 C 
ATOM     76  C   UNL A   1      32.151  24.616  25.338  1.00  0.00     0.096 C 
ATOM     77  C   UNL A   1      31.950  26.238  22.801  1.00  0.00     0.005 C 
ATOM     78  C   UNL A   1      29.915  25.026  23.557  1.00  0.00     0.005 C 
ATOM     79  C   UNL A   1      32.163  23.982  23.911  1.00  0.00     0.002 C 
ATOM     80  C   UNL A   1      32.840  24.994  22.951  1.00  0.00     0.005 C 
ATOM     81  C   UNL A   1      30.741  23.753  23.363  1.00  0.00     0.005 C 
BRANCH  76  82
ATOM     82  C   UNL A   1      31.405  23.748  26.380  1.00  0.00     0.229 C 
ATOM     83  O   UNL A   1      30.320  24.089  26.857  1.00  0.00    -0.274 OA
ATOM     84  N   UNL A   1      31.923  22.541  26.770  1.00  0.00    -0.317 N 
ATOM     85  H   UNL A   1      31.336  21.946  27.289  1.00  0.00     0.170 HD
BRANCH  84  86
ATOM     86  C   UNL A   1      33.190  22.095  26.496  1.00  0.00     0.108 A 
ATOM     87  S   UNL A   1      34.462  22.881  27.291  1.00  0.00    -0.122 S 
ATOM     88  C   UNL A   1      33.589  21.001  25.744  1.00  0.00     0.078 A 
ATOM     89  C   UNL A   1      35.584  22.148  26.265  1.00  0.00     0.011 A 
ATOM     90  C   UNL A   1      35.039  21.073  25.578  1.00  0.00    -0.019 A 
ATOM     91  C   UNL A   1      36.999  22.632  26.188  1.00  0.00     0.047 C 
ATOM     92  C   UNL A   1      35.926  20.228  24.719  1.00  0.00     0.037 C 
ATOM     93  C   UNL A   1      37.717  22.004  24.989  1.00  0.00     0.006 C 
ATOM     94  C   UNL A   1      37.421  20.509  24.907  1.00  0.00     0.005 C 
BRANCH  88  95
ATOM     95  C   UNL A   1      32.564  20.139  25.116  1.00  0.00     0.257 C 
ATOM     96  O   UNL A   1      31.468  20.589  24.772  1.00  0.00    -0.269 OA
ATOM     97  N   UNL A   1      32.920  18.841  24.781  1.00  0.00    -0.339 N 
ATOM     98  C   UNL A   1      32.530  18.374  23.461  1.00  0.00     0.120 C 
ATOM     99  C   UNL A   1      32.924  17.798  25.796  1.00  0.00     0.120 C 
ATOM    100  C   UNL A   1      33.542  17.348  22.976  1.00  0.00     0.022 C 
ATOM    101  C   UNL A   1      33.867  16.658  25.402  1.00  0.00     0.022 C 
ATOM    102  C   UNL A   1      33.654  16.184  23.962  1.00  0.00     0.004 C 
ENDBRANCH  88  95
ENDBRANCH  84  86
ENDBRANCH  76  82
ENDBRANCH  72  74
ENDBRANCH  71  72
ENDBRANCH   1  71
TORSDOF 14
ENDMDL
MODEL 2
REMARK VINA RESULT:     -13.5      2.380      3.400
REMARK SMILES O=C(OCCOC(=O)[C@H]1[C@H]2CC[C@H](CC2)[C@@H]1C(=O)Nc1sc2c(c1C(=O)N1CCCCC1)CCCC2)c1ccc(-c2c3nc(c(-c4c(F)c(F)c(F)c(F)c4F)c4ccc([nH]4)c(-c4c(F)c(F)c(F)c(F)c4F)c4nc(c(-c5c(F)c(F)c(F)c(F)c5F)c5ccc2[nH]5)C=C4)C=C3)cc1
REMARK SMILES IDX 5 1 4 2 3 3 2 4 1 5 37 6 38 7 99 8 39 9 98 10 40 11 41 12
REMARK SMILES IDX 42 13 92 14 43 15 97 16 91 17 93 18 44 19 96 20 90 21 89 22
REMARK SMILES IDX 45 24 77 25 57 26 76 27 58 28 61 29 75 30 94 31 59 32 60 33
REMARK SMILES IDX 74 35 95 36 62 37 46 38 47 39 55 40 48 41 49 42 53 43 56 44
REMARK SMILES IDX 50 45 51 46 54 47 52 48 78 49 79 50 87 51 80 52 81 53 85 54
REMARK SMILES IDX 88 55 82 56 83 57 86 58 84 59 63 60 64 61 72 62 65 63 66 64
REMARK SMILES IDX 70 65 73 66 67 67 68 68 71 69 69 70 6 71 7 72 8 73 9 74
REMARK SMILES IDX 10 75 16 76 15 77 11 78 13 79 14 80 12 81 17 82 18 83 19 84
REMARK SMILES IDX 20 86 21 87 24 88 22 89 23 90 36 91 33 92 35 93 34 94 25 95
REMARK SMILES IDX 26 96 27 97 28 98 32 99 29 100 31 101 30 102
REMARK H PARENT 93 23 61 34 19 85
REMARK Flexibility Score: inf
ROOT
ATOM      1  C   UNL A   1      32.148  29.419  27.082  1.00  0.00     0.274 C 
ENDROOT
BRANCH   1   2
ATOM      2  C   UNL A   1      32.733  30.664  26.412  1.00  0.00     0.275 C 
BRANCH   2   3
ATOM      3  O   UNL A   1      32.664  31.862  27.215  1.00  0.00    -0.458 OA
BRANCH   3   4
ATOM      4  C   UNL A   1      33.653  32.645  27.712  1.00  0.00     0.338 C 
ATOM      5  O   UNL A   1      33.565  33.865  27.575  1.00  0.00    -0.246 OA
BRANCH   4   6
ATOM      6  C   UNL A   1      34.917  32.110  28.317  1.00  0.00     0.060 A 
ATOM      7  C   UNL A   1      36.212  32.535  28.005  1.00  0.00     0.016 A 
ATOM      8  C   UNL A   1      34.774  31.110  29.297  1.00  0.00     0.016 A 
ATOM      9  C   UNL A   1      37.321  32.078  28.726  1.00  0.00     0.010 A 
ATOM     10  C   UNL A   1      35.884  30.630  30.003  1.00  0.00     0.010 A 
ATOM     11  C   UNL A   1      37.165  31.133  29.737  1.00  0.00    -0.014 A 
BRANCH  11  12
ATOM     12  C   UNL A   1      38.357  30.538  30.382  1.00  0.00     0.031 A 
ATOM     13  C   UNL A   1      38.748  31.072  31.723  1.00  0.00     0.074 A 
ATOM     14  C   UNL A   1      39.048  29.522  29.828  1.00  0.00     0.049 A 
ATOM     15  N   UNL A   1      39.699  30.666  32.518  1.00  0.00    -0.248 NA
ATOM     16  C   UNL A   1      37.907  32.147  32.279  1.00  0.00     0.031 C 
ATOM     17  C   UNL A   1      38.661  28.775  28.640  1.00  0.00     0.029 A 
ATOM     18  N   UNL A   1      40.250  28.956  30.173  1.00  0.00    -0.354 N 
ATOM     19  C   UNL A   1      39.517  31.372  33.695  1.00  0.00     0.074 A 
ATOM     20  C   UNL A   1      38.428  32.297  33.486  1.00  0.00     0.031 C 
ATOM     21  C   UNL A   1      39.675  27.992  28.239  1.00  0.00     0.029 A 
ATOM     22  C   UNL A   1      40.748  28.104  29.212  1.00  0.00     0.049 A 
ATOM     23  H   UNL A   1      40.712  29.142  31.022  1.00  0.00     0.167 HD
ATOM     24  C   UNL A   1      40.179  31.212  34.861  1.00  0.00     0.037 A 
ATOM     25  C   UNL A   1      41.929  27.465  29.142  1.00  0.00     0.037 A 
ATOM     26  C   UNL A   1      41.296  30.326  35.021  1.00  0.00     0.049 A 
ATOM     27  C   UNL A   1      42.788  27.481  30.374  1.00  0.00     0.074 A 
ATOM     28  C   UNL A   1      42.065  30.099  36.147  1.00  0.00     0.029 A 
ATOM     29  N   UNL A   1      41.827  29.541  34.005  1.00  0.00    -0.354 N 
ATOM     30  N   UNL A   1      42.566  28.086  31.517  1.00  0.00    -0.248 NA
ATOM     31  C   UNL A   1      44.003  26.661  30.351  1.00  0.00     0.031 C 
ATOM     32  C   UNL A   1      43.105  29.234  35.791  1.00  0.00     0.029 A 
ATOM     33  C   UNL A   1      42.946  28.868  34.461  1.00  0.00     0.049 A 
ATOM     34  H   UNL A   1      41.460  29.474  33.093  1.00  0.00     0.167 HD
ATOM     35  C   UNL A   1      43.568  27.663  32.372  1.00  0.00     0.074 A 
ATOM     36  C   UNL A   1      44.406  26.756  31.609  1.00  0.00     0.031 C 
ATOM     37  C   UNL A   1      43.761  27.974  33.677  1.00  0.00     0.037 A 
BRANCH  24  38
ATOM     38  C   UNL A   1      39.715  32.038  36.020  1.00  0.00     0.064 A 
ATOM     39  C   UNL A   1      38.591  31.672  36.779  1.00  0.00     0.173 A 
ATOM     40  C   UNL A   1      40.388  33.217  36.367  1.00  0.00     0.173 A 
ATOM     41  F   UNL A   1      37.896  30.567  36.468  1.00  0.00    -0.203 F 
ATOM     42  C   UNL A   1      38.148  32.469  37.830  1.00  0.00     0.198 A 
ATOM     43  C   UNL A   1      39.957  33.998  37.434  1.00  0.00     0.198 A 
ATOM     44  F   UNL A   1      41.459  33.615  35.663  1.00  0.00    -0.203 F 
ATOM     45  F   UNL A   1      37.045  32.126  38.511  1.00  0.00    -0.200 F 
ATOM     46  C   UNL A   1      38.834  33.628  38.160  1.00  0.00     0.200 A 
ATOM     47  F   UNL A   1      40.620  35.118  37.753  1.00  0.00    -0.200 F 
ATOM     48  F   UNL A   1      38.407  34.396  39.172  1.00  0.00    -0.200 F 
ENDBRANCH  24  38
BRANCH  25  49
ATOM     49  C   UNL A   1      42.327  26.714  27.921  1.00  0.00     0.064 A 
ATOM     50  C   UNL A   1      41.948  25.380  27.719  1.00  0.00     0.173 A 
ATOM     51  C   UNL A   1      43.143  27.308  26.945  1.00  0.00     0.173 A 
ATOM     52  F   UNL A   1      41.174  24.761  28.623  1.00  0.00    -0.203 F 
ATOM     53  C   UNL A   1      42.403  24.656  26.617  1.00  0.00     0.198 A 
ATOM     54  C   UNL A   1      43.581  26.591  25.832  1.00  0.00     0.198 A 
ATOM     55  F   UNL A   1      43.530  28.585  27.081  1.00  0.00    -0.203 F 
ATOM     56  F   UNL A   1      42.072  23.365  26.483  1.00  0.00    -0.200 F 
ATOM     57  C   UNL A   1      43.222  25.261  25.675  1.00  0.00     0.200 A 
ATOM     58  F   UNL A   1      44.367  27.181  24.920  1.00  0.00    -0.200 F 
ATOM     59  F   UNL A   1      43.675  24.560  24.627  1.00  0.00    -0.200 F 
ENDBRANCH  25  49
BRANCH  37  60
ATOM     60  C   UNL A   1      44.908  27.302  34.368  1.00  0.00     0.064 A 
ATOM     61  C   UNL A   1      46.170  27.904  34.450  1.00  0.00     0.173 A 
ATOM     62  C   UNL A   1      44.725  26.058  34.991  1.00  0.00     0.173 A 
ATOM     63  F   UNL A   1      46.397  29.084  33.853  1.00  0.00    -0.203 F 
ATOM     64  C   UNL A   1      47.218  27.271  35.108  1.00  0.00     0.198 A 
ATOM     65  C   UNL A   1      45.764  25.447  35.682  1.00  0.00     0.198 A 
ATOM     66  F   UNL A   1      43.532  25.444  34.942  1.00  0.00    -0.203 F 
ATOM     67  F   UNL A   1      48.434  27.836  35.126  1.00  0.00    -0.200 F 
ATOM     68  C   UNL A   1      47.012  26.050  35.733  1.00  0.00     0.200 A 
ATOM     69  F   UNL A   1      45.558  24.276  36.300  1.00  0.00    -0.200 F 
ATOM     70  F   UNL A   1      48.020  25.448  36.379  1.00  0.00    -0.200 F 
ENDBRANCH  37  60
ENDBRANCH  11  12
ENDBRANCH   4   6
ENDBRANCH   3   4
ENDBRANCH   2   3
ENDBRANCH   1   2
BRANCH   1  71
ATOM     71  O   UNL A   1      31.794  28.450  26.089  1.00  0.00    -0.462 OA
BRANCH  71  72
ATOM     72  C   UNL A   1      32.455  27.263  26.116  1.00  0.00     0.310 C 
ATOM     73  O   UNL A   1      33.632  27.130  26.428  1.00  0.00    -0.252 OA
BRANCH  72  74
ATOM     74  C   UNL A   1      31.506  26.147  25.691  1.00  0.00     0.115 C 
ATOM     75  C   UNL A   1      30.906  26.487  24.320  1.00  0.00     0.004 C 
ATOM     76  C   UNL A   1      32.156  24.755  25.646  1.00  0.00     0.096 C 
ATOM     77  C   UNL A   1      32.026  26.617  23.275  1.00  0.00     0.005 C 
ATOM     78  C   UNL A   1      29.965  25.356  23.863  1.00  0.00     0.005 C 
ATOM     79  C   UNL A   1      32.197  24.262  24.165  1.00  0.00     0.002 C 
ATOM     80  C   UNL A   1      32.904  25.356  23.323  1.00  0.00     0.005 C 
ATOM     81  C   UNL A   1      30.787  24.101  23.564  1.00  0.00     0.005 C 
BRANCH  76  82
ATOM     82  C   UNL A   1      31.380  23.796  26.581  1.00  0.00     0.229 C 
ATOM     83  O   UNL A   1      30.292  24.104  27.074  1.00  0.00    -0.274 OA
ATOM     84  N   UNL A   1      31.873  22.548  26.852  1.00  0.00    -0.317 N 
ATOM     85  H   UNL A   1      31.269  21.912  27.298  1.00  0.00     0.170 HD
BRANCH  84  86
ATOM     86  C   UNL A   1      33.139  22.112  26.554  1.00  0.00     0.108 A 
ATOM     87  S   UNL A   1      34.417  22.875  27.362  1.00  0.00    -0.122 S 
ATOM     88  C   UNL A   1      33.531  21.042  25.765  1.00  0.00     0.078 A 
ATOM     89  C   UNL A   1      35.531  22.175  26.303  1.00  0.00     0.011 A 
ATOM     90  C   UNL A   1      34.981  21.121  25.589  1.00  0.00    -0.019 A 
ATOM     91  C   UNL A   1      36.944  22.662  26.229  1.00  0.00     0.047 C 
ATOM     92  C   UNL A   1      35.860  20.304  24.696  1.00  0.00     0.037 C 
ATOM     93  C   UNL A   1      37.653  22.072  25.005  1.00  0.00     0.006 C 
ATOM     94  C   UNL A   1      37.357  20.580  24.880  1.00  0.00     0.005 C 
BRANCH  88  95
ATOM     95  C   UNL A   1      32.502  20.198  25.120  1.00  0.00     0.257 C 
ATOM     96  O   UNL A   1      31.421  20.668  24.758  1.00  0.00    -0.269 OA
ATOM     97  N   UNL A   1      32.840  18.894  24.791  1.00  0.00    -0.339 N 
ATOM     98  C   UNL A   1      32.464  18.434  23.464  1.00  0.00     0.120 C 
ATOM     99  C   UNL A   1      32.808  17.851  25.806  1.00  0.00     0.120 C 
ATOM    100  C   UNL A   1      33.464  17.390  22.997  1.00  0.00     0.022 C 
ATOM    101  C   UNL A   1      33.737  16.694  25.427  1.00  0.00     0.022 C 
ATOM    102  C   UNL A   1      33.539  16.224  23.984  1.00  0.00     0.004 C 
ENDBRANCH  88  95
ENDBRANCH  84  86
ENDBRANCH  76  82
ENDBRANCH  72  74
ENDBRANCH  71  72
ENDBRANCH   1  71
TORSDOF 14
ENDMDL
MODEL 3
REMARK VINA RESULT:     -13.3      1.395      2.282
REMARK SMILES O=C(OCCOC(=O)[C@H]1[C@H]2CC[C@H](CC2)[C@@H]1C(=O)Nc1sc2c(c1C(=O)N1CCCCC1)CCCC2)c1ccc(-c2c3nc(c(-c4c(F)c(F)c(F)c(F)c4F)c4ccc([nH]4)c(-c4c(F)c(F)c(F)c(F)c4F)c4nc(c(-c5c(F)c(F)c(F)c(F)c5F)c5ccc2[nH]5)C=C4)C=C3)cc1
REMARK SMILES IDX 5 1 4 2 3 3 2 4 1 5 37 6 38 7 99 8 39 9 98 10 40 11 41 12
REMARK SMILES IDX 42 13 92 14 43 15 97 16 91 17 93 18 44 19 96 20 90 21 89 22
REMARK SMILES IDX 45 24 77 25 57 26 76 27 58 28 61 29 75 30 94 31 59 32 60 33
REMARK SMILES IDX 74 35 95 36 62 37 46 38 47 39 55 40 48 41 49 42 53 43 56 44
REMARK SMILES IDX 50 45 51 46 54 47 52 48 78 49 79 50 87 51 80 52 81 53 85 54
REMARK SMILES IDX 88 55 82 56 83 57 86 58 84 59 63 60 64 61 72 62 65 63 66 64
REMARK SMILES IDX 70 65 73 66 67 67 68 68 71 69 69 70 6 71 7 72 8 73 9 74
REMARK SMILES IDX 10 75 16 76 15 77 11 78 13 79 14 80 12 81 17 82 18 83 19 84
REMARK SMILES IDX 20 86 21 87 24 88 22 89 23 90 36 91 33 92 35 93 34 94 25 95
REMARK SMILES IDX 26 96 27 97 28 98 32 99 29 100 31 101 30 102
REMARK H PARENT 93 23 61 34 19 85
REMARK Flexibility Score: inf
ROOT
ATOM      1  C   UNL A   1      32.423  27.714  27.133  1.00  0.00     0.274 C 
ENDROOT
BRANCH   1   2
ATOM      2  C   UNL A   1      32.276  29.238  27.152  1.00  0.00     0.275 C 
BRANCH   2   3
ATOM      3  O   UNL A   1      33.464  29.958  26.760  1.00  0.00    -0.458 OA
BRANCH   3   4
ATOM      4  C   UNL A   1      34.306  30.729  27.491  1.00  0.00     0.338 C 
ATOM      5  O   UNL A   1      34.019  31.913  27.666  1.00  0.00    -0.246 OA
BRANCH   4   6
ATOM      6  C   UNL A   1      35.635  30.261  28.003  1.00  0.00     0.060 A 
ATOM      7  C   UNL A   1      36.841  30.306  27.298  1.00  0.00     0.016 A 
ATOM      8  C   UNL A   1      35.663  29.754  29.317  1.00  0.00     0.016 A 
ATOM      9  C   UNL A   1      38.056  29.979  27.911  1.00  0.00     0.010 A 
ATOM     10  C   UNL A   1      36.872  29.400  29.926  1.00  0.00     0.010 A 
ATOM     11  C   UNL A   1      38.083  29.535  29.231  1.00  0.00    -0.014 A 
BRANCH  11  12
ATOM     12  C   UNL A   1      39.348  29.040  29.818  1.00  0.00     0.031 A 
ATOM     13  C   UNL A   1      39.951  29.846  30.924  1.00  0.00     0.074 A 
ATOM     14  C   UNL A   1      39.925  27.888  29.425  1.00  0.00     0.049 A 
ATOM     15  N   UNL A   1      41.005  29.581  31.646  1.00  0.00    -0.248 NA
ATOM     16  C   UNL A   1      39.227  31.064  31.327  1.00  0.00     0.031 C 
ATOM     17  C   UNL A   1      39.345  26.910  28.515  1.00  0.00     0.029 A 
ATOM     18  N   UNL A   1      41.155  27.350  29.715  1.00  0.00    -0.354 N 
ATOM     19  C   UNL A   1      41.022  30.548  32.636  1.00  0.00     0.074 A 
ATOM     20  C   UNL A   1      39.931  31.458  32.377  1.00  0.00     0.031 C 
ATOM     21  C   UNL A   1      40.270  26.001  28.167  1.00  0.00     0.029 A 
ATOM     22  C   UNL A   1      41.482  26.274  28.919  1.00  0.00     0.049 A 
ATOM     23  H   UNL A   1      41.745  27.700  30.420  1.00  0.00     0.167 HD
ATOM     24  C   UNL A   1      41.852  30.624  33.699  1.00  0.00     0.037 A 
ATOM     25  C   UNL A   1      42.625  25.571  28.831  1.00  0.00     0.037 A 
ATOM     26  C   UNL A   1      42.963  29.738  33.899  1.00  0.00     0.049 A 
ATOM     27  C   UNL A   1      43.664  25.823  29.886  1.00  0.00     0.074 A 
ATOM     28  C   UNL A   1      43.891  29.734  34.922  1.00  0.00     0.029 A 
ATOM     29  N   UNL A   1      43.315  28.712  33.030  1.00  0.00    -0.354 N 
ATOM     30  N   UNL A   1      43.633  26.686  30.874  1.00  0.00    -0.248 NA
ATOM     31  C   UNL A   1      44.845  24.954  29.881  1.00  0.00     0.031 C 
ATOM     32  C   UNL A   1      44.846  28.754  34.632  1.00  0.00     0.029 A 
ATOM     33  C   UNL A   1      44.477  28.102  33.464  1.00  0.00     0.049 A 
ATOM     34  H   UNL A   1      42.810  28.458  32.223  1.00  0.00     0.167 HD
ATOM     35  C   UNL A   1      44.746  26.416  31.651  1.00  0.00     0.074 A 
ATOM     36  C   UNL A   1      45.438  25.313  31.009  1.00  0.00     0.031 C 
ATOM     37  C   UNL A   1      45.144  27.008  32.802  1.00  0.00     0.037 A 
BRANCH  24  38
ATOM     38  C   UNL A   1      41.589  31.718  34.685  1.00  0.00     0.064 A 
ATOM     39  C   UNL A   1      42.282  32.939  34.630  1.00  0.00     0.173 A 
ATOM     40  C   UNL A   1      40.648  31.541  35.707  1.00  0.00     0.173 A 
ATOM     41  F   UNL A   1      43.214  33.145  33.688  1.00  0.00    -0.203 F 
ATOM     42  C   UNL A   1      42.054  33.933  35.578  1.00  0.00     0.198 A 
ATOM     43  C   UNL A   1      40.405  32.547  36.637  1.00  0.00     0.198 A 
ATOM     44  F   UNL A   1      39.970  30.387  35.809  1.00  0.00    -0.203 F 
ATOM     45  F   UNL A   1      42.761  35.072  35.535  1.00  0.00    -0.200 F 
ATOM     46  C   UNL A   1      41.112  33.739  36.576  1.00  0.00     0.200 A 
ATOM     47  F   UNL A   1      39.494  32.359  37.602  1.00  0.00    -0.200 F 
ATOM     48  F   UNL A   1      40.893  34.696  37.488  1.00  0.00    -0.200 F 
ENDBRANCH  24  38
BRANCH  25  49
ATOM     49  C   UNL A   1      42.815  24.539  27.777  1.00  0.00     0.064 A 
ATOM     50  C   UNL A   1      42.516  23.189  28.004  1.00  0.00     0.173 A 
ATOM     51  C   UNL A   1      43.350  24.881  26.525  1.00  0.00     0.173 A 
ATOM     52  F   UNL A   1      42.008  22.806  29.185  1.00  0.00    -0.203 F 
ATOM     53  C   UNL A   1      42.785  22.216  27.041  1.00  0.00     0.198 A 
ATOM     54  C   UNL A   1      43.600  23.910  25.554  1.00  0.00     0.198 A 
ATOM     55  F   UNL A   1      43.648  26.159  26.247  1.00  0.00    -0.203 F 
ATOM     56  F   UNL A   1      42.544  20.926  27.311  1.00  0.00    -0.200 F 
ATOM     57  C   UNL A   1      43.330  22.576  25.818  1.00  0.00     0.200 A 
ATOM     58  F   UNL A   1      44.119  24.264  24.370  1.00  0.00    -0.200 F 
ATOM     59  F   UNL A   1      43.605  21.638  24.902  1.00  0.00    -0.200 F 
ENDBRANCH  25  49
BRANCH  37  60
ATOM     60  C   UNL A   1      46.370  26.450  33.458  1.00  0.00     0.064 A 
ATOM     61  C   UNL A   1      47.646  26.957  33.180  1.00  0.00     0.173 A 
ATOM     62  C   UNL A   1      46.257  25.423  34.408  1.00  0.00     0.173 A 
ATOM     63  F   UNL A   1      47.805  27.926  32.265  1.00  0.00    -0.203 F 
ATOM     64  C   UNL A   1      48.771  26.436  33.810  1.00  0.00     0.198 A 
ATOM     65  C   UNL A   1      47.380  24.933  35.064  1.00  0.00     0.198 A 
ATOM     66  F   UNL A   1      45.055  24.908  34.710  1.00  0.00    -0.203 F 
ATOM     67  F   UNL A   1      49.989  26.895  33.488  1.00  0.00    -0.200 F 
ATOM     68  C   UNL A   1      48.636  25.433  34.759  1.00  0.00     0.200 A 
ATOM     69  F   UNL A   1      47.246  23.977  35.994  1.00  0.00    -0.200 F 
ATOM     70  F   UNL A   1      49.720  24.943  35.375  1.00  0.00    -0.200 F 
ENDBRANCH  37  60
ENDBRANCH  11  12
ENDBRANCH   4   6
ENDBRANCH   3   4
ENDBRANCH   2   3
ENDBRANCH   1   2
BRANCH   1  71
ATOM     71  O   UNL A   1      33.465  27.335  26.228  1.00  0.00    -0.462 OA
BRANCH  71  72
ATOM     72  C   UNL A   1      33.116  27.122  24.932  1.00  0.00     0.310 C 
ATOM     73  O   UNL A   1      33.639  27.673  23.972  1.00  0.00    -0.252 OA
BRANCH  72  74
ATOM     74  C   UNL A   1      31.978  26.107  24.876  1.00  0.00     0.115 C 
ATOM     75  C   UNL A   1      31.205  26.285  23.563  1.00  0.00     0.004 C 
ATOM     76  C   UNL A   1      32.434  24.647  25.020  1.00  0.00     0.096 C 
ATOM     77  C   UNL A   1      32.143  26.054  22.366  1.00  0.00     0.005 C 
ATOM     78  C   UNL A   1      30.068  25.250  23.477  1.00  0.00     0.005 C 
ATOM     79  C   UNL A   1      32.165  23.897  23.676  1.00  0.00     0.002 C 
ATOM     80  C   UNL A   1      32.853  24.702  22.543  1.00  0.00     0.005 C 
ATOM     81  C   UNL A   1      30.666  23.850  23.323  1.00  0.00     0.005 C 
BRANCH  76  82
ATOM     82  C   UNL A   1      31.712  24.001  26.227  1.00  0.00     0.229 C 
ATOM     83  O   UNL A   1      30.688  24.488  26.712  1.00  0.00    -0.274 OA
ATOM     84  N   UNL A   1      32.179  22.831  26.765  1.00  0.00    -0.317 N 
ATOM     85  H   UNL A   1      31.594  22.365  27.405  1.00  0.00     0.170 HD
BRANCH  84  86
ATOM     86  C   UNL A   1      33.393  22.257  26.486  1.00  0.00     0.108 A 
ATOM     87  S   UNL A   1      34.755  22.979  27.187  1.00  0.00    -0.122 S 
ATOM     88  C   UNL A   1      33.668  21.085  25.800  1.00  0.00     0.078 A 
ATOM     89  C   UNL A   1      35.773  22.083  26.182  1.00  0.00     0.011 A 
ATOM     90  C   UNL A   1      35.113  21.017  25.588  1.00  0.00    -0.019 A 
ATOM     91  C   UNL A   1      37.220  22.433  26.031  1.00  0.00     0.047 C 
ATOM     92  C   UNL A   1      35.893  20.042  24.763  1.00  0.00     0.037 C 
ATOM     93  C   UNL A   1      37.839  21.666  24.858  1.00  0.00     0.006 C 
ATOM     94  C   UNL A   1      37.412  20.202  24.888  1.00  0.00     0.005 C 
BRANCH  88  95
ATOM     95  C   UNL A   1      32.552  20.277  25.264  1.00  0.00     0.257 C 
ATOM     96  O   UNL A   1      31.437  20.769  25.071  1.00  0.00    -0.269 OA
ATOM     97  N   UNL A   1      32.827  18.986  24.837  1.00  0.00    -0.339 N 
ATOM     98  C   UNL A   1      32.271  18.588  23.554  1.00  0.00     0.120 C 
ATOM     99  C   UNL A   1      32.919  17.900  25.800  1.00  0.00     0.120 C 
ATOM    100  C   UNL A   1      33.187  17.560  22.911  1.00  0.00     0.022 C 
ATOM    101  C   UNL A   1      33.775  16.755  25.251  1.00  0.00     0.022 C 
ATOM    102  C   UNL A   1      33.379  16.351  23.828  1.00  0.00     0.004 C 
ENDBRANCH  88  95
ENDBRANCH  84  86
ENDBRANCH  76  82
ENDBRANCH  72  74
ENDBRANCH  71  72
ENDBRANCH   1  71
TORSDOF 14
ENDMDL
