MODEL 1
REMARK VINA RESULT:     -12.7      0.000      0.000
REMARK SMILES O=C(COc1ccc(Br)cc1/C=C1\C(=O)Nc2ccc(Br)cc21)OCCOC(=O)c1ccc(-c2c3nc(c(-c4c(F)c(F)c(F)c(F)c4F)c4ccc([nH]4)c(-c4c(F)c(F)c(F)c(F)c4F)c4nc(c(-c5c(F)c(F)c(F)c(F)c5F)c5ccc2[nH]5)C=C4)C=C3)cc1
REMARK SMILES IDX 25 1 24 2 2 3 1 4 3 5 4 6 5 7 6 8 11 9 7 10 10 11 8 12 9 13
REMARK SMILES IDX 12 14 13 15 14 16 23 17 15 18 16 19 17 20 22 21 18 23 20 24
REMARK SMILES IDX 19 25 21 26 26 27 27 28 28 29 29 30 30 31 31 32 92 33 32 34
REMARK SMILES IDX 91 35 33 36 34 37 35 38 85 39 36 40 90 41 84 42 86 43 37 44
REMARK SMILES IDX 89 45 83 46 82 47 38 49 70 50 50 51 69 52 51 53 54 54 68 55
REMARK SMILES IDX 87 56 52 57 53 58 67 60 88 61 55 62 39 63 40 64 48 65 41 66
REMARK SMILES IDX 42 67 46 68 49 69 43 70 44 71 47 72 45 73 71 74 72 75 80 76
REMARK SMILES IDX 73 77 74 78 78 79 81 80 75 81 76 82 79 83 77 84 56 85 57 86
REMARK SMILES IDX 65 87 58 88 59 89 63 90 66 91 60 92 61 93 64 94 62 95
REMARK H PARENT 16 22 86 48 54 59
REMARK Flexibility Score: inf
ROOT
ATOM      1  C   UNL A   1      31.739  28.963  26.433  1.00  0.00     0.274 C 
ENDROOT
BRANCH   1   2
ATOM      2  O   UNL A   1      33.006  28.304  26.633  1.00  0.00    -0.460 OA
BRANCH   2   3
ATOM      3  C   UNL A   1      33.537  27.459  25.715  1.00  0.00     0.344 C 
ATOM      4  O   UNL A   1      33.826  26.305  26.027  1.00  0.00    -0.248 OA
BRANCH   3   5
ATOM      5  C   UNL A   1      33.673  27.954  24.273  1.00  0.00     0.352 C 
BRANCH   5   6
ATOM      6  O   UNL A   1      33.093  27.132  23.250  1.00  0.00    -0.481 OA
BRANCH   6   7
ATOM      7  C   UNL A   1      31.776  27.493  23.045  1.00  0.00     0.127 A 
ATOM      8  C   UNL A   1      31.524  28.818  22.640  1.00  0.00     0.048 A 
ATOM      9  C   UNL A   1      30.724  26.584  23.290  1.00  0.00     0.018 A 
ATOM     10  C   UNL A   1      30.233  29.327  22.643  1.00  0.00     0.019 A 
ATOM     11  C   UNL A   1      29.438  27.150  23.310  1.00  0.00     0.027 A 
ATOM     12  C   UNL A   1      29.196  28.494  23.012  1.00  0.00     0.018 A 
ATOM     13  Br  UNL A   1      27.434  29.173  23.126  1.00  0.00    -0.051 Br
BRANCH   9  14
ATOM     14  C   UNL A   1      30.989  25.139  23.588  1.00  0.00     0.026 C 
ATOM     15  C   UNL A   1      30.889  24.444  24.742  1.00  0.00     0.050 C 
ATOM     16  C   UNL A   1      30.529  24.977  26.104  1.00  0.00     0.256 C 
ATOM     17  C   UNL A   1      31.669  23.222  25.013  1.00  0.00     0.012 A 
ATOM     18  O   UNL A   1      29.544  25.576  26.454  1.00  0.00    -0.269 OA
ATOM     19  N   UNL A   1      31.536  24.491  26.923  1.00  0.00    -0.321 N 
ATOM     20  C   UNL A   1      32.182  23.427  26.302  1.00  0.00     0.049 A 
ATOM     21  C   UNL A   1      31.879  22.010  24.380  1.00  0.00     0.026 A 
ATOM     22  H   UNL A   1      31.760  24.845  27.815  1.00  0.00     0.170 HD
ATOM     23  C   UNL A   1      33.066  22.564  26.902  1.00  0.00     0.028 A 
ATOM     24  C   UNL A   1      32.703  21.076  25.030  1.00  0.00     0.018 A 
ATOM     25  C   UNL A   1      33.345  21.374  26.244  1.00  0.00     0.018 A 
ATOM     26  Br  UNL A   1      32.900  19.333  24.317  1.00  0.00    -0.051 Br
ENDBRANCH   9  14
ENDBRANCH   6   7
ENDBRANCH   5   6
ENDBRANCH   3   5
ENDBRANCH   2   3
ENDBRANCH   1   2
BRANCH   1  27
ATOM     27  C   UNL A   1      31.876  30.458  26.731  1.00  0.00     0.275 C 
BRANCH  27  28
ATOM     28  O   UNL A   1      33.257  30.838  26.582  1.00  0.00    -0.458 OA
BRANCH  28  29
ATOM     29  C   UNL A   1      33.689  31.858  27.369  1.00  0.00     0.338 C 
ATOM     30  O   UNL A   1      33.098  32.890  27.625  1.00  0.00    -0.246 OA
BRANCH  29  31
ATOM     31  C   UNL A   1      34.944  31.425  28.025  1.00  0.00     0.060 A 
ATOM     32  C   UNL A   1      36.057  32.270  28.081  1.00  0.00     0.016 A 
ATOM     33  C   UNL A   1      35.019  30.132  28.555  1.00  0.00     0.016 A 
ATOM     34  C   UNL A   1      37.240  31.818  28.666  1.00  0.00     0.010 A 
ATOM     35  C   UNL A   1      36.204  29.681  29.146  1.00  0.00     0.010 A 
ATOM     36  C   UNL A   1      37.320  30.525  29.214  1.00  0.00    -0.014 A 
BRANCH  36  37
ATOM     37  C   UNL A   1      38.528  30.140  29.984  1.00  0.00     0.031 A 
ATOM     38  C   UNL A   1      38.771  30.622  31.382  1.00  0.00     0.074 A 
ATOM     39  C   UNL A   1      39.415  29.317  29.394  1.00  0.00     0.049 A 
ATOM     40  N   UNL A   1      39.709  30.252  32.219  1.00  0.00    -0.248 NA
ATOM     41  C   UNL A   1      37.861  31.646  31.914  1.00  0.00     0.031 C 
ATOM     42  C   UNL A   1      39.318  28.831  28.017  1.00  0.00     0.029 A 
ATOM     43  N   UNL A   1      40.560  28.736  29.876  1.00  0.00    -0.354 N 
ATOM     44  C   UNL A   1      39.511  30.997  33.370  1.00  0.00     0.074 A 
ATOM     45  C   UNL A   1      38.367  31.852  33.127  1.00  0.00     0.031 C 
ATOM     46  C   UNL A   1      40.345  28.003  27.773  1.00  0.00     0.029 A 
ATOM     47  C   UNL A   1      41.175  27.906  28.971  1.00  0.00     0.049 A 
ATOM     48  H   UNL A   1      40.908  28.898  30.783  1.00  0.00     0.167 HD
ATOM     49  C   UNL A   1      40.213  30.951  34.527  1.00  0.00     0.037 A 
ATOM     50  C   UNL A   1      42.274  27.138  29.094  1.00  0.00     0.037 A 
ATOM     51  C   UNL A   1      41.311  30.060  34.790  1.00  0.00     0.049 A 
ATOM     52  C   UNL A   1      42.999  27.078  30.407  1.00  0.00     0.074 A 
ATOM     53  C   UNL A   1      41.977  29.856  35.986  1.00  0.00     0.029 A 
ATOM     54  N   UNL A   1      41.905  29.234  33.851  1.00  0.00    -0.354 N 
ATOM     55  N   UNL A   1      42.709  27.679  31.534  1.00  0.00    -0.248 NA
ATOM     56  C   UNL A   1      44.196  26.227  30.469  1.00  0.00     0.031 C 
ATOM     57  C   UNL A   1      42.993  28.923  35.766  1.00  0.00     0.029 A 
ATOM     58  C   UNL A   1      42.951  28.539  34.437  1.00  0.00     0.049 A 
ATOM     59  H   UNL A   1      41.625  29.153  32.911  1.00  0.00     0.167 HD
ATOM     60  C   UNL A   1      43.674  27.266  32.443  1.00  0.00     0.074 A 
ATOM     61  C   UNL A   1      44.552  26.354  31.742  1.00  0.00     0.031 C 
ATOM     62  C   UNL A   1      43.814  27.622  33.742  1.00  0.00     0.037 A 
BRANCH  49  63
ATOM     63  C   UNL A   1      39.798  31.845  35.648  1.00  0.00     0.064 A 
ATOM     64  C   UNL A   1      40.369  33.116  35.776  1.00  0.00     0.173 A 
ATOM     65  C   UNL A   1      38.730  31.510  36.491  1.00  0.00     0.173 A 
ATOM     66  F   UNL A   1      41.372  33.488  34.967  1.00  0.00    -0.203 F 
ATOM     67  C   UNL A   1      39.894  34.019  36.722  1.00  0.00     0.198 A 
ATOM     68  C   UNL A   1      38.261  32.417  37.439  1.00  0.00     0.198 A 
ATOM     69  F   UNL A   1      38.125  30.320  36.373  1.00  0.00    -0.203 F 
ATOM     70  F   UNL A   1      40.453  35.233  36.829  1.00  0.00    -0.200 F 
ATOM     71  C   UNL A   1      38.847  33.669  37.557  1.00  0.00     0.200 A 
ATOM     72  F   UNL A   1      37.229  32.089  38.229  1.00  0.00    -0.200 F 
ATOM     73  F   UNL A   1      38.403  34.540  38.473  1.00  0.00    -0.200 F 
ENDBRANCH  49  63
BRANCH  50  74
ATOM     74  C   UNL A   1      42.714  26.319  27.938  1.00  0.00     0.064 A 
ATOM     75  C   UNL A   1      42.182  25.042  27.722  1.00  0.00     0.173 A 
ATOM     76  C   UNL A   1      43.636  26.815  27.007  1.00  0.00     0.173 A 
ATOM     77  F   UNL A   1      41.307  24.523  28.598  1.00  0.00    -0.203 F 
ATOM     78  C   UNL A   1      42.560  24.287  26.615  1.00  0.00     0.198 A 
ATOM     79  C   UNL A   1      43.997  26.068  25.889  1.00  0.00     0.198 A 
ATOM     80  F   UNL A   1      44.165  28.036  27.171  1.00  0.00    -0.203 F 
ATOM     81  F   UNL A   1      42.054  23.059  26.440  1.00  0.00    -0.200 F 
ATOM     82  C   UNL A   1      43.461  24.804  25.695  1.00  0.00     0.200 A 
ATOM     83  F   UNL A   1      44.857  26.576  24.995  1.00  0.00    -0.200 F 
ATOM     84  F   UNL A   1      43.813  24.082  24.623  1.00  0.00    -0.200 F 
ENDBRANCH  50  74
BRANCH  62  85
ATOM     85  C   UNL A   1      44.956  27.036  34.514  1.00  0.00     0.064 A 
ATOM     86  C   UNL A   1      46.190  27.695  34.589  1.00  0.00     0.173 A 
ATOM     87  C   UNL A   1      44.781  25.872  35.278  1.00  0.00     0.173 A 
ATOM     88  F   UNL A   1      46.405  28.808  33.871  1.00  0.00    -0.203 F 
ATOM     89  C   UNL A   1      47.210  27.212  35.404  1.00  0.00     0.198 A 
ATOM     90  C   UNL A   1      45.794  25.403  36.108  1.00  0.00     0.198 A 
ATOM     91  F   UNL A   1      43.612  25.214  35.247  1.00  0.00    -0.203 F 
ATOM     92  F   UNL A   1      48.386  27.851  35.452  1.00  0.00    -0.200 F 
ATOM     93  C   UNL A   1      47.007  26.073  36.170  1.00  0.00     0.200 A 
ATOM     94  F   UNL A   1      45.592  24.313  36.861  1.00  0.00    -0.200 F 
ATOM     95  F   UNL A   1      47.981  25.624  36.974  1.00  0.00    -0.200 F 
ENDBRANCH  62  85
ENDBRANCH  36  37
ENDBRANCH  29  31
ENDBRANCH  28  29
ENDBRANCH  27  28
ENDBRANCH   1  27
TORSDOF 14
ENDMDL
MODEL 2
REMARK VINA RESULT:     -12.6      0.271      1.934
REMARK SMILES O=C(COc1ccc(Br)cc1/C=C1\C(=O)Nc2ccc(Br)cc21)OCCOC(=O)c1ccc(-c2c3nc(c(-c4c(F)c(F)c(F)c(F)c4F)c4ccc([nH]4)c(-c4c(F)c(F)c(F)c(F)c4F)c4nc(c(-c5c(F)c(F)c(F)c(F)c5F)c5ccc2[nH]5)C=C4)C=C3)cc1
REMARK SMILES IDX 25 1 24 2 2 3 1 4 3 5 4 6 5 7 6 8 11 9 7 10 10 11 8 12 9 13
REMARK SMILES IDX 12 14 13 15 14 16 23 17 15 18 16 19 17 20 22 21 18 23 20 24
REMARK SMILES IDX 19 25 21 26 26 27 27 28 28 29 29 30 30 31 31 32 92 33 32 34
REMARK SMILES IDX 91 35 33 36 34 37 35 38 85 39 36 40 90 41 84 42 86 43 37 44
REMARK SMILES IDX 89 45 83 46 82 47 38 49 70 50 50 51 69 52 51 53 54 54 68 55
REMARK SMILES IDX 87 56 52 57 53 58 67 60 88 61 55 62 39 63 40 64 48 65 41 66
REMARK SMILES IDX 42 67 46 68 49 69 43 70 44 71 47 72 45 73 71 74 72 75 80 76
REMARK SMILES IDX 73 77 74 78 78 79 81 80 75 81 76 82 79 83 77 84 56 85 57 86
REMARK SMILES IDX 65 87 58 88 59 89 63 90 66 91 60 92 61 93 64 94 62 95
REMARK H PARENT 16 22 86 48 54 59
REMARK Flexibility Score: inf
ROOT
ATOM      1  C   UNL A   1      31.657  28.655  26.345  1.00  0.00     0.274 C 
ENDROOT
BRANCH   1   2
ATOM      2  O   UNL A   1      32.960  28.068  26.544  1.00  0.00    -0.460 OA
BRANCH   2   3
ATOM      3  C   UNL A   1      33.549  27.276  25.614  1.00  0.00     0.344 C 
ATOM      4  O   UNL A   1      33.913  26.139  25.906  1.00  0.00    -0.248 OA
BRANCH   3   5
ATOM      5  C   UNL A   1      33.655  27.805  24.180  1.00  0.00     0.352 C 
BRANCH   5   6
ATOM      6  O   UNL A   1      33.050  27.009  23.151  1.00  0.00    -0.481 OA
BRANCH   6   7
ATOM      7  C   UNL A   1      31.735  27.393  22.971  1.00  0.00     0.127 A 
ATOM      8  C   UNL A   1      31.498  28.717  22.555  1.00  0.00     0.048 A 
ATOM      9  C   UNL A   1      30.672  26.506  23.251  1.00  0.00     0.018 A 
ATOM     10  C   UNL A   1      30.217  29.250  22.580  1.00  0.00     0.019 A 
ATOM     11  C   UNL A   1      29.398  27.096  23.293  1.00  0.00     0.027 A 
ATOM     12  C   UNL A   1      29.174  28.441  22.983  1.00  0.00     0.018 A 
ATOM     13  Br  UNL A   1      27.428  29.154  23.127  1.00  0.00    -0.051 Br
BRANCH   9  14
ATOM     14  C   UNL A   1      30.918  25.060  23.562  1.00  0.00     0.026 C 
ATOM     15  C   UNL A   1      30.858  24.387  24.732  1.00  0.00     0.050 C 
ATOM     16  C   UNL A   1      30.576  24.951  26.100  1.00  0.00     0.256 C 
ATOM     17  C   UNL A   1      31.621  23.151  24.987  1.00  0.00     0.012 A 
ATOM     18  O   UNL A   1      29.623  25.580  26.486  1.00  0.00    -0.269 OA
ATOM     19  N   UNL A   1      31.609  24.455  26.879  1.00  0.00    -0.321 N 
ATOM     20  C   UNL A   1      32.200  23.366  26.246  1.00  0.00     0.049 A 
ATOM     21  C   UNL A   1      31.772  21.925  24.367  1.00  0.00     0.026 A 
ATOM     22  H   UNL A   1      31.884  24.818  27.752  1.00  0.00     0.170 HD
ATOM     23  C   UNL A   1      33.092  22.491  26.819  1.00  0.00     0.028 A 
ATOM     24  C   UNL A   1      32.604  20.982  24.992  1.00  0.00     0.018 A 
ATOM     25  C   UNL A   1      33.310  21.284  26.170  1.00  0.00     0.018 A 
ATOM     26  Br  UNL A   1      32.726  19.223  24.303  1.00  0.00    -0.051 Br
ENDBRANCH   9  14
ENDBRANCH   6   7
ENDBRANCH   5   6
ENDBRANCH   3   5
ENDBRANCH   2   3
ENDBRANCH   1   2
BRANCH   1  27
ATOM     27  C   UNL A   1      31.776  30.180  26.287  1.00  0.00     0.275 C 
BRANCH  27  28
ATOM     28  O   UNL A   1      33.170  30.539  26.311  1.00  0.00    -0.458 OA
BRANCH  28  29
ATOM     29  C   UNL A   1      33.511  31.573  27.124  1.00  0.00     0.338 C 
ATOM     30  O   UNL A   1      32.847  32.561  27.376  1.00  0.00    -0.246 OA
BRANCH  29  31
ATOM     31  C   UNL A   1      34.773  31.214  27.812  1.00  0.00     0.060 A 
ATOM     32  C   UNL A   1      35.760  32.174  28.055  1.00  0.00     0.016 A 
ATOM     33  C   UNL A   1      34.986  29.881  28.180  1.00  0.00     0.016 A 
ATOM     34  C   UNL A   1      36.956  31.798  28.666  1.00  0.00     0.010 A 
ATOM     35  C   UNL A   1      36.184  29.504  28.796  1.00  0.00     0.010 A 
ATOM     36  C   UNL A   1      37.174  30.462  29.052  1.00  0.00    -0.014 A 
BRANCH  36  37
ATOM     37  C   UNL A   1      38.375  30.129  29.855  1.00  0.00     0.031 A 
ATOM     38  C   UNL A   1      38.574  30.645  31.248  1.00  0.00     0.074 A 
ATOM     39  C   UNL A   1      39.300  29.322  29.300  1.00  0.00     0.049 A 
ATOM     40  N   UNL A   1      39.504  30.320  32.112  1.00  0.00    -0.248 NA
ATOM     41  C   UNL A   1      37.622  31.651  31.740  1.00  0.00     0.031 C 
ATOM     42  C   UNL A   1      39.248  28.807  27.932  1.00  0.00     0.029 A 
ATOM     43  N   UNL A   1      40.451  28.786  29.818  1.00  0.00    -0.354 N 
ATOM     44  C   UNL A   1      39.258  31.081  33.243  1.00  0.00     0.074 A 
ATOM     45  C   UNL A   1      38.094  31.896  32.960  1.00  0.00     0.031 C 
ATOM     46  C   UNL A   1      40.304  28.006  27.726  1.00  0.00     0.029 A 
ATOM     47  C   UNL A   1      41.110  27.958  28.944  1.00  0.00     0.049 A 
ATOM     48  H   UNL A   1      40.774  28.976  30.729  1.00  0.00     0.167 HD
ATOM     49  C   UNL A   1      39.936  31.079  34.415  1.00  0.00     0.037 A 
ATOM     50  C   UNL A   1      42.228  27.226  29.105  1.00  0.00     0.037 A 
ATOM     51  C   UNL A   1      41.054  30.227  34.720  1.00  0.00     0.049 A 
ATOM     52  C   UNL A   1      42.926  27.214  30.434  1.00  0.00     0.074 A 
ATOM     53  C   UNL A   1      41.700  30.066  35.934  1.00  0.00     0.029 A 
ATOM     54  N   UNL A   1      41.692  29.401  33.811  1.00  0.00    -0.354 N 
ATOM     55  N   UNL A   1      42.594  27.827  31.543  1.00  0.00    -0.248 NA
ATOM     56  C   UNL A   1      44.147  26.401  30.539  1.00  0.00     0.031 C 
ATOM     57  C   UNL A   1      42.747  29.160  35.754  1.00  0.00     0.029 A 
ATOM     58  C   UNL A   1      42.745  28.750  34.432  1.00  0.00     0.049 A 
ATOM     59  H   UNL A   1      41.436  29.294  32.867  1.00  0.00     0.167 HD
ATOM     60  C   UNL A   1      43.550  27.461  32.480  1.00  0.00     0.074 A 
ATOM     61  C   UNL A   1      44.470  26.563  31.817  1.00  0.00     0.031 C 
ATOM     62  C   UNL A   1      43.651  27.846  33.774  1.00  0.00     0.037 A 
BRANCH  49  63
ATOM     63  C   UNL A   1      39.470  31.981  35.510  1.00  0.00     0.064 A 
ATOM     64  C   UNL A   1      38.516  31.531  36.428  1.00  0.00     0.173 A 
ATOM     65  C   UNL A   1      40.081  33.220  35.743  1.00  0.00     0.173 A 
ATOM     66  F   UNL A   1      37.931  30.335  36.260  1.00  0.00    -0.203 F 
ATOM     67  C   UNL A   1      38.175  32.298  37.538  1.00  0.00     0.198 A 
ATOM     68  C   UNL A   1      39.734  33.986  36.854  1.00  0.00     0.198 A 
ATOM     69  F   UNL A   1      41.032  33.671  34.912  1.00  0.00    -0.203 F 
ATOM     70  F   UNL A   1      37.260  31.848  38.409  1.00  0.00    -0.200 F 
ATOM     71  C   UNL A   1      38.778  33.526  37.748  1.00  0.00     0.200 A 
ATOM     72  F   UNL A   1      40.337  35.163  37.073  1.00  0.00    -0.200 F 
ATOM     73  F   UNL A   1      38.437  34.264  38.813  1.00  0.00    -0.200 F 
ENDBRANCH  49  63
BRANCH  50  74
ATOM     74  C   UNL A   1      42.718  26.399  27.976  1.00  0.00     0.064 A 
ATOM     75  C   UNL A   1      43.596  26.933  27.024  1.00  0.00     0.173 A 
ATOM     76  C   UNL A   1      42.356  25.050  27.854  1.00  0.00     0.173 A 
ATOM     77  F   UNL A   1      43.956  28.223  27.095  1.00  0.00    -0.203 F 
ATOM     78  C   UNL A   1      44.092  26.147  25.987  1.00  0.00     0.198 A 
ATOM     79  C   UNL A   1      42.869  24.260  26.829  1.00  0.00     0.198 A 
ATOM     80  F   UNL A   1      41.524  24.496  28.747  1.00  0.00    -0.203 F 
ATOM     81  F   UNL A   1      44.913  26.686  25.076  1.00  0.00    -0.200 F 
ATOM     82  C   UNL A   1      43.735  24.810  25.895  1.00  0.00     0.200 A 
ATOM     83  F   UNL A   1      42.533  22.965  26.751  1.00  0.00    -0.200 F 
ATOM     84  F   UNL A   1      44.224  24.052  24.905  1.00  0.00    -0.200 F 
ENDBRANCH  50  74
BRANCH  62  85
ATOM     85  C   UNL A   1      44.793  27.310  34.583  1.00  0.00     0.064 A 
ATOM     86  C   UNL A   1      44.665  26.120  35.311  1.00  0.00     0.173 A 
ATOM     87  C   UNL A   1      46.053  27.925  34.536  1.00  0.00     0.173 A 
ATOM     88  F   UNL A   1      43.477  25.501  35.389  1.00  0.00    -0.203 F 
ATOM     89  C   UNL A   1      45.760  25.560  35.963  1.00  0.00     0.198 A 
ATOM     90  C   UNL A   1      47.151  27.351  35.171  1.00  0.00     0.198 A 
ATOM     91  F   UNL A   1      46.226  29.059  33.842  1.00  0.00    -0.203 F 
ATOM     92  F   UNL A   1      45.613  24.427  36.663  1.00  0.00    -0.200 F 
ATOM     93  C   UNL A   1      47.003  26.170  35.883  1.00  0.00     0.200 A 
ATOM     94  F   UNL A   1      48.355  27.932  35.079  1.00  0.00    -0.200 F 
ATOM     95  F   UNL A   1      48.062  25.616  36.489  1.00  0.00    -0.200 F 
ENDBRANCH  62  85
ENDBRANCH  36  37
ENDBRANCH  29  31
ENDBRANCH  28  29
ENDBRANCH  27  28
ENDBRANCH   1  27
TORSDOF 14
ENDMDL
MODEL 3
REMARK VINA RESULT:     -12.4      4.198      9.647
REMARK SMILES O=C(COc1ccc(Br)cc1/C=C1\C(=O)Nc2ccc(Br)cc21)OCCOC(=O)c1ccc(-c2c3nc(c(-c4c(F)c(F)c(F)c(F)c4F)c4ccc([nH]4)c(-c4c(F)c(F)c(F)c(F)c4F)c4nc(c(-c5c(F)c(F)c(F)c(F)c5F)c5ccc2[nH]5)C=C4)C=C3)cc1
REMARK SMILES IDX 25 1 24 2 2 3 1 4 3 5 4 6 5 7 6 8 11 9 7 10 10 11 8 12 9 13
REMARK SMILES IDX 12 14 13 15 14 16 23 17 15 18 16 19 17 20 22 21 18 23 20 24
REMARK SMILES IDX 19 25 21 26 26 27 27 28 28 29 29 30 30 31 31 32 92 33 32 34
REMARK SMILES IDX 91 35 33 36 34 37 35 38 85 39 36 40 90 41 84 42 86 43 37 44
REMARK SMILES IDX 89 45 83 46 82 47 38 49 70 50 50 51 69 52 51 53 54 54 68 55
REMARK SMILES IDX 87 56 52 57 53 58 67 60 88 61 55 62 39 63 40 64 48 65 41 66
REMARK SMILES IDX 42 67 46 68 49 69 43 70 44 71 47 72 45 73 71 74 72 75 80 76
REMARK SMILES IDX 73 77 74 78 78 79 81 80 75 81 76 82 79 83 77 84 56 85 57 86
REMARK SMILES IDX 65 87 58 88 59 89 63 90 66 91 60 92 61 93 64 94 62 95
REMARK H PARENT 16 22 86 48 54 59
REMARK Flexibility Score: inf
ROOT
ATOM      1  C   UNL A   1      35.966  22.181  24.160  1.00  0.00     0.274 C 
ENDROOT
BRANCH   1   2
ATOM      2  O   UNL A   1      36.130  23.472  24.783  1.00  0.00    -0.460 OA
BRANCH   2   3
ATOM      3  C   UNL A   1      35.154  24.047  25.527  1.00  0.00     0.344 C 
ATOM      4  O   UNL A   1      34.822  25.214  25.323  1.00  0.00    -0.248 OA
BRANCH   3   5
ATOM      5  C   UNL A   1      34.420  23.177  26.552  1.00  0.00     0.352 C 
BRANCH   5   6
ATOM      6  O   UNL A   1      33.002  23.041  26.388  1.00  0.00    -0.481 OA
BRANCH   6   7
ATOM      7  C   UNL A   1      32.720  21.924  25.625  1.00  0.00     0.127 A 
ATOM      8  C   UNL A   1      33.168  20.680  26.110  1.00  0.00     0.048 A 
ATOM      9  C   UNL A   1      32.061  22.038  24.381  1.00  0.00     0.018 A 
ATOM     10  C   UNL A   1      33.139  19.552  25.302  1.00  0.00     0.019 A 
ATOM     11  C   UNL A   1      32.081  20.878  23.588  1.00  0.00     0.027 A 
ATOM     12  C   UNL A   1      32.623  19.667  24.028  1.00  0.00     0.018 A 
ATOM     13  Br  UNL A   1      32.654  18.179  22.859  1.00  0.00    -0.051 Br
BRANCH   9  14
ATOM     14  C   UNL A   1      31.464  23.335  23.926  1.00  0.00     0.026 C 
ATOM     15  C   UNL A   1      31.910  24.245  23.032  1.00  0.00     0.050 C 
ATOM     16  C   UNL A   1      33.211  24.223  22.274  1.00  0.00     0.256 C 
ATOM     17  C   UNL A   1      31.528  25.668  23.078  1.00  0.00     0.012 A 
ATOM     18  O   UNL A   1      33.652  23.377  21.536  1.00  0.00    -0.269 OA
ATOM     19  N   UNL A   1      33.743  25.482  22.499  1.00  0.00    -0.321 N 
ATOM     20  C   UNL A   1      32.745  26.349  22.931  1.00  0.00     0.049 A 
ATOM     21  C   UNL A   1      30.346  26.385  23.116  1.00  0.00     0.026 A 
ATOM     22  H   UNL A   1      34.688  25.728  22.370  1.00  0.00     0.170 HD
ATOM     23  C   UNL A   1      32.855  27.715  23.030  1.00  0.00     0.028 A 
ATOM     24  C   UNL A   1      30.439  27.786  23.118  1.00  0.00     0.018 A 
ATOM     25  C   UNL A   1      31.680  28.446  23.142  1.00  0.00     0.018 A 
ATOM     26  Br  UNL A   1      28.870  28.838  22.992  1.00  0.00    -0.051 Br
ENDBRANCH   9  14
ENDBRANCH   6   7
ENDBRANCH   5   6
ENDBRANCH   3   5
ENDBRANCH   2   3
ENDBRANCH   1   2
BRANCH   1  27
ATOM     27  C   UNL A   1      37.069  21.231  24.632  1.00  0.00     0.275 C 
BRANCH  27  28
ATOM     28  O   UNL A   1      37.598  21.715  25.881  1.00  0.00    -0.458 OA
BRANCH  28  29
ATOM     29  C   UNL A   1      38.910  21.458  26.119  1.00  0.00     0.338 C 
ATOM     30  O   UNL A   1      39.521  20.440  25.850  1.00  0.00    -0.246 OA
BRANCH  29  31
ATOM     31  C   UNL A   1      39.538  22.709  26.605  1.00  0.00     0.060 A 
ATOM     32  C   UNL A   1      40.577  22.678  27.539  1.00  0.00     0.016 A 
ATOM     33  C   UNL A   1      39.044  23.935  26.145  1.00  0.00     0.016 A 
ATOM     34  C   UNL A   1      41.119  23.874  28.010  1.00  0.00     0.010 A 
ATOM     35  C   UNL A   1      39.590  25.134  26.615  1.00  0.00     0.010 A 
ATOM     36  C   UNL A   1      40.638  25.111  27.545  1.00  0.00    -0.014 A 
BRANCH  36  37
ATOM     37  C   UNL A   1      41.351  26.354  27.929  1.00  0.00     0.031 A 
ATOM     38  C   UNL A   1      42.754  26.640  27.488  1.00  0.00     0.074 A 
ATOM     39  C   UNL A   1      40.690  27.249  28.687  1.00  0.00     0.049 A 
ATOM     40  N   UNL A   1      43.444  27.744  27.632  1.00  0.00    -0.248 NA
ATOM     41  C   UNL A   1      43.484  25.560  26.806  1.00  0.00     0.031 C 
ATOM     42  C   UNL A   1      39.344  27.057  29.229  1.00  0.00     0.029 A 
ATOM     43  N   UNL A   1      41.053  28.499  29.123  1.00  0.00    -0.354 N 
ATOM     44  C   UNL A   1      44.685  27.496  27.068  1.00  0.00     0.074 A 
ATOM     45  C   UNL A   1      44.665  26.131  26.585  1.00  0.00     0.031 C 
ATOM     46  C   UNL A   1      38.982  28.160  29.900  1.00  0.00     0.029 A 
ATOM     47  C   UNL A   1      40.071  29.132  29.844  1.00  0.00     0.049 A 
ATOM     48  H   UNL A   1      41.931  28.902  28.937  1.00  0.00     0.167 HD
ATOM     49  C   UNL A   1      45.735  28.344  26.952  1.00  0.00     0.037 A 
ATOM     50  C   UNL A   1      40.040  30.364  30.386  1.00  0.00     0.037 A 
ATOM     51  C   UNL A   1      45.735  29.718  27.378  1.00  0.00     0.049 A 
ATOM     52  C   UNL A   1      41.205  31.292  30.197  1.00  0.00     0.074 A 
ATOM     53  C   UNL A   1      46.710  30.678  27.163  1.00  0.00     0.029 A 
ATOM     54  N   UNL A   1      44.725  30.325  28.102  1.00  0.00    -0.354 N 
ATOM     55  N   UNL A   1      42.315  31.092  29.531  1.00  0.00    -0.248 NA
ATOM     56  C   UNL A   1      41.109  32.619  30.822  1.00  0.00     0.031 C 
ATOM     57  C   UNL A   1      46.300  31.862  27.780  1.00  0.00     0.029 A 
ATOM     58  C   UNL A   1      45.067  31.641  28.368  1.00  0.00     0.049 A 
ATOM     59  H   UNL A   1      43.890  29.887  28.385  1.00  0.00     0.167 HD
ATOM     60  C   UNL A   1      43.041  32.269  29.642  1.00  0.00     0.074 A 
ATOM     61  C   UNL A   1      42.243  33.186  30.427  1.00  0.00     0.031 C 
ATOM     62  C   UNL A   1      44.265  32.555  29.138  1.00  0.00     0.037 A 
BRANCH  49  63
ATOM     63  C   UNL A   1      46.977  27.853  26.284  1.00  0.00     0.064 A 
ATOM     64  C   UNL A   1      48.001  27.283  27.047  1.00  0.00     0.173 A 
ATOM     65  C   UNL A   1      47.081  27.801  24.888  1.00  0.00     0.173 A 
ATOM     66  F   UNL A   1      47.923  27.284  28.387  1.00  0.00    -0.203 F 
ATOM     67  C   UNL A   1      49.100  26.689  26.435  1.00  0.00     0.198 A 
ATOM     68  C   UNL A   1      48.186  27.207  24.280  1.00  0.00     0.198 A 
ATOM     69  F   UNL A   1      46.102  28.296  24.119  1.00  0.00    -0.203 F 
ATOM     70  F   UNL A   1      50.071  26.146  27.183  1.00  0.00    -0.200 F 
ATOM     71  C   UNL A   1      49.196  26.656  25.055  1.00  0.00     0.200 A 
ATOM     72  F   UNL A   1      48.267  27.150  22.944  1.00  0.00    -0.200 F 
ATOM     73  F   UNL A   1      50.263  26.091  24.473  1.00  0.00    -0.200 F 
ENDBRANCH  49  63
BRANCH  50  74
ATOM     74  C   UNL A   1      38.824  30.801  31.115  1.00  0.00     0.064 A 
ATOM     75  C   UNL A   1      38.740  30.674  32.507  1.00  0.00     0.173 A 
ATOM     76  C   UNL A   1      37.748  31.393  30.441  1.00  0.00     0.173 A 
ATOM     77  F   UNL A   1      39.742  30.099  33.189  1.00  0.00    -0.203 F 
ATOM     78  C   UNL A   1      37.619  31.123  33.200  1.00  0.00     0.198 A 
ATOM     79  C   UNL A   1      36.636  31.860  31.138  1.00  0.00     0.198 A 
ATOM     80  F   UNL A   1      37.789  31.541  29.109  1.00  0.00    -0.203 F 
ATOM     81  F   UNL A   1      37.551  30.972  34.530  1.00  0.00    -0.200 F 
ATOM     82  C   UNL A   1      36.572  31.722  32.516  1.00  0.00     0.200 A 
ATOM     83  F   UNL A   1      35.633  32.452  30.475  1.00  0.00    -0.200 F 
ATOM     84  F   UNL A   1      35.499  32.166  33.186  1.00  0.00    -0.200 F 
ENDBRANCH  50  74
BRANCH  62  85
ATOM     85  C   UNL A   1      44.840  33.912  29.407  1.00  0.00     0.064 A 
ATOM     86  C   UNL A   1      45.693  34.130  30.498  1.00  0.00     0.173 A 
ATOM     87  C   UNL A   1      44.633  34.969  28.508  1.00  0.00     0.173 A 
ATOM     88  F   UNL A   1      45.915  33.150  31.388  1.00  0.00    -0.203 F 
ATOM     89  C   UNL A   1      46.321  35.358  30.679  1.00  0.00     0.198 A 
ATOM     90  C   UNL A   1      45.280  36.189  28.679  1.00  0.00     0.198 A 
ATOM     91  F   UNL A   1      43.835  34.802  27.443  1.00  0.00    -0.203 F 
ATOM     92  F   UNL A   1      47.124  35.550  31.734  1.00  0.00    -0.200 F 
ATOM     93  C   UNL A   1      46.123  36.382  29.763  1.00  0.00     0.200 A 
ATOM     94  F   UNL A   1      45.101  37.171  27.785  1.00  0.00    -0.200 F 
ATOM     95  F   UNL A   1      46.750  37.556  29.924  1.00  0.00    -0.200 F 
ENDBRANCH  62  85
ENDBRANCH  36  37
ENDBRANCH  29  31
ENDBRANCH  28  29
ENDBRANCH  27  28
ENDBRANCH   1  27
TORSDOF 14
ENDMDL
