MODEL 1
REMARK VINA RESULT:     -11.2      0.000      0.000
REMARK SMILES C[C@@H](C(=O)OCCOC(=O)c1ccc(-c2c3nc(c(-c4c(F)c(F)c(F)c(F)c4F)c4ccc([nH]4)c(-c4c(F)c(F)c(F)c(F)c4F)c4nc(c(-c5c(F)c(F)c(F)c(F)c5F)c5ccc2[nH]5)C=C4)C=C3)cc1)[C@@H](N[S@](=O)C(C)(C)C)C(C)(C)C
REMARK SMILES IDX 6 1 5 2 3 3 4 4 2 5 1 6 74 7 75 8 76 10 77 11 78 12 79 13
REMARK SMILES IDX 80 14 81 15 82 16 83 17 84 18 85 19 7 20 8 21 9 22 10 23
REMARK SMILES IDX 11 24 12 25 73 26 13 27 72 28 14 29 15 30 16 31 66 32 17 33
REMARK SMILES IDX 71 34 65 35 67 36 18 37 70 38 64 39 63 40 19 42 51 43 31 44
REMARK SMILES IDX 50 45 32 46 35 47 49 48 68 49 33 50 34 51 48 53 69 54 36 55
REMARK SMILES IDX 20 56 21 57 29 58 22 59 23 60 27 61 30 62 24 63 25 64 28 65
REMARK SMILES IDX 26 66 52 67 53 68 61 69 54 70 55 71 59 72 62 73 56 74 57 75
REMARK SMILES IDX 60 76 58 77 37 78 38 79 46 80 39 81 40 82 44 83 47 84 41 85
REMARK SMILES IDX 42 86 45 87 43 88
REMARK H PARENT 75 9 67 41 35 52
REMARK Flexibility Score: inf
ROOT
ATOM      1  C   UNL A   1      31.691  28.603  25.223  1.00  0.00     0.274 C 
ENDROOT
BRANCH   1   2
ATOM      2  O   UNL A   1      32.279  27.750  26.231  1.00  0.00    -0.462 OA
BRANCH   2   3
ATOM      3  C   UNL A   1      31.703  26.517  26.322  1.00  0.00     0.310 C 
ATOM      4  O   UNL A   1      30.518  26.382  26.529  1.00  0.00    -0.252 OA
BRANCH   3   5
ATOM      5  C   UNL A   1      32.704  25.357  26.196  1.00  0.00     0.114 C 
ATOM      6  C   UNL A   1      34.070  25.949  25.775  1.00  0.00     0.022 C 
BRANCH   5   7
ATOM      7  C   UNL A   1      32.136  24.150  25.258  1.00  0.00     0.086 C 
BRANCH   7   8
ATOM      8  N   UNL A   1      33.031  23.979  24.085  1.00  0.00    -0.233 NA
ATOM      9  H   UNL A   1      33.561  23.139  24.320  1.00  0.00     0.138 HD
BRANCH   8  10
ATOM     10  S   UNL A   1      32.777  23.816  22.461  1.00  0.00     0.097 S 
ATOM     11  O   UNL A   1      34.031  23.338  21.794  1.00  0.00    -0.242 OA
BRANCH  10  12
ATOM     12  C   UNL A   1      32.469  25.563  21.888  1.00  0.00     0.052 C 
ATOM     13  C   UNL A   1      31.185  26.170  22.445  1.00  0.00     0.027 C 
ATOM     14  C   UNL A   1      33.649  26.447  22.352  1.00  0.00     0.027 C 
ATOM     15  C   UNL A   1      32.512  25.591  20.357  1.00  0.00     0.027 C 
ENDBRANCH  10  12
ENDBRANCH   8  10
ENDBRANCH   7   8
BRANCH   7  16
ATOM     16  C   UNL A   1      31.761  22.819  26.111  1.00  0.00    -0.021 C 
ATOM     17  C   UNL A   1      32.607  22.699  27.406  1.00  0.00     0.012 C 
ATOM     18  C   UNL A   1      30.314  22.797  26.643  1.00  0.00     0.012 C 
ATOM     19  C   UNL A   1      31.957  21.521  25.310  1.00  0.00     0.012 C 
ENDBRANCH   7  16
ENDBRANCH   5   7
ENDBRANCH   3   5
ENDBRANCH   2   3
ENDBRANCH   1   2
BRANCH   1  20
ATOM     20  C   UNL A   1      31.779  30.089  25.595  1.00  0.00     0.275 C 
BRANCH  20  21
ATOM     21  O   UNL A   1      32.262  30.276  26.945  1.00  0.00    -0.458 OA
BRANCH  21  22
ATOM     22  C   UNL A   1      32.962  31.408  27.197  1.00  0.00     0.338 C 
ATOM     23  O   UNL A   1      32.531  32.552  27.184  1.00  0.00    -0.246 OA
BRANCH  22  24
ATOM     24  C   UNL A   1      34.364  31.103  27.572  1.00  0.00     0.060 A 
ATOM     25  C   UNL A   1      34.730  29.787  27.788  1.00  0.00     0.016 A 
ATOM     26  C   UNL A   1      35.274  32.107  27.904  1.00  0.00     0.016 A 
ATOM     27  C   UNL A   1      35.918  29.473  28.441  1.00  0.00     0.010 A 
ATOM     28  C   UNL A   1      36.519  31.778  28.488  1.00  0.00     0.010 A 
ATOM     29  C   UNL A   1      36.834  30.451  28.838  1.00  0.00    -0.014 A 
BRANCH  29  30
ATOM     30  C   UNL A   1      37.995  30.071  29.726  1.00  0.00     0.031 A 
ATOM     31  C   UNL A   1      39.157  29.271  29.165  1.00  0.00     0.074 A 
ATOM     32  C   UNL A   1      38.145  30.569  30.975  1.00  0.00     0.049 A 
ATOM     33  N   UNL A   1      40.191  28.753  29.788  1.00  0.00    -0.248 NA
ATOM     34  C   UNL A   1      39.176  29.047  27.711  1.00  0.00     0.031 C 
ATOM     35  C   UNL A   1      37.225  31.491  31.643  1.00  0.00     0.029 A 
ATOM     36  N   UNL A   1      39.171  30.427  31.890  1.00  0.00    -0.354 N 
ATOM     37  C   UNL A   1      40.934  28.088  28.818  1.00  0.00     0.074 A 
ATOM     38  C   UNL A   1      40.256  28.296  27.557  1.00  0.00     0.031 C 
ATOM     39  C   UNL A   1      37.776  31.917  32.789  1.00  0.00     0.029 A 
ATOM     40  C   UNL A   1      39.007  31.176  33.034  1.00  0.00     0.049 A 
ATOM     41  H   UNL A   1      39.949  29.843  31.736  1.00  0.00     0.167 HD
ATOM     42  C   UNL A   1      42.064  27.352  28.962  1.00  0.00     0.037 A 
ATOM     43  C   UNL A   1      39.716  31.222  34.183  1.00  0.00     0.037 A 
ATOM     44  C   UNL A   1      42.782  27.173  30.197  1.00  0.00     0.049 A 
ATOM     45  C   UNL A   1      40.893  30.300  34.364  1.00  0.00     0.074 A 
ATOM     46  C   UNL A   1      43.880  26.368  30.451  1.00  0.00     0.029 A 
ATOM     47  N   UNL A   1      42.489  27.829  31.381  1.00  0.00    -0.354 N 
ATOM     48  N   UNL A   1      41.483  29.525  33.488  1.00  0.00    -0.248 NA
ATOM     49  C   UNL A   1      41.472  30.220  35.715  1.00  0.00     0.031 C 
ATOM     50  C   UNL A   1      44.217  26.495  31.803  1.00  0.00     0.029 A 
ATOM     51  C   UNL A   1      43.369  27.426  32.375  1.00  0.00     0.049 A 
ATOM     52  H   UNL A   1      41.764  28.484  31.500  1.00  0.00     0.167 HD
ATOM     53  C   UNL A   1      42.493  28.866  34.179  1.00  0.00     0.074 A 
ATOM     54  C   UNL A   1      42.467  29.362  35.538  1.00  0.00     0.031 C 
ATOM     55  C   UNL A   1      43.348  27.917  33.728  1.00  0.00     0.037 A 
BRANCH  42  56
ATOM     56  C   UNL A   1      42.546  26.587  27.761  1.00  0.00     0.064 A 
ATOM     57  C   UNL A   1      42.085  25.301  27.448  1.00  0.00     0.173 A 
ATOM     58  C   UNL A   1      43.476  27.181  26.893  1.00  0.00     0.173 A 
ATOM     59  F   UNL A   1      41.211  24.682  28.255  1.00  0.00    -0.203 F 
ATOM     60  C   UNL A   1      42.557  24.630  26.321  1.00  0.00     0.198 A 
ATOM     61  C   UNL A   1      43.922  26.521  25.754  1.00  0.00     0.198 A 
ATOM     62  F   UNL A   1      43.944  28.414  27.147  1.00  0.00    -0.203 F 
ATOM     63  F   UNL A   1      42.142  23.383  26.062  1.00  0.00    -0.200 F 
ATOM     64  C   UNL A   1      43.470  25.243  25.472  1.00  0.00     0.200 A 
ATOM     65  F   UNL A   1      44.793  27.122  24.930  1.00  0.00    -0.200 F 
ATOM     66  F   UNL A   1      43.917  24.596  24.387  1.00  0.00    -0.200 F 
ENDBRANCH  42  56
BRANCH  43  67
ATOM     67  C   UNL A   1      39.271  32.091  35.313  1.00  0.00     0.064 A 
ATOM     68  C   UNL A   1      39.727  33.412  35.443  1.00  0.00     0.173 A 
ATOM     69  C   UNL A   1      38.425  31.600  36.321  1.00  0.00     0.173 A 
ATOM     70  F   UNL A   1      40.575  33.920  34.536  1.00  0.00    -0.203 F 
ATOM     71  C   UNL A   1      39.360  34.200  36.534  1.00  0.00     0.198 A 
ATOM     72  C   UNL A   1      38.021  32.403  37.385  1.00  0.00     0.198 A 
ATOM     73  F   UNL A   1      37.978  30.337  36.269  1.00  0.00    -0.203 F 
ATOM     74  F   UNL A   1      39.860  35.435  36.665  1.00  0.00    -0.200 F 
ATOM     75  C   UNL A   1      38.497  33.698  37.497  1.00  0.00     0.200 A 
ATOM     76  F   UNL A   1      37.175  31.915  38.302  1.00  0.00    -0.200 F 
ATOM     77  F   UNL A   1      38.138  34.458  38.541  1.00  0.00    -0.200 F 
ENDBRANCH  43  67
BRANCH  55  78
ATOM     78  C   UNL A   1      44.343  27.354  34.704  1.00  0.00     0.064 A 
ATOM     79  C   UNL A   1      45.576  27.981  34.939  1.00  0.00     0.173 A 
ATOM     80  C   UNL A   1      44.045  26.201  35.445  1.00  0.00     0.173 A 
ATOM     81  F   UNL A   1      45.918  29.079  34.246  1.00  0.00    -0.203 F 
ATOM     82  C   UNL A   1      46.483  27.460  35.859  1.00  0.00     0.198 A 
ATOM     83  C   UNL A   1      44.940  25.700  36.387  1.00  0.00     0.198 A 
ATOM     84  F   UNL A   1      42.877  25.565  35.266  1.00  0.00    -0.203 F 
ATOM     85  F   UNL A   1      47.674  28.050  36.031  1.00  0.00    -0.200 F 
ATOM     86  C   UNL A   1      46.161  26.326  36.588  1.00  0.00     0.200 A 
ATOM     87  F   UNL A   1      44.621  24.611  37.100  1.00  0.00    -0.200 F 
ATOM     88  F   UNL A   1      47.031  25.831  37.479  1.00  0.00    -0.200 F 
ENDBRANCH  55  78
ENDBRANCH  29  30
ENDBRANCH  22  24
ENDBRANCH  21  22
ENDBRANCH  20  21
ENDBRANCH   1  20
TORSDOF 16
ENDMDL
MODEL 2
REMARK VINA RESULT:     -11.1      1.076      2.631
REMARK SMILES C[C@@H](C(=O)OCCOC(=O)c1ccc(-c2c3nc(c(-c4c(F)c(F)c(F)c(F)c4F)c4ccc([nH]4)c(-c4c(F)c(F)c(F)c(F)c4F)c4nc(c(-c5c(F)c(F)c(F)c(F)c5F)c5ccc2[nH]5)C=C4)C=C3)cc1)[C@@H](N[S@](=O)C(C)(C)C)C(C)(C)C
REMARK SMILES IDX 6 1 5 2 3 3 4 4 2 5 1 6 74 7 75 8 76 10 77 11 78 12 79 13
REMARK SMILES IDX 80 14 81 15 82 16 83 17 84 18 85 19 7 20 8 21 9 22 10 23
REMARK SMILES IDX 11 24 12 25 73 26 13 27 72 28 14 29 15 30 16 31 66 32 17 33
REMARK SMILES IDX 71 34 65 35 67 36 18 37 70 38 64 39 63 40 19 42 51 43 31 44
REMARK SMILES IDX 50 45 32 46 35 47 49 48 68 49 33 50 34 51 48 53 69 54 36 55
REMARK SMILES IDX 20 56 21 57 29 58 22 59 23 60 27 61 30 62 24 63 25 64 28 65
REMARK SMILES IDX 26 66 52 67 53 68 61 69 54 70 55 71 59 72 62 73 56 74 57 75
REMARK SMILES IDX 60 76 58 77 37 78 38 79 46 80 39 81 40 82 44 83 47 84 41 85
REMARK SMILES IDX 42 86 45 87 43 88
REMARK H PARENT 75 9 67 41 35 52
REMARK Flexibility Score: inf
ROOT
ATOM      1  C   UNL A   1      31.732  29.565  25.121  1.00  0.00     0.274 C 
ENDROOT
BRANCH   1   2
ATOM      2  O   UNL A   1      32.312  28.453  25.841  1.00  0.00    -0.462 OA
BRANCH   2   3
ATOM      3  C   UNL A   1      31.435  27.442  26.105  1.00  0.00     0.310 C 
ATOM      4  O   UNL A   1      31.026  27.231  27.224  1.00  0.00    -0.252 OA
BRANCH   3   5
ATOM      5  C   UNL A   1      31.081  26.593  24.873  1.00  0.00     0.114 C 
ATOM      6  C   UNL A   1      29.647  26.046  25.066  1.00  0.00     0.022 C 
BRANCH   5   7
ATOM      7  C   UNL A   1      32.225  25.481  24.538  1.00  0.00     0.086 C 
BRANCH   7   8
ATOM      8  N   UNL A   1      31.697  24.128  24.848  1.00  0.00    -0.233 NA
ATOM      9  H   UNL A   1      32.121  23.544  24.127  1.00  0.00     0.138 HD
BRANCH   8  10
ATOM     10  S   UNL A   1      31.738  23.157  26.184  1.00  0.00     0.097 S 
ATOM     11  O   UNL A   1      31.683  23.996  27.425  1.00  0.00    -0.242 OA
BRANCH  10  12
ATOM     12  C   UNL A   1      33.429  22.379  26.109  1.00  0.00     0.052 C 
ATOM     13  C   UNL A   1      33.702  21.637  24.803  1.00  0.00     0.027 C 
ATOM     14  C   UNL A   1      34.491  23.494  26.249  1.00  0.00     0.027 C 
ATOM     15  C   UNL A   1      33.612  21.482  27.337  1.00  0.00     0.027 C 
ENDBRANCH  10  12
ENDBRANCH   8  10
ENDBRANCH   7   8
BRANCH   7  16
ATOM     16  C   UNL A   1      32.905  25.701  23.079  1.00  0.00    -0.021 C 
ATOM     17  C   UNL A   1      33.954  24.606  22.753  1.00  0.00     0.012 C 
ATOM     18  C   UNL A   1      31.918  25.593  21.900  1.00  0.00     0.012 C 
ATOM     19  C   UNL A   1      33.604  27.065  22.947  1.00  0.00     0.012 C 
ENDBRANCH   7  16
ENDBRANCH   5   7
ENDBRANCH   3   5
ENDBRANCH   2   3
ENDBRANCH   1   2
BRANCH   1  20
ATOM     20  C   UNL A   1      31.470  30.773  26.032  1.00  0.00     0.275 C 
BRANCH  20  21
ATOM     21  O   UNL A   1      32.333  30.767  27.191  1.00  0.00    -0.458 OA
BRANCH  21  22
ATOM     22  C   UNL A   1      33.140  31.843  27.363  1.00  0.00     0.338 C 
ATOM     23  O   UNL A   1      32.812  33.019  27.302  1.00  0.00    -0.246 OA
BRANCH  22  24
ATOM     24  C   UNL A   1      34.521  31.431  27.713  1.00  0.00     0.060 A 
ATOM     25  C   UNL A   1      34.777  30.097  27.979  1.00  0.00     0.016 A 
ATOM     26  C   UNL A   1      35.525  32.363  27.974  1.00  0.00     0.016 A 
ATOM     27  C   UNL A   1      35.952  29.708  28.613  1.00  0.00     0.010 A 
ATOM     28  C   UNL A   1      36.755  31.950  28.538  1.00  0.00     0.010 A 
ATOM     29  C   UNL A   1      36.963  30.617  28.939  1.00  0.00    -0.014 A 
BRANCH  29  30
ATOM     30  C   UNL A   1      38.113  30.174  29.811  1.00  0.00     0.031 A 
ATOM     31  C   UNL A   1      39.248  29.354  29.223  1.00  0.00     0.074 A 
ATOM     32  C   UNL A   1      38.283  30.631  31.074  1.00  0.00     0.049 A 
ATOM     33  N   UNL A   1      40.267  28.786  29.827  1.00  0.00    -0.248 NA
ATOM     34  C   UNL A   1      39.256  29.173  27.764  1.00  0.00     0.031 C 
ATOM     35  C   UNL A   1      37.395  31.562  31.772  1.00  0.00     0.029 A 
ATOM     36  N   UNL A   1      39.306  30.429  31.981  1.00  0.00    -0.354 N 
ATOM     37  C   UNL A   1      40.985  28.126  28.836  1.00  0.00     0.074 A 
ATOM     38  C   UNL A   1      40.311  28.393  27.584  1.00  0.00     0.031 C 
ATOM     39  C   UNL A   1      37.962  31.936  32.928  1.00  0.00     0.029 A 
ATOM     40  C   UNL A   1      39.169  31.149  33.147  1.00  0.00     0.049 A 
ATOM     41  H   UNL A   1      40.065  29.826  31.807  1.00  0.00     0.167 HD
ATOM     42  C   UNL A   1      42.091  27.350  28.953  1.00  0.00     0.037 A 
ATOM     43  C   UNL A   1      39.882  31.138  34.294  1.00  0.00     0.037 A 
ATOM     44  C   UNL A   1      42.806  27.113  30.181  1.00  0.00     0.049 A 
ATOM     45  C   UNL A   1      41.030  30.175  34.444  1.00  0.00     0.074 A 
ATOM     46  C   UNL A   1      43.879  26.265  30.407  1.00  0.00     0.029 A 
ATOM     47  N   UNL A   1      42.538  27.742  31.384  1.00  0.00    -0.354 N 
ATOM     48  N   UNL A   1      41.592  29.408  33.543  1.00  0.00    -0.248 NA
ATOM     49  C   UNL A   1      41.610  30.037  35.790  1.00  0.00     0.031 C 
ATOM     50  C   UNL A   1      44.224  26.342  31.761  1.00  0.00     0.029 A 
ATOM     51  C   UNL A   1      43.407  27.283  32.363  1.00  0.00     0.049 A 
ATOM     52  H   UNL A   1      41.835  28.417  31.525  1.00  0.00     0.167 HD
ATOM     53  C   UNL A   1      42.582  28.697  34.211  1.00  0.00     0.074 A 
ATOM     54  C   UNL A   1      42.576  29.153  35.584  1.00  0.00     0.031 C 
ATOM     55  C   UNL A   1      43.405  27.734  33.730  1.00  0.00     0.037 A 
BRANCH  42  56
ATOM     56  C   UNL A   1      42.545  26.606  27.730  1.00  0.00     0.064 A 
ATOM     57  C   UNL A   1      43.524  27.104  26.859  1.00  0.00     0.173 A 
ATOM     58  C   UNL A   1      41.994  25.345  27.446  1.00  0.00     0.173 A 
ATOM     59  F   UNL A   1      44.067  28.312  27.075  1.00  0.00    -0.203 F 
ATOM     60  C   UNL A   1      43.917  26.377  25.737  1.00  0.00     0.198 A 
ATOM     61  C   UNL A   1      42.410  24.609  26.343  1.00  0.00     0.198 A 
ATOM     62  F   UNL A   1      41.057  24.821  28.253  1.00  0.00    -0.203 F 
ATOM     63  F   UNL A   1      44.819  26.890  24.890  1.00  0.00    -0.200 F 
ATOM     64  C   UNL A   1      43.365  25.128  25.484  1.00  0.00     0.200 A 
ATOM     65  F   UNL A   1      41.885  23.397  26.110  1.00  0.00    -0.200 F 
ATOM     66  F   UNL A   1      43.749  24.429  24.406  1.00  0.00    -0.200 F 
ENDBRANCH  42  56
BRANCH  43  67
ATOM     67  C   UNL A   1      39.469  31.988  35.451  1.00  0.00     0.064 A 
ATOM     68  C   UNL A   1      38.551  31.525  36.407  1.00  0.00     0.173 A 
ATOM     69  C   UNL A   1      39.940  33.303  35.594  1.00  0.00     0.173 A 
ATOM     70  F   UNL A   1      38.031  30.293  36.296  1.00  0.00    -0.203 F 
ATOM     71  C   UNL A   1      38.120  32.345  37.450  1.00  0.00     0.198 A 
ATOM     72  C   UNL A   1      39.545  34.104  36.663  1.00  0.00     0.198 A 
ATOM     73  F   UNL A   1      40.797  33.813  34.698  1.00  0.00    -0.203 F 
ATOM     74  F   UNL A   1      37.195  31.899  38.311  1.00  0.00    -0.200 F 
ATOM     75  C   UNL A   1      38.627  33.628  37.584  1.00  0.00     0.200 A 
ATOM     76  F   UNL A   1      40.052  35.337  36.794  1.00  0.00    -0.200 F 
ATOM     77  F   UNL A   1      38.218  34.412  38.591  1.00  0.00    -0.200 F 
ENDBRANCH  43  67
BRANCH  55  78
ATOM     78  C   UNL A   1      44.385  27.111  34.685  1.00  0.00     0.064 A 
ATOM     79  C   UNL A   1      45.635  27.695  34.939  1.00  0.00     0.173 A 
ATOM     80  C   UNL A   1      44.054  25.943  35.388  1.00  0.00     0.173 A 
ATOM     81  F   UNL A   1      46.007  28.806  34.283  1.00  0.00    -0.203 F 
ATOM     82  C   UNL A   1      46.526  27.119  35.841  1.00  0.00     0.198 A 
ATOM     83  C   UNL A   1      44.935  25.386  36.312  1.00  0.00     0.198 A 
ATOM     84  F   UNL A   1      42.869  25.346  35.190  1.00  0.00    -0.203 F 
ATOM     85  F   UNL A   1      47.734  27.669  36.031  1.00  0.00    -0.200 F 
ATOM     86  C   UNL A   1      46.173  25.970  36.532  1.00  0.00     0.200 A 
ATOM     87  F   UNL A   1      44.586  24.284  36.989  1.00  0.00    -0.200 F 
ATOM     88  F   UNL A   1      47.029  25.422  37.405  1.00  0.00    -0.200 F 
ENDBRANCH  55  78
ENDBRANCH  29  30
ENDBRANCH  22  24
ENDBRANCH  21  22
ENDBRANCH  20  21
ENDBRANCH   1  20
TORSDOF 16
ENDMDL
MODEL 3
REMARK VINA RESULT:     -11.0      1.078      2.103
REMARK SMILES C[C@@H](C(=O)OCCOC(=O)c1ccc(-c2c3nc(c(-c4c(F)c(F)c(F)c(F)c4F)c4ccc([nH]4)c(-c4c(F)c(F)c(F)c(F)c4F)c4nc(c(-c5c(F)c(F)c(F)c(F)c5F)c5ccc2[nH]5)C=C4)C=C3)cc1)[C@@H](N[S@](=O)C(C)(C)C)C(C)(C)C
REMARK SMILES IDX 6 1 5 2 3 3 4 4 2 5 1 6 74 7 75 8 76 10 77 11 78 12 79 13
REMARK SMILES IDX 80 14 81 15 82 16 83 17 84 18 85 19 7 20 8 21 9 22 10 23
REMARK SMILES IDX 11 24 12 25 73 26 13 27 72 28 14 29 15 30 16 31 66 32 17 33
REMARK SMILES IDX 71 34 65 35 67 36 18 37 70 38 64 39 63 40 19 42 51 43 31 44
REMARK SMILES IDX 50 45 32 46 35 47 49 48 68 49 33 50 34 51 48 53 69 54 36 55
REMARK SMILES IDX 20 56 21 57 29 58 22 59 23 60 27 61 30 62 24 63 25 64 28 65
REMARK SMILES IDX 26 66 52 67 53 68 61 69 54 70 55 71 59 72 62 73 56 74 57 75
REMARK SMILES IDX 60 76 58 77 37 78 38 79 46 80 39 81 40 82 44 83 47 84 41 85
REMARK SMILES IDX 42 86 45 87 43 88
REMARK H PARENT 75 9 67 41 35 52
REMARK Flexibility Score: inf
ROOT
ATOM      1  C   UNL A   1      31.563  29.785  24.960  1.00  0.00     0.274 C 
ENDROOT
BRANCH   1   2
ATOM      2  O   UNL A   1      32.917  29.712  24.457  1.00  0.00    -0.462 OA
BRANCH   2   3
ATOM      3  C   UNL A   1      33.393  28.441  24.321  1.00  0.00     0.310 C 
ATOM      4  O   UNL A   1      34.325  28.186  23.591  1.00  0.00    -0.252 OA
BRANCH   3   5
ATOM      5  C   UNL A   1      32.605  27.397  25.128  1.00  0.00     0.114 C 
ATOM      6  C   UNL A   1      33.350  27.165  26.464  1.00  0.00     0.022 C 
BRANCH   5   7
ATOM      7  C   UNL A   1      32.279  26.058  24.256  1.00  0.00     0.086 C 
BRANCH   7   8
ATOM      8  N   UNL A   1      33.231  24.983  24.637  1.00  0.00    -0.233 NA
ATOM      9  H   UNL A   1      32.663  24.368  25.220  1.00  0.00     0.138 HD
BRANCH   8  10
ATOM     10  S   UNL A   1      34.168  23.925  23.782  1.00  0.00     0.097 S 
ATOM     11  O   UNL A   1      33.787  23.961  22.333  1.00  0.00    -0.242 OA
BRANCH  10  12
ATOM     12  C   UNL A   1      33.668  22.258  24.450  1.00  0.00     0.052 C 
ATOM     13  C   UNL A   1      32.834  22.338  25.726  1.00  0.00     0.027 C 
ATOM     14  C   UNL A   1      32.824  21.532  23.379  1.00  0.00     0.027 C 
ATOM     15  C   UNL A   1      34.927  21.404  24.630  1.00  0.00     0.027 C 
ENDBRANCH  10  12
ENDBRANCH   8  10
ENDBRANCH   7   8
BRANCH   7  16
ATOM     16  C   UNL A   1      30.697  25.687  24.248  1.00  0.00    -0.021 C 
ATOM     17  C   UNL A   1      30.410  24.378  23.466  1.00  0.00     0.012 C 
ATOM     18  C   UNL A   1      30.111  25.390  25.642  1.00  0.00     0.012 C 
ATOM     19  C   UNL A   1      29.828  26.794  23.629  1.00  0.00     0.012 C 
ENDBRANCH   7  16
ENDBRANCH   5   7
ENDBRANCH   3   5
ENDBRANCH   2   3
ENDBRANCH   1   2
BRANCH   1  20
ATOM     20  C   UNL A   1      31.417  30.818  26.086  1.00  0.00     0.275 C 
BRANCH  20  21
ATOM     21  O   UNL A   1      32.447  30.668  27.088  1.00  0.00    -0.458 OA
BRANCH  21  22
ATOM     22  C   UNL A   1      33.213  31.755  27.351  1.00  0.00     0.338 C 
ATOM     23  O   UNL A   1      32.848  32.922  27.359  1.00  0.00    -0.246 OA
BRANCH  22  24
ATOM     24  C   UNL A   1      34.598  31.364  27.709  1.00  0.00     0.060 A 
ATOM     25  C   UNL A   1      34.880  30.030  27.942  1.00  0.00     0.016 A 
ATOM     26  C   UNL A   1      35.577  32.311  28.011  1.00  0.00     0.016 A 
ATOM     27  C   UNL A   1      36.056  29.649  28.582  1.00  0.00     0.010 A 
ATOM     28  C   UNL A   1      36.808  31.910  28.582  1.00  0.00     0.010 A 
ATOM     29  C   UNL A   1      37.041  30.571  28.948  1.00  0.00    -0.014 A 
BRANCH  29  30
ATOM     30  C   UNL A   1      38.188  30.129  29.824  1.00  0.00     0.031 A 
ATOM     31  C   UNL A   1      39.318  29.298  29.243  1.00  0.00     0.074 A 
ATOM     32  C   UNL A   1      38.360  30.595  31.083  1.00  0.00     0.049 A 
ATOM     33  N   UNL A   1      40.334  28.729  29.852  1.00  0.00    -0.248 NA
ATOM     34  C   UNL A   1      39.326  29.104  27.785  1.00  0.00     0.031 C 
ATOM     35  C   UNL A   1      37.477  31.537  31.773  1.00  0.00     0.029 A 
ATOM     36  N   UNL A   1      39.382  30.396  31.992  1.00  0.00    -0.354 N 
ATOM     37  C   UNL A   1      41.049  28.057  28.867  1.00  0.00     0.074 A 
ATOM     38  C   UNL A   1      40.376  28.317  27.612  1.00  0.00     0.031 C 
ATOM     39  C   UNL A   1      38.046  31.918  32.926  1.00  0.00     0.029 A 
ATOM     40  C   UNL A   1      39.249  31.126  33.151  1.00  0.00     0.049 A 
ATOM     41  H   UNL A   1      40.138  29.787  31.823  1.00  0.00     0.167 HD
ATOM     42  C   UNL A   1      42.151  27.276  28.991  1.00  0.00     0.037 A 
ATOM     43  C   UNL A   1      39.962  31.122  34.299  1.00  0.00     0.037 A 
ATOM     44  C   UNL A   1      42.865  27.046  30.220  1.00  0.00     0.049 A 
ATOM     45  C   UNL A   1      41.104  30.153  34.457  1.00  0.00     0.074 A 
ATOM     46  C   UNL A   1      43.933  26.194  30.454  1.00  0.00     0.029 A 
ATOM     47  N   UNL A   1      42.599  27.687  31.418  1.00  0.00    -0.354 N 
ATOM     48  N   UNL A   1      41.663  29.376  33.563  1.00  0.00    -0.248 NA
ATOM     49  C   UNL A   1      41.683  30.023  35.804  1.00  0.00     0.031 C 
ATOM     50  C   UNL A   1      44.278  26.281  31.807  1.00  0.00     0.029 A 
ATOM     51  C   UNL A   1      43.466  27.231  32.402  1.00  0.00     0.049 A 
ATOM     52  H   UNL A   1      41.900  28.366  31.553  1.00  0.00     0.167 HD
ATOM     53  C   UNL A   1      42.649  28.665  34.237  1.00  0.00     0.074 A 
ATOM     54  C   UNL A   1      42.644  29.133  35.606  1.00  0.00     0.031 C 
ATOM     55  C   UNL A   1      43.467  27.694  33.764  1.00  0.00     0.037 A 
BRANCH  42  56
ATOM     56  C   UNL A   1      42.601  26.519  27.774  1.00  0.00     0.064 A 
ATOM     57  C   UNL A   1      42.099  25.254  27.441  1.00  0.00     0.173 A 
ATOM     58  C   UNL A   1      43.543  27.101  26.910  1.00  0.00     0.173 A 
ATOM     59  F   UNL A   1      41.212  24.647  28.243  1.00  0.00    -0.203 F 
ATOM     60  C   UNL A   1      42.543  24.589  26.298  1.00  0.00     0.198 A 
ATOM     61  C   UNL A   1      43.961  26.448  25.755  1.00  0.00     0.198 A 
ATOM     62  F   UNL A   1      44.050  28.314  27.182  1.00  0.00    -0.203 F 
ATOM     63  F   UNL A   1      42.088  23.360  26.020  1.00  0.00    -0.200 F 
ATOM     64  C   UNL A   1      43.468  25.189  25.454  1.00  0.00     0.200 A 
ATOM     65  F   UNL A   1      44.844  27.037  24.936  1.00  0.00    -0.200 F 
ATOM     66  F   UNL A   1      43.888  24.549  24.354  1.00  0.00    -0.200 F 
ENDBRANCH  42  56
BRANCH  43  67
ATOM     67  C   UNL A   1      39.553  31.983  35.448  1.00  0.00     0.064 A 
ATOM     68  C   UNL A   1      38.612  31.544  36.393  1.00  0.00     0.173 A 
ATOM     69  C   UNL A   1      40.053  33.288  35.595  1.00  0.00     0.173 A 
ATOM     70  F   UNL A   1      38.065  30.325  36.277  1.00  0.00    -0.203 F 
ATOM     71  C   UNL A   1      38.186  32.376  37.429  1.00  0.00     0.198 A 
ATOM     72  C   UNL A   1      39.662  34.099  36.658  1.00  0.00     0.198 A 
ATOM     73  F   UNL A   1      40.934  33.775  34.710  1.00  0.00    -0.203 F 
ATOM     74  F   UNL A   1      37.240  31.954  38.278  1.00  0.00    -0.200 F 
ATOM     75  C   UNL A   1      38.721  33.648  37.567  1.00  0.00     0.200 A 
ATOM     76  F   UNL A   1      40.196  35.321  36.792  1.00  0.00    -0.200 F 
ATOM     77  F   UNL A   1      38.318  34.443  38.567  1.00  0.00    -0.200 F 
ENDBRANCH  43  67
BRANCH  55  78
ATOM     78  C   UNL A   1      44.442  27.074  34.725  1.00  0.00     0.064 A 
ATOM     79  C   UNL A   1      45.702  27.645  34.962  1.00  0.00     0.173 A 
ATOM     80  C   UNL A   1      44.100  25.922  35.449  1.00  0.00     0.173 A 
ATOM     81  F   UNL A   1      46.085  28.739  34.286  1.00  0.00    -0.203 F 
ATOM     82  C   UNL A   1      46.590  27.071  35.869  1.00  0.00     0.198 A 
ATOM     83  C   UNL A   1      44.978  25.369  36.378  1.00  0.00     0.198 A 
ATOM     84  F   UNL A   1      42.905  25.339  35.267  1.00  0.00    -0.203 F 
ATOM     85  F   UNL A   1      47.806  27.608  36.044  1.00  0.00    -0.200 F 
ATOM     86  C   UNL A   1      46.225  25.940  36.582  1.00  0.00     0.200 A 
ATOM     87  F   UNL A   1      44.618  24.283  37.075  1.00  0.00    -0.200 F 
ATOM     88  F   UNL A   1      47.078  25.395  37.459  1.00  0.00    -0.200 F 
ENDBRANCH  55  78
ENDBRANCH  29  30
ENDBRANCH  22  24
ENDBRANCH  21  22
ENDBRANCH  20  21
ENDBRANCH   1  20
TORSDOF 16
ENDMDL
