MODEL 1
REMARK VINA RESULT:     -12.6      0.000      0.000
REMARK SMILES CN(C)C(=O)CCc1cccc(NC(=O)[C@H]2CCCC[C@@H]2C(=O)OCCOC(=O)c2ccc(-c3c4nc(c(-c5c(F)c(F)c(F)c(F)c5F)c5ccc([nH]5)c(-c5c(F)c(F)c(F)c(F)c5F)c5nc(c(-c6c(F)c(F)c(F)c(F)c6F)c6ccc3[nH]6)C=C5)C=C4)cc2)c1
REMARK SMILES IDX 24 1 22 2 23 3 21 4 16 5 17 6 18 7 20 8 19 9 14 10 13 11
REMARK SMILES IDX 15 13 12 14 8 15 9 16 93 17 10 18 11 19 7 20 6 21 4 22 1 23
REMARK SMILES IDX 2 24 3 25 5 26 25 27 26 28 27 29 28 30 29 31 30 32 31 33
REMARK SMILES IDX 92 34 32 35 91 36 33 37 34 38 35 39 85 40 36 41 90 42 84 43
REMARK SMILES IDX 86 44 37 45 89 46 83 47 82 48 38 50 70 51 50 52 69 53 51 54
REMARK SMILES IDX 54 55 68 56 87 57 52 58 53 59 67 61 88 62 55 63 39 64 40 65
REMARK SMILES IDX 48 66 41 67 42 68 46 69 49 70 43 71 44 72 47 73 45 74 71 75
REMARK SMILES IDX 72 76 80 77 73 78 74 79 78 80 81 81 75 82 76 83 79 84 77 85
REMARK SMILES IDX 56 86 57 87 65 88 58 89 59 90 63 91 66 92 60 93 61 94 64 95
REMARK SMILES IDX 62 96
REMARK H PARENT 13 12 86 49 54 60
REMARK Flexibility Score: inf
ROOT
ATOM      1  O   UNL A   1      34.967  22.342  25.828  1.00  0.00    -0.462 OA
ENDROOT
BRANCH   1   2
ATOM      2  C   UNL A   1      34.043  22.359  26.832  1.00  0.00     0.309 C 
ATOM      3  O   UNL A   1      33.887  21.491  27.663  1.00  0.00    -0.252 OA
BRANCH   2   4
ATOM      4  C   UNL A   1      33.105  23.567  26.631  1.00  0.00     0.111 C 
ATOM      5  C   UNL A   1      31.725  23.115  26.089  1.00  0.00     0.093 C 
ATOM      6  C   UNL A   1      31.710  22.843  24.590  1.00  0.00     0.014 C 
ATOM      7  C   UNL A   1      32.282  23.958  23.749  1.00  0.00     0.001 C 
ATOM      8  C   UNL A   1      33.922  24.534  25.746  1.00  0.00     0.016 C 
ATOM      9  C   UNL A   1      33.607  24.547  24.244  1.00  0.00     0.001 C 
BRANCH   5  10
ATOM     10  C   UNL A   1      30.396  23.705  26.649  1.00  0.00     0.228 C 
ATOM     11  N   UNL A   1      29.655  24.765  26.215  1.00  0.00    -0.326 N 
ATOM     12  H   UNL A   1      28.703  24.663  26.443  1.00  0.00     0.169 HD
ATOM     13  O   UNL A   1      29.869  23.098  27.601  1.00  0.00    -0.274 OA
BRANCH  11  14
ATOM     14  C   UNL A   1      29.902  25.964  25.524  1.00  0.00     0.041 A 
ATOM     15  C   UNL A   1      31.393  27.816  25.054  1.00  0.00    -0.045 A 
ATOM     16  C   UNL A   1      30.683  28.143  23.894  1.00  0.00     0.004 A 
ATOM     17  C   UNL A   1      30.922  26.816  25.935  1.00  0.00     0.029 A 
ATOM     18  C   UNL A   1      29.631  27.345  23.520  1.00  0.00     0.002 A 
ATOM     19  C   UNL A   1      29.338  26.236  24.304  1.00  0.00     0.026 A 
BRANCH  15  20
ATOM     20  C   UNL A   1      32.809  28.322  25.169  1.00  0.00     0.045 C 
BRANCH  20  21
ATOM     21  C   UNL A   1      33.141  28.628  26.639  1.00  0.00     0.105 C 
BRANCH  21  22
ATOM     22  C   UNL A   1      33.081  30.119  26.982  1.00  0.00     0.222 C 
ATOM     23  C   UNL A   1      34.036  32.116  28.034  1.00  0.00     0.146 C 
ATOM     24  N   UNL A   1      34.190  30.760  27.527  1.00  0.00    -0.349 N 
ATOM     25  C   UNL A   1      35.545  30.239  27.625  1.00  0.00     0.146 C 
ATOM     26  O   UNL A   1      32.015  30.718  26.800  1.00  0.00    -0.275 OA
ENDBRANCH  21  22
ENDBRANCH  20  21
ENDBRANCH  15  20
ENDBRANCH  11  14
ENDBRANCH   5  10
ENDBRANCH   2   4
ENDBRANCH   1   2
BRANCH   1  27
ATOM     27  C   UNL A   1      35.286  21.138  25.081  1.00  0.00     0.274 C 
BRANCH  27  28
ATOM     28  C   UNL A   1      36.748  20.710  24.890  1.00  0.00     0.275 C 
BRANCH  28  29
ATOM     29  O   UNL A   1      37.610  21.794  25.285  1.00  0.00    -0.458 OA
BRANCH  29  30
ATOM     30  C   UNL A   1      38.805  21.452  25.836  1.00  0.00     0.338 C 
ATOM     31  O   UNL A   1      39.353  20.364  25.748  1.00  0.00    -0.246 OA
BRANCH  30  32
ATOM     32  C   UNL A   1      39.408  22.641  26.514  1.00  0.00     0.060 A 
ATOM     33  C   UNL A   1      39.027  23.921  26.140  1.00  0.00     0.016 A 
ATOM     34  C   UNL A   1      40.429  22.520  27.457  1.00  0.00     0.016 A 
ATOM     35  C   UNL A   1      39.751  25.042  26.563  1.00  0.00     0.010 A 
ATOM     36  C   UNL A   1      41.089  23.671  27.955  1.00  0.00     0.010 A 
ATOM     37  C   UNL A   1      40.817  24.962  27.459  1.00  0.00    -0.014 A 
BRANCH  37  38
ATOM     38  C   UNL A   1      41.690  26.162  27.784  1.00  0.00     0.031 A 
ATOM     39  C   UNL A   1      41.181  27.214  28.754  1.00  0.00     0.074 A 
ATOM     40  C   UNL A   1      42.962  26.348  27.349  1.00  0.00     0.049 A 
ATOM     41  N   UNL A   1      41.523  28.475  28.878  1.00  0.00    -0.248 NA
ATOM     42  C   UNL A   1      40.145  26.787  29.707  1.00  0.00     0.031 C 
ATOM     43  C   UNL A   1      43.763  25.422  26.551  1.00  0.00     0.029 A 
ATOM     44  N   UNL A   1      43.827  27.412  27.549  1.00  0.00    -0.354 N 
ATOM     45  C   UNL A   1      40.655  29.015  29.821  1.00  0.00     0.074 A 
ATOM     46  C   UNL A   1      39.804  27.936  30.274  1.00  0.00     0.031 C 
ATOM     47  C   UNL A   1      45.007  25.904  26.411  1.00  0.00     0.029 A 
ATOM     48  C   UNL A   1      45.050  27.262  26.936  1.00  0.00     0.049 A 
ATOM     49  H   UNL A   1      43.588  28.205  28.082  1.00  0.00     0.167 HD
ATOM     50  C   UNL A   1      40.561  30.298  30.250  1.00  0.00     0.037 A 
ATOM     51  C   UNL A   1      46.063  28.127  26.714  1.00  0.00     0.037 A 
ATOM     52  C   UNL A   1      41.490  31.348  29.916  1.00  0.00     0.049 A 
ATOM     53  C   UNL A   1      45.920  29.570  27.120  1.00  0.00     0.074 A 
ATOM     54  C   UNL A   1      41.452  32.687  30.271  1.00  0.00     0.029 A 
ATOM     55  N   UNL A   1      42.657  31.162  29.195  1.00  0.00    -0.354 N 
ATOM     56  N   UNL A   1      44.965  30.148  27.801  1.00  0.00    -0.248 NA
ATOM     57  C   UNL A   1      46.974  30.493  26.667  1.00  0.00     0.031 C 
ATOM     58  C   UNL A   1      42.587  33.317  29.745  1.00  0.00     0.029 A 
ATOM     59  C   UNL A   1      43.348  32.361  29.095  1.00  0.00     0.049 A 
ATOM     60  H   UNL A   1      42.955  30.307  28.811  1.00  0.00     0.167 HD
ATOM     61  C   UNL A   1      45.301  31.495  27.861  1.00  0.00     0.074 A 
ATOM     62  C   UNL A   1      46.563  31.647  27.172  1.00  0.00     0.031 C 
ATOM     63  C   UNL A   1      44.610  32.516  28.423  1.00  0.00     0.037 A 
BRANCH  50  64
ATOM     64  C   UNL A   1      39.362  30.671  31.073  1.00  0.00     0.064 A 
ATOM     65  C   UNL A   1      39.350  30.599  32.471  1.00  0.00     0.173 A 
ATOM     66  C   UNL A   1      38.212  31.161  30.430  1.00  0.00     0.173 A 
ATOM     67  F   UNL A   1      40.417  30.129  33.133  1.00  0.00    -0.203 F 
ATOM     68  C   UNL A   1      38.220  30.980  33.195  1.00  0.00     0.198 A 
ATOM     69  C   UNL A   1      37.098  31.567  31.157  1.00  0.00     0.198 A 
ATOM     70  F   UNL A   1      38.179  31.262  29.092  1.00  0.00    -0.203 F 
ATOM     71  F   UNL A   1      38.212  30.863  34.530  1.00  0.00    -0.200 F 
ATOM     72  C   UNL A   1      37.101  31.470  32.538  1.00  0.00     0.200 A 
ATOM     73  F   UNL A   1      36.026  32.056  30.518  1.00  0.00    -0.200 F 
ATOM     74  F   UNL A   1      36.020  31.844  33.238  1.00  0.00    -0.200 F 
ENDBRANCH  50  64
BRANCH  51  75
ATOM     75  C   UNL A   1      47.267  27.693  25.946  1.00  0.00     0.064 A 
ATOM     76  C   UNL A   1      47.292  27.741  24.545  1.00  0.00     0.173 A 
ATOM     77  C   UNL A   1      48.402  27.181  26.597  1.00  0.00     0.173 A 
ATOM     78  F   UNL A   1      46.215  28.173  23.871  1.00  0.00    -0.203 F 
ATOM     79  C   UNL A   1      48.403  27.299  23.828  1.00  0.00     0.198 A 
ATOM     80  C   UNL A   1      49.527  26.779  25.882  1.00  0.00     0.198 A 
ATOM     81  F   UNL A   1      48.425  27.089  27.934  1.00  0.00    -0.203 F 
ATOM     82  F   UNL A   1      48.380  27.306  22.489  1.00  0.00    -0.200 F 
ATOM     83  C   UNL A   1      49.524  26.830  24.498  1.00  0.00     0.200 A 
ATOM     84  F   UNL A   1      50.611  26.342  26.536  1.00  0.00    -0.200 F 
ATOM     85  F   UNL A   1      50.596  26.416  23.809  1.00  0.00    -0.200 F 
ENDBRANCH  51  75
BRANCH  63  86
ATOM     86  C   UNL A   1      45.215  33.886  28.352  1.00  0.00     0.064 A 
ATOM     87  C   UNL A   1      44.852  34.798  27.351  1.00  0.00     0.173 A 
ATOM     88  C   UNL A   1      46.148  34.303  29.313  1.00  0.00     0.173 A 
ATOM     89  F   UNL A   1      43.978  34.440  26.397  1.00  0.00    -0.203 F 
ATOM     90  C   UNL A   1      45.416  36.070  27.302  1.00  0.00     0.198 A 
ATOM     91  C   UNL A   1      46.692  35.584  29.277  1.00  0.00     0.198 A 
ATOM     92  F   UNL A   1      46.528  33.469  30.293  1.00  0.00    -0.203 F 
ATOM     93  F   UNL A   1      45.085  36.912  26.312  1.00  0.00    -0.200 F 
ATOM     94  C   UNL A   1      46.331  36.464  28.268  1.00  0.00     0.200 A 
ATOM     95  F   UNL A   1      47.570  35.966  30.214  1.00  0.00    -0.200 F 
ATOM     96  F   UNL A   1      46.870  37.691  28.222  1.00  0.00    -0.200 F 
ENDBRANCH  63  86
ENDBRANCH  37  38
ENDBRANCH  30  32
ENDBRANCH  29  30
ENDBRANCH  28  29
ENDBRANCH  27  28
ENDBRANCH   1  27
TORSDOF 16
ENDMDL
MODEL 2
REMARK VINA RESULT:     -12.6      1.571      2.166
REMARK SMILES CN(C)C(=O)CCc1cccc(NC(=O)[C@H]2CCCC[C@@H]2C(=O)OCCOC(=O)c2ccc(-c3c4nc(c(-c5c(F)c(F)c(F)c(F)c5F)c5ccc([nH]5)c(-c5c(F)c(F)c(F)c(F)c5F)c5nc(c(-c6c(F)c(F)c(F)c(F)c6F)c6ccc3[nH]6)C=C5)C=C4)cc2)c1
REMARK SMILES IDX 24 1 22 2 23 3 21 4 16 5 17 6 18 7 20 8 19 9 14 10 13 11
REMARK SMILES IDX 15 13 12 14 8 15 9 16 93 17 10 18 11 19 7 20 6 21 4 22 1 23
REMARK SMILES IDX 2 24 3 25 5 26 25 27 26 28 27 29 28 30 29 31 30 32 31 33
REMARK SMILES IDX 92 34 32 35 91 36 33 37 34 38 35 39 85 40 36 41 90 42 84 43
REMARK SMILES IDX 86 44 37 45 89 46 83 47 82 48 38 50 70 51 50 52 69 53 51 54
REMARK SMILES IDX 54 55 68 56 87 57 52 58 53 59 67 61 88 62 55 63 39 64 40 65
REMARK SMILES IDX 48 66 41 67 42 68 46 69 49 70 43 71 44 72 47 73 45 74 71 75
REMARK SMILES IDX 72 76 80 77 73 78 74 79 78 80 81 81 75 82 76 83 79 84 77 85
REMARK SMILES IDX 56 86 57 87 65 88 58 89 59 90 63 91 66 92 60 93 61 94 64 95
REMARK SMILES IDX 62 96
REMARK H PARENT 13 12 86 49 54 60
REMARK Flexibility Score: inf
ROOT
ATOM      1  O   UNL A   1      35.100  22.367  25.962  1.00  0.00    -0.462 OA
ENDROOT
BRANCH   1   2
ATOM      2  C   UNL A   1      34.187  22.579  26.953  1.00  0.00     0.309 C 
ATOM      3  O   UNL A   1      34.037  21.886  27.935  1.00  0.00    -0.252 OA
BRANCH   2   4
ATOM      4  C   UNL A   1      33.251  23.731  26.536  1.00  0.00     0.111 C 
ATOM      5  C   UNL A   1      31.881  23.188  26.052  1.00  0.00     0.093 C 
ATOM      6  C   UNL A   1      31.894  22.668  24.620  1.00  0.00     0.014 C 
ATOM      7  C   UNL A   1      32.481  23.630  23.614  1.00  0.00     0.001 C 
ATOM      8  C   UNL A   1      34.082  24.540  25.516  1.00  0.00     0.016 C 
ATOM      9  C   UNL A   1      33.795  24.299  24.027  1.00  0.00     0.001 C 
BRANCH   5  10
ATOM     10  C   UNL A   1      30.541  23.857  26.482  1.00  0.00     0.228 C 
ATOM     11  N   UNL A   1      29.874  24.913  25.935  1.00  0.00    -0.326 N 
ATOM     12  H   UNL A   1      28.905  24.860  26.101  1.00  0.00     0.169 HD
ATOM     13  O   UNL A   1      29.927  23.328  27.427  1.00  0.00    -0.274 OA
BRANCH  11  14
ATOM     14  C   UNL A   1      30.214  26.059  25.194  1.00  0.00     0.041 A 
ATOM     15  C   UNL A   1      29.540  27.812  23.663  1.00  0.00    -0.045 A 
ATOM     16  C   UNL A   1      30.655  28.587  23.998  1.00  0.00     0.004 A 
ATOM     17  C   UNL A   1      29.395  26.496  24.159  1.00  0.00     0.029 A 
ATOM     18  C   UNL A   1      31.506  28.128  24.973  1.00  0.00     0.002 A 
ATOM     19  C   UNL A   1      31.201  26.923  25.593  1.00  0.00     0.026 A 
BRANCH  15  20
ATOM     20  C   UNL A   1      28.366  28.519  23.033  1.00  0.00     0.045 C 
BRANCH  20  21
ATOM     21  C   UNL A   1      28.566  30.042  23.108  1.00  0.00     0.105 C 
BRANCH  21  22
ATOM     22  C   UNL A   1      28.296  30.761  21.785  1.00  0.00     0.222 C 
ATOM     23  C   UNL A   1      27.839  32.804  20.510  1.00  0.00     0.146 C 
ATOM     24  N   UNL A   1      28.304  32.152  21.726  1.00  0.00    -0.349 N 
ATOM     25  C   UNL A   1      28.770  33.072  22.752  1.00  0.00     0.146 C 
ATOM     26  O   UNL A   1      28.032  30.075  20.791  1.00  0.00    -0.275 OA
ENDBRANCH  21  22
ENDBRANCH  20  21
ENDBRANCH  15  20
ENDBRANCH  11  14
ENDBRANCH   5  10
ENDBRANCH   2   4
ENDBRANCH   1   2
BRANCH   1  27
ATOM     27  C   UNL A   1      35.314  21.060  25.363  1.00  0.00     0.274 C 
BRANCH  27  28
ATOM     28  C   UNL A   1      36.728  20.614  24.966  1.00  0.00     0.275 C 
BRANCH  28  29
ATOM     29  O   UNL A   1      37.650  21.690  25.222  1.00  0.00    -0.458 OA
BRANCH  29  30
ATOM     30  C   UNL A   1      38.826  21.355  25.816  1.00  0.00     0.338 C 
ATOM     31  O   UNL A   1      39.384  20.270  25.748  1.00  0.00    -0.246 OA
BRANCH  30  32
ATOM     32  C   UNL A   1      39.397  22.547  26.516  1.00  0.00     0.060 A 
ATOM     33  C   UNL A   1      38.969  23.822  26.177  1.00  0.00     0.016 A 
ATOM     34  C   UNL A   1      40.432  22.439  27.444  1.00  0.00     0.016 A 
ATOM     35  C   UNL A   1      39.660  24.957  26.618  1.00  0.00     0.010 A 
ATOM     36  C   UNL A   1      41.059  23.599  27.962  1.00  0.00     0.010 A 
ATOM     37  C   UNL A   1      40.738  24.892  27.501  1.00  0.00    -0.014 A 
BRANCH  37  38
ATOM     38  C   UNL A   1      41.574  26.112  27.845  1.00  0.00     0.031 A 
ATOM     39  C   UNL A   1      41.015  27.156  28.795  1.00  0.00     0.074 A 
ATOM     40  C   UNL A   1      42.853  26.327  27.444  1.00  0.00     0.049 A 
ATOM     41  N   UNL A   1      41.324  28.425  28.923  1.00  0.00    -0.248 NA
ATOM     42  C   UNL A   1      39.962  26.709  29.721  1.00  0.00     0.031 C 
ATOM     43  C   UNL A   1      43.697  25.415  26.673  1.00  0.00     0.029 A 
ATOM     44  N   UNL A   1      43.688  27.410  27.664  1.00  0.00    -0.354 N 
ATOM     45  C   UNL A   1      40.418  28.948  29.840  1.00  0.00     0.074 A 
ATOM     46  C   UNL A   1      39.580  27.852  30.273  1.00  0.00     0.031 C 
ATOM     47  C   UNL A   1      44.933  25.925  26.565  1.00  0.00     0.029 A 
ATOM     48  C   UNL A   1      44.931  27.286  27.085  1.00  0.00     0.049 A 
ATOM     49  H   UNL A   1      43.416  28.199  28.186  1.00  0.00     0.167 HD
ATOM     50  C   UNL A   1      40.283  30.231  30.261  1.00  0.00     0.037 A 
ATOM     51  C   UNL A   1      45.930  28.174  26.888  1.00  0.00     0.037 A 
ATOM     52  C   UNL A   1      41.197  31.300  29.948  1.00  0.00     0.049 A 
ATOM     53  C   UNL A   1      45.742  29.614  27.283  1.00  0.00     0.074 A 
ATOM     54  C   UNL A   1      41.119  32.639  30.296  1.00  0.00     0.029 A 
ATOM     55  N   UNL A   1      42.388  31.139  29.261  1.00  0.00    -0.354 N 
ATOM     56  N   UNL A   1      44.756  30.173  27.936  1.00  0.00    -0.248 NA
ATOM     57  C   UNL A   1      46.788  30.559  26.856  1.00  0.00     0.031 C 
ATOM     58  C   UNL A   1      42.253  33.293  29.800  1.00  0.00     0.029 A 
ATOM     59  C   UNL A   1      43.054  32.353  29.175  1.00  0.00     0.049 A 
ATOM     60  H   UNL A   1      42.715  30.289  28.888  1.00  0.00     0.167 HD
ATOM     61  C   UNL A   1      45.059  31.527  27.999  1.00  0.00     0.074 A 
ATOM     62  C   UNL A   1      46.336  31.706  27.344  1.00  0.00     0.031 C 
ATOM     63  C   UNL A   1      44.330  32.534  28.537  1.00  0.00     0.037 A 
BRANCH  50  64
ATOM     64  C   UNL A   1      39.054  30.579  31.049  1.00  0.00     0.064 A 
ATOM     65  C   UNL A   1      39.018  30.556  32.448  1.00  0.00     0.173 A 
ATOM     66  C   UNL A   1      37.896  30.994  30.368  1.00  0.00     0.173 A 
ATOM     67  F   UNL A   1      40.092  30.158  33.145  1.00  0.00    -0.203 F 
ATOM     68  C   UNL A   1      37.859  30.912  33.137  1.00  0.00     0.198 A 
ATOM     69  C   UNL A   1      36.751  31.376  31.060  1.00  0.00     0.198 A 
ATOM     70  F   UNL A   1      37.884  31.045  29.026  1.00  0.00    -0.203 F 
ATOM     71  F   UNL A   1      37.830  30.843  34.476  1.00  0.00    -0.200 F 
ATOM     72  C   UNL A   1      36.732  31.328  32.443  1.00  0.00     0.200 A 
ATOM     73  F   UNL A   1      35.671  31.794  30.385  1.00  0.00    -0.200 F 
ATOM     74  F   UNL A   1      35.623  31.679  33.110  1.00  0.00    -0.200 F 
ENDBRANCH  50  64
BRANCH  51  75
ATOM     75  C   UNL A   1      47.164  27.764  26.155  1.00  0.00     0.064 A 
ATOM     76  C   UNL A   1      47.197  27.721  24.755  1.00  0.00     0.173 A 
ATOM     77  C   UNL A   1      48.323  27.368  26.843  1.00  0.00     0.173 A 
ATOM     78  F   UNL A   1      46.102  28.040  24.048  1.00  0.00    -0.203 F 
ATOM     79  C   UNL A   1      48.339  27.301  24.073  1.00  0.00     0.198 A 
ATOM     80  C   UNL A   1      49.476  26.990  26.162  1.00  0.00     0.198 A 
ATOM     81  F   UNL A   1      48.341  27.366  28.184  1.00  0.00    -0.203 F 
ATOM     82  F   UNL A   1      48.327  27.218  22.736  1.00  0.00    -0.200 F 
ATOM     83  C   UNL A   1      49.481  26.948  24.777  1.00  0.00     0.200 A 
ATOM     84  F   UNL A   1      50.580  26.665  26.848  1.00  0.00    -0.200 F 
ATOM     85  F   UNL A   1      50.582  26.556  24.121  1.00  0.00    -0.200 F 
ENDBRANCH  51  75
BRANCH  63  86
ATOM     86  C   UNL A   1      44.905  33.917  28.478  1.00  0.00     0.064 A 
ATOM     87  C   UNL A   1      44.500  34.839  27.502  1.00  0.00     0.173 A 
ATOM     88  C   UNL A   1      45.853  34.336  29.424  1.00  0.00     0.173 A 
ATOM     89  F   UNL A   1      43.610  34.482  26.564  1.00  0.00    -0.203 F 
ATOM     90  C   UNL A   1      45.036  36.124  27.464  1.00  0.00     0.198 A 
ATOM     91  C   UNL A   1      46.370  35.628  29.398  1.00  0.00     0.198 A 
ATOM     92  F   UNL A   1      46.273  33.492  30.379  1.00  0.00    -0.203 F 
ATOM     93  F   UNL A   1      44.665  36.976  26.498  1.00  0.00    -0.200 F 
ATOM     94  C   UNL A   1      45.967  36.519  28.415  1.00  0.00     0.200 A 
ATOM     95  F   UNL A   1      47.262  36.011  30.321  1.00  0.00    -0.200 F 
ATOM     96  F   UNL A   1      46.479  37.757  28.379  1.00  0.00    -0.200 F 
ENDBRANCH  63  86
ENDBRANCH  37  38
ENDBRANCH  30  32
ENDBRANCH  29  30
ENDBRANCH  28  29
ENDBRANCH  27  28
ENDBRANCH   1  27
TORSDOF 16
ENDMDL
MODEL 3
REMARK VINA RESULT:     -12.6      0.307      1.930
REMARK SMILES CN(C)C(=O)CCc1cccc(NC(=O)[C@H]2CCCC[C@@H]2C(=O)OCCOC(=O)c2ccc(-c3c4nc(c(-c5c(F)c(F)c(F)c(F)c5F)c5ccc([nH]5)c(-c5c(F)c(F)c(F)c(F)c5F)c5nc(c(-c6c(F)c(F)c(F)c(F)c6F)c6ccc3[nH]6)C=C5)C=C4)cc2)c1
REMARK SMILES IDX 24 1 22 2 23 3 21 4 16 5 17 6 18 7 20 8 19 9 14 10 13 11
REMARK SMILES IDX 15 13 12 14 8 15 9 16 93 17 10 18 11 19 7 20 6 21 4 22 1 23
REMARK SMILES IDX 2 24 3 25 5 26 25 27 26 28 27 29 28 30 29 31 30 32 31 33
REMARK SMILES IDX 92 34 32 35 91 36 33 37 34 38 35 39 85 40 36 41 90 42 84 43
REMARK SMILES IDX 86 44 37 45 89 46 83 47 82 48 38 50 70 51 50 52 69 53 51 54
REMARK SMILES IDX 54 55 68 56 87 57 52 58 53 59 67 61 88 62 55 63 39 64 40 65
REMARK SMILES IDX 48 66 41 67 42 68 46 69 49 70 43 71 44 72 47 73 45 74 71 75
REMARK SMILES IDX 72 76 80 77 73 78 74 79 78 80 81 81 75 82 76 83 79 84 77 85
REMARK SMILES IDX 56 86 57 87 65 88 58 89 59 90 63 91 66 92 60 93 61 94 64 95
REMARK SMILES IDX 62 96
REMARK H PARENT 13 12 86 49 54 60
REMARK Flexibility Score: inf
ROOT
ATOM      1  O   UNL A   1      34.961  22.351  26.281  1.00  0.00    -0.462 OA
ENDROOT
BRANCH   1   2
ATOM      2  C   UNL A   1      33.917  22.328  27.159  1.00  0.00     0.309 C 
ATOM      3  O   UNL A   1      33.694  21.454  27.969  1.00  0.00    -0.252 OA
BRANCH   2   4
ATOM      4  C   UNL A   1      32.961  23.493  26.835  1.00  0.00     0.111 C 
ATOM      5  C   UNL A   1      31.597  22.966  26.317  1.00  0.00     0.093 C 
ATOM      6  C   UNL A   1      31.610  22.556  24.851  1.00  0.00     0.014 C 
ATOM      7  C   UNL A   1      32.176  23.600  23.917  1.00  0.00     0.001 C 
ATOM      8  C   UNL A   1      33.774  24.390  25.874  1.00  0.00     0.016 C 
ATOM      9  C   UNL A   1      33.482  24.257  24.373  1.00  0.00     0.001 C 
BRANCH   5  10
ATOM     10  C   UNL A   1      30.250  23.580  26.802  1.00  0.00     0.228 C 
ATOM     11  N   UNL A   1      29.563  24.664  26.339  1.00  0.00    -0.326 N 
ATOM     12  H   UNL A   1      28.596  24.582  26.505  1.00  0.00     0.169 HD
ATOM     13  O   UNL A   1      29.650  22.972  27.708  1.00  0.00    -0.274 OA
BRANCH  11  14
ATOM     14  C   UNL A   1      29.881  25.867  25.685  1.00  0.00     0.041 A 
ATOM     15  C   UNL A   1      31.448  27.681  25.330  1.00  0.00    -0.045 A 
ATOM     16  C   UNL A   1      30.811  28.049  24.139  1.00  0.00     0.004 A 
ATOM     17  C   UNL A   1      30.901  26.681  26.166  1.00  0.00     0.029 A 
ATOM     18  C   UNL A   1      29.759  27.289  23.694  1.00  0.00     0.002 A 
ATOM     19  C   UNL A   1      29.392  26.176  24.442  1.00  0.00     0.026 A 
BRANCH  15  20
ATOM     20  C   UNL A   1      32.869  28.143  25.530  1.00  0.00     0.045 C 
BRANCH  20  21
ATOM     21  C   UNL A   1      33.073  28.605  26.982  1.00  0.00     0.105 C 
BRANCH  21  22
ATOM     22  C   UNL A   1      33.047  30.126  27.151  1.00  0.00     0.222 C 
ATOM     23  C   UNL A   1      34.058  32.212  27.946  1.00  0.00     0.146 C 
ATOM     24  N   UNL A   1      34.178  30.804  27.597  1.00  0.00    -0.349 N 
ATOM     25  C   UNL A   1      35.525  30.271  27.732  1.00  0.00     0.146 C 
ATOM     26  O   UNL A   1      31.989  30.721  26.918  1.00  0.00    -0.275 OA
ENDBRANCH  21  22
ENDBRANCH  20  21
ENDBRANCH  15  20
ENDBRANCH  11  14
ENDBRANCH   5  10
ENDBRANCH   2   4
ENDBRANCH   1   2
BRANCH   1  27
ATOM     27  C   UNL A   1      35.391  21.173  25.547  1.00  0.00     0.274 C 
BRANCH  27  28
ATOM     28  C   UNL A   1      36.560  21.263  24.557  1.00  0.00     0.275 C 
BRANCH  28  29
ATOM     29  O   UNL A   1      37.508  22.235  25.037  1.00  0.00    -0.458 OA
BRANCH  29  30
ATOM     30  C   UNL A   1      38.563  21.756  25.749  1.00  0.00     0.338 C 
ATOM     31  O   UNL A   1      38.968  20.603  25.748  1.00  0.00    -0.246 OA
BRANCH  30  32
ATOM     32  C   UNL A   1      39.223  22.875  26.489  1.00  0.00     0.060 A 
ATOM     33  C   UNL A   1      38.782  24.178  26.315  1.00  0.00     0.016 A 
ATOM     34  C   UNL A   1      40.350  22.676  27.287  1.00  0.00     0.016 A 
ATOM     35  C   UNL A   1      39.534  25.263  26.781  1.00  0.00     0.010 A 
ATOM     36  C   UNL A   1      41.047  23.779  27.838  1.00  0.00     0.010 A 
ATOM     37  C   UNL A   1      40.699  25.111  27.533  1.00  0.00    -0.014 A 
BRANCH  37  38
ATOM     38  C   UNL A   1      41.586  26.290  27.895  1.00  0.00     0.031 A 
ATOM     39  C   UNL A   1      41.062  27.355  28.841  1.00  0.00     0.074 A 
ATOM     40  C   UNL A   1      42.879  26.445  27.515  1.00  0.00     0.049 A 
ATOM     41  N   UNL A   1      41.428  28.607  28.979  1.00  0.00    -0.248 NA
ATOM     42  C   UNL A   1      39.976  26.954  29.749  1.00  0.00     0.031 C 
ATOM     43  C   UNL A   1      43.691  25.498  26.752  1.00  0.00     0.029 A 
ATOM     44  N   UNL A   1      43.761  27.488  27.751  1.00  0.00    -0.354 N 
ATOM     45  C   UNL A   1      40.534  29.169  29.885  1.00  0.00     0.074 A 
ATOM     46  C   UNL A   1      39.639  28.111  30.301  1.00  0.00     0.031 C 
ATOM     47  C   UNL A   1      44.952  25.950  26.665  1.00  0.00     0.029 A 
ATOM     48  C   UNL A   1      45.005  27.307  27.191  1.00  0.00     0.049 A 
ATOM     49  H   UNL A   1      43.518  28.287  28.272  1.00  0.00     0.167 HD
ATOM     50  C   UNL A   1      40.453  30.455  30.309  1.00  0.00     0.037 A 
ATOM     51  C   UNL A   1      46.047  28.148  27.012  1.00  0.00     0.037 A 
ATOM     52  C   UNL A   1      41.420  31.481  30.014  1.00  0.00     0.049 A 
ATOM     53  C   UNL A   1      45.921  29.594  27.411  1.00  0.00     0.074 A 
ATOM     54  C   UNL A   1      41.400  32.822  30.368  1.00  0.00     0.029 A 
ATOM     55  N   UNL A   1      42.613  31.267  29.345  1.00  0.00    -0.354 N 
ATOM     56  N   UNL A   1      44.952  30.196  28.051  1.00  0.00    -0.248 NA
ATOM     57  C   UNL A   1      47.016  30.490  27.004  1.00  0.00     0.031 C 
ATOM     58  C   UNL A   1      42.571  33.423  29.891  1.00  0.00     0.029 A 
ATOM     59  C   UNL A   1      43.336  32.448  29.274  1.00  0.00     0.049 A 
ATOM     60  H   UNL A   1      42.905  30.404  28.973  1.00  0.00     0.167 HD
ATOM     61  C   UNL A   1      45.318  31.534  28.125  1.00  0.00     0.074 A 
ATOM     62  C   UNL A   1      46.612  31.655  27.490  1.00  0.00     0.031 C 
ATOM     63  C   UNL A   1      44.629  32.572  28.656  1.00  0.00     0.037 A 
BRANCH  50  64
ATOM     64  C   UNL A   1      39.229  30.858  31.080  1.00  0.00     0.064 A 
ATOM     65  C   UNL A   1      38.105  31.430  30.475  1.00  0.00     0.173 A 
ATOM     66  C   UNL A   1      39.177  30.611  32.463  1.00  0.00     0.173 A 
ATOM     67  F   UNL A   1      38.107  31.695  29.160  1.00  0.00    -0.203 F 
ATOM     68  C   UNL A   1      36.981  31.765  31.229  1.00  0.00     0.198 A 
ATOM     69  C   UNL A   1      38.044  30.920  33.208  1.00  0.00     0.198 A 
ATOM     70  F   UNL A   1      40.225  30.052  33.089  1.00  0.00    -0.203 F 
ATOM     71  F   UNL A   1      35.930  32.351  30.638  1.00  0.00    -0.200 F 
ATOM     72  C   UNL A   1      36.949  31.503  32.591  1.00  0.00     0.200 A 
ATOM     73  F   UNL A   1      38.011  30.649  34.520  1.00  0.00    -0.200 F 
ATOM     74  F   UNL A   1      35.863  31.817  33.312  1.00  0.00    -0.200 F 
ENDBRANCH  50  64
BRANCH  51  75
ATOM     75  C   UNL A   1      47.272  27.683  26.296  1.00  0.00     0.064 A 
ATOM     76  C   UNL A   1      48.390  27.214  27.000  1.00  0.00     0.173 A 
ATOM     77  C   UNL A   1      47.364  27.739  24.896  1.00  0.00     0.173 A 
ATOM     78  F   UNL A   1      48.375  27.187  28.341  1.00  0.00    -0.203 F 
ATOM     79  C   UNL A   1      49.548  26.817  26.331  1.00  0.00     0.198 A 
ATOM     80  C   UNL A   1      48.504  27.303  24.227  1.00  0.00     0.198 A 
ATOM     81  F   UNL A   1      46.335  28.203  24.173  1.00  0.00    -0.203 F 
ATOM     82  F   UNL A   1      50.621  26.422  27.030  1.00  0.00    -0.200 F 
ATOM     83  C   UNL A   1      49.599  26.850  24.945  1.00  0.00     0.200 A 
ATOM     84  F   UNL A   1      48.541  27.324  22.888  1.00  0.00    -0.200 F 
ATOM     85  F   UNL A   1      50.707  26.458  24.303  1.00  0.00    -0.200 F 
ENDBRANCH  51  75
BRANCH  63  86
ATOM     86  C   UNL A   1      45.269  33.927  28.612  1.00  0.00     0.064 A 
ATOM     87  C   UNL A   1      46.205  34.328  29.576  1.00  0.00     0.173 A 
ATOM     88  C   UNL A   1      44.966  34.825  27.577  1.00  0.00     0.173 A 
ATOM     89  F   UNL A   1      46.515  33.513  30.596  1.00  0.00    -0.203 F 
ATOM     90  C   UNL A   1      46.799  35.587  29.517  1.00  0.00     0.198 A 
ATOM     91  C   UNL A   1      45.579  36.073  27.508  1.00  0.00     0.198 A 
ATOM     92  F   UNL A   1      44.078  34.489  26.629  1.00  0.00    -0.203 F 
ATOM     93  F   UNL A   1      47.660  35.965  30.473  1.00  0.00    -0.200 F 
ATOM     94  C   UNL A   1      46.490  36.456  28.481  1.00  0.00     0.200 A 
ATOM     95  F   UNL A   1      45.285  36.908  26.502  1.00  0.00    -0.200 F 
ATOM     96  F   UNL A   1      47.065  37.665  28.424  1.00  0.00    -0.200 F 
ENDBRANCH  63  86
ENDBRANCH  37  38
ENDBRANCH  30  32
ENDBRANCH  29  30
ENDBRANCH  28  29
ENDBRANCH  27  28
ENDBRANCH   1  27
TORSDOF 16
ENDMDL
