MODEL 1
REMARK VINA RESULT:     -13.1      0.000      0.000
REMARK SMILES Cc1ccc(Nc2c(F)cccc2I)c(CC(=O)OCCOC(=O)c2ccc(-c3c4nc(c(-c5c(F)c(F)c(F)c(F)c5F)c5ccc([nH]5)c(-c5c(F)c(F)c(F)c(F)c5F)c5nc(c(-c6c(F)c(F)c(F)c(F)c6F)c6ccc3[nH]6)C=C5)C=C4)cc2)c1
REMARK SMILES IDX 20 1 19 2 17 3 18 4 16 5 15 6 1 7 2 8 3 9 88 10 4 11 5 12
REMARK SMILES IDX 6 13 7 15 8 16 13 17 9 18 10 19 12 20 14 21 11 22 21 23
REMARK SMILES IDX 22 24 23 25 24 26 25 27 26 28 87 29 27 30 86 31 28 32 29 33
REMARK SMILES IDX 30 34 80 35 31 36 85 37 79 38 81 39 32 40 84 41 78 42 77 43
REMARK SMILES IDX 33 45 65 46 45 47 64 48 46 49 49 50 63 51 82 52 47 53 48 54
REMARK SMILES IDX 62 56 83 57 50 58 34 59 35 60 43 61 36 62 37 63 41 64 44 65
REMARK SMILES IDX 38 66 39 67 42 68 40 69 66 70 67 71 75 72 68 73 69 74 73 75
REMARK SMILES IDX 76 76 70 77 71 78 74 79 72 80 51 81 52 82 60 83 53 84 54 85
REMARK SMILES IDX 58 86 61 87 55 88 56 89 59 90 57 91
REMARK H PARENT 6 14 81 44 49 55
REMARK Flexibility Score: inf
ROOT
ATOM      1  C   UNL A   1      34.011  29.083  25.908  1.00  0.00     0.274 C 
ENDROOT
BRANCH   1   2
ATOM      2  O   UNL A   1      32.600  28.956  26.000  1.00  0.00    -0.462 OA
BRANCH   2   3
ATOM      3  C   UNL A   1      31.838  29.693  25.147  1.00  0.00     0.310 C 
ATOM      4  O   UNL A   1      31.254  30.714  25.420  1.00  0.00    -0.252 OA
BRANCH   3   5
ATOM      5  C   UNL A   1      31.847  29.012  23.794  1.00  0.00     0.160 C 
BRANCH   5   6
ATOM      6  C   UNL A   1      30.668  28.085  23.701  1.00  0.00    -0.013 A 
ATOM      7  C   UNL A   1      26.973  28.709  23.079  1.00  0.00     0.044 C 
ATOM      8  C   UNL A   1      28.259  28.002  23.376  1.00  0.00    -0.051 A 
ATOM      9  C   UNL A   1      28.272  26.676  23.806  1.00  0.00     0.005 A 
ATOM     10  C   UNL A   1      29.464  28.690  23.297  1.00  0.00     0.009 A 
ATOM     11  C   UNL A   1      29.470  26.052  24.175  1.00  0.00     0.026 A 
ATOM     12  C   UNL A   1      30.685  26.744  24.157  1.00  0.00     0.042 A 
BRANCH  12  13
ATOM     13  N   UNL A   1      31.837  26.146  24.709  1.00  0.00    -0.352 N 
ATOM     14  H   UNL A   1      32.225  26.625  25.476  1.00  0.00     0.167 HD
BRANCH  13  15
ATOM     15  C   UNL A   1      32.526  24.961  24.333  1.00  0.00     0.088 A 
ATOM     16  C   UNL A   1      33.452  24.998  23.280  1.00  0.00     0.147 A 
ATOM     17  C   UNL A   1      32.552  23.821  25.158  1.00  0.00     0.040 A 
ATOM     18  F   UNL A   1      33.471  26.045  22.441  1.00  0.00    -0.205 F 
ATOM     19  C   UNL A   1      34.385  23.980  23.082  1.00  0.00     0.041 A 
ATOM     20  C   UNL A   1      33.550  22.844  25.027  1.00  0.00     0.017 A 
ATOM     21  I   UNL A   1      30.949  23.318  26.409  1.00  0.00    -0.042 I 
ATOM     22  C   UNL A   1      34.469  22.926  23.987  1.00  0.00     0.004 A 
ENDBRANCH  13  15
ENDBRANCH  12  13
ENDBRANCH   5   6
ENDBRANCH   3   5
ENDBRANCH   2   3
ENDBRANCH   1   2
BRANCH   1  23
ATOM     23  C   UNL A   1      34.632  28.679  27.253  1.00  0.00     0.275 C 
BRANCH  23  24
ATOM     24  O   UNL A   1      35.066  29.761  28.166  1.00  0.00    -0.458 OA
BRANCH  24  25
ATOM     25  C   UNL A   1      36.221  30.491  28.196  1.00  0.00     0.338 C 
ATOM     26  O   UNL A   1      36.249  31.700  28.017  1.00  0.00    -0.246 OA
BRANCH  25  27
ATOM     27  C   UNL A   1      37.448  29.774  28.564  1.00  0.00     0.060 A 
ATOM     28  C   UNL A   1      37.543  28.963  29.709  1.00  0.00     0.016 A 
ATOM     29  C   UNL A   1      38.443  29.772  27.616  1.00  0.00     0.016 A 
ATOM     30  C   UNL A   1      38.575  28.028  29.789  1.00  0.00     0.010 A 
ATOM     31  C   UNL A   1      39.203  28.651  27.522  1.00  0.00     0.010 A 
ATOM     32  C   UNL A   1      39.374  27.855  28.657  1.00  0.00    -0.014 A 
BRANCH  32  33
ATOM     33  C   UNL A   1      40.643  27.151  28.613  1.00  0.00     0.031 A 
ATOM     34  C   UNL A   1      40.747  25.724  28.305  1.00  0.00     0.074 A 
ATOM     35  C   UNL A   1      41.699  27.987  28.763  1.00  0.00     0.049 A 
ATOM     36  N   UNL A   1      41.565  24.928  28.900  1.00  0.00    -0.248 NA
ATOM     37  C   UNL A   1      39.934  25.058  27.289  1.00  0.00     0.031 C 
ATOM     38  C   UNL A   1      43.120  27.792  28.582  1.00  0.00     0.029 A 
ATOM     39  N   UNL A   1      41.609  29.317  29.229  1.00  0.00    -0.354 N 
ATOM     40  C   UNL A   1      41.643  23.798  28.115  1.00  0.00     0.074 A 
ATOM     41  C   UNL A   1      40.492  23.841  27.245  1.00  0.00     0.031 C 
ATOM     42  C   UNL A   1      43.765  28.781  29.240  1.00  0.00     0.029 A 
ATOM     43  C   UNL A   1      42.768  29.585  29.943  1.00  0.00     0.049 A 
ATOM     44  H   UNL A   1      40.861  29.939  29.076  1.00  0.00     0.167 HD
ATOM     45  C   UNL A   1      42.807  23.088  28.080  1.00  0.00     0.037 A 
ATOM     46  C   UNL A   1      42.629  29.768  31.288  1.00  0.00     0.037 A 
ATOM     47  C   UNL A   1      43.833  23.783  28.851  1.00  0.00     0.049 A 
ATOM     48  C   UNL A   1      43.255  28.617  32.024  1.00  0.00     0.074 A 
ATOM     49  C   UNL A   1      44.818  24.672  28.450  1.00  0.00     0.029 A 
ATOM     50  N   UNL A   1      43.674  23.967  30.221  1.00  0.00    -0.354 N 
ATOM     51  N   UNL A   1      43.391  27.423  31.516  1.00  0.00    -0.248 NA
ATOM     52  C   UNL A   1      43.828  28.738  33.356  1.00  0.00     0.031 C 
ATOM     53  C   UNL A   1      45.213  25.434  29.576  1.00  0.00     0.029 A 
ATOM     54  C   UNL A   1      44.470  25.009  30.663  1.00  0.00     0.049 A 
ATOM     55  H   UNL A   1      43.080  23.432  30.795  1.00  0.00     0.167 HD
ATOM     56  C   UNL A   1      44.120  26.651  32.376  1.00  0.00     0.074 A 
ATOM     57  C   UNL A   1      44.352  27.512  33.523  1.00  0.00     0.031 C 
ATOM     58  C   UNL A   1      44.504  25.377  32.067  1.00  0.00     0.037 A 
BRANCH  45  59
ATOM     59  C   UNL A   1      43.100  22.009  27.065  1.00  0.00     0.064 A 
ATOM     60  C   UNL A   1      42.405  20.779  27.073  1.00  0.00     0.173 A 
ATOM     61  C   UNL A   1      44.057  22.148  26.042  1.00  0.00     0.173 A 
ATOM     62  F   UNL A   1      41.429  20.528  27.953  1.00  0.00    -0.203 F 
ATOM     63  C   UNL A   1      42.689  19.748  26.175  1.00  0.00     0.198 A 
ATOM     64  C   UNL A   1      44.361  21.102  25.158  1.00  0.00     0.198 A 
ATOM     65  F   UNL A   1      44.705  23.308  25.861  1.00  0.00    -0.203 F 
ATOM     66  F   UNL A   1      41.998  18.602  26.242  1.00  0.00    -0.200 F 
ATOM     67  C   UNL A   1      43.679  19.902  25.229  1.00  0.00     0.200 A 
ATOM     68  F   UNL A   1      45.319  21.265  24.235  1.00  0.00    -0.200 F 
ATOM     69  F   UNL A   1      43.963  18.904  24.380  1.00  0.00    -0.200 F 
ENDBRANCH  45  59
BRANCH  46  70
ATOM     70  C   UNL A   1      41.363  30.484  31.672  1.00  0.00     0.064 A 
ATOM     71  C   UNL A   1      40.352  29.746  32.333  1.00  0.00     0.173 A 
ATOM     72  C   UNL A   1      41.232  31.880  31.698  1.00  0.00     0.173 A 
ATOM     73  F   UNL A   1      40.411  28.404  32.358  1.00  0.00    -0.203 F 
ATOM     74  C   UNL A   1      39.335  30.366  33.062  1.00  0.00     0.198 A 
ATOM     75  C   UNL A   1      40.194  32.501  32.410  1.00  0.00     0.198 A 
ATOM     76  F   UNL A   1      42.147  32.658  31.104  1.00  0.00    -0.203 F 
ATOM     77  F   UNL A   1      38.469  29.624  33.768  1.00  0.00    -0.200 F 
ATOM     78  C   UNL A   1      39.265  31.745  33.113  1.00  0.00     0.200 A 
ATOM     79  F   UNL A   1      40.132  33.839  32.474  1.00  0.00    -0.200 F 
ATOM     80  F   UNL A   1      38.332  32.342  33.869  1.00  0.00    -0.200 F 
ENDBRANCH  46  70
BRANCH  58  81
ATOM     81  C   UNL A   1      45.071  24.382  33.039  1.00  0.00     0.064 A 
ATOM     82  C   UNL A   1      44.387  23.228  33.444  1.00  0.00     0.173 A 
ATOM     83  C   UNL A   1      46.418  24.485  33.467  1.00  0.00     0.173 A 
ATOM     84  F   UNL A   1      43.153  22.954  33.000  1.00  0.00    -0.203 F 
ATOM     85  C   UNL A   1      44.981  22.280  34.276  1.00  0.00     0.198 A 
ATOM     86  C   UNL A   1      47.030  23.499  34.231  1.00  0.00     0.198 A 
ATOM     87  F   UNL A   1      47.190  25.528  33.129  1.00  0.00    -0.203 F 
ATOM     88  F   UNL A   1      44.268  21.221  34.683  1.00  0.00    -0.200 F 
ATOM     89  C   UNL A   1      46.305  22.407  34.654  1.00  0.00     0.200 A 
ATOM     90  F   UNL A   1      48.331  23.607  34.533  1.00  0.00    -0.200 F 
ATOM     91  F   UNL A   1      46.886  21.466  35.409  1.00  0.00    -0.200 F 
ENDBRANCH  58  81
ENDBRANCH  32  33
ENDBRANCH  25  27
ENDBRANCH  24  25
ENDBRANCH  23  24
ENDBRANCH   1  23
TORSDOF 14
ENDMDL
MODEL 2
REMARK VINA RESULT:     -13.0      3.971     10.147
REMARK SMILES Cc1ccc(Nc2c(F)cccc2I)c(CC(=O)OCCOC(=O)c2ccc(-c3c4nc(c(-c5c(F)c(F)c(F)c(F)c5F)c5ccc([nH]5)c(-c5c(F)c(F)c(F)c(F)c5F)c5nc(c(-c6c(F)c(F)c(F)c(F)c6F)c6ccc3[nH]6)C=C5)C=C4)cc2)c1
REMARK SMILES IDX 20 1 19 2 17 3 18 4 16 5 15 6 1 7 2 8 3 9 88 10 4 11 5 12
REMARK SMILES IDX 6 13 7 15 8 16 13 17 9 18 10 19 12 20 14 21 11 22 21 23
REMARK SMILES IDX 22 24 23 25 24 26 25 27 26 28 87 29 27 30 86 31 28 32 29 33
REMARK SMILES IDX 30 34 80 35 31 36 85 37 79 38 81 39 32 40 84 41 78 42 77 43
REMARK SMILES IDX 33 45 65 46 45 47 64 48 46 49 49 50 63 51 82 52 47 53 48 54
REMARK SMILES IDX 62 56 83 57 50 58 34 59 35 60 43 61 36 62 37 63 41 64 44 65
REMARK SMILES IDX 38 66 39 67 42 68 40 69 66 70 67 71 75 72 68 73 69 74 73 75
REMARK SMILES IDX 76 76 70 77 71 78 74 79 72 80 51 81 52 82 60 83 53 84 54 85
REMARK SMILES IDX 58 86 61 87 55 88 56 89 59 90 57 91
REMARK H PARENT 6 14 81 44 49 55
REMARK Flexibility Score: inf
ROOT
ATOM      1  C   UNL A   1      36.330  23.874  25.682  1.00  0.00     0.274 C 
ENDROOT
BRANCH   1   2
ATOM      2  O   UNL A   1      35.651  23.036  24.759  1.00  0.00    -0.462 OA
BRANCH   2   3
ATOM      3  C   UNL A   1      34.469  22.487  25.148  1.00  0.00     0.310 C 
ATOM      4  O   UNL A   1      33.776  21.751  24.488  1.00  0.00    -0.252 OA
BRANCH   3   5
ATOM      5  C   UNL A   1      34.168  22.959  26.556  1.00  0.00     0.160 C 
BRANCH   5   6
ATOM      6  C   UNL A   1      32.849  23.680  26.563  1.00  0.00    -0.013 A 
ATOM      7  C   UNL A   1      29.282  22.469  27.048  1.00  0.00     0.044 C 
ATOM      8  C   UNL A   1      30.447  23.370  26.779  1.00  0.00    -0.051 A 
ATOM      9  C   UNL A   1      30.262  24.667  26.301  1.00  0.00     0.005 A 
ATOM     10  C   UNL A   1      31.743  22.896  26.937  1.00  0.00     0.009 A 
ATOM     11  C   UNL A   1      31.357  25.470  25.961  1.00  0.00     0.026 A 
ATOM     12  C   UNL A   1      32.667  24.991  26.057  1.00  0.00     0.042 A 
BRANCH  12  13
ATOM     13  N   UNL A   1      33.731  25.755  25.534  1.00  0.00    -0.352 N 
ATOM     14  H   UNL A   1      34.616  25.544  25.908  1.00  0.00     0.167 HD
BRANCH  13  15
ATOM     15  C   UNL A   1      33.726  26.781  24.550  1.00  0.00     0.088 A 
ATOM     16  C   UNL A   1      33.780  26.442  23.191  1.00  0.00     0.147 A 
ATOM     17  C   UNL A   1      33.364  28.106  24.858  1.00  0.00     0.040 A 
ATOM     18  F   UNL A   1      34.137  25.202  22.823  1.00  0.00    -0.205 F 
ATOM     19  C   UNL A   1      33.449  27.356  22.189  1.00  0.00     0.041 A 
ATOM     20  C   UNL A   1      32.935  28.998  23.864  1.00  0.00     0.017 A 
ATOM     21  I   UNL A   1      33.744  28.954  26.735  1.00  0.00    -0.042 I 
ATOM     22  C   UNL A   1      32.976  28.620  22.527  1.00  0.00     0.004 A 
ENDBRANCH  13  15
ENDBRANCH  12  13
ENDBRANCH   5   6
ENDBRANCH   3   5
ENDBRANCH   2   3
ENDBRANCH   1   2
BRANCH   1  23
ATOM     23  C   UNL A   1      37.799  23.437  25.759  1.00  0.00     0.275 C 
BRANCH  23  24
ATOM     24  O   UNL A   1      38.598  23.902  26.915  1.00  0.00    -0.458 OA
BRANCH  24  25
ATOM     25  C   UNL A   1      39.877  24.380  26.979  1.00  0.00     0.338 C 
ATOM     26  O   UNL A   1      40.841  23.759  26.552  1.00  0.00    -0.246 OA
BRANCH  25  27
ATOM     27  C   UNL A   1      40.051  25.744  27.493  1.00  0.00     0.060 A 
ATOM     28  C   UNL A   1      40.393  26.832  26.671  1.00  0.00     0.016 A 
ATOM     29  C   UNL A   1      39.657  25.943  28.795  1.00  0.00     0.016 A 
ATOM     30  C   UNL A   1      40.165  28.126  27.136  1.00  0.00     0.010 A 
ATOM     31  C   UNL A   1      39.106  27.147  29.096  1.00  0.00     0.010 A 
ATOM     32  C   UNL A   1      39.474  28.263  28.340  1.00  0.00    -0.014 A 
BRANCH  32  33
ATOM     33  C   UNL A   1      39.370  29.480  29.126  1.00  0.00     0.031 A 
ATOM     34  C   UNL A   1      38.323  30.478  28.907  1.00  0.00     0.074 A 
ATOM     35  C   UNL A   1      40.265  29.511  30.144  1.00  0.00     0.049 A 
ATOM     36  N   UNL A   1      38.528  31.747  28.971  1.00  0.00    -0.248 NA
ATOM     37  C   UNL A   1      36.936  30.135  28.596  1.00  0.00     0.031 C 
ATOM     38  C   UNL A   1      40.399  30.386  31.287  1.00  0.00     0.029 A 
ATOM     39  N   UNL A   1      41.379  28.652  30.258  1.00  0.00    -0.354 N 
ATOM     40  C   UNL A   1      37.286  32.333  29.082  1.00  0.00     0.074 A 
ATOM     41  C   UNL A   1      36.337  31.331  28.660  1.00  0.00     0.031 C 
ATOM     42  C   UNL A   1      41.658  30.262  31.762  1.00  0.00     0.029 A 
ATOM     43  C   UNL A   1      42.396  29.370  30.871  1.00  0.00     0.049 A 
ATOM     44  H   UNL A   1      41.427  27.715  29.958  1.00  0.00     0.167 HD
ATOM     45  C   UNL A   1      37.157  33.499  29.778  1.00  0.00     0.037 A 
ATOM     46  C   UNL A   1      43.488  29.658  30.106  1.00  0.00     0.037 A 
ATOM     47  C   UNL A   1      38.433  33.849  30.396  1.00  0.00     0.049 A 
ATOM     48  C   UNL A   1      43.539  31.134  29.828  1.00  0.00     0.074 A 
ATOM     49  C   UNL A   1      38.920  33.595  31.669  1.00  0.00     0.029 A 
ATOM     50  N   UNL A   1      39.539  34.134  29.603  1.00  0.00    -0.354 N 
ATOM     51  N   UNL A   1      42.485  31.904  29.817  1.00  0.00    -0.248 NA
ATOM     52  C   UNL A   1      44.779  31.862  29.606  1.00  0.00     0.031 C 
ATOM     53  C   UNL A   1      40.332  33.673  31.625  1.00  0.00     0.029 A 
ATOM     54  C   UNL A   1      40.706  33.975  30.328  1.00  0.00     0.049 A 
ATOM     55  H   UNL A   1      39.497  34.409  28.658  1.00  0.00     0.167 HD
ATOM     56  C   UNL A   1      42.881  33.204  29.677  1.00  0.00     0.074 A 
ATOM     57  C   UNL A   1      44.325  33.125  29.528  1.00  0.00     0.031 C 
ATOM     58  C   UNL A   1      42.000  34.245  29.727  1.00  0.00     0.037 A 
BRANCH  45  59
ATOM     59  C   UNL A   1      35.829  34.082  30.197  1.00  0.00     0.064 A 
ATOM     60  C   UNL A   1      34.917  34.597  29.249  1.00  0.00     0.173 A 
ATOM     61  C   UNL A   1      35.396  34.142  31.535  1.00  0.00     0.173 A 
ATOM     62  F   UNL A   1      35.169  34.556  27.936  1.00  0.00    -0.203 F 
ATOM     63  C   UNL A   1      33.703  35.184  29.612  1.00  0.00     0.198 A 
ATOM     64  C   UNL A   1      34.190  34.756  31.902  1.00  0.00     0.198 A 
ATOM     65  F   UNL A   1      36.123  33.588  32.517  1.00  0.00    -0.203 F 
ATOM     66  F   UNL A   1      32.886  35.661  28.663  1.00  0.00    -0.200 F 
ATOM     67  C   UNL A   1      33.347  35.280  30.940  1.00  0.00     0.200 A 
ATOM     68  F   UNL A   1      33.848  34.836  33.196  1.00  0.00    -0.200 F 
ATOM     69  F   UNL A   1      32.190  35.861  31.289  1.00  0.00    -0.200 F 
ENDBRANCH  45  59
BRANCH  46  70
ATOM     70  C   UNL A   1      43.858  28.561  29.145  1.00  0.00     0.064 A 
ATOM     71  C   UNL A   1      44.093  27.266  29.667  1.00  0.00     0.173 A 
ATOM     72  C   UNL A   1      43.693  28.650  27.755  1.00  0.00     0.173 A 
ATOM     73  F   UNL A   1      44.255  27.098  30.990  1.00  0.00    -0.203 F 
ATOM     74  C   UNL A   1      44.060  26.124  28.866  1.00  0.00     0.198 A 
ATOM     75  C   UNL A   1      43.686  27.502  26.948  1.00  0.00     0.198 A 
ATOM     76  F   UNL A   1      43.460  29.836  27.175  1.00  0.00    -0.203 F 
ATOM     77  F   UNL A   1      44.171  24.910  29.425  1.00  0.00    -0.200 F 
ATOM     78  C   UNL A   1      43.840  26.241  27.507  1.00  0.00     0.200 A 
ATOM     79  F   UNL A   1      43.458  27.611  25.631  1.00  0.00    -0.200 F 
ATOM     80  F   UNL A   1      43.738  25.141  26.747  1.00  0.00    -0.200 F 
ENDBRANCH  46  70
BRANCH  58  81
ATOM     81  C   UNL A   1      42.306  35.661  29.328  1.00  0.00     0.064 A 
ATOM     82  C   UNL A   1      43.158  36.498  30.060  1.00  0.00     0.173 A 
ATOM     83  C   UNL A   1      41.871  36.162  28.077  1.00  0.00     0.173 A 
ATOM     84  F   UNL A   1      43.738  36.087  31.196  1.00  0.00    -0.203 F 
ATOM     85  C   UNL A   1      43.492  37.775  29.609  1.00  0.00     0.198 A 
ATOM     86  C   UNL A   1      42.269  37.403  27.597  1.00  0.00     0.198 A 
ATOM     87  F   UNL A   1      41.071  35.451  27.268  1.00  0.00    -0.203 F 
ATOM     88  F   UNL A   1      44.264  38.562  30.372  1.00  0.00    -0.200 F 
ATOM     89  C   UNL A   1      43.062  38.220  28.373  1.00  0.00     0.200 A 
ATOM     90  F   UNL A   1      41.897  37.790  26.368  1.00  0.00    -0.200 F 
ATOM     91  F   UNL A   1      43.431  39.425  27.922  1.00  0.00    -0.200 F 
ENDBRANCH  58  81
ENDBRANCH  32  33
ENDBRANCH  25  27
ENDBRANCH  24  25
ENDBRANCH  23  24
ENDBRANCH   1  23
TORSDOF 14
ENDMDL
MODEL 3
REMARK VINA RESULT:     -12.9      1.532      2.252
REMARK SMILES Cc1ccc(Nc2c(F)cccc2I)c(CC(=O)OCCOC(=O)c2ccc(-c3c4nc(c(-c5c(F)c(F)c(F)c(F)c5F)c5ccc([nH]5)c(-c5c(F)c(F)c(F)c(F)c5F)c5nc(c(-c6c(F)c(F)c(F)c(F)c6F)c6ccc3[nH]6)C=C5)C=C4)cc2)c1
REMARK SMILES IDX 20 1 19 2 17 3 18 4 16 5 15 6 1 7 2 8 3 9 88 10 4 11 5 12
REMARK SMILES IDX 6 13 7 15 8 16 13 17 9 18 10 19 12 20 14 21 11 22 21 23
REMARK SMILES IDX 22 24 23 25 24 26 25 27 26 28 87 29 27 30 86 31 28 32 29 33
REMARK SMILES IDX 30 34 80 35 31 36 85 37 79 38 81 39 32 40 84 41 78 42 77 43
REMARK SMILES IDX 33 45 65 46 45 47 64 48 46 49 49 50 63 51 82 52 47 53 48 54
REMARK SMILES IDX 62 56 83 57 50 58 34 59 35 60 43 61 36 62 37 63 41 64 44 65
REMARK SMILES IDX 38 66 39 67 42 68 40 69 66 70 67 71 75 72 68 73 69 74 73 75
REMARK SMILES IDX 76 76 70 77 71 78 74 79 72 80 51 81 52 82 60 83 53 84 54 85
REMARK SMILES IDX 58 86 61 87 55 88 56 89 59 90 57 91
REMARK H PARENT 6 14 81 44 49 55
REMARK Flexibility Score: inf
ROOT
ATOM      1  C   UNL A   1      33.055  29.140  26.681  1.00  0.00     0.274 C 
ENDROOT
BRANCH   1   2
ATOM      2  O   UNL A   1      32.833  27.986  25.885  1.00  0.00    -0.462 OA
BRANCH   2   3
ATOM      3  C   UNL A   1      32.533  28.168  24.571  1.00  0.00     0.310 C 
ATOM      4  O   UNL A   1      31.455  28.480  24.125  1.00  0.00    -0.252 OA
BRANCH   3   5
ATOM      5  C   UNL A   1      33.786  27.909  23.759  1.00  0.00     0.160 C 
BRANCH   5   6
ATOM      6  C   UNL A   1      33.659  26.580  23.069  1.00  0.00    -0.013 A 
ATOM      7  C   UNL A   1      32.213  25.579  19.702  1.00  0.00     0.044 C 
ATOM      8  C   UNL A   1      32.834  25.483  21.061  1.00  0.00    -0.051 A 
ATOM      9  C   UNL A   1      32.990  24.253  21.699  1.00  0.00     0.005 A 
ATOM     10  C   UNL A   1      33.200  26.639  21.740  1.00  0.00     0.009 A 
ATOM     11  C   UNL A   1      33.482  24.181  23.007  1.00  0.00     0.026 A 
ATOM     12  C   UNL A   1      33.802  25.335  23.729  1.00  0.00     0.042 A 
BRANCH  12  13
ATOM     13  N   UNL A   1      34.116  25.237  25.101  1.00  0.00    -0.352 N 
ATOM     14  H   UNL A   1      34.464  26.063  25.506  1.00  0.00     0.167 HD
BRANCH  13  15
ATOM     15  C   UNL A   1      34.008  24.133  25.990  1.00  0.00     0.088 A 
ATOM     16  C   UNL A   1      32.827  23.941  26.719  1.00  0.00     0.147 A 
ATOM     17  C   UNL A   1      34.910  23.054  25.949  1.00  0.00     0.040 A 
ATOM     18  F   UNL A   1      31.929  24.934  26.818  1.00  0.00    -0.205 F 
ATOM     19  C   UNL A   1      32.532  22.725  27.340  1.00  0.00     0.041 A 
ATOM     20  C   UNL A   1      34.578  21.800  26.485  1.00  0.00     0.017 A 
ATOM     21  I   UNL A   1      36.916  23.301  25.401  1.00  0.00    -0.042 I 
ATOM     22  C   UNL A   1      33.385  21.637  27.180  1.00  0.00     0.004 A 
ENDBRANCH  13  15
ENDBRANCH  12  13
ENDBRANCH   5   6
ENDBRANCH   3   5
ENDBRANCH   2   3
ENDBRANCH   1   2
BRANCH   1  23
ATOM     23  C   UNL A   1      34.341  28.939  27.495  1.00  0.00     0.275 C 
BRANCH  23  24
ATOM     24  O   UNL A   1      35.480  29.844  27.220  1.00  0.00    -0.458 OA
BRANCH  24  25
ATOM     25  C   UNL A   1      36.342  30.475  28.073  1.00  0.00     0.338 C 
ATOM     26  O   UNL A   1      36.090  31.550  28.597  1.00  0.00    -0.246 OA
BRANCH  25  27
ATOM     27  C   UNL A   1      37.567  29.751  28.434  1.00  0.00     0.060 A 
ATOM     28  C   UNL A   1      37.666  28.943  29.580  1.00  0.00     0.016 A 
ATOM     29  C   UNL A   1      38.554  29.739  27.477  1.00  0.00     0.016 A 
ATOM     30  C   UNL A   1      38.692  28.001  29.655  1.00  0.00     0.010 A 
ATOM     31  C   UNL A   1      39.305  28.612  27.380  1.00  0.00     0.010 A 
ATOM     32  C   UNL A   1      39.480  27.819  28.517  1.00  0.00    -0.014 A 
BRANCH  32  33
ATOM     33  C   UNL A   1      40.743  27.105  28.464  1.00  0.00     0.031 A 
ATOM     34  C   UNL A   1      40.834  25.676  28.164  1.00  0.00     0.074 A 
ATOM     35  C   UNL A   1      41.807  27.935  28.599  1.00  0.00     0.049 A 
ATOM     36  N   UNL A   1      41.654  24.878  28.756  1.00  0.00    -0.248 NA
ATOM     37  C   UNL A   1      40.007  25.010  27.161  1.00  0.00     0.031 C 
ATOM     38  C   UNL A   1      43.224  27.729  28.405  1.00  0.00     0.029 A 
ATOM     39  N   UNL A   1      41.730  29.268  29.058  1.00  0.00    -0.354 N 
ATOM     40  C   UNL A   1      41.716  23.743  27.977  1.00  0.00     0.074 A 
ATOM     41  C   UNL A   1      40.557  23.789  27.119  1.00  0.00     0.031 C 
ATOM     42  C   UNL A   1      43.882  28.717  29.050  1.00  0.00     0.029 A 
ATOM     43  C   UNL A   1      42.899  29.533  29.758  1.00  0.00     0.049 A 
ATOM     44  H   UNL A   1      40.986  29.895  28.908  1.00  0.00     0.167 HD
ATOM     45  C   UNL A   1      42.874  23.024  27.935  1.00  0.00     0.037 A 
ATOM     46  C   UNL A   1      42.774  29.725  31.103  1.00  0.00     0.037 A 
ATOM     47  C   UNL A   1      43.913  23.717  28.692  1.00  0.00     0.049 A 
ATOM     48  C   UNL A   1      43.400  28.574  31.840  1.00  0.00     0.074 A 
ATOM     49  C   UNL A   1      44.900  24.597  28.275  1.00  0.00     0.029 A 
ATOM     50  N   UNL A   1      43.769  23.910  30.061  1.00  0.00    -0.354 N 
ATOM     51  N   UNL A   1      43.523  27.376  31.338  1.00  0.00    -0.248 NA
ATOM     52  C   UNL A   1      43.987  28.699  33.165  1.00  0.00     0.031 C 
ATOM     53  C   UNL A   1      45.311  25.362  29.392  1.00  0.00     0.029 A 
ATOM     54  C   UNL A   1      44.576  24.950  30.489  1.00  0.00     0.049 A 
ATOM     55  H   UNL A   1      43.177  23.383  30.644  1.00  0.00     0.167 HD
ATOM     56  C   UNL A   1      44.255  26.604  32.195  1.00  0.00     0.074 A 
ATOM     57  C   UNL A   1      44.504  27.471  33.334  1.00  0.00     0.031 C 
ATOM     58  C   UNL A   1      44.627  25.326  31.890  1.00  0.00     0.037 A 
BRANCH  45  59
ATOM     59  C   UNL A   1      43.150  21.937  26.924  1.00  0.00     0.064 A 
ATOM     60  C   UNL A   1      42.528  20.672  27.012  1.00  0.00     0.173 A 
ATOM     61  C   UNL A   1      44.016  22.102  25.826  1.00  0.00     0.173 A 
ATOM     62  F   UNL A   1      41.639  20.390  27.970  1.00  0.00    -0.203 F 
ATOM     63  C   UNL A   1      42.801  19.635  26.117  1.00  0.00     0.198 A 
ATOM     64  C   UNL A   1      44.311  21.052  24.944  1.00  0.00     0.198 A 
ATOM     65  F   UNL A   1      44.582  23.291  25.571  1.00  0.00    -0.203 F 
ATOM     66  F   UNL A   1      42.183  18.455  26.262  1.00  0.00    -0.200 F 
ATOM     67  C   UNL A   1      43.706  19.819  25.094  1.00  0.00     0.200 A 
ATOM     68  F   UNL A   1      45.185  21.244  23.946  1.00  0.00    -0.200 F 
ATOM     69  F   UNL A   1      43.981  18.816  24.247  1.00  0.00    -0.200 F 
ENDBRANCH  45  59
BRANCH  46  70
ATOM     70  C   UNL A   1      41.517  30.452  31.496  1.00  0.00     0.064 A 
ATOM     71  C   UNL A   1      40.531  29.740  32.220  1.00  0.00     0.173 A 
ATOM     72  C   UNL A   1      41.380  31.847  31.465  1.00  0.00     0.173 A 
ATOM     73  F   UNL A   1      40.598  28.401  32.301  1.00  0.00    -0.203 F 
ATOM     74  C   UNL A   1      39.534  30.387  32.952  1.00  0.00     0.198 A 
ATOM     75  C   UNL A   1      40.361  32.494  32.181  1.00  0.00     0.198 A 
ATOM     76  F   UNL A   1      42.271  32.602  30.808  1.00  0.00    -0.203 F 
ATOM     77  F   UNL A   1      38.695  29.673  33.717  1.00  0.00    -0.200 F 
ATOM     78  C   UNL A   1      39.459  31.766  32.946  1.00  0.00     0.200 A 
ATOM     79  F   UNL A   1      40.294  33.834  32.189  1.00  0.00    -0.200 F 
ATOM     80  F   UNL A   1      38.547  32.392  33.704  1.00  0.00    -0.200 F 
ENDBRANCH  46  70
BRANCH  58  81
ATOM     81  C   UNL A   1      45.197  24.333  32.863  1.00  0.00     0.064 A 
ATOM     82  C   UNL A   1      46.455  24.478  33.461  1.00  0.00     0.173 A 
ATOM     83  C   UNL A   1      44.396  23.274  33.356  1.00  0.00     0.173 A 
ATOM     84  F   UNL A   1      47.252  25.515  33.172  1.00  0.00    -0.203 F 
ATOM     85  C   UNL A   1      46.912  23.584  34.429  1.00  0.00     0.198 A 
ATOM     86  C   UNL A   1      44.824  22.434  34.377  1.00  0.00     0.198 A 
ATOM     87  F   UNL A   1      43.161  23.041  32.886  1.00  0.00    -0.203 F 
ATOM     88  F   UNL A   1      48.146  23.729  34.930  1.00  0.00    -0.200 F 
ATOM     89  C   UNL A   1      46.092  22.575  34.898  1.00  0.00     0.200 A 
ATOM     90  F   UNL A   1      43.992  21.503  34.864  1.00  0.00    -0.200 F 
ATOM     91  F   UNL A   1      46.515  21.754  35.867  1.00  0.00    -0.200 F 
ENDBRANCH  58  81
ENDBRANCH  32  33
ENDBRANCH  25  27
ENDBRANCH  24  25
ENDBRANCH  23  24
ENDBRANCH   1  23
TORSDOF 14
ENDMDL
