MODEL 1
REMARK VINA RESULT:     -10.7      0.000      0.000
REMARK SMILES CC(C)[C@@H](CC(=O)OCCOC(=O)c1ccc(-c2c3nc(c(-c4c(F)c(F)c(F)c(F)c4F)c4ccc([nH]4)c(-c4c(F)c(F)c(F)c(F)c4F)c4nc(c(-c5c(F)c(F)c(F)c(F)c5F)c5ccc2[nH]5)C=C4)C=C3)cc1)NC(=O)OCc1ccccc1
REMARK SMILES IDX 8 1 6 2 7 3 5 4 4 5 2 6 1 7 3 8 77 9 78 10 79 12 80 13 81 14
REMARK SMILES IDX 82 15 83 16 87 17 84 18 86 19 85 20 9 21 10 22 11 23 12 24
REMARK SMILES IDX 13 25 14 26 15 27 76 28 16 29 75 30 17 31 18 32 19 33 69 34
REMARK SMILES IDX 20 35 74 36 68 37 70 38 21 39 73 40 67 41 66 42 22 44 54 45
REMARK SMILES IDX 34 46 53 47 35 48 38 49 52 50 71 51 36 52 37 53 51 55 72 56
REMARK SMILES IDX 39 57 23 58 24 59 32 60 25 61 26 62 30 63 33 64 27 65 28 66
REMARK SMILES IDX 31 67 29 68 55 69 56 70 64 71 57 72 58 73 62 74 65 75 59 76
REMARK SMILES IDX 60 77 63 78 61 79 40 80 41 81 49 82 42 83 43 84 47 85 50 86
REMARK SMILES IDX 44 87 45 88 48 89 46 90
REMARK H PARENT 77 11 70 43 38 54
REMARK Flexibility Score: inf
ROOT
ATOM      1  O   UNL A   1      38.269  21.849  26.044  1.00  0.00    -0.462 OA
ENDROOT
BRANCH   1   2
ATOM      2  C   UNL A   1      37.862  23.108  25.756  1.00  0.00     0.308 C 
ATOM      3  O   UNL A   1      38.159  24.099  26.415  1.00  0.00    -0.252 OA
BRANCH   2   4
ATOM      4  C   UNL A   1      36.944  23.204  24.557  1.00  0.00     0.148 C 
BRANCH   4   5
ATOM      5  C   UNL A   1      35.423  23.262  24.762  1.00  0.00     0.099 C 
BRANCH   5   6
ATOM      6  C   UNL A   1      34.707  24.506  24.166  1.00  0.00     0.006 C 
ATOM      7  C   UNL A   1      33.654  24.128  23.123  1.00  0.00     0.009 C 
ATOM      8  C   UNL A   1      34.047  25.345  25.270  1.00  0.00     0.009 C 
ENDBRANCH   5   6
BRANCH   5   9
ATOM      9  N   UNL A   1      35.053  23.087  26.166  1.00  0.00    -0.318 N 
ATOM     10  C   UNL A   1      34.481  21.998  26.750  1.00  0.00     0.407 C 
ATOM     11  H   UNL A   1      35.240  23.850  26.761  1.00  0.00     0.167 HD
ATOM     12  O   UNL A   1      33.946  22.076  27.854  1.00  0.00    -0.225 OA
BRANCH  10  13
ATOM     13  O   UNL A   1      34.545  20.877  25.994  1.00  0.00    -0.445 OA
BRANCH  13  14
ATOM     14  C   UNL A   1      33.360  20.585  25.241  1.00  0.00     0.270 C 
BRANCH  14  15
ATOM     15  C   UNL A   1      33.464  19.307  24.444  1.00  0.00    -0.011 A 
ATOM     16  C   UNL A   1      34.538  18.427  24.632  1.00  0.00     0.007 A 
ATOM     17  C   UNL A   1      32.480  18.986  23.498  1.00  0.00     0.007 A 
ATOM     18  C   UNL A   1      34.631  17.258  23.876  1.00  0.00     0.000 A 
ATOM     19  C   UNL A   1      32.572  17.817  22.743  1.00  0.00     0.000 A 
ATOM     20  C   UNL A   1      33.653  16.958  22.932  1.00  0.00     0.000 A 
ENDBRANCH  14  15
ENDBRANCH  13  14
ENDBRANCH  10  13
ENDBRANCH   5   9
ENDBRANCH   4   5
ENDBRANCH   2   4
ENDBRANCH   1   2
BRANCH   1  21
ATOM     21  C   UNL A   1      37.978  20.831  25.064  1.00  0.00     0.274 C 
BRANCH  21  22
ATOM     22  C   UNL A   1      38.896  19.616  25.225  1.00  0.00     0.275 C 
BRANCH  22  23
ATOM     23  O   UNL A   1      39.694  19.716  26.420  1.00  0.00    -0.458 OA
BRANCH  23  24
ATOM     24  C   UNL A   1      41.029  19.645  26.206  1.00  0.00     0.338 C 
ATOM     25  O   UNL A   1      41.645  18.695  25.752  1.00  0.00    -0.246 OA
BRANCH  24  26
ATOM     26  C   UNL A   1      41.647  20.953  26.466  1.00  0.00     0.060 A 
ATOM     27  C   UNL A   1      41.891  21.324  27.789  1.00  0.00     0.016 A 
ATOM     28  C   UNL A   1      41.896  21.844  25.425  1.00  0.00     0.016 A 
ATOM     29  C   UNL A   1      42.379  22.593  28.084  1.00  0.00     0.010 A 
ATOM     30  C   UNL A   1      42.415  23.110  25.719  1.00  0.00     0.010 A 
ATOM     31  C   UNL A   1      42.650  23.498  27.051  1.00  0.00    -0.014 A 
BRANCH  31  32
ATOM     32  C   UNL A   1      43.167  24.852  27.370  1.00  0.00     0.031 A 
ATOM     33  C   UNL A   1      42.254  25.891  27.955  1.00  0.00     0.074 A 
ATOM     34  C   UNL A   1      44.458  25.149  27.125  1.00  0.00     0.049 A 
ATOM     35  N   UNL A   1      42.498  27.148  28.231  1.00  0.00    -0.248 NA
ATOM     36  C   UNL A   1      40.883  25.463  28.269  1.00  0.00     0.031 C 
ATOM     37  C   UNL A   1      45.448  24.221  26.580  1.00  0.00     0.029 A 
ATOM     38  N   UNL A   1      45.152  26.322  27.285  1.00  0.00    -0.354 N 
ATOM     39  C   UNL A   1      41.315  27.657  28.752  1.00  0.00     0.074 A 
ATOM     40  C   UNL A   1      40.341  26.589  28.711  1.00  0.00     0.031 C 
ATOM     41  C   UNL A   1      46.619  24.862  26.437  1.00  0.00     0.029 A 
ATOM     42  C   UNL A   1      46.448  26.257  26.833  1.00  0.00     0.049 A 
ATOM     43  H   UNL A   1      44.760  27.131  27.686  1.00  0.00     0.167 HD
ATOM     44  C   UNL A   1      41.073  28.898  29.238  1.00  0.00     0.037 A 
ATOM     45  C   UNL A   1      47.380  27.221  26.715  1.00  0.00     0.037 A 
ATOM     46  C   UNL A   1      42.037  29.965  29.261  1.00  0.00     0.049 A 
ATOM     47  C   UNL A   1      47.048  28.621  27.156  1.00  0.00     0.074 A 
ATOM     48  C   UNL A   1      41.886  31.253  29.740  1.00  0.00     0.029 A 
ATOM     49  N   UNL A   1      43.329  29.868  28.766  1.00  0.00    -0.354 N 
ATOM     50  N   UNL A   1      45.942  29.081  27.689  1.00  0.00    -0.248 NA
ATOM     51  C   UNL A   1      48.095  29.636  26.978  1.00  0.00     0.031 C 
ATOM     52  C   UNL A   1      43.071  31.953  29.487  1.00  0.00     0.029 A 
ATOM     53  C   UNL A   1      43.976  31.085  28.896  1.00  0.00     0.049 A 
ATOM     54  H   UNL A   1      43.727  29.054  28.381  1.00  0.00     0.167 HD
ATOM     55  C   UNL A   1      46.166  30.428  27.934  1.00  0.00     0.074 A 
ATOM     56  C   UNL A   1      47.521  30.711  27.503  1.00  0.00     0.031 C 
ATOM     57  C   UNL A   1      45.328  31.349  28.469  1.00  0.00     0.037 A 
BRANCH  44  58
ATOM     58  C   UNL A   1      39.701  29.172  29.774  1.00  0.00     0.064 A 
ATOM     59  C   UNL A   1      38.653  29.565  28.929  1.00  0.00     0.173 A 
ATOM     60  C   UNL A   1      39.419  29.009  31.137  1.00  0.00     0.173 A 
ATOM     61  F   UNL A   1      38.866  29.709  27.614  1.00  0.00    -0.203 F 
ATOM     62  C   UNL A   1      37.382  29.826  29.435  1.00  0.00     0.198 A 
ATOM     63  C   UNL A   1      38.141  29.242  31.636  1.00  0.00     0.198 A 
ATOM     64  F   UNL A   1      40.383  28.615  31.983  1.00  0.00    -0.203 F 
ATOM     65  F   UNL A   1      36.408  30.244  28.615  1.00  0.00    -0.200 F 
ATOM     66  C   UNL A   1      37.126  29.661  30.788  1.00  0.00     0.200 A 
ATOM     67  F   UNL A   1      37.889  29.065  32.941  1.00  0.00    -0.200 F 
ATOM     68  F   UNL A   1      35.901  29.907  31.274  1.00  0.00    -0.200 F 
ENDBRANCH  44  58
BRANCH  45  69
ATOM     69  C   UNL A   1      48.704  26.900  26.121  1.00  0.00     0.064 A 
ATOM     70  C   UNL A   1      48.950  27.081  24.754  1.00  0.00     0.173 A 
ATOM     71  C   UNL A   1      49.750  26.399  26.911  1.00  0.00     0.173 A 
ATOM     72  F   UNL A   1      47.974  27.533  23.952  1.00  0.00    -0.203 F 
ATOM     73  C   UNL A   1      50.185  26.759  24.197  1.00  0.00     0.198 A 
ATOM     74  C   UNL A   1      50.995  26.107  26.358  1.00  0.00     0.198 A 
ATOM     75  F   UNL A   1      49.566  26.204  28.225  1.00  0.00    -0.203 F 
ATOM     76  F   UNL A   1      50.380  26.900  22.878  1.00  0.00    -0.200 F 
ATOM     77  C   UNL A   1      51.210  26.279  25.000  1.00  0.00     0.200 A 
ATOM     78  F   UNL A   1      51.983  25.654  27.141  1.00  0.00    -0.200 F 
ATOM     79  F   UNL A   1      52.399  25.975  24.464  1.00  0.00    -0.200 F 
ENDBRANCH  45  69
BRANCH  57  80
ATOM     80  C   UNL A   1      45.859  32.740  28.651  1.00  0.00     0.064 A 
ATOM     81  C   UNL A   1      45.680  33.730  27.675  1.00  0.00     0.173 A 
ATOM     82  C   UNL A   1      46.518  33.098  29.838  1.00  0.00     0.173 A 
ATOM     83  F   UNL A   1      45.069  33.434  26.517  1.00  0.00    -0.203 F 
ATOM     84  C   UNL A   1      46.163  35.021  27.869  1.00  0.00     0.198 A 
ATOM     85  C   UNL A   1      46.973  34.397  30.040  1.00  0.00     0.198 A 
ATOM     86  F   UNL A   1      46.709  32.189  30.805  1.00  0.00    -0.203 F 
ATOM     87  F   UNL A   1      46.021  35.940  26.903  1.00  0.00    -0.200 F 
ATOM     88  C   UNL A   1      46.801  35.355  29.053  1.00  0.00     0.200 A 
ATOM     89  F   UNL A   1      47.577  34.722  31.192  1.00  0.00    -0.200 F 
ATOM     90  F   UNL A   1      47.257  36.602  29.242  1.00  0.00    -0.200 F 
ENDBRANCH  57  80
ENDBRANCH  31  32
ENDBRANCH  24  26
ENDBRANCH  23  24
ENDBRANCH  22  23
ENDBRANCH  21  22
ENDBRANCH   1  21
TORSDOF 17
ENDMDL
MODEL 2
REMARK VINA RESULT:     -10.5      1.981      4.288
REMARK SMILES CC(C)[C@@H](CC(=O)OCCOC(=O)c1ccc(-c2c3nc(c(-c4c(F)c(F)c(F)c(F)c4F)c4ccc([nH]4)c(-c4c(F)c(F)c(F)c(F)c4F)c4nc(c(-c5c(F)c(F)c(F)c(F)c5F)c5ccc2[nH]5)C=C4)C=C3)cc1)NC(=O)OCc1ccccc1
REMARK SMILES IDX 8 1 6 2 7 3 5 4 4 5 2 6 1 7 3 8 77 9 78 10 79 12 80 13 81 14
REMARK SMILES IDX 82 15 83 16 87 17 84 18 86 19 85 20 9 21 10 22 11 23 12 24
REMARK SMILES IDX 13 25 14 26 15 27 76 28 16 29 75 30 17 31 18 32 19 33 69 34
REMARK SMILES IDX 20 35 74 36 68 37 70 38 21 39 73 40 67 41 66 42 22 44 54 45
REMARK SMILES IDX 34 46 53 47 35 48 38 49 52 50 71 51 36 52 37 53 51 55 72 56
REMARK SMILES IDX 39 57 23 58 24 59 32 60 25 61 26 62 30 63 33 64 27 65 28 66
REMARK SMILES IDX 31 67 29 68 55 69 56 70 64 71 57 72 58 73 62 74 65 75 59 76
REMARK SMILES IDX 60 77 63 78 61 79 40 80 41 81 49 82 42 83 43 84 47 85 50 86
REMARK SMILES IDX 44 87 45 88 48 89 46 90
REMARK H PARENT 77 11 70 43 38 54
REMARK Flexibility Score: inf
ROOT
ATOM      1  O   UNL A   1      35.654  23.551  24.155  1.00  0.00    -0.462 OA
ENDROOT
BRANCH   1   2
ATOM      2  C   UNL A   1      34.486  23.746  23.500  1.00  0.00     0.308 C 
ATOM      3  O   UNL A   1      34.329  24.555  22.592  1.00  0.00    -0.252 OA
BRANCH   2   4
ATOM      4  C   UNL A   1      33.338  22.905  24.015  1.00  0.00     0.148 C 
BRANCH   4   5
ATOM      5  C   UNL A   1      33.138  22.731  25.529  1.00  0.00     0.099 C 
BRANCH   5   6
ATOM      6  C   UNL A   1      33.862  21.515  26.170  1.00  0.00     0.006 C 
ATOM      7  C   UNL A   1      33.964  21.634  27.692  1.00  0.00     0.009 C 
ATOM      8  C   UNL A   1      33.155  20.200  25.812  1.00  0.00     0.009 C 
ENDBRANCH   5   6
BRANCH   5   9
ATOM      9  N   UNL A   1      31.724  22.733  25.898  1.00  0.00    -0.318 N 
ATOM     10  C   UNL A   1      31.072  23.617  26.704  1.00  0.00     0.407 C 
ATOM     11  H   UNL A   1      31.177  22.007  25.519  1.00  0.00     0.167 HD
ATOM     12  O   UNL A   1      29.970  23.349  27.179  1.00  0.00    -0.225 OA
BRANCH  10  13
ATOM     13  O   UNL A   1      31.761  24.760  26.930  1.00  0.00    -0.445 OA
BRANCH  13  14
ATOM     14  C   UNL A   1      31.211  25.931  26.311  1.00  0.00     0.270 C 
BRANCH  14  15
ATOM     15  C   UNL A   1      32.069  27.159  26.499  1.00  0.00    -0.011 A 
ATOM     16  C   UNL A   1      31.591  28.269  27.208  1.00  0.00     0.007 A 
ATOM     17  C   UNL A   1      33.363  27.202  25.960  1.00  0.00     0.007 A 
ATOM     18  C   UNL A   1      32.389  29.403  27.360  1.00  0.00     0.000 A 
ATOM     19  C   UNL A   1      34.160  28.335  26.113  1.00  0.00     0.000 A 
ATOM     20  C   UNL A   1      33.667  29.437  26.809  1.00  0.00     0.000 A 
ENDBRANCH  14  15
ENDBRANCH  13  14
ENDBRANCH  10  13
ENDBRANCH   5   9
ENDBRANCH   4   5
ENDBRANCH   2   4
ENDBRANCH   1   2
BRANCH   1  21
ATOM     21  C   UNL A   1      36.610  22.668  23.532  1.00  0.00     0.274 C 
BRANCH  21  22
ATOM     22  C   UNL A   1      36.959  21.484  24.438  1.00  0.00     0.275 C 
BRANCH  22  23
ATOM     23  O   UNL A   1      37.363  21.928  25.748  1.00  0.00    -0.458 OA
BRANCH  23  24
ATOM     24  C   UNL A   1      38.638  21.611  26.075  1.00  0.00     0.338 C 
ATOM     25  O   UNL A   1      39.195  20.543  25.886  1.00  0.00    -0.246 OA
BRANCH  24  26
ATOM     26  C   UNL A   1      39.335  22.803  26.577  1.00  0.00     0.060 A 
ATOM     27  C   UNL A   1      38.930  24.056  26.117  1.00  0.00     0.016 A 
ATOM     28  C   UNL A   1      40.439  22.683  27.420  1.00  0.00     0.016 A 
ATOM     29  C   UNL A   1      39.629  25.201  26.488  1.00  0.00     0.010 A 
ATOM     30  C   UNL A   1      41.124  23.837  27.816  1.00  0.00     0.010 A 
ATOM     31  C   UNL A   1      40.731  25.103  27.345  1.00  0.00    -0.014 A 
BRANCH  31  32
ATOM     32  C   UNL A   1      41.477  26.326  27.735  1.00  0.00     0.031 A 
ATOM     33  C   UNL A   1      40.783  27.429  28.480  1.00  0.00     0.074 A 
ATOM     34  C   UNL A   1      42.778  26.446  27.409  1.00  0.00     0.049 A 
ATOM     35  N   UNL A   1      41.242  28.602  28.841  1.00  0.00    -0.248 NA
ATOM     36  C   UNL A   1      39.386  27.186  28.870  1.00  0.00     0.031 C 
ATOM     37  C   UNL A   1      43.568  25.436  26.705  1.00  0.00     0.029 A 
ATOM     38  N   UNL A   1      43.660  27.478  27.610  1.00  0.00    -0.354 N 
ATOM     39  C   UNL A   1      40.194  29.231  29.501  1.00  0.00     0.074 A 
ATOM     40  C   UNL A   1      39.062  28.333  29.451  1.00  0.00     0.031 C 
ATOM     41  C   UNL A   1      44.813  25.902  26.520  1.00  0.00     0.029 A 
ATOM     42  C   UNL A   1      44.894  27.262  27.048  1.00  0.00     0.049 A 
ATOM     43  H   UNL A   1      43.430  28.295  28.110  1.00  0.00     0.167 HD
ATOM     44  C   UNL A   1      40.186  30.440  30.110  1.00  0.00     0.037 A 
ATOM     45  C   UNL A   1      45.957  28.081  26.935  1.00  0.00     0.037 A 
ATOM     46  C   UNL A   1      41.307  31.341  30.144  1.00  0.00     0.049 A 
ATOM     47  C   UNL A   1      45.883  29.464  27.521  1.00  0.00     0.074 A 
ATOM     48  C   UNL A   1      41.397  32.585  30.742  1.00  0.00     0.029 A 
ATOM     49  N   UNL A   1      42.530  31.098  29.537  1.00  0.00    -0.354 N 
ATOM     50  N   UNL A   1      44.904  30.033  28.181  1.00  0.00    -0.248 NA
ATOM     51  C   UNL A   1      47.063  30.322  27.344  1.00  0.00     0.031 C 
ATOM     52  C   UNL A   1      42.657  33.118  30.453  1.00  0.00     0.029 A 
ATOM     53  C   UNL A   1      43.370  32.185  29.716  1.00  0.00     0.049 A 
ATOM     54  H   UNL A   1      42.766  30.275  29.051  1.00  0.00     0.167 HD
ATOM     55  C   UNL A   1      45.356  31.300  28.522  1.00  0.00     0.074 A 
ATOM     56  C   UNL A   1      46.705  31.414  28.005  1.00  0.00     0.031 C 
ATOM     57  C   UNL A   1      44.713  32.281  29.202  1.00  0.00     0.037 A 
BRANCH  44  58
ATOM     58  C   UNL A   1      38.916  30.866  30.780  1.00  0.00     0.064 A 
ATOM     59  C   UNL A   1      38.722  30.689  32.158  1.00  0.00     0.173 A 
ATOM     60  C   UNL A   1      37.895  31.489  30.049  1.00  0.00     0.173 A 
ATOM     61  F   UNL A   1      39.679  30.122  32.905  1.00  0.00    -0.203 F 
ATOM     62  C   UNL A   1      37.535  31.080  32.772  1.00  0.00     0.198 A 
ATOM     63  C   UNL A   1      36.721  31.906  30.670  1.00  0.00     0.198 A 
ATOM     64  F   UNL A   1      38.040  31.700  28.731  1.00  0.00    -0.203 F 
ATOM     65  F   UNL A   1      37.355  30.859  34.082  1.00  0.00    -0.200 F 
ATOM     66  C   UNL A   1      36.538  31.691  32.029  1.00  0.00     0.200 A 
ATOM     67  F   UNL A   1      35.764  32.513  29.954  1.00  0.00    -0.200 F 
ATOM     68  F   UNL A   1      35.397  32.073  32.621  1.00  0.00    -0.200 F 
ENDBRANCH  44  58
BRANCH  45  69
ATOM     69  C   UNL A   1      47.169  27.622  26.207  1.00  0.00     0.064 A 
ATOM     70  C   UNL A   1      48.261  27.070  26.891  1.00  0.00     0.173 A 
ATOM     71  C   UNL A   1      47.262  27.733  24.811  1.00  0.00     0.173 A 
ATOM     72  F   UNL A   1      48.231  26.967  28.228  1.00  0.00    -0.203 F 
ATOM     73  C   UNL A   1      49.404  26.661  26.208  1.00  0.00     0.198 A 
ATOM     74  C   UNL A   1      48.393  27.295  24.127  1.00  0.00     0.198 A 
ATOM     75  F   UNL A   1      46.246  28.257  24.110  1.00  0.00    -0.203 F 
ATOM     76  F   UNL A   1      50.451  26.179  26.890  1.00  0.00    -0.200 F 
ATOM     77  C   UNL A   1      49.467  26.767  24.826  1.00  0.00     0.200 A 
ATOM     78  F   UNL A   1      48.444  27.389  22.792  1.00  0.00    -0.200 F 
ATOM     79  F   UNL A   1      50.566  26.368  24.170  1.00  0.00    -0.200 F 
ENDBRANCH  45  69
BRANCH  57  80
ATOM     80  C   UNL A   1      45.470  33.550  29.457  1.00  0.00     0.064 A 
ATOM     81  C   UNL A   1      46.272  33.713  30.596  1.00  0.00     0.173 A 
ATOM     82  C   UNL A   1      45.425  34.602  28.528  1.00  0.00     0.173 A 
ATOM     83  F   UNL A   1      46.336  32.743  31.521  1.00  0.00    -0.203 F 
ATOM     84  C   UNL A   1      46.983  34.892  30.807  1.00  0.00     0.198 A 
ATOM     85  C   UNL A   1      46.160  35.765  28.728  1.00  0.00     0.198 A 
ATOM     86  F   UNL A   1      44.677  34.493  27.420  1.00  0.00    -0.203 F 
ATOM     87  F   UNL A   1      47.707  35.044  31.925  1.00  0.00    -0.200 F 
ATOM     88  C   UNL A   1      46.933  35.912  29.870  1.00  0.00     0.200 A 
ATOM     89  F   UNL A   1      46.122  36.746  27.815  1.00  0.00    -0.200 F 
ATOM     90  F   UNL A   1      47.625  37.043  30.071  1.00  0.00    -0.200 F 
ENDBRANCH  57  80
ENDBRANCH  31  32
ENDBRANCH  24  26
ENDBRANCH  23  24
ENDBRANCH  22  23
ENDBRANCH  21  22
ENDBRANCH   1  21
TORSDOF 17
ENDMDL
MODEL 3
REMARK VINA RESULT:     -10.5      1.511      2.303
REMARK SMILES CC(C)[C@@H](CC(=O)OCCOC(=O)c1ccc(-c2c3nc(c(-c4c(F)c(F)c(F)c(F)c4F)c4ccc([nH]4)c(-c4c(F)c(F)c(F)c(F)c4F)c4nc(c(-c5c(F)c(F)c(F)c(F)c5F)c5ccc2[nH]5)C=C4)C=C3)cc1)NC(=O)OCc1ccccc1
REMARK SMILES IDX 8 1 6 2 7 3 5 4 4 5 2 6 1 7 3 8 77 9 78 10 79 12 80 13 81 14
REMARK SMILES IDX 82 15 83 16 87 17 84 18 86 19 85 20 9 21 10 22 11 23 12 24
REMARK SMILES IDX 13 25 14 26 15 27 76 28 16 29 75 30 17 31 18 32 19 33 69 34
REMARK SMILES IDX 20 35 74 36 68 37 70 38 21 39 73 40 67 41 66 42 22 44 54 45
REMARK SMILES IDX 34 46 53 47 35 48 38 49 52 50 71 51 36 52 37 53 51 55 72 56
REMARK SMILES IDX 39 57 23 58 24 59 32 60 25 61 26 62 30 63 33 64 27 65 28 66
REMARK SMILES IDX 31 67 29 68 55 69 56 70 64 71 57 72 58 73 62 74 65 75 59 76
REMARK SMILES IDX 60 77 63 78 61 79 40 80 41 81 49 82 42 83 43 84 47 85 50 86
REMARK SMILES IDX 44 87 45 88 48 89 46 90
REMARK H PARENT 77 11 70 43 38 54
REMARK Flexibility Score: inf
ROOT
ATOM      1  O   UNL A   1      36.485  23.404  24.863  1.00  0.00    -0.462 OA
ENDROOT
BRANCH   1   2
ATOM      2  C   UNL A   1      35.383  23.789  25.549  1.00  0.00     0.308 C 
ATOM      3  O   UNL A   1      35.041  23.316  26.628  1.00  0.00    -0.252 OA
BRANCH   2   4
ATOM      4  C   UNL A   1      34.549  24.838  24.847  1.00  0.00     0.148 C 
BRANCH   4   5
ATOM      5  C   UNL A   1      33.210  24.444  24.203  1.00  0.00     0.099 C 
BRANCH   5   6
ATOM      6  C   UNL A   1      32.474  25.574  23.432  1.00  0.00     0.006 C 
ATOM      7  C   UNL A   1      33.366  26.240  22.382  1.00  0.00     0.009 C 
ATOM      8  C   UNL A   1      31.204  25.042  22.751  1.00  0.00     0.009 C 
ENDBRANCH   5   6
BRANCH   5   9
ATOM      9  N   UNL A   1      32.307  23.812  25.163  1.00  0.00    -0.318 N 
ATOM     10  C   UNL A   1      31.925  22.506  25.215  1.00  0.00     0.407 C 
ATOM     11  H   UNL A   1      31.929  24.402  25.855  1.00  0.00     0.167 HD
ATOM     12  O   UNL A   1      30.942  22.157  25.867  1.00  0.00    -0.225 OA
BRANCH  10  13
ATOM     13  O   UNL A   1      32.702  21.680  24.476  1.00  0.00    -0.445 OA
BRANCH  13  14
ATOM     14  C   UNL A   1      33.337  20.626  25.214  1.00  0.00     0.270 C 
BRANCH  14  15
ATOM     15  C   UNL A   1      33.450  19.340  24.431  1.00  0.00    -0.011 A 
ATOM     16  C   UNL A   1      34.532  18.472  24.626  1.00  0.00     0.007 A 
ATOM     17  C   UNL A   1      32.465  18.999  23.492  1.00  0.00     0.007 A 
ATOM     18  C   UNL A   1      34.632  17.295  23.884  1.00  0.00     0.000 A 
ATOM     19  C   UNL A   1      32.565  17.823  22.752  1.00  0.00     0.000 A 
ATOM     20  C   UNL A   1      33.653  16.975  22.946  1.00  0.00     0.000 A 
ENDBRANCH  14  15
ENDBRANCH  13  14
ENDBRANCH  10  13
ENDBRANCH   5   9
ENDBRANCH   4   5
ENDBRANCH   2   4
ENDBRANCH   1   2
BRANCH   1  21
ATOM     21  C   UNL A   1      36.417  22.134  24.181  1.00  0.00     0.274 C 
BRANCH  21  22
ATOM     22  C   UNL A   1      37.434  21.138  24.743  1.00  0.00     0.275 C 
BRANCH  22  23
ATOM     23  O   UNL A   1      37.858  21.512  26.068  1.00  0.00    -0.458 OA
BRANCH  23  24
ATOM     24  C   UNL A   1      39.172  21.300  26.314  1.00  0.00     0.338 C 
ATOM     25  O   UNL A   1      39.793  20.268  26.119  1.00  0.00    -0.246 OA
BRANCH  24  26
ATOM     26  C   UNL A   1      39.813  22.556  26.728  1.00  0.00     0.060 A 
ATOM     27  C   UNL A   1      39.396  23.745  26.129  1.00  0.00     0.016 A 
ATOM     28  C   UNL A   1      40.878  22.553  27.626  1.00  0.00     0.016 A 
ATOM     29  C   UNL A   1      40.045  24.942  26.416  1.00  0.00     0.010 A 
ATOM     30  C   UNL A   1      41.512  23.761  27.938  1.00  0.00     0.010 A 
ATOM     31  C   UNL A   1      41.108  24.962  27.328  1.00  0.00    -0.014 A 
BRANCH  31  32
ATOM     32  C   UNL A   1      41.801  26.240  27.629  1.00  0.00     0.031 A 
ATOM     33  C   UNL A   1      41.092  27.323  28.388  1.00  0.00     0.074 A 
ATOM     34  C   UNL A   1      43.067  26.426  27.209  1.00  0.00     0.049 A 
ATOM     35  N   UNL A   1      41.501  28.533  28.682  1.00  0.00    -0.248 NA
ATOM     36  C   UNL A   1      39.743  27.010  28.881  1.00  0.00     0.031 C 
ATOM     37  C   UNL A   1      43.869  25.442  26.482  1.00  0.00     0.029 A 
ATOM     38  N   UNL A   1      43.895  27.516  27.319  1.00  0.00    -0.354 N 
ATOM     39  C   UNL A   1      40.463  29.120  29.395  1.00  0.00     0.074 A 
ATOM     40  C   UNL A   1      39.388  28.154  29.450  1.00  0.00     0.031 C 
ATOM     41  C   UNL A   1      45.067  25.976  26.197  1.00  0.00     0.029 A 
ATOM     42  C   UNL A   1      45.099  27.355  26.678  1.00  0.00     0.049 A 
ATOM     43  H   UNL A   1      43.649  28.333  27.810  1.00  0.00     0.167 HD
ATOM     44  C   UNL A   1      40.422  30.346  29.968  1.00  0.00     0.037 A 
ATOM     45  C   UNL A   1      46.099  28.232  26.467  1.00  0.00     0.037 A 
ATOM     46  C   UNL A   1      41.484  31.314  29.897  1.00  0.00     0.049 A 
ATOM     47  C   UNL A   1      45.979  29.628  27.016  1.00  0.00     0.074 A 
ATOM     48  C   UNL A   1      41.537  32.580  30.451  1.00  0.00     0.029 A 
ATOM     49  N   UNL A   1      42.676  31.124  29.213  1.00  0.00    -0.354 N 
ATOM     50  N   UNL A   1      45.014  30.158  27.727  1.00  0.00    -0.248 NA
ATOM     51  C   UNL A   1      47.089  30.548  26.733  1.00  0.00     0.031 C 
ATOM     52  C   UNL A   1      42.739  33.177  30.059  1.00  0.00     0.029 A 
ATOM     53  C   UNL A   1      43.457  32.264  29.301  1.00  0.00     0.049 A 
ATOM     54  H   UNL A   1      42.929  30.301  28.737  1.00  0.00     0.167 HD
ATOM     55  C   UNL A   1      45.409  31.461  27.998  1.00  0.00     0.074 A 
ATOM     56  C   UNL A   1      46.709  31.638  27.385  1.00  0.00     0.031 C 
ATOM     57  C   UNL A   1      44.754  32.423  28.692  1.00  0.00     0.037 A 
BRANCH  44  58
ATOM     58  C   UNL A   1      39.176  30.718  30.712  1.00  0.00     0.064 A 
ATOM     59  C   UNL A   1      38.090  31.323  30.062  1.00  0.00     0.173 A 
ATOM     60  C   UNL A   1      39.048  30.436  32.079  1.00  0.00     0.173 A 
ATOM     61  F   UNL A   1      38.154  31.588  28.750  1.00  0.00    -0.203 F 
ATOM     62  C   UNL A   1      36.939  31.672  30.762  1.00  0.00     0.198 A 
ATOM     63  C   UNL A   1      37.884  30.761  32.770  1.00  0.00     0.198 A 
ATOM     64  F   UNL A   1      40.051  29.841  32.742  1.00  0.00    -0.203 F 
ATOM     65  F   UNL A   1      35.932  32.290  30.128  1.00  0.00    -0.200 F 
ATOM     66  C   UNL A   1      36.835  31.387  32.114  1.00  0.00     0.200 A 
ATOM     67  F   UNL A   1      37.777  30.468  34.075  1.00  0.00    -0.200 F 
ATOM     68  F   UNL A   1      35.723  31.719  32.787  1.00  0.00    -0.200 F 
ENDBRANCH  44  58
BRANCH  45  69
ATOM     69  C   UNL A   1      47.286  27.822  25.671  1.00  0.00     0.064 A 
ATOM     70  C   UNL A   1      48.476  27.424  26.293  1.00  0.00     0.173 A 
ATOM     71  C   UNL A   1      47.253  27.828  24.268  1.00  0.00     0.173 A 
ATOM     72  F   UNL A   1      48.565  27.428  27.632  1.00  0.00    -0.203 F 
ATOM     73  C   UNL A   1      49.593  27.062  25.544  1.00  0.00     0.198 A 
ATOM     74  C   UNL A   1      48.361  27.435  23.520  1.00  0.00     0.198 A 
ATOM     75  F   UNL A   1      46.139  28.204  23.623  1.00  0.00    -0.203 F 
ATOM     76  F   UNL A   1      50.733  26.729  26.164  1.00  0.00    -0.200 F 
ATOM     77  C   UNL A   1      49.533  27.061  24.158  1.00  0.00     0.200 A 
ATOM     78  F   UNL A   1      48.293  27.426  22.182  1.00  0.00    -0.200 F 
ATOM     79  F   UNL A   1      50.606  26.707  23.438  1.00  0.00    -0.200 F 
ENDBRANCH  45  69
BRANCH  57  80
ATOM     80  C   UNL A   1      45.446  33.744  28.857  1.00  0.00     0.064 A 
ATOM     81  C   UNL A   1      45.244  34.798  27.956  1.00  0.00     0.173 A 
ATOM     82  C   UNL A   1      46.289  33.970  29.957  1.00  0.00     0.173 A 
ATOM     83  F   UNL A   1      44.459  34.627  26.880  1.00  0.00    -0.203 F 
ATOM     84  C   UNL A   1      45.880  36.024  28.135  1.00  0.00     0.198 A 
ATOM     85  C   UNL A   1      46.898  35.205  30.149  1.00  0.00     0.198 A 
ATOM     86  F   UNL A   1      46.510  32.995  30.851  1.00  0.00    -0.203 F 
ATOM     87  F   UNL A   1      45.709  37.004  27.236  1.00  0.00    -0.200 F 
ATOM     88  C   UNL A   1      46.699  36.229  29.235  1.00  0.00     0.200 A 
ATOM     89  F   UNL A   1      47.679  35.407  31.220  1.00  0.00    -0.200 F 
ATOM     90  F   UNL A   1      47.303  37.413  29.411  1.00  0.00    -0.200 F 
ENDBRANCH  57  80
ENDBRANCH  31  32
ENDBRANCH  24  26
ENDBRANCH  23  24
ENDBRANCH  22  23
ENDBRANCH  21  22
ENDBRANCH   1  21
TORSDOF 17
ENDMDL
