MODEL 1
REMARK VINA RESULT:     -10.7      0.000      0.000
REMARK SMILES C=CCN(CC(=O)OCCOC(=O)c1ccc(-c2c3nc(c(-c4c(F)c(F)c(F)c(F)c4F)c4ccc([nH]4)c(-c4c(F)c(F)c(F)c(F)c4F)c4nc(c(-c5c(F)c(F)c(F)c(F)c5F)c5ccc2[nH]5)C=C4)C=C3)cc1)C(=O)/C=C/c1ccc(OC)cc1
REMARK SMILES IDX 8 1 6 2 7 3 5 4 4 5 3 6 2 7 1 8 77 9 78 10 79 11 80 12 81 13
REMARK SMILES IDX 82 14 88 15 83 16 87 17 84 18 85 19 86 20 9 21 10 22 11 23
REMARK SMILES IDX 12 24 13 25 14 26 15 27 76 28 16 29 75 30 17 31 18 32 19 33
REMARK SMILES IDX 69 34 20 35 74 36 68 37 70 38 21 39 73 40 67 41 66 42 22 44
REMARK SMILES IDX 54 45 34 46 53 47 35 48 38 49 52 50 71 51 36 52 37 53 51 55
REMARK SMILES IDX 72 56 39 57 23 58 24 59 32 60 25 61 26 62 30 63 33 64 27 65
REMARK SMILES IDX 28 66 31 67 29 68 55 69 56 70 64 71 57 72 58 73 62 74 65 75
REMARK SMILES IDX 59 76 60 77 63 78 61 79 40 80 41 81 49 82 42 83 43 84 47 85
REMARK SMILES IDX 50 86 44 87 45 88 48 89 46 90
REMARK H PARENT 70 43 38 54
REMARK Flexibility Score: inf
ROOT
ATOM      1  O   UNL A   1      31.639  28.325  26.443  1.00  0.00    -0.461 OA
ENDROOT
BRANCH   1   2
ATOM      2  C   UNL A   1      32.401  27.218  26.238  1.00  0.00     0.325 C 
ATOM      3  O   UNL A   1      33.632  27.231  26.229  1.00  0.00    -0.250 OA
BRANCH   2   4
ATOM      4  C   UNL A   1      31.638  25.888  26.255  1.00  0.00     0.242 C 
BRANCH   4   5
ATOM      5  N   UNL A   1      31.589  24.939  25.134  1.00  0.00    -0.324 N 
BRANCH   5   6
ATOM      6  C   UNL A   1      32.485  23.792  25.218  1.00  0.00     0.147 C 
BRANCH   6   7
ATOM      7  C   UNL A   1      33.613  23.940  24.231  1.00  0.00    -0.014 C 
ATOM      8  C   UNL A   1      34.879  24.224  24.563  1.00  0.00     0.006 C 
ENDBRANCH   6   7
ENDBRANCH   5   6
BRANCH   5   9
ATOM      9  C   UNL A   1      30.609  24.928  24.145  1.00  0.00     0.247 C 
ATOM     10  O   UNL A   1      30.385  23.965  23.416  1.00  0.00    -0.270 OA
BRANCH   9  11
ATOM     11  C   UNL A   1      29.852  26.185  23.920  1.00  0.00     0.072 C 
ATOM     12  C   UNL A   1      30.272  27.146  23.076  1.00  0.00     0.014 C 
BRANCH  12  13
ATOM     13  C   UNL A   1      29.543  28.401  22.751  1.00  0.00    -0.025 A 
ATOM     14  C   UNL A   1      30.113  29.481  22.066  1.00  0.00     0.012 A 
ATOM     15  C   UNL A   1      28.223  28.557  23.196  1.00  0.00     0.012 A 
ATOM     16  C   UNL A   1      29.441  30.707  21.945  1.00  0.00     0.047 A 
ATOM     17  C   UNL A   1      27.540  29.781  23.068  1.00  0.00     0.047 A 
ATOM     18  C   UNL A   1      28.169  30.876  22.484  1.00  0.00     0.118 A 
BRANCH  18  19
ATOM     19  O   UNL A   1      27.658  32.139  22.379  1.00  0.00    -0.497 OA
ATOM     20  C   UNL A   1      28.518  33.211  22.751  1.00  0.00     0.278 C 
ENDBRANCH  18  19
ENDBRANCH  12  13
ENDBRANCH   9  11
ENDBRANCH   5   9
ENDBRANCH   4   5
ENDBRANCH   2   4
ENDBRANCH   1   2
BRANCH   1  21
ATOM     21  C   UNL A   1      31.845  29.392  25.482  1.00  0.00     0.274 C 
BRANCH  21  22
ATOM     22  C   UNL A   1      32.033  30.792  26.112  1.00  0.00     0.275 C 
BRANCH  22  23
ATOM     23  O   UNL A   1      32.568  30.791  27.461  1.00  0.00    -0.458 OA
BRANCH  23  24
ATOM     24  C   UNL A   1      33.552  31.700  27.598  1.00  0.00     0.338 C 
ATOM     25  O   UNL A   1      33.384  32.904  27.550  1.00  0.00    -0.246 OA
BRANCH  24  26
ATOM     26  C   UNL A   1      34.915  31.229  27.826  1.00  0.00     0.060 A 
ATOM     27  C   UNL A   1      35.089  29.925  28.306  1.00  0.00     0.016 A 
ATOM     28  C   UNL A   1      35.903  32.193  28.014  1.00  0.00     0.016 A 
ATOM     29  C   UNL A   1      36.241  29.590  29.018  1.00  0.00     0.010 A 
ATOM     30  C   UNL A   1      37.060  31.854  28.712  1.00  0.00     0.010 A 
ATOM     31  C   UNL A   1      37.229  30.560  29.236  1.00  0.00    -0.014 A 
BRANCH  31  32
ATOM     32  C   UNL A   1      38.545  30.188  29.799  1.00  0.00     0.031 A 
ATOM     33  C   UNL A   1      39.441  29.163  29.180  1.00  0.00     0.074 A 
ATOM     34  C   UNL A   1      38.837  30.732  30.991  1.00  0.00     0.049 A 
ATOM     35  N   UNL A   1      40.508  28.591  29.680  1.00  0.00    -0.248 NA
ATOM     36  C   UNL A   1      39.096  28.709  27.831  1.00  0.00     0.031 C 
ATOM     37  C   UNL A   1      38.008  31.724  31.678  1.00  0.00     0.029 A 
ATOM     38  N   UNL A   1      39.863  30.485  31.858  1.00  0.00    -0.354 N 
ATOM     39  C   UNL A   1      40.945  27.685  28.722  1.00  0.00     0.074 A 
ATOM     40  C   UNL A   1      40.018  27.776  27.611  1.00  0.00     0.031 C 
ATOM     41  C   UNL A   1      38.517  31.949  32.895  1.00  0.00     0.029 A 
ATOM     42  C   UNL A   1      39.698  31.112  33.066  1.00  0.00     0.049 A 
ATOM     43  H   UNL A   1      40.638  29.918  31.640  1.00  0.00     0.167 HD
ATOM     44  C   UNL A   1      42.029  26.872  28.775  1.00  0.00     0.037 A 
ATOM     45  C   UNL A   1      40.403  31.002  34.203  1.00  0.00     0.037 A 
ATOM     46  C   UNL A   1      42.975  26.860  29.867  1.00  0.00     0.049 A 
ATOM     47  C   UNL A   1      41.623  30.144  34.214  1.00  0.00     0.074 A 
ATOM     48  C   UNL A   1      44.172  26.169  29.970  1.00  0.00     0.029 A 
ATOM     49  N   UNL A   1      42.833  27.579  31.046  1.00  0.00    -0.354 N 
ATOM     50  N   UNL A   1      42.060  29.327  33.290  1.00  0.00    -0.248 NA
ATOM     51  C   UNL A   1      42.471  30.227  35.407  1.00  0.00     0.031 C 
ATOM     52  C   UNL A   1      44.737  26.447  31.220  1.00  0.00     0.029 A 
ATOM     53  C   UNL A   1      43.912  27.341  31.883  1.00  0.00     0.049 A 
ATOM     54  H   UNL A   1      42.076  28.172  31.257  1.00  0.00     0.167 HD
ATOM     55  C   UNL A   1      43.253  28.816  33.770  1.00  0.00     0.074 A 
ATOM     56  C   UNL A   1      43.468  29.418  35.073  1.00  0.00     0.031 C 
ATOM     57  C   UNL A   1      44.101  27.939  33.179  1.00  0.00     0.037 A 
BRANCH  44  58
ATOM     58  C   UNL A   1      42.285  25.927  27.633  1.00  0.00     0.064 A 
ATOM     59  C   UNL A   1      43.208  26.223  26.620  1.00  0.00     0.173 A 
ATOM     60  C   UNL A   1      41.688  24.655  27.623  1.00  0.00     0.173 A 
ATOM     61  F   UNL A   1      43.807  27.422  26.582  1.00  0.00    -0.203 F 
ATOM     62  C   UNL A   1      43.521  25.283  25.637  1.00  0.00     0.198 A 
ATOM     63  C   UNL A   1      42.020  23.711  26.652  1.00  0.00     0.198 A 
ATOM     64  F   UNL A   1      40.806  24.315  28.575  1.00  0.00    -0.203 F 
ATOM     65  F   UNL A   1      44.397  25.593  24.672  1.00  0.00    -0.200 F 
ATOM     66  C   UNL A   1      42.937  24.026  25.660  1.00  0.00     0.200 A 
ATOM     67  F   UNL A   1      41.467  22.490  26.688  1.00  0.00    -0.200 F 
ATOM     68  F   UNL A   1      43.259  23.116  24.731  1.00  0.00    -0.200 F 
ENDBRANCH  44  58
BRANCH  45  69
ATOM     69  C   UNL A   1      39.957  31.782  35.375  1.00  0.00     0.064 A 
ATOM     70  C   UNL A   1      40.431  33.082  35.585  1.00  0.00     0.173 A 
ATOM     71  C   UNL A   1      38.940  31.303  36.213  1.00  0.00     0.173 A 
ATOM     72  F   UNL A   1      41.399  33.575  34.798  1.00  0.00    -0.203 F 
ATOM     73  C   UNL A   1      39.897  33.882  36.590  1.00  0.00     0.198 A 
ATOM     74  C   UNL A   1      38.395  32.110  37.207  1.00  0.00     0.198 A 
ATOM     75  F   UNL A   1      38.437  30.073  36.024  1.00  0.00    -0.203 F 
ATOM     76  F   UNL A   1      40.359  35.126  36.766  1.00  0.00    -0.200 F 
ATOM     77  C   UNL A   1      38.874  33.399  37.393  1.00  0.00     0.200 A 
ATOM     78  F   UNL A   1      37.390  31.651  37.964  1.00  0.00    -0.200 F 
ATOM     79  F   UNL A   1      38.337  34.183  38.338  1.00  0.00    -0.200 F 
ENDBRANCH  45  69
BRANCH  57  80
ATOM     80  C   UNL A   1      45.348  27.608  33.938  1.00  0.00     0.064 A 
ATOM     81  C   UNL A   1      46.511  28.380  33.803  1.00  0.00     0.173 A 
ATOM     82  C   UNL A   1      45.384  26.497  34.792  1.00  0.00     0.173 A 
ATOM     83  F   UNL A   1      46.526  29.439  32.981  1.00  0.00    -0.203 F 
ATOM     84  C   UNL A   1      47.678  28.029  34.473  1.00  0.00     0.198 A 
ATOM     85  C   UNL A   1      46.548  26.162  35.477  1.00  0.00     0.198 A 
ATOM     86  F   UNL A   1      44.295  25.731  34.952  1.00  0.00    -0.203 F 
ATOM     87  F   UNL A   1      48.796  28.746  34.288  1.00  0.00    -0.200 F 
ATOM     88  C   UNL A   1      47.697  26.923  35.309  1.00  0.00     0.200 A 
ATOM     89  F   UNL A   1      46.564  25.094  36.286  1.00  0.00    -0.200 F 
ATOM     90  F   UNL A   1      48.826  26.578  35.942  1.00  0.00    -0.200 F 
ENDBRANCH  57  80
ENDBRANCH  31  32
ENDBRANCH  24  26
ENDBRANCH  23  24
ENDBRANCH  22  23
ENDBRANCH  21  22
ENDBRANCH   1  21
TORSDOF 18
ENDMDL
MODEL 2
REMARK VINA RESULT:     -10.6      2.321      4.931
REMARK SMILES C=CCN(CC(=O)OCCOC(=O)c1ccc(-c2c3nc(c(-c4c(F)c(F)c(F)c(F)c4F)c4ccc([nH]4)c(-c4c(F)c(F)c(F)c(F)c4F)c4nc(c(-c5c(F)c(F)c(F)c(F)c5F)c5ccc2[nH]5)C=C4)C=C3)cc1)C(=O)/C=C/c1ccc(OC)cc1
REMARK SMILES IDX 8 1 6 2 7 3 5 4 4 5 3 6 2 7 1 8 77 9 78 10 79 11 80 12 81 13
REMARK SMILES IDX 82 14 88 15 83 16 87 17 84 18 85 19 86 20 9 21 10 22 11 23
REMARK SMILES IDX 12 24 13 25 14 26 15 27 76 28 16 29 75 30 17 31 18 32 19 33
REMARK SMILES IDX 69 34 20 35 74 36 68 37 70 38 21 39 73 40 67 41 66 42 22 44
REMARK SMILES IDX 54 45 34 46 53 47 35 48 38 49 52 50 71 51 36 52 37 53 51 55
REMARK SMILES IDX 72 56 39 57 23 58 24 59 32 60 25 61 26 62 30 63 33 64 27 65
REMARK SMILES IDX 28 66 31 67 29 68 55 69 56 70 64 71 57 72 58 73 62 74 65 75
REMARK SMILES IDX 59 76 60 77 63 78 61 79 40 80 41 81 49 82 42 83 43 84 47 85
REMARK SMILES IDX 50 86 44 87 45 88 48 89 46 90
REMARK H PARENT 70 43 38 54
REMARK Flexibility Score: inf
ROOT
ATOM      1  O   UNL A   1      33.536  27.963  25.321  1.00  0.00    -0.461 OA
ENDROOT
BRANCH   1   2
ATOM      2  C   UNL A   1      33.481  26.757  24.696  1.00  0.00     0.325 C 
ATOM      3  O   UNL A   1      33.623  26.613  23.481  1.00  0.00    -0.250 OA
BRANCH   2   4
ATOM      4  C   UNL A   1      33.466  25.539  25.627  1.00  0.00     0.242 C 
BRANCH   4   5
ATOM      5  N   UNL A   1      33.312  24.147  25.179  1.00  0.00    -0.324 N 
BRANCH   5   6
ATOM      6  C   UNL A   1      31.949  23.632  25.123  1.00  0.00     0.147 C 
BRANCH   6   7
ATOM      7  C   UNL A   1      31.509  23.180  26.490  1.00  0.00    -0.014 C 
ATOM      8  C   UNL A   1      30.232  23.011  26.859  1.00  0.00     0.006 C 
ENDBRANCH   6   7
ENDBRANCH   5   6
BRANCH   5   9
ATOM      9  C   UNL A   1      34.321  23.387  24.593  1.00  0.00     0.247 C 
ATOM     10  O   UNL A   1      35.432  23.828  24.311  1.00  0.00    -0.270 OA
BRANCH   9  11
ATOM     11  C   UNL A   1      33.994  21.987  24.225  1.00  0.00     0.072 C 
ATOM     12  C   UNL A   1      34.368  20.932  24.972  1.00  0.00     0.014 C 
BRANCH  12  13
ATOM     13  C   UNL A   1      34.029  19.509  24.705  1.00  0.00    -0.025 A 
ATOM     14  C   UNL A   1      32.721  19.010  24.665  1.00  0.00     0.012 A 
ATOM     15  C   UNL A   1      35.067  18.582  24.536  1.00  0.00     0.012 A 
ATOM     16  C   UNL A   1      32.466  17.633  24.590  1.00  0.00     0.047 A 
ATOM     17  C   UNL A   1      34.817  17.200  24.450  1.00  0.00     0.047 A 
ATOM     18  C   UNL A   1      33.513  16.718  24.526  1.00  0.00     0.118 A 
BRANCH  18  19
ATOM     19  O   UNL A   1      33.138  15.404  24.546  1.00  0.00    -0.497 OA
ATOM     20  C   UNL A   1      32.391  14.969  25.678  1.00  0.00     0.278 C 
ENDBRANCH  18  19
ENDBRANCH  12  13
ENDBRANCH   9  11
ENDBRANCH   5   9
ENDBRANCH   4   5
ENDBRANCH   2   4
ENDBRANCH   1   2
BRANCH   1  21
ATOM     21  C   UNL A   1      32.246  28.545  25.635  1.00  0.00     0.274 C 
BRANCH  21  22
ATOM     22  C   UNL A   1      32.265  30.082  25.812  1.00  0.00     0.275 C 
BRANCH  22  23
ATOM     23  O   UNL A   1      32.318  30.542  27.187  1.00  0.00    -0.458 OA
BRANCH  23  24
ATOM     24  C   UNL A   1      33.220  31.529  27.339  1.00  0.00     0.338 C 
ATOM     25  O   UNL A   1      32.961  32.715  27.246  1.00  0.00    -0.246 OA
BRANCH  24  26
ATOM     26  C   UNL A   1      34.604  31.175  27.641  1.00  0.00     0.060 A 
ATOM     27  C   UNL A   1      34.867  29.877  28.097  1.00  0.00     0.016 A 
ATOM     28  C   UNL A   1      35.487  32.218  27.916  1.00  0.00     0.016 A 
ATOM     29  C   UNL A   1      35.999  29.625  28.872  1.00  0.00     0.010 A 
ATOM     30  C   UNL A   1      36.625  31.961  28.678  1.00  0.00     0.010 A 
ATOM     31  C   UNL A   1      36.879  30.672  29.178  1.00  0.00    -0.014 A 
BRANCH  31  32
ATOM     32  C   UNL A   1      38.186  30.401  29.813  1.00  0.00     0.031 A 
ATOM     33  C   UNL A   1      39.181  29.431  29.261  1.00  0.00     0.074 A 
ATOM     34  C   UNL A   1      38.379  30.983  31.008  1.00  0.00     0.049 A 
ATOM     35  N   UNL A   1      40.258  28.942  29.825  1.00  0.00    -0.248 NA
ATOM     36  C   UNL A   1      38.939  28.931  27.906  1.00  0.00     0.031 C 
ATOM     37  C   UNL A   1      37.450  31.927  31.632  1.00  0.00     0.029 A 
ATOM     38  N   UNL A   1      39.373  30.822  31.930  1.00  0.00    -0.354 N 
ATOM     39  C   UNL A   1      40.804  28.052  28.908  1.00  0.00     0.074 A 
ATOM     40  C   UNL A   1      39.932  28.061  27.751  1.00  0.00     0.031 C 
ATOM     41  C   UNL A   1      37.878  32.206  32.868  1.00  0.00     0.029 A 
ATOM     42  C   UNL A   1      39.103  31.455  33.115  1.00  0.00     0.049 A 
ATOM     43  H   UNL A   1      40.196  30.307  31.762  1.00  0.00     0.167 HD
ATOM     44  C   UNL A   1      41.937  27.317  29.032  1.00  0.00     0.037 A 
ATOM     45  C   UNL A   1      39.755  31.414  34.288  1.00  0.00     0.037 A 
ATOM     46  C   UNL A   1      42.824  27.389  30.171  1.00  0.00     0.049 A 
ATOM     47  C   UNL A   1      41.029  30.643  34.378  1.00  0.00     0.074 A 
ATOM     48  C   UNL A   1      44.059  26.784  30.347  1.00  0.00     0.029 A 
ATOM     49  N   UNL A   1      42.573  28.116  31.327  1.00  0.00    -0.354 N 
ATOM     50  N   UNL A   1      41.567  29.843  33.493  1.00  0.00    -0.248 NA
ATOM     51  C   UNL A   1      41.807  30.804  35.610  1.00  0.00     0.031 C 
ATOM     52  C   UNL A   1      44.539  27.122  31.619  1.00  0.00     0.029 A 
ATOM     53  C   UNL A   1      43.622  27.966  32.221  1.00  0.00     0.049 A 
ATOM     54  H   UNL A   1      41.768  28.658  31.487  1.00  0.00     0.167 HD
ATOM     55  C   UNL A   1      42.766  29.423  34.043  1.00  0.00     0.074 A 
ATOM     56  C   UNL A   1      42.872  30.060  35.343  1.00  0.00     0.031 C 
ATOM     57  C   UNL A   1      43.701  28.597  33.513  1.00  0.00     0.037 A 
BRANCH  44  58
ATOM     58  C   UNL A   1      42.315  26.374  27.924  1.00  0.00     0.064 A 
ATOM     59  C   UNL A   1      41.699  25.123  27.773  1.00  0.00     0.173 A 
ATOM     60  C   UNL A   1      43.218  26.782  26.928  1.00  0.00     0.173 A 
ATOM     61  F   UNL A   1      40.830  24.685  28.695  1.00  0.00    -0.203 F 
ATOM     62  C   UNL A   1      41.975  24.315  26.670  1.00  0.00     0.198 A 
ATOM     63  C   UNL A   1      43.475  25.981  25.815  1.00  0.00     0.198 A 
ATOM     64  F   UNL A   1      43.828  27.974  27.015  1.00  0.00    -0.203 F 
ATOM     65  F   UNL A   1      41.384  23.119  26.554  1.00  0.00    -0.200 F 
ATOM     66  C   UNL A   1      42.853  24.749  25.688  1.00  0.00     0.200 A 
ATOM     67  F   UNL A   1      44.309  26.411  24.859  1.00  0.00    -0.200 F 
ATOM     68  F   UNL A   1      43.096  23.982  24.616  1.00  0.00    -0.200 F 
ENDBRANCH  44  58
BRANCH  45  69
ATOM     69  C   UNL A   1      39.197  32.180  35.421  1.00  0.00     0.064 A 
ATOM     70  C   UNL A   1      38.432  31.541  36.401  1.00  0.00     0.173 A 
ATOM     71  C   UNL A   1      39.550  33.522  35.623  1.00  0.00     0.173 A 
ATOM     72  F   UNL A   1      38.083  30.255  36.245  1.00  0.00    -0.203 F 
ATOM     73  C   UNL A   1      38.041  32.216  37.554  1.00  0.00     0.198 A 
ATOM     74  C   UNL A   1      39.172  34.192  36.783  1.00  0.00     0.198 A 
ATOM     75  F   UNL A   1      40.310  34.161  34.721  1.00  0.00    -0.203 F 
ATOM     76  F   UNL A   1      37.316  31.581  38.484  1.00  0.00    -0.200 F 
ATOM     77  C   UNL A   1      38.419  33.537  37.748  1.00  0.00     0.200 A 
ATOM     78  F   UNL A   1      39.560  35.458  36.981  1.00  0.00    -0.200 F 
ATOM     79  F   UNL A   1      38.071  34.175  38.873  1.00  0.00    -0.200 F 
ENDBRANCH  45  69
BRANCH  57  80
ATOM     80  C   UNL A   1      44.928  28.367  34.341  1.00  0.00     0.064 A 
ATOM     81  C   UNL A   1      46.053  29.196  34.225  1.00  0.00     0.173 A 
ATOM     82  C   UNL A   1      44.983  27.294  35.241  1.00  0.00     0.173 A 
ATOM     83  F   UNL A   1      46.049  30.221  33.361  1.00  0.00    -0.203 F 
ATOM     84  C   UNL A   1      47.204  28.937  34.960  1.00  0.00     0.198 A 
ATOM     85  C   UNL A   1      46.129  27.051  35.990  1.00  0.00     0.198 A 
ATOM     86  F   UNL A   1      43.930  26.475  35.383  1.00  0.00    -0.203 F 
ATOM     87  F   UNL A   1      48.290  29.707  34.796  1.00  0.00    -0.200 F 
ATOM     88  C   UNL A   1      47.242  27.867  35.842  1.00  0.00     0.200 A 
ATOM     89  F   UNL A   1      46.164  26.018  36.843  1.00  0.00    -0.200 F 
ATOM     90  F   UNL A   1      48.358  27.610  36.539  1.00  0.00    -0.200 F 
ENDBRANCH  57  80
ENDBRANCH  31  32
ENDBRANCH  24  26
ENDBRANCH  23  24
ENDBRANCH  22  23
ENDBRANCH  21  22
ENDBRANCH   1  21
TORSDOF 18
ENDMDL
MODEL 3
REMARK VINA RESULT:     -10.5      1.577      4.212
REMARK SMILES C=CCN(CC(=O)OCCOC(=O)c1ccc(-c2c3nc(c(-c4c(F)c(F)c(F)c(F)c4F)c4ccc([nH]4)c(-c4c(F)c(F)c(F)c(F)c4F)c4nc(c(-c5c(F)c(F)c(F)c(F)c5F)c5ccc2[nH]5)C=C4)C=C3)cc1)C(=O)/C=C/c1ccc(OC)cc1
REMARK SMILES IDX 8 1 6 2 7 3 5 4 4 5 3 6 2 7 1 8 77 9 78 10 79 11 80 12 81 13
REMARK SMILES IDX 82 14 88 15 83 16 87 17 84 18 85 19 86 20 9 21 10 22 11 23
REMARK SMILES IDX 12 24 13 25 14 26 15 27 76 28 16 29 75 30 17 31 18 32 19 33
REMARK SMILES IDX 69 34 20 35 74 36 68 37 70 38 21 39 73 40 67 41 66 42 22 44
REMARK SMILES IDX 54 45 34 46 53 47 35 48 38 49 52 50 71 51 36 52 37 53 51 55
REMARK SMILES IDX 72 56 39 57 23 58 24 59 32 60 25 61 26 62 30 63 33 64 27 65
REMARK SMILES IDX 28 66 31 67 29 68 55 69 56 70 64 71 57 72 58 73 62 74 65 75
REMARK SMILES IDX 59 76 60 77 63 78 61 79 40 80 41 81 49 82 42 83 43 84 47 85
REMARK SMILES IDX 50 86 44 87 45 88 48 89 46 90
REMARK H PARENT 70 43 38 54
REMARK Flexibility Score: inf
ROOT
ATOM      1  O   UNL A   1      32.906  27.798  26.740  1.00  0.00    -0.461 OA
ENDROOT
BRANCH   1   2
ATOM      2  C   UNL A   1      32.582  26.924  25.752  1.00  0.00     0.325 C 
ATOM      3  O   UNL A   1      31.978  25.868  25.947  1.00  0.00    -0.250 OA
BRANCH   2   4
ATOM      4  C   UNL A   1      32.803  27.440  24.325  1.00  0.00     0.242 C 
BRANCH   4   5
ATOM      5  N   UNL A   1      32.245  26.819  23.116  1.00  0.00    -0.324 N 
BRANCH   5   6
ATOM      6  C   UNL A   1      31.030  27.422  22.580  1.00  0.00     0.147 C 
BRANCH   6   7
ATOM      7  C   UNL A   1      29.996  27.556  23.666  1.00  0.00    -0.014 C 
ATOM      8  C   UNL A   1      29.003  26.682  23.881  1.00  0.00     0.006 C 
ENDBRANCH   6   7
ENDBRANCH   5   6
BRANCH   5   9
ATOM      9  C   UNL A   1      32.904  25.875  22.331  1.00  0.00     0.247 C 
ATOM     10  O   UNL A   1      33.508  26.150  21.297  1.00  0.00    -0.270 OA
BRANCH   9  11
ATOM     11  C   UNL A   1      32.799  24.453  22.741  1.00  0.00     0.072 C 
ATOM     12  C   UNL A   1      33.741  23.835  23.476  1.00  0.00     0.014 C 
BRANCH  12  13
ATOM     13  C   UNL A   1      33.681  22.436  23.976  1.00  0.00    -0.025 A 
ATOM     14  C   UNL A   1      34.713  21.815  24.691  1.00  0.00     0.012 A 
ATOM     15  C   UNL A   1      32.556  21.654  23.678  1.00  0.00     0.012 A 
ATOM     16  C   UNL A   1      34.679  20.443  24.980  1.00  0.00     0.047 A 
ATOM     17  C   UNL A   1      32.512  20.279  23.975  1.00  0.00     0.047 A 
ATOM     18  C   UNL A   1      33.598  19.659  24.584  1.00  0.00     0.118 A 
BRANCH  18  19
ATOM     19  O   UNL A   1      33.724  18.324  24.846  1.00  0.00    -0.497 OA
ATOM     20  C   UNL A   1      34.138  17.496  23.763  1.00  0.00     0.278 C 
ENDBRANCH  18  19
ENDBRANCH  12  13
ENDBRANCH   9  11
ENDBRANCH   5   9
ENDBRANCH   4   5
ENDBRANCH   2   4
ENDBRANCH   1   2
BRANCH   1  21
ATOM     21  C   UNL A   1      31.787  28.544  27.284  1.00  0.00     0.274 C 
BRANCH  21  22
ATOM     22  C   UNL A   1      31.879  30.074  27.079  1.00  0.00     0.275 C 
BRANCH  22  23
ATOM     23  O   UNL A   1      33.116  30.540  26.480  1.00  0.00    -0.458 OA
BRANCH  23  24
ATOM     24  C   UNL A   1      33.828  31.288  27.344  1.00  0.00     0.338 C 
ATOM     25  O   UNL A   1      33.395  32.270  27.918  1.00  0.00    -0.246 OA
BRANCH  24  26
ATOM     26  C   UNL A   1      35.209  30.910  27.627  1.00  0.00     0.060 A 
ATOM     27  C   UNL A   1      35.454  29.610  28.086  1.00  0.00     0.016 A 
ATOM     28  C   UNL A   1      36.114  31.937  27.885  1.00  0.00     0.016 A 
ATOM     29  C   UNL A   1      36.593  29.340  28.845  1.00  0.00     0.010 A 
ATOM     30  C   UNL A   1      37.259  31.663  28.631  1.00  0.00     0.010 A 
ATOM     31  C   UNL A   1      37.496  30.372  29.133  1.00  0.00    -0.014 A 
BRANCH  31  32
ATOM     32  C   UNL A   1      38.808  30.080  29.752  1.00  0.00     0.031 A 
ATOM     33  C   UNL A   1      39.769  29.076  29.199  1.00  0.00     0.074 A 
ATOM     34  C   UNL A   1      39.035  30.677  30.932  1.00  0.00     0.049 A 
ATOM     35  N   UNL A   1      40.843  28.571  29.754  1.00  0.00    -0.248 NA
ATOM     36  C   UNL A   1      39.491  28.560  27.857  1.00  0.00     0.031 C 
ATOM     37  C   UNL A   1      38.140  31.654  31.556  1.00  0.00     0.029 A 
ATOM     38  N   UNL A   1      40.041  30.507  31.840  1.00  0.00    -0.354 N 
ATOM     39  C   UNL A   1      41.352  27.653  28.843  1.00  0.00     0.074 A 
ATOM     40  C   UNL A   1      40.460  27.664  27.700  1.00  0.00     0.031 C 
ATOM     41  C   UNL A   1      38.596  31.943  32.779  1.00  0.00     0.029 A 
ATOM     42  C   UNL A   1      39.807  31.167  33.019  1.00  0.00     0.049 A 
ATOM     43  H   UNL A   1      40.848  29.969  31.668  1.00  0.00     0.167 HD
ATOM     44  C   UNL A   1      42.469  26.893  28.960  1.00  0.00     0.037 A 
ATOM     45  C   UNL A   1      40.477  31.129  34.181  1.00  0.00     0.037 A 
ATOM     46  C   UNL A   1      43.377  26.962  30.083  1.00  0.00     0.049 A 
ATOM     47  C   UNL A   1      41.734  30.329  34.263  1.00  0.00     0.074 A 
ATOM     48  C   UNL A   1      44.600  26.330  30.248  1.00  0.00     0.029 A 
ATOM     49  N   UNL A   1      43.164  27.714  31.229  1.00  0.00    -0.354 N 
ATOM     50  N   UNL A   1      42.238  29.501  33.383  1.00  0.00    -0.248 NA
ATOM     51  C   UNL A   1      42.537  30.491  35.478  1.00  0.00     0.031 C 
ATOM     52  C   UNL A   1      45.109  26.677  31.505  1.00  0.00     0.029 A 
ATOM     53  C   UNL A   1      44.223  27.554  32.108  1.00  0.00     0.049 A 
ATOM     54  H   UNL A   1      42.374  28.279  31.394  1.00  0.00     0.167 HD
ATOM     55  C   UNL A   1      43.435  29.062  33.919  1.00  0.00     0.074 A 
ATOM     56  C   UNL A   1      43.579  29.718  35.206  1.00  0.00     0.031 C 
ATOM     57  C   UNL A   1      44.341  28.205  33.388  1.00  0.00     0.037 A 
BRANCH  44  58
ATOM     58  C   UNL A   1      42.805  25.922  27.862  1.00  0.00     0.064 A 
ATOM     59  C   UNL A   1      42.167  24.678  27.752  1.00  0.00     0.173 A 
ATOM     60  C   UNL A   1      43.687  26.296  26.835  1.00  0.00     0.173 A 
ATOM     61  F   UNL A   1      41.316  24.270  28.705  1.00  0.00    -0.203 F 
ATOM     62  C   UNL A   1      42.403  23.844  26.659  1.00  0.00     0.198 A 
ATOM     63  C   UNL A   1      43.904  25.470  25.733  1.00  0.00     0.198 A 
ATOM     64  F   UNL A   1      44.317  27.481  26.883  1.00  0.00    -0.203 F 
ATOM     65  F   UNL A   1      41.792  22.654  26.583  1.00  0.00    -0.200 F 
ATOM     66  C   UNL A   1      43.261  24.245  25.646  1.00  0.00     0.200 A 
ATOM     67  F   UNL A   1      44.720  25.869  24.747  1.00  0.00    -0.200 F 
ATOM     68  F   UNL A   1      43.466  23.453  24.584  1.00  0.00    -0.200 F 
ENDBRANCH  44  58
BRANCH  45  69
ATOM     69  C   UNL A   1      39.958  31.928  35.310  1.00  0.00     0.064 A 
ATOM     70  C   UNL A   1      40.337  33.265  35.466  1.00  0.00     0.173 A 
ATOM     71  C   UNL A   1      38.961  31.417  36.153  1.00  0.00     0.173 A 
ATOM     72  F   UNL A   1      41.282  33.790  34.672  1.00  0.00    -0.203 F 
ATOM     73  C   UNL A   1      39.731  34.071  36.425  1.00  0.00     0.198 A 
ATOM     74  C   UNL A   1      38.345  32.227  37.101  1.00  0.00     0.198 A 
ATOM     75  F   UNL A   1      38.548  30.148  36.013  1.00  0.00    -0.203 F 
ATOM     76  F   UNL A   1      40.103  35.351  36.551  1.00  0.00    -0.200 F 
ATOM     77  C   UNL A   1      38.729  33.554  37.235  1.00  0.00     0.200 A 
ATOM     78  F   UNL A   1      37.360  31.734  37.864  1.00  0.00    -0.200 F 
ATOM     79  F   UNL A   1      38.123  34.340  38.134  1.00  0.00    -0.200 F 
ENDBRANCH  45  69
BRANCH  57  80
ATOM     80  C   UNL A   1      45.576  27.958  34.198  1.00  0.00     0.064 A 
ATOM     81  C   UNL A   1      45.623  26.945  35.167  1.00  0.00     0.173 A 
ATOM     82  C   UNL A   1      46.713  28.757  34.016  1.00  0.00     0.173 A 
ATOM     83  F   UNL A   1      44.550  26.172  35.387  1.00  0.00    -0.203 F 
ATOM     84  C   UNL A   1      46.758  26.764  35.950  1.00  0.00     0.198 A 
ATOM     85  C   UNL A   1      47.853  28.558  34.787  1.00  0.00     0.198 A 
ATOM     86  F   UNL A   1      46.712  29.738  33.101  1.00  0.00    -0.203 F 
ATOM     87  F   UNL A   1      46.765  25.827  36.909  1.00  0.00    -0.200 F 
ATOM     88  C   UNL A   1      47.872  27.568  35.760  1.00  0.00     0.200 A 
ATOM     89  F   UNL A   1      48.930  29.335  34.601  1.00  0.00    -0.200 F 
ATOM     90  F   UNL A   1      48.959  27.401  36.525  1.00  0.00    -0.200 F 
ENDBRANCH  57  80
ENDBRANCH  31  32
ENDBRANCH  24  26
ENDBRANCH  23  24
ENDBRANCH  22  23
ENDBRANCH  21  22
ENDBRANCH   1  21
TORSDOF 18
ENDMDL
