MODEL 1
REMARK VINA RESULT:     -11.3      0.000      0.000
REMARK SMILES O=C(OCCOC(=O)c1nccnc1C(=O)Nc1ccc(-n2cncn2)c(Cl)c1)c1ccc(-c2c3nc(c(-c4c(F)c(F)c(F)c(F)c4F)c4ccc([nH]4)c(-c4c(F)c(F)c(F)c(F)c4F)c4nc(c(-c5c(F)c(F)c(F)c(F)c5F)c5ccc2[nH]5)C=C4)C=C3)cc1
REMARK SMILES IDX 5 1 4 2 3 3 2 4 1 5 30 6 31 7 92 8 32 9 91 10 33 11 34 12
REMARK SMILES IDX 35 13 85 14 36 15 90 16 84 17 86 18 37 19 89 20 83 21 82 22
REMARK SMILES IDX 38 24 70 25 50 26 69 27 51 28 54 29 68 30 87 31 52 32 53 33
REMARK SMILES IDX 67 35 88 36 55 37 39 38 40 39 48 40 41 41 42 42 46 43 49 44
REMARK SMILES IDX 43 45 44 46 47 47 45 48 71 49 72 50 80 51 73 52 74 53 78 54
REMARK SMILES IDX 81 55 75 56 76 57 79 58 77 59 56 60 57 61 65 62 58 63 59 64
REMARK SMILES IDX 63 65 66 66 60 67 61 68 64 69 62 70 6 71 7 72 8 73 9 74
REMARK SMILES IDX 10 75 14 76 11 77 13 78 12 79 15 80 16 81 17 82 18 84 19 85
REMARK SMILES IDX 29 86 20 87 27 88 21 89 28 90 22 91 23 92 26 93 24 94 25 95
REMARK H PARENT 86 23 54 34 17 83
REMARK Flexibility Score: inf
ROOT
ATOM      1  C   UNL A   1      34.567  35.161  27.854  1.00  0.00     0.275 C 
ENDROOT
BRANCH   1   2
ATOM      2  C   UNL A   1      35.752  34.416  28.475  1.00  0.00     0.275 C 
BRANCH   2   3
ATOM      3  O   UNL A   1      35.702  33.003  28.220  1.00  0.00    -0.458 OA
BRANCH   3   4
ATOM      4  C   UNL A   1      35.695  32.006  29.133  1.00  0.00     0.338 C 
ATOM      5  O   UNL A   1      34.725  31.884  29.879  1.00  0.00    -0.246 OA
BRANCH   4   6
ATOM      6  C   UNL A   1      36.902  31.177  29.418  1.00  0.00     0.060 A 
ATOM      7  C   UNL A   1      38.232  31.555  29.240  1.00  0.00     0.016 A 
ATOM      8  C   UNL A   1      36.641  29.881  29.896  1.00  0.00     0.016 A 
ATOM      9  C   UNL A   1      39.260  30.663  29.507  1.00  0.00     0.010 A 
ATOM     10  C   UNL A   1      37.665  29.003  30.219  1.00  0.00     0.010 A 
ATOM     11  C   UNL A   1      38.973  29.373  29.958  1.00  0.00    -0.014 A 
BRANCH  11  12
ATOM     12  C   UNL A   1      40.088  28.442  30.057  1.00  0.00     0.031 A 
ATOM     13  C   UNL A   1      40.709  28.320  31.406  1.00  0.00     0.074 A 
ATOM     14  C   UNL A   1      40.591  27.813  28.977  1.00  0.00     0.049 A 
ATOM     15  N   UNL A   1      41.850  28.794  31.790  1.00  0.00    -0.248 NA
ATOM     16  C   UNL A   1      39.912  27.731  32.490  1.00  0.00     0.031 C 
ATOM     17  C   UNL A   1      40.015  27.646  27.640  1.00  0.00     0.029 A 
ATOM     18  N   UNL A   1      41.775  27.149  28.881  1.00  0.00    -0.354 N 
ATOM     19  C   UNL A   1      41.996  28.437  33.128  1.00  0.00     0.074 A 
ATOM     20  C   UNL A   1      40.729  27.885  33.536  1.00  0.00     0.031 C 
ATOM     21  C   UNL A   1      40.745  26.745  26.943  1.00  0.00     0.029 A 
ATOM     22  C   UNL A   1      41.923  26.411  27.717  1.00  0.00     0.049 A 
ATOM     23  H   UNL A   1      42.467  27.188  29.579  1.00  0.00     0.167 HD
ATOM     24  C   UNL A   1      43.214  28.469  33.741  1.00  0.00     0.037 A 
ATOM     25  C   UNL A   1      42.934  25.552  27.440  1.00  0.00     0.037 A 
ATOM     26  C   UNL A   1      44.135  29.310  33.022  1.00  0.00     0.049 A 
ATOM     27  C   UNL A   1      44.087  25.942  28.289  1.00  0.00     0.074 A 
ATOM     28  C   UNL A   1      44.190  30.659  32.734  1.00  0.00     0.029 A 
ATOM     29  N   UNL A   1      45.029  28.714  32.168  1.00  0.00    -0.354 N 
ATOM     30  N   UNL A   1      44.748  27.058  28.134  1.00  0.00    -0.248 NA
ATOM     31  C   UNL A   1      44.193  25.332  29.608  1.00  0.00     0.031 C 
ATOM     32  C   UNL A   1      44.711  30.729  31.409  1.00  0.00     0.029 A 
ATOM     33  C   UNL A   1      45.003  29.428  30.998  1.00  0.00     0.049 A 
ATOM     34  H   UNL A   1      45.584  27.923  32.359  1.00  0.00     0.167 HD
ATOM     35  C   UNL A   1      45.001  27.504  29.423  1.00  0.00     0.074 A 
ATOM     36  C   UNL A   1      44.694  26.367  30.288  1.00  0.00     0.031 C 
ATOM     37  C   UNL A   1      45.166  28.831  29.695  1.00  0.00     0.037 A 
BRANCH  24  38
ATOM     38  C   UNL A   1      43.685  27.481  34.781  1.00  0.00     0.064 A 
ATOM     39  C   UNL A   1      44.143  27.959  36.028  1.00  0.00     0.173 A 
ATOM     40  C   UNL A   1      44.014  26.142  34.486  1.00  0.00     0.173 A 
ATOM     41  F   UNL A   1      43.884  29.216  36.418  1.00  0.00    -0.203 F 
ATOM     42  C   UNL A   1      44.961  27.189  36.859  1.00  0.00     0.198 A 
ATOM     43  C   UNL A   1      44.794  25.362  35.340  1.00  0.00     0.198 A 
ATOM     44  F   UNL A   1      43.689  25.568  33.323  1.00  0.00    -0.203 F 
ATOM     45  F   UNL A   1      45.483  27.732  37.967  1.00  0.00    -0.200 F 
ATOM     46  C   UNL A   1      45.299  25.897  36.505  1.00  0.00     0.200 A 
ATOM     47  F   UNL A   1      45.119  24.114  34.973  1.00  0.00    -0.200 F 
ATOM     48  F   UNL A   1      46.145  25.184  37.259  1.00  0.00    -0.200 F 
ENDBRANCH  24  38
BRANCH  25  49
ATOM     49  C   UNL A   1      42.795  24.215  26.816  1.00  0.00     0.064 A 
ATOM     50  C   UNL A   1      43.385  23.923  25.576  1.00  0.00     0.173 A 
ATOM     51  C   UNL A   1      42.308  23.116  27.553  1.00  0.00     0.173 A 
ATOM     52  F   UNL A   1      43.918  24.906  24.837  1.00  0.00    -0.203 F 
ATOM     53  C   UNL A   1      43.493  22.608  25.111  1.00  0.00     0.198 A 
ATOM     54  C   UNL A   1      42.414  21.806  27.086  1.00  0.00     0.198 A 
ATOM     55  F   UNL A   1      41.805  23.282  28.785  1.00  0.00    -0.203 F 
ATOM     56  F   UNL A   1      44.113  22.359  23.948  1.00  0.00    -0.200 F 
ATOM     57  C   UNL A   1      43.017  21.550  25.869  1.00  0.00     0.200 A 
ATOM     58  F   UNL A   1      41.984  20.791  27.850  1.00  0.00    -0.200 F 
ATOM     59  F   UNL A   1      43.175  20.287  25.451  1.00  0.00    -0.200 F 
ENDBRANCH  25  49
BRANCH  37  60
ATOM     60  C   UNL A   1      45.286  29.782  28.539  1.00  0.00     0.064 A 
ATOM     61  C   UNL A   1      44.182  30.371  27.900  1.00  0.00     0.173 A 
ATOM     62  C   UNL A   1      46.561  30.254  28.200  1.00  0.00     0.173 A 
ATOM     63  F   UNL A   1      42.931  30.042  28.242  1.00  0.00    -0.203 F 
ATOM     64  C   UNL A   1      44.354  31.372  26.943  1.00  0.00     0.198 A 
ATOM     65  C   UNL A   1      46.727  31.275  27.269  1.00  0.00     0.198 A 
ATOM     66  F   UNL A   1      47.645  29.769  28.824  1.00  0.00    -0.203 F 
ATOM     67  F   UNL A   1      43.286  31.927  26.352  1.00  0.00    -0.200 F 
ATOM     68  C   UNL A   1      45.625  31.830  26.637  1.00  0.00     0.200 A 
ATOM     69  F   UNL A   1      47.953  31.752  27.017  1.00  0.00    -0.200 F 
ATOM     70  F   UNL A   1      45.788  32.830  25.759  1.00  0.00    -0.200 F 
ENDBRANCH  37  60
ENDBRANCH  11  12
ENDBRANCH   4   6
ENDBRANCH   3   4
ENDBRANCH   2   3
ENDBRANCH   1   2
BRANCH   1  71
ATOM     71  O   UNL A   1      33.866  35.979  28.826  1.00  0.00    -0.457 OA
BRANCH  71  72
ATOM     72  C   UNL A   1      33.232  35.278  29.802  1.00  0.00     0.359 C 
ATOM     73  O   UNL A   1      32.497  34.311  29.597  1.00  0.00    -0.244 OA
BRANCH  72  74
ATOM     74  C   UNL A   1      33.512  35.766  31.184  1.00  0.00     0.179 A 
ATOM     75  N   UNL A   1      33.322  37.139  31.147  1.00  0.00    -0.245 NA
ATOM     76  C   UNL A   1      33.887  35.097  32.367  1.00  0.00     0.161 A 
ATOM     77  C   UNL A   1      33.571  37.849  32.252  1.00  0.00     0.132 A 
ATOM     78  N   UNL A   1      34.162  35.900  33.465  1.00  0.00    -0.247 NA
ATOM     79  C   UNL A   1      34.020  37.239  33.389  1.00  0.00     0.132 A 
BRANCH  76  80
ATOM     80  C   UNL A   1      34.182  33.647  32.836  1.00  0.00     0.276 C 
ATOM     81  O   UNL A   1      33.177  32.999  33.189  1.00  0.00    -0.267 OA
ATOM     82  N   UNL A   1      35.315  32.827  32.758  1.00  0.00    -0.321 N 
ATOM     83  H   UNL A   1      35.104  31.874  32.890  1.00  0.00     0.170 HD
BRANCH  82  84
ATOM     84  C   UNL A   1      36.673  33.051  32.535  1.00  0.00     0.043 A 
ATOM     85  C   UNL A   1      37.010  34.229  31.954  1.00  0.00     0.028 A 
ATOM     86  C   UNL A   1      37.718  32.237  32.971  1.00  0.00     0.049 A 
ATOM     87  C   UNL A   1      38.279  34.591  31.596  1.00  0.00     0.032 A 
ATOM     88  C   UNL A   1      39.061  32.592  32.673  1.00  0.00     0.068 A 
ATOM     89  C   UNL A   1      39.319  33.763  31.957  1.00  0.00     0.085 A 
ATOM     90  Cl  UNL A   1      40.339  31.594  33.250  1.00  0.00    -0.082 Cl
BRANCH  89  91
ATOM     91  N   UNL A   1      40.584  34.222  31.545  1.00  0.00    -0.220 N 
ATOM     92  C   UNL A   1      41.549  34.612  32.454  1.00  0.00     0.226 A 
ATOM     93  N   UNL A   1      41.206  33.565  30.520  1.00  0.00    -0.155 NA
ATOM     94  N   UNL A   1      42.741  34.213  32.071  1.00  0.00    -0.223 NA
ATOM     95  C   UNL A   1      42.482  33.563  30.905  1.00  0.00     0.246 A 
ENDBRANCH  89  91
ENDBRANCH  82  84
ENDBRANCH  76  80
ENDBRANCH  72  74
ENDBRANCH  71  72
ENDBRANCH   1  71
TORSDOF 14
ENDMDL
MODEL 2
REMARK VINA RESULT:     -11.1      5.819     10.785
REMARK SMILES O=C(OCCOC(=O)c1nccnc1C(=O)Nc1ccc(-n2cncn2)c(Cl)c1)c1ccc(-c2c3nc(c(-c4c(F)c(F)c(F)c(F)c4F)c4ccc([nH]4)c(-c4c(F)c(F)c(F)c(F)c4F)c4nc(c(-c5c(F)c(F)c(F)c(F)c5F)c5ccc2[nH]5)C=C4)C=C3)cc1
REMARK SMILES IDX 5 1 4 2 3 3 2 4 1 5 30 6 31 7 92 8 32 9 91 10 33 11 34 12
REMARK SMILES IDX 35 13 85 14 36 15 90 16 84 17 86 18 37 19 89 20 83 21 82 22
REMARK SMILES IDX 38 24 70 25 50 26 69 27 51 28 54 29 68 30 87 31 52 32 53 33
REMARK SMILES IDX 67 35 88 36 55 37 39 38 40 39 48 40 41 41 42 42 46 43 49 44
REMARK SMILES IDX 43 45 44 46 47 47 45 48 71 49 72 50 80 51 73 52 74 53 78 54
REMARK SMILES IDX 81 55 75 56 76 57 79 58 77 59 56 60 57 61 65 62 58 63 59 64
REMARK SMILES IDX 63 65 66 66 60 67 61 68 64 69 62 70 6 71 7 72 8 73 9 74
REMARK SMILES IDX 10 75 14 76 11 77 13 78 12 79 15 80 16 81 17 82 18 84 19 85
REMARK SMILES IDX 29 86 20 87 27 88 21 89 28 90 22 91 23 92 26 93 24 94 25 95
REMARK H PARENT 86 23 54 34 17 83
REMARK Flexibility Score: inf
ROOT
ATOM      1  C   UNL A   1      37.176  22.892  25.450  1.00  0.00     0.275 C 
ENDROOT
BRANCH   1   2
ATOM      2  C   UNL A   1      38.136  21.732  25.727  1.00  0.00     0.275 C 
BRANCH   2   3
ATOM      3  O   UNL A   1      39.495  22.173  25.879  1.00  0.00    -0.458 OA
BRANCH   3   4
ATOM      4  C   UNL A   1      40.102  22.580  27.016  1.00  0.00     0.338 C 
ATOM      5  O   UNL A   1      40.548  21.736  27.791  1.00  0.00    -0.246 OA
BRANCH   4   6
ATOM      6  C   UNL A   1      40.068  23.999  27.476  1.00  0.00     0.060 A 
ATOM      7  C   UNL A   1      39.103  24.953  27.158  1.00  0.00     0.016 A 
ATOM      8  C   UNL A   1      41.140  24.390  28.296  1.00  0.00     0.016 A 
ATOM      9  C   UNL A   1      39.220  26.255  27.623  1.00  0.00     0.010 A 
ATOM     10  C   UNL A   1      41.233  25.675  28.812  1.00  0.00     0.010 A 
ATOM     11  C   UNL A   1      40.307  26.624  28.417  1.00  0.00    -0.014 A 
BRANCH  11  12
ATOM     12  C   UNL A   1      40.451  28.039  28.729  1.00  0.00     0.031 A 
ATOM     13  C   UNL A   1      41.665  28.701  28.174  1.00  0.00     0.074 A 
ATOM     14  C   UNL A   1      39.598  28.679  29.552  1.00  0.00     0.049 A 
ATOM     15  N   UNL A   1      42.725  29.065  28.821  1.00  0.00    -0.248 NA
ATOM     16  C   UNL A   1      41.776  28.846  26.717  1.00  0.00     0.031 C 
ATOM     17  C   UNL A   1      38.272  28.274  30.023  1.00  0.00     0.029 A 
ATOM     18  N   UNL A   1      39.767  29.897  30.137  1.00  0.00    -0.354 N 
ATOM     19  C   UNL A   1      43.587  29.627  27.882  1.00  0.00     0.074 A 
ATOM     20  C   UNL A   1      43.001  29.364  26.592  1.00  0.00     0.031 C 
ATOM     21  C   UNL A   1      37.670  29.319  30.635  1.00  0.00     0.029 A 
ATOM     22  C   UNL A   1      38.630  30.399  30.749  1.00  0.00     0.049 A 
ATOM     23  H   UNL A   1      40.624  30.380  30.125  1.00  0.00     0.167 HD
ATOM     24  C   UNL A   1      44.631  30.418  28.264  1.00  0.00     0.037 A 
ATOM     25  C   UNL A   1      38.487  31.640  31.273  1.00  0.00     0.037 A 
ATOM     26  C   UNL A   1      44.968  30.201  29.646  1.00  0.00     0.049 A 
ATOM     27  C   UNL A   1      39.849  32.145  31.584  1.00  0.00     0.074 A 
ATOM     28  C   UNL A   1      45.455  29.128  30.366  1.00  0.00     0.029 A 
ATOM     29  N   UNL A   1      44.483  31.082  30.580  1.00  0.00    -0.354 N 
ATOM     30  N   UNL A   1      40.607  31.636  32.518  1.00  0.00    -0.248 NA
ATOM     31  C   UNL A   1      40.552  32.880  30.541  1.00  0.00     0.031 C 
ATOM     32  C   UNL A   1      44.781  29.192  31.620  1.00  0.00     0.029 A 
ATOM     33  C   UNL A   1      43.978  30.334  31.612  1.00  0.00     0.049 A 
ATOM     34  H   UNL A   1      44.496  32.065  30.521  1.00  0.00     0.167 HD
ATOM     35  C   UNL A   1      41.882  31.623  31.974  1.00  0.00     0.074 A 
ATOM     36  C   UNL A   1      41.797  32.461  30.780  1.00  0.00     0.031 C 
ATOM     37  C   UNL A   1      42.816  30.714  32.379  1.00  0.00     0.037 A 
BRANCH  24  38
ATOM     38  C   UNL A   1      45.119  31.629  27.507  1.00  0.00     0.064 A 
ATOM     39  C   UNL A   1      46.436  31.637  26.996  1.00  0.00     0.173 A 
ATOM     40  C   UNL A   1      44.478  32.884  27.552  1.00  0.00     0.173 A 
ATOM     41  F   UNL A   1      47.142  30.501  26.900  1.00  0.00    -0.203 F 
ATOM     42  C   UNL A   1      47.093  32.827  26.667  1.00  0.00     0.198 A 
ATOM     43  C   UNL A   1      45.122  34.063  27.180  1.00  0.00     0.198 A 
ATOM     44  F   UNL A   1      43.248  33.038  28.055  1.00  0.00    -0.203 F 
ATOM     45  F   UNL A   1      48.386  32.798  26.316  1.00  0.00    -0.200 F 
ATOM     46  C   UNL A   1      46.440  34.039  26.775  1.00  0.00     0.200 A 
ATOM     47  F   UNL A   1      44.475  35.230  27.301  1.00  0.00    -0.200 F 
ATOM     48  F   UNL A   1      47.089  35.186  26.535  1.00  0.00    -0.200 F 
ENDBRANCH  24  38
BRANCH  25  49
ATOM     49  C   UNL A   1      37.306  32.521  31.119  1.00  0.00     0.064 A 
ATOM     50  C   UNL A   1      37.033  33.171  29.905  1.00  0.00     0.173 A 
ATOM     51  C   UNL A   1      36.274  32.528  32.080  1.00  0.00     0.173 A 
ATOM     52  F   UNL A   1      37.942  33.166  28.921  1.00  0.00    -0.203 F 
ATOM     53  C   UNL A   1      35.795  33.777  29.663  1.00  0.00     0.198 A 
ATOM     54  C   UNL A   1      35.042  33.136  31.838  1.00  0.00     0.198 A 
ATOM     55  F   UNL A   1      36.406  31.863  33.236  1.00  0.00    -0.203 F 
ATOM     56  F   UNL A   1      35.548  34.340  28.471  1.00  0.00    -0.200 F 
ATOM     57  C   UNL A   1      34.798  33.751  30.625  1.00  0.00     0.200 A 
ATOM     58  F   UNL A   1      34.074  33.067  32.764  1.00  0.00    -0.200 F 
ATOM     59  F   UNL A   1      33.593  34.278  30.371  1.00  0.00    -0.200 F 
ENDBRANCH  25  49
BRANCH  37  60
ATOM     60  C   UNL A   1      42.509  29.869  33.580  1.00  0.00     0.064 A 
ATOM     61  C   UNL A   1      41.844  28.632  33.512  1.00  0.00     0.173 A 
ATOM     62  C   UNL A   1      43.074  30.233  34.809  1.00  0.00     0.173 A 
ATOM     63  F   UNL A   1      41.364  28.172  32.350  1.00  0.00    -0.203 F 
ATOM     64  C   UNL A   1      41.731  27.812  34.635  1.00  0.00     0.198 A 
ATOM     65  C   UNL A   1      42.988  29.398  35.919  1.00  0.00     0.198 A 
ATOM     66  F   UNL A   1      43.771  31.374  34.915  1.00  0.00    -0.203 F 
ATOM     67  F   UNL A   1      41.100  26.631  34.544  1.00  0.00    -0.200 F 
ATOM     68  C   UNL A   1      42.312  28.191  35.834  1.00  0.00     0.200 A 
ATOM     69  F   UNL A   1      43.598  29.744  37.061  1.00  0.00    -0.200 F 
ATOM     70  F   UNL A   1      42.252  27.378  36.898  1.00  0.00    -0.200 F 
ENDBRANCH  37  60
ENDBRANCH  11  12
ENDBRANCH   4   6
ENDBRANCH   3   4
ENDBRANCH   2   3
ENDBRANCH   1   2
BRANCH   1  71
ATOM     71  O   UNL A   1      35.906  22.435  24.917  1.00  0.00    -0.457 OA
BRANCH  71  72
ATOM     72  C   UNL A   1      34.834  22.696  25.711  1.00  0.00     0.359 C 
ATOM     73  O   UNL A   1      34.899  22.891  26.925  1.00  0.00    -0.244 OA
BRANCH  72  74
ATOM     74  C   UNL A   1      33.533  22.750  24.980  1.00  0.00     0.179 A 
ATOM     75  N   UNL A   1      33.767  22.160  23.747  1.00  0.00    -0.245 NA
ATOM     76  C   UNL A   1      32.265  23.250  25.339  1.00  0.00     0.161 A 
ATOM     77  C   UNL A   1      32.773  22.132  22.853  1.00  0.00     0.132 A 
ATOM     78  N   UNL A   1      31.292  23.218  24.351  1.00  0.00    -0.247 NA
ATOM     79  C   UNL A   1      31.559  22.687  23.140  1.00  0.00     0.132 A 
BRANCH  76  80
ATOM     80  C   UNL A   1      31.593  23.942  26.555  1.00  0.00     0.276 C 
ATOM     81  O   UNL A   1      31.452  23.213  27.556  1.00  0.00    -0.267 OA
ATOM     82  N   UNL A   1      31.290  25.277  26.850  1.00  0.00    -0.321 N 
ATOM     83  H   UNL A   1      31.123  25.426  27.809  1.00  0.00     0.170 HD
BRANCH  82  84
ATOM     84  C   UNL A   1      31.172  26.445  26.096  1.00  0.00     0.043 A 
ATOM     85  C   UNL A   1      30.313  26.411  25.048  1.00  0.00     0.028 A 
ATOM     86  C   UNL A   1      31.756  27.675  26.399  1.00  0.00     0.049 A 
ATOM     87  C   UNL A   1      30.121  27.432  24.160  1.00  0.00     0.032 A 
ATOM     88  C   UNL A   1      31.546  28.786  25.539  1.00  0.00     0.068 A 
ATOM     89  C   UNL A   1      30.745  28.635  24.405  1.00  0.00     0.085 A 
ATOM     90  Cl  UNL A   1      32.244  30.305  25.948  1.00  0.00    -0.082 Cl
BRANCH  89  91
ATOM     91  N   UNL A   1      30.484  29.621  23.435  1.00  0.00    -0.220 N 
ATOM     92  C   UNL A   1      30.438  29.322  22.087  1.00  0.00     0.226 A 
ATOM     93  N   UNL A   1      29.511  30.544  23.699  1.00  0.00    -0.155 NA
ATOM     94  N   UNL A   1      29.471  29.985  21.493  1.00  0.00    -0.223 NA
ATOM     95  C   UNL A   1      28.921  30.696  22.513  1.00  0.00     0.246 A 
ENDBRANCH  89  91
ENDBRANCH  82  84
ENDBRANCH  76  80
ENDBRANCH  72  74
ENDBRANCH  71  72
ENDBRANCH   1  71
TORSDOF 14
ENDMDL
MODEL 3
REMARK VINA RESULT:     -11.0      5.424     10.703
REMARK SMILES O=C(OCCOC(=O)c1nccnc1C(=O)Nc1ccc(-n2cncn2)c(Cl)c1)c1ccc(-c2c3nc(c(-c4c(F)c(F)c(F)c(F)c4F)c4ccc([nH]4)c(-c4c(F)c(F)c(F)c(F)c4F)c4nc(c(-c5c(F)c(F)c(F)c(F)c5F)c5ccc2[nH]5)C=C4)C=C3)cc1
REMARK SMILES IDX 5 1 4 2 3 3 2 4 1 5 30 6 31 7 92 8 32 9 91 10 33 11 34 12
REMARK SMILES IDX 35 13 85 14 36 15 90 16 84 17 86 18 37 19 89 20 83 21 82 22
REMARK SMILES IDX 38 24 70 25 50 26 69 27 51 28 54 29 68 30 87 31 52 32 53 33
REMARK SMILES IDX 67 35 88 36 55 37 39 38 40 39 48 40 41 41 42 42 46 43 49 44
REMARK SMILES IDX 43 45 44 46 47 47 45 48 71 49 72 50 80 51 73 52 74 53 78 54
REMARK SMILES IDX 81 55 75 56 76 57 79 58 77 59 56 60 57 61 65 62 58 63 59 64
REMARK SMILES IDX 63 65 66 66 60 67 61 68 64 69 62 70 6 71 7 72 8 73 9 74
REMARK SMILES IDX 10 75 14 76 11 77 13 78 12 79 15 80 16 81 17 82 18 84 19 85
REMARK SMILES IDX 29 86 20 87 27 88 21 89 28 90 22 91 23 92 26 93 24 94 25 95
REMARK H PARENT 86 23 54 34 17 83
REMARK Flexibility Score: inf
ROOT
ATOM      1  C   UNL A   1      37.810  22.495  25.382  1.00  0.00     0.275 C 
ENDROOT
BRANCH   1   2
ATOM      2  C   UNL A   1      38.868  21.588  26.016  1.00  0.00     0.275 C 
BRANCH   2   3
ATOM      3  O   UNL A   1      40.135  22.249  26.162  1.00  0.00    -0.458 OA
BRANCH   3   4
ATOM      4  C   UNL A   1      40.716  22.662  27.311  1.00  0.00     0.338 C 
ATOM      5  O   UNL A   1      40.969  21.835  28.185  1.00  0.00    -0.246 OA
BRANCH   4   6
ATOM      6  C   UNL A   1      40.871  24.106  27.653  1.00  0.00     0.060 A 
ATOM      7  C   UNL A   1      41.765  24.651  28.573  1.00  0.00     0.016 A 
ATOM      8  C   UNL A   1      40.003  24.979  26.977  1.00  0.00     0.016 A 
ATOM      9  C   UNL A   1      41.772  26.016  28.824  1.00  0.00     0.010 A 
ATOM     10  C   UNL A   1      40.043  26.351  27.181  1.00  0.00     0.010 A 
ATOM     11  C   UNL A   1      40.883  26.859  28.157  1.00  0.00    -0.014 A 
BRANCH  11  12
ATOM     12  C   UNL A   1      40.833  28.248  28.590  1.00  0.00     0.031 A 
ATOM     13  C   UNL A   1      42.007  29.085  28.214  1.00  0.00     0.074 A 
ATOM     14  C   UNL A   1      39.840  28.716  29.373  1.00  0.00     0.049 A 
ATOM     15  N   UNL A   1      42.954  29.502  28.989  1.00  0.00    -0.248 NA
ATOM     16  C   UNL A   1      42.231  29.369  26.790  1.00  0.00     0.031 C 
ATOM     17  C   UNL A   1      38.533  28.130  29.675  1.00  0.00     0.029 A 
ATOM     18  N   UNL A   1      39.813  29.888  30.064  1.00  0.00    -0.354 N 
ATOM     19  C   UNL A   1      43.826  30.235  28.189  1.00  0.00     0.074 A 
ATOM     20  C   UNL A   1      43.394  30.026  26.830  1.00  0.00     0.031 C 
ATOM     21  C   UNL A   1      37.760  29.045  30.304  1.00  0.00     0.029 A 
ATOM     22  C   UNL A   1      38.574  30.208  30.597  1.00  0.00     0.049 A 
ATOM     23  H   UNL A   1      40.605  30.460  30.176  1.00  0.00     0.167 HD
ATOM     24  C   UNL A   1      44.732  31.097  28.733  1.00  0.00     0.037 A 
ATOM     25  C   UNL A   1      38.242  31.375  31.200  1.00  0.00     0.037 A 
ATOM     26  C   UNL A   1      44.966  30.796  30.120  1.00  0.00     0.049 A 
ATOM     27  C   UNL A   1      39.502  31.994  31.684  1.00  0.00     0.074 A 
ATOM     28  C   UNL A   1      45.508  29.723  30.799  1.00  0.00     0.029 A 
ATOM     29  N   UNL A   1      44.299  31.533  31.068  1.00  0.00    -0.354 N 
ATOM     30  N   UNL A   1      40.226  31.490  32.646  1.00  0.00    -0.248 NA
ATOM     31  C   UNL A   1      40.206  32.891  30.777  1.00  0.00     0.031 C 
ATOM     32  C   UNL A   1      44.720  29.602  31.981  1.00  0.00     0.029 A 
ATOM     33  C   UNL A   1      43.794  30.646  31.982  1.00  0.00     0.049 A 
ATOM     34  H   UNL A   1      44.203  32.513  31.087  1.00  0.00     0.167 HD
ATOM     35  C   UNL A   1      41.538  31.663  32.233  1.00  0.00     0.074 A 
ATOM     36  C   UNL A   1      41.465  32.590  31.106  1.00  0.00     0.031 C 
ATOM     37  C   UNL A   1      42.531  30.828  32.657  1.00  0.00     0.037 A 
BRANCH  24  38
ATOM     38  C   UNL A   1      45.143  32.416  28.125  1.00  0.00     0.064 A 
ATOM     39  C   UNL A   1      44.166  33.415  27.921  1.00  0.00     0.173 A 
ATOM     40  C   UNL A   1      46.362  32.611  27.442  1.00  0.00     0.173 A 
ATOM     41  F   UNL A   1      42.971  33.339  28.525  1.00  0.00    -0.203 F 
ATOM     42  C   UNL A   1      44.358  34.462  27.015  1.00  0.00     0.198 A 
ATOM     43  C   UNL A   1      46.565  33.682  26.573  1.00  0.00     0.198 A 
ATOM     44  F   UNL A   1      47.361  31.724  27.501  1.00  0.00    -0.203 F 
ATOM     45  F   UNL A   1      43.353  35.308  26.753  1.00  0.00    -0.200 F 
ATOM     46  C   UNL A   1      45.551  34.584  26.329  1.00  0.00     0.200 A 
ATOM     47  F   UNL A   1      47.726  33.777  25.910  1.00  0.00    -0.200 F 
ATOM     48  F   UNL A   1      45.711  35.539  25.404  1.00  0.00    -0.200 F 
ENDBRANCH  24  38
BRANCH  25  49
ATOM     49  C   UNL A   1      36.985  32.133  30.998  1.00  0.00     0.064 A 
ATOM     50  C   UNL A   1      36.070  32.323  32.046  1.00  0.00     0.173 A 
ATOM     51  C   UNL A   1      36.787  32.918  29.843  1.00  0.00     0.173 A 
ATOM     52  F   UNL A   1      36.218  31.653  33.197  1.00  0.00    -0.203 F 
ATOM     53  C   UNL A   1      35.029  33.253  31.947  1.00  0.00     0.198 A 
ATOM     54  C   UNL A   1      35.746  33.841  29.746  1.00  0.00     0.198 A 
ATOM     55  F   UNL A   1      37.655  32.872  28.823  1.00  0.00    -0.203 F 
ATOM     56  F   UNL A   1      34.207  33.449  32.988  1.00  0.00    -0.200 F 
ATOM     57  C   UNL A   1      34.874  34.018  30.802  1.00  0.00     0.200 A 
ATOM     58  F   UNL A   1      35.634  34.603  28.647  1.00  0.00    -0.200 F 
ATOM     59  F   UNL A   1      33.915  34.950  30.732  1.00  0.00    -0.200 F 
ENDBRANCH  25  49
BRANCH  37  60
ATOM     60  C   UNL A   1      42.217  29.851  33.752  1.00  0.00     0.064 A 
ATOM     61  C   UNL A   1      41.674  28.575  33.523  1.00  0.00     0.173 A 
ATOM     62  C   UNL A   1      42.658  30.144  35.049  1.00  0.00     0.173 A 
ATOM     63  F   UNL A   1      41.321  28.187  32.291  1.00  0.00    -0.203 F 
ATOM     64  C   UNL A   1      41.555  27.646  34.558  1.00  0.00     0.198 A 
ATOM     65  C   UNL A   1      42.568  29.204  36.071  1.00  0.00     0.198 A 
ATOM     66  F   UNL A   1      43.239  31.325  35.308  1.00  0.00    -0.203 F 
ATOM     67  F   UNL A   1      41.043  26.431  34.315  1.00  0.00    -0.200 F 
ATOM     68  C   UNL A   1      42.013  27.958  35.827  1.00  0.00     0.200 A 
ATOM     69  F   UNL A   1      43.062  29.492  37.283  1.00  0.00    -0.200 F 
ATOM     70  F   UNL A   1      41.951  27.048  36.809  1.00  0.00    -0.200 F 
ENDBRANCH  37  60
ENDBRANCH  11  12
ENDBRANCH   4   6
ENDBRANCH   3   4
ENDBRANCH   2   3
ENDBRANCH   1   2
BRANCH   1  71
ATOM     71  O   UNL A   1      36.870  21.750  24.565  1.00  0.00    -0.457 OA
BRANCH  71  72
ATOM     72  C   UNL A   1      36.130  22.512  23.717  1.00  0.00     0.359 C 
ATOM     73  O   UNL A   1      36.605  23.247  22.850  1.00  0.00    -0.244 OA
BRANCH  72  74
ATOM     74  C   UNL A   1      34.656  22.375  23.904  1.00  0.00     0.179 A 
ATOM     75  N   UNL A   1      34.480  21.281  24.737  1.00  0.00    -0.245 NA
ATOM     76  C   UNL A   1      33.566  23.123  23.414  1.00  0.00     0.161 A 
ATOM     77  C   UNL A   1      33.233  20.889  25.022  1.00  0.00     0.132 A 
ATOM     78  N   UNL A   1      32.303  22.639  23.721  1.00  0.00    -0.247 NA
ATOM     79  C   UNL A   1      32.157  21.540  24.491  1.00  0.00     0.132 A 
BRANCH  76  80
ATOM     80  C   UNL A   1      33.321  24.362  22.511  1.00  0.00     0.276 C 
ATOM     81  O   UNL A   1      33.234  24.109  21.293  1.00  0.00    -0.267 OA
ATOM     82  N   UNL A   1      32.970  25.690  22.782  1.00  0.00    -0.321 N 
ATOM     83  H   UNL A   1      32.618  26.159  21.990  1.00  0.00     0.170 HD
BRANCH  82  84
ATOM     84  C   UNL A   1      33.004  26.501  23.916  1.00  0.00     0.043 A 
ATOM     85  C   UNL A   1      33.908  27.512  23.918  1.00  0.00     0.028 A 
ATOM     86  C   UNL A   1      32.111  26.447  24.986  1.00  0.00     0.049 A 
ATOM     87  C   UNL A   1      34.133  28.360  24.966  1.00  0.00     0.032 A 
ATOM     88  C   UNL A   1      32.265  27.341  26.079  1.00  0.00     0.068 A 
ATOM     89  C   UNL A   1      33.303  28.274  26.063  1.00  0.00     0.085 A 
ATOM     90  Cl  UNL A   1      31.131  27.284  27.373  1.00  0.00    -0.082 Cl
BRANCH  89  91
ATOM     91  N   UNL A   1      33.615  29.189  27.086  1.00  0.00    -0.220 N 
ATOM     92  C   UNL A   1      34.921  29.506  27.405  1.00  0.00     0.226 A 
ATOM     93  N   UNL A   1      32.865  30.328  27.184  1.00  0.00    -0.155 NA
ATOM     94  N   UNL A   1      35.040  30.787  27.673  1.00  0.00    -0.223 NA
ATOM     95  C   UNL A   1      33.773  31.250  27.504  1.00  0.00     0.246 A 
ENDBRANCH  89  91
ENDBRANCH  82  84
ENDBRANCH  76  80
ENDBRANCH  72  74
ENDBRANCH  71  72
ENDBRANCH   1  71
TORSDOF 14
ENDMDL
