MODEL 1
REMARK VINA RESULT:     -11.9      0.000      0.000
REMARK SMILES Cc1n[nH]c(C)c1CC(=O)N1CC[C@H](C(=O)OCCOC(=O)c2ccc(-c3c4nc(c(-c5c(F)c(F)c(F)c(F)c5F)c5ccc([nH]5)c(-c5c(F)c(F)c(F)c(F)c5F)c5nc(c(-c6c(F)c(F)c(F)c(F)c6F)c6ccc3[nH]6)C=C5)C=C4)cc2)[C@H]1C
REMARK SMILES IDX 18 1 17 2 15 3 16 4 14 5 11 6 12 7 86 8 13 9 87 10 9 11
REMARK SMILES IDX 10 12 8 13 7 14 1 15 2 16 3 17 4 18 5 19 6 21 19 22 20 23
REMARK SMILES IDX 21 24 22 25 23 26 24 27 85 28 25 29 84 30 26 31 27 32 28 33
REMARK SMILES IDX 78 34 29 35 83 36 77 37 79 38 30 39 82 40 76 41 75 42 31 44
REMARK SMILES IDX 63 45 43 46 62 47 44 48 47 49 61 50 80 51 45 52 46 53 60 55
REMARK SMILES IDX 81 56 48 57 32 58 33 59 41 60 34 61 35 62 39 63 42 64 36 65
REMARK SMILES IDX 37 66 40 67 38 68 64 69 65 70 73 71 66 72 67 73 71 74 74 75
REMARK SMILES IDX 68 76 69 77 72 78 70 79 49 80 50 81 58 82 51 83 52 84 56 85
REMARK SMILES IDX 59 86 53 87 54 88 57 89 55 90
REMARK H PARENT 4 20 79 43 47 54
REMARK Flexibility Score: inf
ROOT
ATOM      1  C   UNL A   1      31.178  29.438  24.511  1.00  0.00     0.274 C 
ENDROOT
BRANCH   1   2
ATOM      2  O   UNL A   1      30.343  28.295  24.206  1.00  0.00    -0.462 OA
BRANCH   2   3
ATOM      3  C   UNL A   1      30.401  27.852  22.927  1.00  0.00     0.311 C 
ATOM      4  O   UNL A   1      30.124  28.532  21.942  1.00  0.00    -0.252 OA
BRANCH   3   5
ATOM      5  C   UNL A   1      30.839  26.407  22.774  1.00  0.00     0.123 C 
ATOM      6  N   UNL A   1      32.715  25.829  24.126  1.00  0.00    -0.339 N 
ATOM      7  C   UNL A   1      33.215  26.486  22.931  1.00  0.00     0.121 C 
ATOM      8  C   UNL A   1      31.262  25.623  24.034  1.00  0.00     0.096 C 
ATOM      9  C   UNL A   1      32.100  26.329  21.910  1.00  0.00     0.039 C 
ATOM     10  C   UNL A   1      30.915  24.147  23.817  1.00  0.00     0.032 C 
BRANCH   6  11
ATOM     11  C   UNL A   1      33.569  25.677  25.201  1.00  0.00     0.227 C 
ATOM     12  O   UNL A   1      33.937  26.683  25.826  1.00  0.00    -0.275 OA
BRANCH  11  13
ATOM     13  C   UNL A   1      34.246  24.353  25.530  1.00  0.00     0.139 C 
BRANCH  13  14
ATOM     14  C   UNL A   1      35.324  23.830  24.646  1.00  0.00     0.005 A 
ATOM     15  C   UNL A   1      33.961  22.993  22.575  1.00  0.00     0.069 C 
ATOM     16  C   UNL A   1      35.199  23.247  23.354  1.00  0.00     0.063 A 
ATOM     17  N   UNL A   1      36.388  22.894  22.853  1.00  0.00    -0.181 NA
ATOM     18  N   UNL A   1      37.254  23.157  23.839  1.00  0.00    -0.282 N 
ATOM     19  C   UNL A   1      36.669  23.685  24.955  1.00  0.00     0.036 A 
ATOM     20  H   UNL A   1      38.221  22.986  23.766  1.00  0.00     0.190 HD
ATOM     21  C   UNL A   1      37.458  23.967  26.181  1.00  0.00     0.066 C 
ENDBRANCH  13  14
ENDBRANCH  11  13
ENDBRANCH   6  11
ENDBRANCH   3   5
ENDBRANCH   2   3
ENDBRANCH   1   2
BRANCH   1  22
ATOM     22  C   UNL A   1      31.831  29.293  25.885  1.00  0.00     0.275 C 
BRANCH  22  23
ATOM     23  O   UNL A   1      33.074  30.012  25.892  1.00  0.00    -0.458 OA
BRANCH  23  24
ATOM     24  C   UNL A   1      33.159  31.046  26.760  1.00  0.00     0.338 C 
ATOM     25  O   UNL A   1      32.376  31.980  26.856  1.00  0.00    -0.246 OA
BRANCH  24  26
ATOM     26  C   UNL A   1      34.347  30.877  27.633  1.00  0.00     0.060 A 
ATOM     27  C   UNL A   1      35.141  31.968  27.994  1.00  0.00     0.016 A 
ATOM     28  C   UNL A   1      34.732  29.597  28.035  1.00  0.00     0.016 A 
ATOM     29  C   UNL A   1      36.356  31.776  28.653  1.00  0.00     0.010 A 
ATOM     30  C   UNL A   1      35.894  29.420  28.798  1.00  0.00     0.010 A 
ATOM     31  C   UNL A   1      36.741  30.503  29.092  1.00  0.00    -0.014 A 
BRANCH  31  32
ATOM     32  C   UNL A   1      38.022  30.292  29.831  1.00  0.00     0.031 A 
ATOM     33  C   UNL A   1      39.127  29.471  29.213  1.00  0.00     0.074 A 
ATOM     34  C   UNL A   1      38.216  30.818  31.059  1.00  0.00     0.049 A 
ATOM     35  N   UNL A   1      40.183  28.939  29.778  1.00  0.00    -0.248 NA
ATOM     36  C   UNL A   1      39.021  29.199  27.770  1.00  0.00     0.031 C 
ATOM     37  C   UNL A   1      37.276  31.681  31.776  1.00  0.00     0.029 A 
ATOM     38  N   UNL A   1      39.278  30.701  31.926  1.00  0.00    -0.354 N 
ATOM     39  C   UNL A   1      40.823  28.214  28.780  1.00  0.00     0.074 A 
ATOM     40  C   UNL A   1      40.048  28.383  27.570  1.00  0.00     0.031 C 
ATOM     41  C   UNL A   1      37.816  32.046  32.948  1.00  0.00     0.029 A 
ATOM     42  C   UNL A   1      39.092  31.361  33.117  1.00  0.00     0.049 A 
ATOM     43  H   UNL A   1      40.094  30.193  31.714  1.00  0.00     0.167 HD
ATOM     44  C   UNL A   1      41.952  27.469  28.871  1.00  0.00     0.037 A 
ATOM     45  C   UNL A   1      39.828  31.371  34.246  1.00  0.00     0.037 A 
ATOM     46  C   UNL A   1      42.764  27.357  30.055  1.00  0.00     0.049 A 
ATOM     47  C   UNL A   1      41.069  30.527  34.325  1.00  0.00     0.074 A 
ATOM     48  C   UNL A   1      43.913  26.608  30.248  1.00  0.00     0.029 A 
ATOM     49  N   UNL A   1      42.528  28.039  31.238  1.00  0.00    -0.354 N 
ATOM     50  N   UNL A   1      41.603  29.754  33.414  1.00  0.00    -0.248 NA
ATOM     51  C   UNL A   1      41.793  30.534  35.605  1.00  0.00     0.031 C 
ATOM     52  C   UNL A   1      44.367  26.828  31.553  1.00  0.00     0.029 A 
ATOM     53  C   UNL A   1      43.516  27.736  32.161  1.00  0.00     0.049 A 
ATOM     54  H   UNL A   1      41.771  28.647  31.399  1.00  0.00     0.167 HD
ATOM     55  C   UNL A   1      42.723  29.188  34.004  1.00  0.00     0.074 A 
ATOM     56  C   UNL A   1      42.810  29.726  35.345  1.00  0.00     0.031 C 
ATOM     57  C   UNL A   1      43.596  28.290  33.486  1.00  0.00     0.037 A 
BRANCH  44  58
ATOM     58  C   UNL A   1      42.375  26.690  27.662  1.00  0.00     0.064 A 
ATOM     59  C   UNL A   1      43.365  27.160  26.788  1.00  0.00     0.173 A 
ATOM     60  C   UNL A   1      41.831  25.419  27.417  1.00  0.00     0.173 A 
ATOM     61  F   UNL A   1      43.908  28.373  26.973  1.00  0.00    -0.203 F 
ATOM     62  C   UNL A   1      43.788  26.390  25.706  1.00  0.00     0.198 A 
ATOM     63  C   UNL A   1      42.273  24.642  26.350  1.00  0.00     0.198 A 
ATOM     64  F   UNL A   1      40.887  24.920  28.230  1.00  0.00    -0.203 F 
ATOM     65  F   UNL A   1      44.718  26.868  24.869  1.00  0.00    -0.200 F 
ATOM     66  C   UNL A   1      43.250  25.129  25.494  1.00  0.00     0.200 A 
ATOM     67  F   UNL A   1      41.761  23.418  26.156  1.00  0.00    -0.200 F 
ATOM     68  F   UNL A   1      43.671  24.382  24.464  1.00  0.00    -0.200 F 
ENDBRANCH  44  58
BRANCH  45  69
ATOM     69  C   UNL A   1      39.376  32.162  35.421  1.00  0.00     0.064 A 
ATOM     70  C   UNL A   1      38.540  31.594  36.392  1.00  0.00     0.173 A 
ATOM     71  C   UNL A   1      39.755  33.501  35.588  1.00  0.00     0.173 A 
ATOM     72  F   UNL A   1      38.124  30.326  36.260  1.00  0.00    -0.203 F 
ATOM     73  C   UNL A   1      38.092  32.340  37.480  1.00  0.00     0.198 A 
ATOM     74  C   UNL A   1      39.334  34.236  36.693  1.00  0.00     0.198 A 
ATOM     75  F   UNL A   1      40.550  34.092  34.684  1.00  0.00    -0.203 F 
ATOM     76  F   UNL A   1      37.257  31.788  38.371  1.00  0.00    -0.200 F 
ATOM     77  C   UNL A   1      38.497  33.659  37.635  1.00  0.00     0.200 A 
ATOM     78  F   UNL A   1      39.738  35.506  36.844  1.00  0.00    -0.200 F 
ATOM     79  F   UNL A   1      38.071  34.374  38.685  1.00  0.00    -0.200 F 
ENDBRANCH  45  69
BRANCH  57  80
ATOM     80  C   UNL A   1      44.734  27.862  34.362  1.00  0.00     0.064 A 
ATOM     81  C   UNL A   1      45.947  28.562  34.378  1.00  0.00     0.173 A 
ATOM     82  C   UNL A   1      44.599  26.752  35.209  1.00  0.00     0.173 A 
ATOM     83  F   UNL A   1      46.128  29.620  33.571  1.00  0.00    -0.203 F 
ATOM     84  C   UNL A   1      46.997  28.152  35.195  1.00  0.00     0.198 A 
ATOM     85  C   UNL A   1      45.643  26.358  36.040  1.00  0.00     0.198 A 
ATOM     86  F   UNL A   1      43.455  26.052  35.230  1.00  0.00    -0.203 F 
ATOM     87  F   UNL A   1      48.164  28.810  35.164  1.00  0.00    -0.200 F 
ATOM     88  C   UNL A   1      46.842  27.054  36.029  1.00  0.00     0.200 A 
ATOM     89  F   UNL A   1      45.490  25.301  36.849  1.00  0.00    -0.200 F 
ATOM     90  F   UNL A   1      47.854  26.660  36.814  1.00  0.00    -0.200 F 
ENDBRANCH  57  80
ENDBRANCH  31  32
ENDBRANCH  24  26
ENDBRANCH  23  24
ENDBRANCH  22  23
ENDBRANCH   1  22
TORSDOF 14
ENDMDL
MODEL 2
REMARK VINA RESULT:     -11.8      1.336      1.617
REMARK SMILES Cc1n[nH]c(C)c1CC(=O)N1CC[C@H](C(=O)OCCOC(=O)c2ccc(-c3c4nc(c(-c5c(F)c(F)c(F)c(F)c5F)c5ccc([nH]5)c(-c5c(F)c(F)c(F)c(F)c5F)c5nc(c(-c6c(F)c(F)c(F)c(F)c6F)c6ccc3[nH]6)C=C5)C=C4)cc2)[C@H]1C
REMARK SMILES IDX 18 1 17 2 15 3 16 4 14 5 11 6 12 7 86 8 13 9 87 10 9 11
REMARK SMILES IDX 10 12 8 13 7 14 1 15 2 16 3 17 4 18 5 19 6 21 19 22 20 23
REMARK SMILES IDX 21 24 22 25 23 26 24 27 85 28 25 29 84 30 26 31 27 32 28 33
REMARK SMILES IDX 78 34 29 35 83 36 77 37 79 38 30 39 82 40 76 41 75 42 31 44
REMARK SMILES IDX 63 45 43 46 62 47 44 48 47 49 61 50 80 51 45 52 46 53 60 55
REMARK SMILES IDX 81 56 48 57 32 58 33 59 41 60 34 61 35 62 39 63 42 64 36 65
REMARK SMILES IDX 37 66 40 67 38 68 64 69 65 70 73 71 66 72 67 73 71 74 74 75
REMARK SMILES IDX 68 76 69 77 72 78 70 79 49 80 50 81 58 82 51 83 52 84 56 85
REMARK SMILES IDX 59 86 53 87 54 88 57 89 55 90
REMARK H PARENT 4 20 79 43 47 54
REMARK Flexibility Score: inf
ROOT
ATOM      1  C   UNL A   1      31.399  28.406  25.982  1.00  0.00     0.274 C 
ENDROOT
BRANCH   1   2
ATOM      2  O   UNL A   1      31.644  27.545  24.844  1.00  0.00    -0.462 OA
BRANCH   2   3
ATOM      3  C   UNL A   1      30.566  26.866  24.381  1.00  0.00     0.311 C 
ATOM      4  O   UNL A   1      29.667  27.365  23.709  1.00  0.00    -0.252 OA
BRANCH   3   5
ATOM      5  C   UNL A   1      30.530  25.397  24.760  1.00  0.00     0.123 C 
ATOM      6  N   UNL A   1      32.580  24.253  24.351  1.00  0.00    -0.339 N 
ATOM      7  C   UNL A   1      31.853  24.321  23.096  1.00  0.00     0.121 C 
ATOM      8  C   UNL A   1      31.761  24.779  25.454  1.00  0.00     0.096 C 
ATOM      9  C   UNL A   1      30.404  24.533  23.502  1.00  0.00     0.039 C 
ATOM     10  C   UNL A   1      31.276  23.659  26.378  1.00  0.00     0.032 C 
BRANCH   6  11
ATOM     11  C   UNL A   1      33.920  23.919  24.320  1.00  0.00     0.227 C 
ATOM     12  O   UNL A   1      34.768  24.825  24.303  1.00  0.00    -0.275 OA
BRANCH  11  13
ATOM     13  C   UNL A   1      34.405  22.492  24.097  1.00  0.00     0.139 C 
BRANCH  13  14
ATOM     14  C   UNL A   1      33.677  21.354  24.722  1.00  0.00     0.005 A 
ATOM     15  C   UNL A   1      32.155  20.545  22.753  1.00  0.00     0.069 C 
ATOM     16  C   UNL A   1      32.703  20.500  24.132  1.00  0.00     0.063 A 
ATOM     17  N   UNL A   1      32.264  19.579  24.996  1.00  0.00    -0.181 NA
ATOM     18  N   UNL A   1      32.871  19.889  26.148  1.00  0.00    -0.282 N 
ATOM     19  C   UNL A   1      33.702  20.969  26.055  1.00  0.00     0.036 A 
ATOM     20  H   UNL A   1      32.731  19.387  26.983  1.00  0.00     0.190 HD
ATOM     21  C   UNL A   1      34.401  21.512  27.248  1.00  0.00     0.066 C 
ENDBRANCH  13  14
ENDBRANCH  11  13
ENDBRANCH   6  11
ENDBRANCH   3   5
ENDBRANCH   2   3
ENDBRANCH   1   2
BRANCH   1  22
ATOM     22  C   UNL A   1      31.561  29.878  25.604  1.00  0.00     0.275 C 
BRANCH  22  23
ATOM     23  O   UNL A   1      32.921  30.275  25.838  1.00  0.00    -0.458 OA
BRANCH  23  24
ATOM     24  C   UNL A   1      33.122  31.137  26.861  1.00  0.00     0.338 C 
ATOM     25  O   UNL A   1      32.348  32.003  27.243  1.00  0.00    -0.246 OA
BRANCH  24  26
ATOM     26  C   UNL A   1      34.433  30.864  27.503  1.00  0.00     0.060 A 
ATOM     27  C   UNL A   1      34.837  29.560  27.799  1.00  0.00     0.016 A 
ATOM     28  C   UNL A   1      35.241  31.931  27.898  1.00  0.00     0.016 A 
ATOM     29  C   UNL A   1      35.976  29.328  28.570  1.00  0.00     0.010 A 
ATOM     30  C   UNL A   1      36.446  31.687  28.571  1.00  0.00     0.010 A 
ATOM     31  C   UNL A   1      36.817  30.384  28.946  1.00  0.00    -0.014 A 
BRANCH  31  32
ATOM     32  C   UNL A   1      38.059  30.141  29.740  1.00  0.00     0.031 A 
ATOM     33  C   UNL A   1      39.171  29.298  29.167  1.00  0.00     0.074 A 
ATOM     34  C   UNL A   1      38.209  30.657  30.978  1.00  0.00     0.049 A 
ATOM     35  N   UNL A   1      40.190  28.741  29.775  1.00  0.00    -0.248 NA
ATOM     36  C   UNL A   1      39.124  29.035  27.719  1.00  0.00     0.031 C 
ATOM     37  C   UNL A   1      37.258  31.538  31.657  1.00  0.00     0.029 A 
ATOM     38  N   UNL A   1      39.230  30.513  31.891  1.00  0.00    -0.354 N 
ATOM     39  C   UNL A   1      40.858  28.006  28.803  1.00  0.00     0.074 A 
ATOM     40  C   UNL A   1      40.140  28.198  27.560  1.00  0.00     0.031 C 
ATOM     41  C   UNL A   1      37.753  31.886  32.854  1.00  0.00     0.029 A 
ATOM     42  C   UNL A   1      39.005  31.172  33.076  1.00  0.00     0.049 A 
ATOM     43  H   UNL A   1      40.042  29.988  31.712  1.00  0.00     0.167 HD
ATOM     44  C   UNL A   1      41.964  27.236  28.939  1.00  0.00     0.037 A 
ATOM     45  C   UNL A   1      39.690  31.161  34.236  1.00  0.00     0.037 A 
ATOM     46  C   UNL A   1      42.720  27.100  30.157  1.00  0.00     0.049 A 
ATOM     47  C   UNL A   1      40.908  30.289  34.366  1.00  0.00     0.074 A 
ATOM     48  C   UNL A   1      43.843  26.326  30.398  1.00  0.00     0.029 A 
ATOM     49  N   UNL A   1      42.447  27.783  31.333  1.00  0.00    -0.354 N 
ATOM     50  N   UNL A   1      41.464  29.509  33.474  1.00  0.00    -0.248 NA
ATOM     51  C   UNL A   1      41.574  30.275  35.676  1.00  0.00     0.031 C 
ATOM     52  C   UNL A   1      44.244  26.531  31.723  1.00  0.00     0.029 A 
ATOM     53  C   UNL A   1      43.387  27.455  32.297  1.00  0.00     0.049 A 
ATOM     54  H   UNL A   1      41.698  28.407  31.464  1.00  0.00     0.167 HD
ATOM     55  C   UNL A   1      42.545  28.916  34.111  1.00  0.00     0.074 A 
ATOM     56  C   UNL A   1      42.584  29.446  35.457  1.00  0.00     0.031 C 
ATOM     57  C   UNL A   1      43.420  28.001  33.627  1.00  0.00     0.037 A 
BRANCH  44  58
ATOM     58  C   UNL A   1      42.424  26.453  27.746  1.00  0.00     0.064 A 
ATOM     59  C   UNL A   1      43.425  26.929  26.889  1.00  0.00     0.173 A 
ATOM     60  C   UNL A   1      41.903  25.172  27.501  1.00  0.00     0.173 A 
ATOM     61  F   UNL A   1      43.946  28.151  27.074  1.00  0.00    -0.203 F 
ATOM     62  C   UNL A   1      43.881  26.157  25.823  1.00  0.00     0.198 A 
ATOM     63  C   UNL A   1      42.378  24.393  26.451  1.00  0.00     0.198 A 
ATOM     64  F   UNL A   1      40.949  24.667  28.299  1.00  0.00    -0.203 F 
ATOM     65  F   UNL A   1      44.821  26.640  25.001  1.00  0.00    -0.200 F 
ATOM     66  C   UNL A   1      43.365  24.886  25.611  1.00  0.00     0.200 A 
ATOM     67  F   UNL A   1      41.887  23.160  26.257  1.00  0.00    -0.200 F 
ATOM     68  F   UNL A   1      43.818  24.137  24.597  1.00  0.00    -0.200 F 
ENDBRANCH  44  58
BRANCH  45  69
ATOM     69  C   UNL A   1      39.204  31.957  35.393  1.00  0.00     0.064 A 
ATOM     70  C   UNL A   1      38.397  31.373  36.380  1.00  0.00     0.173 A 
ATOM     71  C   UNL A   1      39.521  33.315  35.529  1.00  0.00     0.173 A 
ATOM     72  F   UNL A   1      38.040  30.085  36.278  1.00  0.00    -0.203 F 
ATOM     73  C   UNL A   1      37.917  32.122  37.452  1.00  0.00     0.198 A 
ATOM     74  C   UNL A   1      39.068  34.056  36.618  1.00  0.00     0.198 A 
ATOM     75  F   UNL A   1      40.286  33.922  34.609  1.00  0.00    -0.203 F 
ATOM     76  F   UNL A   1      37.110  31.552  38.358  1.00  0.00    -0.200 F 
ATOM     77  C   UNL A   1      38.260  33.462  37.575  1.00  0.00     0.200 A 
ATOM     78  F   UNL A   1      39.413  35.346  36.740  1.00  0.00    -0.200 F 
ATOM     79  F   UNL A   1      37.804  34.179  38.610  1.00  0.00    -0.200 F 
ENDBRANCH  45  69
BRANCH  57  80
ATOM     80  C   UNL A   1      44.508  27.544  34.550  1.00  0.00     0.064 A 
ATOM     81  C   UNL A   1      45.726  28.231  34.641  1.00  0.00     0.173 A 
ATOM     82  C   UNL A   1      44.320  26.419  35.367  1.00  0.00     0.173 A 
ATOM     83  F   UNL A   1      45.957  29.302  33.866  1.00  0.00    -0.203 F 
ATOM     84  C   UNL A   1      46.729  27.795  35.502  1.00  0.00     0.198 A 
ATOM     85  C   UNL A   1      45.317  25.998  36.241  1.00  0.00     0.198 A 
ATOM     86  F   UNL A   1      43.170  25.731  35.316  1.00  0.00    -0.203 F 
ATOM     87  F   UNL A   1      47.902  28.440  35.542  1.00  0.00    -0.200 F 
ATOM     88  C   UNL A   1      46.522  26.681  36.304  1.00  0.00     0.200 A 
ATOM     89  F   UNL A   1      45.114  24.927  37.020  1.00  0.00    -0.200 F 
ATOM     90  F   UNL A   1      47.489  26.262  37.131  1.00  0.00    -0.200 F 
ENDBRANCH  57  80
ENDBRANCH  31  32
ENDBRANCH  24  26
ENDBRANCH  23  24
ENDBRANCH  22  23
ENDBRANCH   1  22
TORSDOF 14
ENDMDL
MODEL 3
REMARK VINA RESULT:     -11.8      0.989      2.046
REMARK SMILES Cc1n[nH]c(C)c1CC(=O)N1CC[C@H](C(=O)OCCOC(=O)c2ccc(-c3c4nc(c(-c5c(F)c(F)c(F)c(F)c5F)c5ccc([nH]5)c(-c5c(F)c(F)c(F)c(F)c5F)c5nc(c(-c6c(F)c(F)c(F)c(F)c6F)c6ccc3[nH]6)C=C5)C=C4)cc2)[C@H]1C
REMARK SMILES IDX 18 1 17 2 15 3 16 4 14 5 11 6 12 7 86 8 13 9 87 10 9 11
REMARK SMILES IDX 10 12 8 13 7 14 1 15 2 16 3 17 4 18 5 19 6 21 19 22 20 23
REMARK SMILES IDX 21 24 22 25 23 26 24 27 85 28 25 29 84 30 26 31 27 32 28 33
REMARK SMILES IDX 78 34 29 35 83 36 77 37 79 38 30 39 82 40 76 41 75 42 31 44
REMARK SMILES IDX 63 45 43 46 62 47 44 48 47 49 61 50 80 51 45 52 46 53 60 55
REMARK SMILES IDX 81 56 48 57 32 58 33 59 41 60 34 61 35 62 39 63 42 64 36 65
REMARK SMILES IDX 37 66 40 67 38 68 64 69 65 70 73 71 66 72 67 73 71 74 74 75
REMARK SMILES IDX 68 76 69 77 72 78 70 79 49 80 50 81 58 82 51 83 52 84 56 85
REMARK SMILES IDX 59 86 53 87 54 88 57 89 55 90
REMARK H PARENT 4 20 79 43 47 54
REMARK Flexibility Score: inf
ROOT
ATOM      1  C   UNL A   1      32.076  29.051  24.367  1.00  0.00     0.274 C 
ENDROOT
BRANCH   1   2
ATOM      2  O   UNL A   1      31.058  28.042  24.171  1.00  0.00    -0.462 OA
BRANCH   2   3
ATOM      3  C   UNL A   1      30.782  27.732  22.881  1.00  0.00     0.311 C 
ATOM      4  O   UNL A   1      30.552  28.558  22.002  1.00  0.00    -0.252 OA
BRANCH   3   5
ATOM      5  C   UNL A   1      30.765  26.245  22.574  1.00  0.00     0.123 C 
ATOM      6  N   UNL A   1      32.864  25.172  22.928  1.00  0.00    -0.339 N 
ATOM      7  C   UNL A   1      32.906  25.811  21.624  1.00  0.00     0.121 C 
ATOM      8  C   UNL A   1      31.520  25.285  23.516  1.00  0.00     0.096 C 
ATOM      9  C   UNL A   1      31.448  25.979  21.230  1.00  0.00     0.039 C 
ATOM     10  C   UNL A   1      30.789  23.939  23.511  1.00  0.00     0.032 C 
BRANCH   6  11
ATOM     11  C   UNL A   1      34.050  24.753  23.497  1.00  0.00     0.227 C 
ATOM     12  O   UNL A   1      34.845  24.089  22.814  1.00  0.00    -0.275 OA
BRANCH  11  13
ATOM     13  C   UNL A   1      34.340  24.888  24.986  1.00  0.00     0.139 C 
BRANCH  13  14
ATOM     14  C   UNL A   1      34.557  23.669  25.814  1.00  0.00     0.005 A 
ATOM     15  C   UNL A   1      32.200  23.326  26.895  1.00  0.00     0.069 C 
ATOM     16  C   UNL A   1      33.622  22.984  26.637  1.00  0.00     0.063 A 
ATOM     17  N   UNL A   1      34.171  21.920  27.233  1.00  0.00    -0.181 NA
ATOM     18  N   UNL A   1      35.460  21.970  26.876  1.00  0.00    -0.282 N 
ATOM     19  C   UNL A   1      35.760  23.020  26.055  1.00  0.00     0.036 A 
ATOM     20  H   UNL A   1      36.128  21.312  27.177  1.00  0.00     0.190 HD
ATOM     21  C   UNL A   1      37.155  23.286  25.619  1.00  0.00     0.066 C 
ENDBRANCH  13  14
ENDBRANCH  11  13
ENDBRANCH   6  11
ENDBRANCH   3   5
ENDBRANCH   2   3
ENDBRANCH   1   2
BRANCH   1  22
ATOM     22  C   UNL A   1      31.624  30.099  25.384  1.00  0.00     0.275 C 
BRANCH  22  23
ATOM     23  O   UNL A   1      32.448  30.001  26.557  1.00  0.00    -0.458 OA
BRANCH  23  24
ATOM     24  C   UNL A   1      32.998  31.155  26.997  1.00  0.00     0.338 C 
ATOM     25  O   UNL A   1      32.496  32.269  26.934  1.00  0.00    -0.246 OA
BRANCH  24  26
ATOM     26  C   UNL A   1      34.318  30.883  27.617  1.00  0.00     0.060 A 
ATOM     27  C   UNL A   1      34.731  29.579  27.901  1.00  0.00     0.016 A 
ATOM     28  C   UNL A   1      35.131  31.951  28.004  1.00  0.00     0.016 A 
ATOM     29  C   UNL A   1      35.882  29.346  28.654  1.00  0.00     0.010 A 
ATOM     30  C   UNL A   1      36.346  31.706  28.658  1.00  0.00     0.010 A 
ATOM     31  C   UNL A   1      36.726  30.402  29.021  1.00  0.00    -0.014 A 
BRANCH  31  32
ATOM     32  C   UNL A   1      37.981  30.159  29.795  1.00  0.00     0.031 A 
ATOM     33  C   UNL A   1      39.083  29.314  29.204  1.00  0.00     0.074 A 
ATOM     34  C   UNL A   1      38.152  30.677  31.029  1.00  0.00     0.049 A 
ATOM     35  N   UNL A   1      40.111  28.757  29.796  1.00  0.00    -0.248 NA
ATOM     36  C   UNL A   1      39.011  29.050  27.758  1.00  0.00     0.031 C 
ATOM     37  C   UNL A   1      37.213  31.559  31.723  1.00  0.00     0.029 A 
ATOM     38  N   UNL A   1      39.187  30.533  31.925  1.00  0.00    -0.354 N 
ATOM     39  C   UNL A   1      40.761  28.020  28.814  1.00  0.00     0.074 A 
ATOM     40  C   UNL A   1      40.023  28.211  27.584  1.00  0.00     0.031 C 
ATOM     41  C   UNL A   1      37.728  31.909  32.912  1.00  0.00     0.029 A 
ATOM     42  C   UNL A   1      38.983  31.193  33.113  1.00  0.00     0.049 A 
ATOM     43  H   UNL A   1      39.996  30.007  31.734  1.00  0.00     0.167 HD
ATOM     44  C   UNL A   1      41.869  27.249  28.933  1.00  0.00     0.037 A 
ATOM     45  C   UNL A   1      39.687  31.183  34.262  1.00  0.00     0.037 A 
ATOM     46  C   UNL A   1      42.645  27.114  30.139  1.00  0.00     0.049 A 
ATOM     47  C   UNL A   1      40.906  30.310  34.373  1.00  0.00     0.074 A 
ATOM     48  C   UNL A   1      43.771  26.339  30.362  1.00  0.00     0.029 A 
ATOM     49  N   UNL A   1      42.392  27.798  31.318  1.00  0.00    -0.354 N 
ATOM     50  N   UNL A   1      41.447  29.528  33.473  1.00  0.00    -0.248 NA
ATOM     51  C   UNL A   1      41.594  30.297  35.672  1.00  0.00     0.031 C 
ATOM     52  C   UNL A   1      44.193  26.545  31.680  1.00  0.00     0.029 A 
ATOM     53  C   UNL A   1      43.347  27.470  32.267  1.00  0.00     0.049 A 
ATOM     54  H   UNL A   1      41.645  28.423  31.460  1.00  0.00     0.167 HD
ATOM     55  C   UNL A   1      42.537  28.934  34.092  1.00  0.00     0.074 A 
ATOM     56  C   UNL A   1      42.599  29.466  35.438  1.00  0.00     0.031 C 
ATOM     57  C   UNL A   1      43.403  28.018  33.596  1.00  0.00     0.037 A 
BRANCH  44  58
ATOM     58  C   UNL A   1      42.308  26.464  27.734  1.00  0.00     0.064 A 
ATOM     59  C   UNL A   1      43.325  26.918  26.884  1.00  0.00     0.173 A 
ATOM     60  C   UNL A   1      41.749  25.202  27.475  1.00  0.00     0.173 A 
ATOM     61  F   UNL A   1      43.883  28.122  27.082  1.00  0.00    -0.203 F 
ATOM     62  C   UNL A   1      43.761  26.142  25.811  1.00  0.00     0.198 A 
ATOM     63  C   UNL A   1      42.203  24.419  26.418  1.00  0.00     0.198 A 
ATOM     64  F   UNL A   1      40.779  24.718  28.266  1.00  0.00    -0.203 F 
ATOM     65  F   UNL A   1      44.718  26.605  24.996  1.00  0.00    -0.200 F 
ATOM     66  C   UNL A   1      43.207  24.890  25.586  1.00  0.00     0.200 A 
ATOM     67  F   UNL A   1      41.676  23.203  26.211  1.00  0.00    -0.200 F 
ATOM     68  F   UNL A   1      43.640  24.138  24.565  1.00  0.00    -0.200 F 
ENDBRANCH  44  58
BRANCH  45  69
ATOM     69  C   UNL A   1      39.221  31.980  35.426  1.00  0.00     0.064 A 
ATOM     70  C   UNL A   1      39.625  33.312  35.595  1.00  0.00     0.173 A 
ATOM     71  C   UNL A   1      38.378  31.425  36.400  1.00  0.00     0.173 A 
ATOM     72  F   UNL A   1      40.456  33.877  34.708  1.00  0.00    -0.203 F 
ATOM     73  C   UNL A   1      39.211  34.054  36.700  1.00  0.00     0.198 A 
ATOM     74  C   UNL A   1      37.938  32.178  37.486  1.00  0.00     0.198 A 
ATOM     75  F   UNL A   1      37.967  30.154  36.287  1.00  0.00    -0.203 F 
ATOM     76  F   UNL A   1      39.648  35.311  36.862  1.00  0.00    -0.200 F 
ATOM     77  C   UNL A   1      38.361  33.489  37.640  1.00  0.00     0.200 A 
ATOM     78  F   UNL A   1      37.107  31.632  38.385  1.00  0.00    -0.200 F 
ATOM     79  F   UNL A   1      37.959  34.205  38.698  1.00  0.00    -0.200 F 
ENDBRANCH  45  69
BRANCH  57  80
ATOM     80  C   UNL A   1      44.506  27.561  34.501  1.00  0.00     0.064 A 
ATOM     81  C   UNL A   1      44.364  26.428  35.313  1.00  0.00     0.173 A 
ATOM     82  C   UNL A   1      45.725  28.254  34.538  1.00  0.00     0.173 A 
ATOM     83  F   UNL A   1      43.208  25.745  35.323  1.00  0.00    -0.203 F 
ATOM     84  C   UNL A   1      45.396  26.016  36.150  1.00  0.00     0.198 A 
ATOM     85  C   UNL A   1      46.763  27.827  35.361  1.00  0.00     0.198 A 
ATOM     86  F   UNL A   1      45.909  29.342  33.777  1.00  0.00    -0.203 F 
ATOM     87  F   UNL A   1      45.225  24.955  36.951  1.00  0.00    -0.200 F 
ATOM     88  C   UNL A   1      46.597  26.713  36.170  1.00  0.00     0.200 A 
ATOM     89  F   UNL A   1      47.924  28.496  35.375  1.00  0.00    -0.200 F 
ATOM     90  F   UNL A   1      47.589  26.315  36.977  1.00  0.00    -0.200 F 
ENDBRANCH  57  80
ENDBRANCH  31  32
ENDBRANCH  24  26
ENDBRANCH  23  24
ENDBRANCH  22  23
ENDBRANCH   1  22
TORSDOF 14
ENDMDL
