MODEL 1
REMARK VINA RESULT:     -12.3      0.000      0.000
REMARK SMILES O=C(CN1C(=O)/C(=C\c2cccs2)SC1=S)Nc1ccccc1C(=O)OCCOC(=O)c1ccc(-c2c3nc(c(-c4c(F)c(F)c(F)c(F)c4F)c4ccc([nH]4)c(-c4c(F)c(F)c(F)c(F)c4F)c4nc(c(-c5c(F)c(F)c(F)c(F)c5F)c5ccc2[nH]5)C=C4)C=C3)cc1
REMARK SMILES IDX 27 1 26 2 24 3 25 4 23 5 18 6 19 7 20 8 22 9 21 10 17 11
REMARK SMILES IDX 1 12 2 13 3 15 4 16 5 17 15 18 6 19 7 20 14 21 16 22 8 23
REMARK SMILES IDX 9 24 10 25 13 26 11 27 12 28 28 29 29 30 30 31 31 32 32 33
REMARK SMILES IDX 33 34 94 35 34 36 93 37 35 38 36 39 37 40 87 41 38 42 92 43
REMARK SMILES IDX 86 44 88 45 39 46 91 47 85 48 84 49 40 51 72 52 52 53 71 54
REMARK SMILES IDX 53 55 56 56 70 57 89 58 54 59 55 60 69 62 90 63 57 64 41 65
REMARK SMILES IDX 42 66 50 67 43 68 44 69 48 70 51 71 45 72 46 73 49 74 47 75
REMARK SMILES IDX 73 76 74 77 82 78 75 79 76 80 80 81 83 82 77 83 78 84 81 85
REMARK SMILES IDX 79 86 58 87 59 88 67 89 60 90 61 91 65 92 68 93 62 94 63 95
REMARK SMILES IDX 66 96 64 97
REMARK H PARENT 17 14 88 50 56 61
REMARK Flexibility Score: inf
ROOT
ATOM      1  C   UNL A   1      35.808  22.042  25.754  1.00  0.00     0.275 C 
ENDROOT
BRANCH   1   2
ATOM      2  O   UNL A   1      34.781  21.496  26.607  1.00  0.00    -0.458 OA
BRANCH   2   3
ATOM      3  C   UNL A   1      33.495  21.741  26.238  1.00  0.00     0.340 C 
ATOM      4  O   UNL A   1      32.770  22.607  26.703  1.00  0.00    -0.246 OA
BRANCH   3   5
ATOM      5  C   UNL A   1      33.115  20.937  25.042  1.00  0.00     0.083 A 
ATOM      6  C   UNL A   1      32.864  21.444  23.754  1.00  0.00     0.055 A 
ATOM      7  C   UNL A   1      32.339  20.582  22.773  1.00  0.00     0.027 A 
ATOM      8  C   UNL A   1      32.109  19.232  23.043  1.00  0.00     0.002 A 
ATOM      9  C   UNL A   1      32.900  19.566  25.290  1.00  0.00     0.018 A 
ATOM     10  C   UNL A   1      32.392  18.722  24.302  1.00  0.00     0.001 A 
BRANCH   6  11
ATOM     11  N   UNL A   1      33.062  22.775  23.332  1.00  0.00    -0.324 N 
ATOM     12  O   UNL A   1      30.980  23.687  23.729  1.00  0.00    -0.273 OA
ATOM     13  C   UNL A   1      32.077  23.731  23.180  1.00  0.00     0.244 C 
ATOM     14  H   UNL A   1      33.985  23.046  23.125  1.00  0.00     0.170 HD
BRANCH  13  15
ATOM     15  C   UNL A   1      32.541  24.943  22.377  1.00  0.00     0.227 C 
BRANCH  15  16
ATOM     16  N   UNL A   1      32.445  26.115  23.236  1.00  0.00    -0.283 N 
ATOM     17  C   UNL A   1      31.513  27.086  22.916  1.00  0.00     0.266 C 
ATOM     18  C   UNL A   1      33.208  26.325  24.362  1.00  0.00     0.148 C 
ATOM     19  O   UNL A   1      30.853  27.099  21.887  1.00  0.00    -0.268 OA
ATOM     20  C   UNL A   1      31.482  28.140  23.971  1.00  0.00     0.081 C 
ATOM     21  S   UNL A   1      32.708  27.810  25.147  1.00  0.00    -0.054 SA
ATOM     22  S   UNL A   1      34.428  25.360  24.967  1.00  0.00    -0.052 S 
ATOM     23  C   UNL A   1      30.692  29.219  24.060  1.00  0.00     0.040 C 
BRANCH  23  24
ATOM     24  C   UNL A   1      29.679  29.542  23.120  1.00  0.00     0.028 A 
ATOM     25  C   UNL A   1      29.713  30.388  22.025  1.00  0.00     0.020 A 
ATOM     26  S   UNL A   1      28.136  28.789  23.255  1.00  0.00    -0.144 S 
ATOM     27  C   UNL A   1      28.462  30.469  21.347  1.00  0.00     0.012 A 
ATOM     28  C   UNL A   1      27.514  29.658  21.924  1.00  0.00     0.065 A 
ENDBRANCH  23  24
ENDBRANCH  15  16
ENDBRANCH  13  15
ENDBRANCH   6  11
ENDBRANCH   3   5
ENDBRANCH   2   3
ENDBRANCH   1   2
BRANCH   1  29
ATOM     29  C   UNL A   1      36.904  21.007  25.514  1.00  0.00     0.275 C 
BRANCH  29  30
ATOM     30  O   UNL A   1      38.144  21.685  25.248  1.00  0.00    -0.458 OA
BRANCH  30  31
ATOM     31  C   UNL A   1      39.171  21.337  26.050  1.00  0.00     0.338 C 
ATOM     32  O   UNL A   1      39.663  20.229  26.215  1.00  0.00    -0.246 OA
BRANCH  31  33
ATOM     33  C   UNL A   1      39.743  22.559  26.616  1.00  0.00     0.060 A 
ATOM     34  C   UNL A   1      39.295  23.778  26.106  1.00  0.00     0.016 A 
ATOM     35  C   UNL A   1      40.766  22.512  27.560  1.00  0.00     0.016 A 
ATOM     36  C   UNL A   1      39.902  24.964  26.501  1.00  0.00     0.010 A 
ATOM     37  C   UNL A   1      41.354  23.708  27.982  1.00  0.00     0.010 A 
ATOM     38  C   UNL A   1      40.948  24.940  27.431  1.00  0.00    -0.014 A 
BRANCH  38  39
ATOM     39  C   UNL A   1      41.696  26.185  27.741  1.00  0.00     0.031 A 
ATOM     40  C   UNL A   1      41.041  27.239  28.588  1.00  0.00     0.074 A 
ATOM     41  C   UNL A   1      42.957  26.362  27.305  1.00  0.00     0.049 A 
ATOM     42  N   UNL A   1      41.419  28.469  28.828  1.00  0.00    -0.248 NA
ATOM     43  C   UNL A   1      39.782  26.858  29.248  1.00  0.00     0.031 C 
ATOM     44  C   UNL A   1      43.736  25.386  26.545  1.00  0.00     0.029 A 
ATOM     45  N   UNL A   1      43.807  27.431  27.448  1.00  0.00    -0.354 N 
ATOM     46  C   UNL A   1      40.418  29.025  29.614  1.00  0.00     0.074 A 
ATOM     47  C   UNL A   1      39.419  27.998  29.819  1.00  0.00     0.031 C 
ATOM     48  C   UNL A   1      44.957  25.892  26.305  1.00  0.00     0.029 A 
ATOM     49  C   UNL A   1      45.020  27.253  26.830  1.00  0.00     0.049 A 
ATOM     50  H   UNL A   1      43.570  28.246  27.947  1.00  0.00     0.167 HD
ATOM     51  C   UNL A   1      40.341  30.280  30.114  1.00  0.00     0.037 A 
ATOM     52  C   UNL A   1      46.050  28.107  26.674  1.00  0.00     0.037 A 
ATOM     53  C   UNL A   1      41.366  31.278  29.952  1.00  0.00     0.049 A 
ATOM     54  C   UNL A   1      45.933  29.505  27.220  1.00  0.00     0.074 A 
ATOM     55  C   UNL A   1      41.380  32.587  30.400  1.00  0.00     0.029 A 
ATOM     56  N   UNL A   1      42.575  31.063  29.305  1.00  0.00    -0.354 N 
ATOM     57  N   UNL A   1      44.946  30.054  27.886  1.00  0.00    -0.248 NA
ATOM     58  C   UNL A   1      47.067  30.408  26.976  1.00  0.00     0.031 C 
ATOM     59  C   UNL A   1      42.590  33.171  30.008  1.00  0.00     0.029 A 
ATOM     60  C   UNL A   1      43.344  32.214  29.348  1.00  0.00     0.049 A 
ATOM     61  H   UNL A   1      42.846  30.218  28.881  1.00  0.00     0.167 HD
ATOM     62  C   UNL A   1      45.343  31.356  28.153  1.00  0.00     0.074 A 
ATOM     63  C   UNL A   1      46.670  31.512  27.592  1.00  0.00     0.031 C 
ATOM     64  C   UNL A   1      44.667  32.339  28.797  1.00  0.00     0.037 A 
BRANCH  51  65
ATOM     65  C   UNL A   1      39.090  30.658  30.849  1.00  0.00     0.064 A 
ATOM     66  C   UNL A   1      37.978  31.202  30.192  1.00  0.00     0.173 A 
ATOM     67  C   UNL A   1      38.998  30.451  32.234  1.00  0.00     0.173 A 
ATOM     68  F   UNL A   1      38.022  31.436  28.872  1.00  0.00    -0.203 F 
ATOM     69  C   UNL A   1      36.828  31.546  30.898  1.00  0.00     0.198 A 
ATOM     70  C   UNL A   1      37.838  30.772  32.932  1.00  0.00     0.198 A 
ATOM     71  F   UNL A   1      40.034  29.932  32.911  1.00  0.00    -0.203 F 
ATOM     72  F   UNL A   1      35.793  32.107  30.256  1.00  0.00    -0.200 F 
ATOM     73  C   UNL A   1      36.756  31.325  32.265  1.00  0.00     0.200 A 
ATOM     74  F   UNL A   1      37.768  30.549  34.252  1.00  0.00    -0.200 F 
ATOM     75  F   UNL A   1      35.646  31.654  32.941  1.00  0.00    -0.200 F 
ENDBRANCH  51  65
BRANCH  52  76
ATOM     76  C   UNL A   1      47.267  27.676  25.939  1.00  0.00     0.064 A 
ATOM     77  C   UNL A   1      48.385  27.181  26.624  1.00  0.00     0.173 A 
ATOM     78  C   UNL A   1      47.341  27.755  24.541  1.00  0.00     0.173 A 
ATOM     79  F   UNL A   1      48.374  27.114  27.963  1.00  0.00    -0.203 F 
ATOM     80  C   UNL A   1      49.534  26.790  25.939  1.00  0.00     0.198 A 
ATOM     81  C   UNL A   1      48.480  27.338  23.855  1.00  0.00     0.198 A 
ATOM     82  F   UNL A   1      46.301  28.228  23.838  1.00  0.00    -0.203 F 
ATOM     83  F   UNL A   1      50.604  26.361  26.621  1.00  0.00    -0.200 F 
ATOM     84  C   UNL A   1      49.578  26.862  24.555  1.00  0.00     0.200 A 
ATOM     85  F   UNL A   1      48.513  27.400  22.517  1.00  0.00    -0.200 F 
ATOM     86  F   UNL A   1      50.681  26.481  23.896  1.00  0.00    -0.200 F 
ENDBRANCH  52  76
BRANCH  64  87
ATOM     87  C   UNL A   1      45.370  33.653  28.966  1.00  0.00     0.064 A 
ATOM     88  C   UNL A   1      46.197  33.906  30.068  1.00  0.00     0.173 A 
ATOM     89  C   UNL A   1      45.238  34.655  27.993  1.00  0.00     0.173 A 
ATOM     90  F   UNL A   1      46.342  32.982  31.030  1.00  0.00    -0.203 F 
ATOM     91  C   UNL A   1      46.852  35.127  30.203  1.00  0.00     0.198 A 
ATOM     92  C   UNL A   1      45.912  35.866  28.120  1.00  0.00     0.198 A 
ATOM     93  F   UNL A   1      44.460  34.457  26.918  1.00  0.00    -0.203 F 
ATOM     94  F   UNL A   1      47.606  35.365  31.284  1.00  0.00    -0.200 F 
ATOM     95  C   UNL A   1      46.714  36.103  29.227  1.00  0.00     0.200 A 
ATOM     96  F   UNL A   1      45.783  36.805  27.172  1.00  0.00    -0.200 F 
ATOM     97  F   UNL A   1      47.346  37.277  29.357  1.00  0.00    -0.200 F 
ENDBRANCH  64  87
ENDBRANCH  38  39
ENDBRANCH  31  33
ENDBRANCH  30  31
ENDBRANCH  29  30
ENDBRANCH   1  29
TORSDOF 15
ENDMDL
MODEL 2
REMARK VINA RESULT:     -12.1      4.326     10.021
REMARK SMILES O=C(CN1C(=O)/C(=C\c2cccs2)SC1=S)Nc1ccccc1C(=O)OCCOC(=O)c1ccc(-c2c3nc(c(-c4c(F)c(F)c(F)c(F)c4F)c4ccc([nH]4)c(-c4c(F)c(F)c(F)c(F)c4F)c4nc(c(-c5c(F)c(F)c(F)c(F)c5F)c5ccc2[nH]5)C=C4)C=C3)cc1
REMARK SMILES IDX 27 1 26 2 24 3 25 4 23 5 18 6 19 7 20 8 22 9 21 10 17 11
REMARK SMILES IDX 1 12 2 13 3 15 4 16 5 17 15 18 6 19 7 20 14 21 16 22 8 23
REMARK SMILES IDX 9 24 10 25 13 26 11 27 12 28 28 29 29 30 30 31 31 32 32 33
REMARK SMILES IDX 33 34 94 35 34 36 93 37 35 38 36 39 37 40 87 41 38 42 92 43
REMARK SMILES IDX 86 44 88 45 39 46 91 47 85 48 84 49 40 51 72 52 52 53 71 54
REMARK SMILES IDX 53 55 56 56 70 57 89 58 54 59 55 60 69 62 90 63 57 64 41 65
REMARK SMILES IDX 42 66 50 67 43 68 44 69 48 70 51 71 45 72 46 73 49 74 47 75
REMARK SMILES IDX 73 76 74 77 82 78 75 79 76 80 80 81 83 82 77 83 78 84 81 85
REMARK SMILES IDX 79 86 58 87 59 88 67 89 60 90 61 91 65 92 68 93 62 94 63 95
REMARK SMILES IDX 66 96 64 97
REMARK H PARENT 17 14 88 50 56 61
REMARK Flexibility Score: inf
ROOT
ATOM      1  C   UNL A   1      31.813  28.616  27.149  1.00  0.00     0.275 C 
ENDROOT
BRANCH   1   2
ATOM      2  O   UNL A   1      30.980  27.706  26.401  1.00  0.00    -0.458 OA
BRANCH   2   3
ATOM      3  C   UNL A   1      31.507  26.479  26.143  1.00  0.00     0.340 C 
ATOM      4  O   UNL A   1      31.435  25.501  26.872  1.00  0.00    -0.246 OA
BRANCH   3   5
ATOM      5  C   UNL A   1      32.039  26.403  24.752  1.00  0.00     0.083 A 
ATOM      6  C   UNL A   1      33.136  25.628  24.331  1.00  0.00     0.055 A 
ATOM      7  C   UNL A   1      33.629  25.801  23.024  1.00  0.00     0.027 A 
ATOM      8  C   UNL A   1      33.024  26.689  22.133  1.00  0.00     0.002 A 
ATOM      9  C   UNL A   1      31.425  27.276  23.831  1.00  0.00     0.018 A 
ATOM     10  C   UNL A   1      31.918  27.426  22.535  1.00  0.00     0.001 A 
BRANCH   6  11
ATOM     11  N   UNL A   1      33.836  24.686  25.111  1.00  0.00    -0.324 N 
ATOM     12  O   UNL A   1      32.504  22.817  24.863  1.00  0.00    -0.273 OA
ATOM     13  C   UNL A   1      33.383  23.430  25.463  1.00  0.00     0.244 C 
ATOM     14  H   UNL A   1      34.728  24.947  25.435  1.00  0.00     0.170 HD
BRANCH  13  15
ATOM     15  C   UNL A   1      34.193  22.799  26.592  1.00  0.00     0.227 C 
BRANCH  15  16
ATOM     16  N   UNL A   1      35.197  21.930  25.992  1.00  0.00    -0.283 N 
ATOM     17  C   UNL A   1      34.832  20.636  25.665  1.00  0.00     0.266 C 
ATOM     18  C   UNL A   1      36.491  22.307  25.711  1.00  0.00     0.148 C 
ATOM     19  O   UNL A   1      33.764  20.122  25.964  1.00  0.00    -0.268 OA
ATOM     20  C   UNL A   1      35.950  19.947  24.958  1.00  0.00     0.081 C 
ATOM     21  S   UNL A   1      37.331  20.991  24.914  1.00  0.00    -0.054 SA
ATOM     22  S   UNL A   1      37.222  23.773  26.027  1.00  0.00    -0.052 S 
ATOM     23  C   UNL A   1      35.984  18.713  24.439  1.00  0.00     0.040 C 
BRANCH  23  24
ATOM     24  C   UNL A   1      34.886  17.812  24.456  1.00  0.00     0.028 A 
ATOM     25  C   UNL A   1      33.652  17.896  23.835  1.00  0.00     0.020 A 
ATOM     26  S   UNL A   1      35.025  16.335  25.330  1.00  0.00    -0.144 S 
ATOM     27  C   UNL A   1      32.804  16.790  24.134  1.00  0.00     0.012 A 
ATOM     28  C   UNL A   1      33.426  15.875  24.950  1.00  0.00     0.065 A 
ENDBRANCH  23  24
ENDBRANCH  15  16
ENDBRANCH  13  15
ENDBRANCH   6  11
ENDBRANCH   3   5
ENDBRANCH   2   3
ENDBRANCH   1   2
BRANCH   1  29
ATOM     29  C   UNL A   1      31.852  29.981  26.467  1.00  0.00     0.275 C 
BRANCH  29  30
ATOM     30  O   UNL A   1      33.218  30.412  26.348  1.00  0.00    -0.458 OA
BRANCH  30  31
ATOM     31  C   UNL A   1      33.574  31.425  27.163  1.00  0.00     0.338 C 
ATOM     32  O   UNL A   1      32.903  32.383  27.520  1.00  0.00    -0.246 OA
BRANCH  31  33
ATOM     33  C   UNL A   1      34.898  31.126  27.712  1.00  0.00     0.060 A 
ATOM     34  C   UNL A   1      35.175  29.799  28.042  1.00  0.00     0.016 A 
ATOM     35  C   UNL A   1      35.814  32.138  27.987  1.00  0.00     0.016 A 
ATOM     36  C   UNL A   1      36.358  29.477  28.698  1.00  0.00     0.010 A 
ATOM     37  C   UNL A   1      37.018  31.808  28.617  1.00  0.00     0.010 A 
ATOM     38  C   UNL A   1      37.284  30.480  29.005  1.00  0.00    -0.014 A 
BRANCH  38  39
ATOM     39  C   UNL A   1      38.474  30.163  29.835  1.00  0.00     0.031 A 
ATOM     40  C   UNL A   1      39.551  29.285  29.264  1.00  0.00     0.074 A 
ATOM     41  C   UNL A   1      38.615  30.680  31.070  1.00  0.00     0.049 A 
ATOM     42  N   UNL A   1      40.574  28.725  29.859  1.00  0.00    -0.248 NA
ATOM     43  C   UNL A   1      39.457  28.988  27.825  1.00  0.00     0.031 C 
ATOM     44  C   UNL A   1      37.686  31.609  31.712  1.00  0.00     0.029 A 
ATOM     45  N   UNL A   1      39.604  30.498  32.005  1.00  0.00    -0.354 N 
ATOM     46  C   UNL A   1      41.208  27.966  28.885  1.00  0.00     0.074 A 
ATOM     47  C   UNL A   1      40.461  28.139  27.657  1.00  0.00     0.031 C 
ATOM     48  C   UNL A   1      38.158  31.932  32.927  1.00  0.00     0.029 A 
ATOM     49  C   UNL A   1      39.383  31.177  33.177  1.00  0.00     0.049 A 
ATOM     50  H   UNL A   1      40.397  29.934  31.848  1.00  0.00     0.167 HD
ATOM     51  C   UNL A   1      42.310  27.189  29.009  1.00  0.00     0.037 A 
ATOM     52  C   UNL A   1      40.072  31.160  34.335  1.00  0.00     0.037 A 
ATOM     53  C   UNL A   1      43.078  27.066  30.219  1.00  0.00     0.049 A 
ATOM     54  C   UNL A   1      41.282  30.274  34.456  1.00  0.00     0.074 A 
ATOM     55  C   UNL A   1      44.200  26.292  30.460  1.00  0.00     0.029 A 
ATOM     56  N   UNL A   1      42.812  27.760  31.391  1.00  0.00    -0.354 N 
ATOM     57  N   UNL A   1      41.826  29.488  33.558  1.00  0.00    -0.248 NA
ATOM     58  C   UNL A   1      41.963  30.259  35.758  1.00  0.00     0.031 C 
ATOM     59  C   UNL A   1      44.602  26.503  31.783  1.00  0.00     0.029 A 
ATOM     60  C   UNL A   1      43.752  27.435  32.356  1.00  0.00     0.049 A 
ATOM     61  H   UNL A   1      42.067  28.390  31.519  1.00  0.00     0.167 HD
ATOM     62  C   UNL A   1      42.917  28.898  34.179  1.00  0.00     0.074 A 
ATOM     63  C   UNL A   1      42.971  29.430  35.525  1.00  0.00     0.031 C 
ATOM     64  C   UNL A   1      43.793  27.990  33.683  1.00  0.00     0.037 A 
BRANCH  51  65
ATOM     65  C   UNL A   1      42.727  26.383  27.815  1.00  0.00     0.064 A 
ATOM     66  C   UNL A   1      42.178  25.123  27.542  1.00  0.00     0.173 A 
ATOM     67  C   UNL A   1      43.680  26.893  26.920  1.00  0.00     0.173 A 
ATOM     68  F   UNL A   1      41.278  24.583  28.377  1.00  0.00    -0.203 F 
ATOM     69  C   UNL A   1      42.584  24.392  26.428  1.00  0.00     0.198 A 
ATOM     70  C   UNL A   1      44.064  26.172  25.793  1.00  0.00     0.198 A 
ATOM     71  F   UNL A   1      44.235  28.095  27.136  1.00  0.00    -0.203 F 
ATOM     72  F   UNL A   1      42.079  23.170  26.210  1.00  0.00    -0.200 F 
ATOM     73  C   UNL A   1      43.521  24.920  25.551  1.00  0.00     0.200 A 
ATOM     74  F   UNL A   1      44.963  26.687  24.944  1.00  0.00    -0.200 F 
ATOM     75  F   UNL A   1      43.907  24.217  24.478  1.00  0.00    -0.200 F 
ENDBRANCH  51  65
BRANCH  52  76
ATOM     76  C   UNL A   1      39.613  31.984  35.483  1.00  0.00     0.064 A 
ATOM     77  C   UNL A   1      40.127  33.270  35.699  1.00  0.00     0.173 A 
ATOM     78  C   UNL A   1      38.658  31.502  36.391  1.00  0.00     0.173 A 
ATOM     79  F   UNL A   1      41.063  33.763  34.876  1.00  0.00    -0.203 F 
ATOM     80  C   UNL A   1      39.710  34.039  36.784  1.00  0.00     0.198 A 
ATOM     81  C   UNL A   1      38.220  32.283  37.459  1.00  0.00     0.198 A 
ATOM     82  F   UNL A   1      38.140  30.275  36.233  1.00  0.00    -0.203 F 
ATOM     83  F   UNL A   1      40.248  35.248  36.992  1.00  0.00    -0.200 F 
ATOM     84  C   UNL A   1      38.752  33.547  37.659  1.00  0.00     0.200 A 
ATOM     85  F   UNL A   1      37.288  31.807  38.295  1.00  0.00    -0.200 F 
ATOM     86  F   UNL A   1      38.347  34.289  38.699  1.00  0.00    -0.200 F 
ENDBRANCH  52  76
BRANCH  64  87
ATOM     87  C   UNL A   1      44.906  27.550  34.586  1.00  0.00     0.064 A 
ATOM     88  C   UNL A   1      44.795  26.401  35.381  1.00  0.00     0.173 A 
ATOM     89  C   UNL A   1      46.108  28.271  34.629  1.00  0.00     0.173 A 
ATOM     90  F   UNL A   1      43.658  25.689  35.383  1.00  0.00    -0.203 F 
ATOM     91  C   UNL A   1      45.842  26.000  36.206  1.00  0.00     0.198 A 
ATOM     92  C   UNL A   1      47.162  27.854  35.437  1.00  0.00     0.198 A 
ATOM     93  F   UNL A   1      46.263  29.375  33.883  1.00  0.00    -0.203 F 
ATOM     94  F   UNL A   1      45.702  24.922  36.988  1.00  0.00    -0.200 F 
ATOM     95  C   UNL A   1      47.026  26.723  36.229  1.00  0.00     0.200 A 
ATOM     96  F   UNL A   1      48.308  28.549  35.453  1.00  0.00    -0.200 F 
ATOM     97  F   UNL A   1      48.035  26.335  37.021  1.00  0.00    -0.200 F 
ENDBRANCH  64  87
ENDBRANCH  38  39
ENDBRANCH  31  33
ENDBRANCH  30  31
ENDBRANCH  29  30
ENDBRANCH   1  29
TORSDOF 15
ENDMDL
MODEL 3
REMARK VINA RESULT:     -11.8      2.013      4.526
REMARK SMILES O=C(CN1C(=O)/C(=C\c2cccs2)SC1=S)Nc1ccccc1C(=O)OCCOC(=O)c1ccc(-c2c3nc(c(-c4c(F)c(F)c(F)c(F)c4F)c4ccc([nH]4)c(-c4c(F)c(F)c(F)c(F)c4F)c4nc(c(-c5c(F)c(F)c(F)c(F)c5F)c5ccc2[nH]5)C=C4)C=C3)cc1
REMARK SMILES IDX 27 1 26 2 24 3 25 4 23 5 18 6 19 7 20 8 22 9 21 10 17 11
REMARK SMILES IDX 1 12 2 13 3 15 4 16 5 17 15 18 6 19 7 20 14 21 16 22 8 23
REMARK SMILES IDX 9 24 10 25 13 26 11 27 12 28 28 29 29 30 30 31 31 32 32 33
REMARK SMILES IDX 33 34 94 35 34 36 93 37 35 38 36 39 37 40 87 41 38 42 92 43
REMARK SMILES IDX 86 44 88 45 39 46 91 47 85 48 84 49 40 51 72 52 52 53 71 54
REMARK SMILES IDX 53 55 56 56 70 57 89 58 54 59 55 60 69 62 90 63 57 64 41 65
REMARK SMILES IDX 42 66 50 67 43 68 44 69 48 70 51 71 45 72 46 73 49 74 47 75
REMARK SMILES IDX 73 76 74 77 82 78 75 79 76 80 80 81 83 82 77 83 78 84 81 85
REMARK SMILES IDX 79 86 58 87 59 88 67 89 60 90 61 91 65 92 68 93 62 94 63 95
REMARK SMILES IDX 66 96 64 97
REMARK H PARENT 17 14 88 50 56 61
REMARK Flexibility Score: inf
ROOT
ATOM      1  C   UNL A   1      35.155  22.844  24.148  1.00  0.00     0.275 C 
ENDROOT
BRANCH   1   2
ATOM      2  O   UNL A   1      35.134  24.169  24.719  1.00  0.00    -0.458 OA
BRANCH   2   3
ATOM      3  C   UNL A   1      34.244  25.045  24.181  1.00  0.00     0.340 C 
ATOM      4  O   UNL A   1      33.765  24.979  23.059  1.00  0.00    -0.246 OA
BRANCH   3   5
ATOM      5  C   UNL A   1      33.761  26.018  25.201  1.00  0.00     0.083 A 
ATOM      6  C   UNL A   1      32.640  25.851  26.034  1.00  0.00     0.055 A 
ATOM      7  C   UNL A   1      32.205  26.936  26.818  1.00  0.00     0.027 A 
ATOM      8  C   UNL A   1      32.892  28.151  26.816  1.00  0.00     0.002 A 
ATOM      9  C   UNL A   1      34.457  27.245  25.230  1.00  0.00     0.018 A 
ATOM     10  C   UNL A   1      34.021  28.306  26.023  1.00  0.00     0.001 A 
BRANCH   6  11
ATOM     11  N   UNL A   1      31.860  24.682  26.151  1.00  0.00    -0.324 N 
ATOM     12  O   UNL A   1      33.355  23.242  27.160  1.00  0.00    -0.273 OA
ATOM     13  C   UNL A   1      32.320  23.436  26.528  1.00  0.00     0.244 C 
ATOM     14  H   UNL A   1      30.900  24.762  25.944  1.00  0.00     0.170 HD
BRANCH  13  15
ATOM     15  C   UNL A   1      31.331  22.316  26.216  1.00  0.00     0.227 C 
BRANCH  15  16
ATOM     16  N   UNL A   1      31.706  21.731  24.935  1.00  0.00    -0.283 N 
ATOM     17  C   UNL A   1      32.367  20.515  24.939  1.00  0.00     0.266 C 
ATOM     18  C   UNL A   1      31.439  22.296  23.708  1.00  0.00     0.148 C 
ATOM     19  O   UNL A   1      32.779  19.956  25.944  1.00  0.00    -0.268 OA
ATOM     20  C   UNL A   1      32.557  20.027  23.543  1.00  0.00     0.081 C 
ATOM     21  S   UNL A   1      31.979  21.223  22.432  1.00  0.00    -0.054 SA
ATOM     22  S   UNL A   1      30.701  23.759  23.393  1.00  0.00    -0.052 S 
ATOM     23  C   UNL A   1      33.105  18.880  23.120  1.00  0.00     0.040 C 
BRANCH  23  24
ATOM     24  C   UNL A   1      33.603  17.870  23.985  1.00  0.00     0.028 A 
ATOM     25  C   UNL A   1      34.900  17.589  24.377  1.00  0.00     0.020 A 
ATOM     26  S   UNL A   1      32.494  16.795  24.747  1.00  0.00    -0.144 S 
ATOM     27  C   UNL A   1      34.987  16.456  25.238  1.00  0.00     0.012 A 
ATOM     28  C   UNL A   1      33.749  15.922  25.507  1.00  0.00     0.065 A 
ENDBRANCH  23  24
ENDBRANCH  15  16
ENDBRANCH  13  15
ENDBRANCH   6  11
ENDBRANCH   3   5
ENDBRANCH   2   3
ENDBRANCH   1   2
BRANCH   1  29
ATOM     29  C   UNL A   1      36.563  22.259  24.217  1.00  0.00     0.275 C 
BRANCH  29  30
ATOM     30  O   UNL A   1      36.928  22.067  25.595  1.00  0.00    -0.458 OA
BRANCH  30  31
ATOM     31  C   UNL A   1      38.206  21.689  25.802  1.00  0.00     0.338 C 
ATOM     32  O   UNL A   1      38.765  20.668  25.428  1.00  0.00    -0.246 OA
BRANCH  31  33
ATOM     33  C   UNL A   1      38.912  22.798  26.446  1.00  0.00     0.060 A 
ATOM     34  C   UNL A   1      38.433  24.088  26.217  1.00  0.00     0.016 A 
ATOM     35  C   UNL A   1      40.075  22.587  27.183  1.00  0.00     0.016 A 
ATOM     36  C   UNL A   1      39.143  25.188  26.683  1.00  0.00     0.010 A 
ATOM     37  C   UNL A   1      40.770  23.693  27.680  1.00  0.00     0.010 A 
ATOM     38  C   UNL A   1      40.327  25.003  27.406  1.00  0.00    -0.014 A 
BRANCH  38  39
ATOM     39  C   UNL A   1      41.165  26.172  27.774  1.00  0.00     0.031 A 
ATOM     40  C   UNL A   1      40.576  27.248  28.643  1.00  0.00     0.074 A 
ATOM     41  C   UNL A   1      42.446  26.262  27.371  1.00  0.00     0.049 A 
ATOM     42  N   UNL A   1      41.045  28.435  28.933  1.00  0.00    -0.248 NA
ATOM     43  C   UNL A   1      39.275  26.948  29.263  1.00  0.00     0.031 C 
ATOM     44  C   UNL A   1      43.163  25.252  26.594  1.00  0.00     0.029 A 
ATOM     45  N   UNL A   1      43.375  27.254  27.569  1.00  0.00    -0.354 N 
ATOM     46  C   UNL A   1      40.073  29.043  29.717  1.00  0.00     0.074 A 
ATOM     47  C   UNL A   1      38.991  28.093  29.864  1.00  0.00     0.031 C 
ATOM     48  C   UNL A   1      44.426  25.666  26.397  1.00  0.00     0.029 A 
ATOM     49  C   UNL A   1      44.584  26.999  26.971  1.00  0.00     0.049 A 
ATOM     50  H   UNL A   1      43.191  28.069  28.090  1.00  0.00     0.167 HD
ATOM     51  C   UNL A   1      40.084  30.284  30.258  1.00  0.00     0.037 A 
ATOM     52  C   UNL A   1      45.682  27.773  26.866  1.00  0.00     0.037 A 
ATOM     53  C   UNL A   1      41.188  31.201  30.152  1.00  0.00     0.049 A 
ATOM     54  C   UNL A   1      45.664  29.156  27.457  1.00  0.00     0.074 A 
ATOM     55  C   UNL A   1      41.296  32.489  30.645  1.00  0.00     0.029 A 
ATOM     56  N   UNL A   1      42.391  30.910  29.524  1.00  0.00    -0.354 N 
ATOM     57  N   UNL A   1      44.707  29.761  28.121  1.00  0.00    -0.248 NA
ATOM     58  C   UNL A   1      46.871  29.973  27.268  1.00  0.00     0.031 C 
ATOM     59  C   UNL A   1      42.557  32.986  30.299  1.00  0.00     0.029 A 
ATOM     60  C   UNL A   1      43.248  31.994  29.622  1.00  0.00     0.049 A 
ATOM     61  H   UNL A   1      42.604  30.061  29.076  1.00  0.00     0.167 HD
ATOM     62  C   UNL A   1      45.201  31.018  28.441  1.00  0.00     0.074 A 
ATOM     63  C   UNL A   1      46.549  31.084  27.914  1.00  0.00     0.031 C 
ATOM     64  C   UNL A   1      44.590  32.030  29.104  1.00  0.00     0.037 A 
BRANCH  51  65
ATOM     65  C   UNL A   1      38.849  30.736  30.979  1.00  0.00     0.064 A 
ATOM     66  C   UNL A   1      37.738  31.250  30.297  1.00  0.00     0.173 A 
ATOM     67  C   UNL A   1      38.773  30.632  32.376  1.00  0.00     0.173 A 
ATOM     68  F   UNL A   1      37.768  31.387  28.963  1.00  0.00    -0.203 F 
ATOM     69  C   UNL A   1      36.604  31.666  30.991  1.00  0.00     0.198 A 
ATOM     70  C   UNL A   1      37.628  31.025  33.064  1.00  0.00     0.198 A 
ATOM     71  F   UNL A   1      39.810  30.146  33.076  1.00  0.00    -0.203 F 
ATOM     72  F   UNL A   1      35.570  32.197  30.322  1.00  0.00    -0.200 F 
ATOM     73  C   UNL A   1      36.547  31.547  32.371  1.00  0.00     0.200 A 
ATOM     74  F   UNL A   1      37.573  30.900  34.397  1.00  0.00    -0.200 F 
ATOM     75  F   UNL A   1      35.452  31.944  33.035  1.00  0.00    -0.200 F 
ENDBRANCH  51  65
BRANCH  52  76
ATOM     76  C   UNL A   1      46.878  27.269  26.143  1.00  0.00     0.064 A 
ATOM     77  C   UNL A   1      47.887  26.569  26.818  1.00  0.00     0.173 A 
ATOM     78  C   UNL A   1      47.041  27.482  24.766  1.00  0.00     0.173 A 
ATOM     79  F   UNL A   1      47.791  26.366  28.140  1.00  0.00    -0.203 F 
ATOM     80  C   UNL A   1      49.018  26.109  26.145  1.00  0.00     0.198 A 
ATOM     81  C   UNL A   1      48.158  26.997  24.089  1.00  0.00     0.198 A 
ATOM     82  F   UNL A   1      46.108  28.153  24.074  1.00  0.00    -0.203 F 
ATOM     83  F   UNL A   1      49.987  25.480  26.822  1.00  0.00    -0.200 F 
ATOM     84  C   UNL A   1      49.149  26.317  24.780  1.00  0.00     0.200 A 
ATOM     85  F   UNL A   1      48.275  27.193  22.768  1.00  0.00    -0.200 F 
ATOM     86  F   UNL A   1      50.234  25.870  24.133  1.00  0.00    -0.200 F 
ENDBRANCH  52  76
BRANCH  64  87
ATOM     87  C   UNL A   1      45.391  33.277  29.333  1.00  0.00     0.064 A 
ATOM     88  C   UNL A   1      46.208  33.428  30.461  1.00  0.00     0.173 A 
ATOM     89  C   UNL A   1      45.364  34.317  28.392  1.00  0.00     0.173 A 
ATOM     90  F   UNL A   1      46.253  32.465  31.395  1.00  0.00    -0.203 F 
ATOM     91  C   UNL A   1      46.954  34.587  30.652  1.00  0.00     0.198 A 
ATOM     92  C   UNL A   1      46.129  35.465  28.574  1.00  0.00     0.198 A 
ATOM     93  F   UNL A   1      44.601  34.216  27.293  1.00  0.00    -0.203 F 
ATOM     94  F   UNL A   1      47.697  34.729  31.758  1.00  0.00    -0.200 F 
ATOM     95  C   UNL A   1      46.919  35.602  29.707  1.00  0.00     0.200 A 
ATOM     96  F   UNL A   1      46.100  36.441  27.656  1.00  0.00    -0.200 F 
ATOM     97  F   UNL A   1      47.639  36.716  29.890  1.00  0.00    -0.200 F 
ENDBRANCH  64  87
ENDBRANCH  38  39
ENDBRANCH  31  33
ENDBRANCH  30  31
ENDBRANCH  29  30
ENDBRANCH   1  29
TORSDOF 15
ENDMDL
