MODEL 1
REMARK VINA RESULT:     -13.3      0.000      0.000
REMARK SMILES O=C(OCCOC(=O)c1ccc2c(=O)n(CCc3c[nH]c4ccccc34)c(=O)[nH]c2c1)c1ccc(-c2c3nc(c(-c4c(F)c(F)c(F)c(F)c4F)c4ccc([nH]4)c(-c4c(F)c(F)c(F)c(F)c4F)c4nc(c(-c5c(F)c(F)c(F)c(F)c5F)c5ccc2[nH]5)C=C4)C=C3)cc1
REMARK SMILES IDX 5 1 4 2 3 3 2 4 1 5 32 6 33 7 94 8 34 9 93 10 35 11 36 12
REMARK SMILES IDX 37 13 87 14 38 15 92 16 86 17 88 18 39 19 91 20 85 21 84 22
REMARK SMILES IDX 40 24 72 25 52 26 71 27 53 28 56 29 70 30 89 31 54 32 55 33
REMARK SMILES IDX 69 35 90 36 57 37 41 38 42 39 50 40 43 41 44 42 48 43 51 44
REMARK SMILES IDX 45 45 46 46 49 47 47 48 73 49 74 50 82 51 75 52 76 53 80 54
REMARK SMILES IDX 83 55 77 56 78 57 81 58 79 59 58 60 59 61 67 62 60 63 61 64
REMARK SMILES IDX 65 65 68 66 62 67 63 68 66 69 64 70 6 71 7 72 8 73 9 74
REMARK SMILES IDX 10 75 31 76 11 77 30 78 12 79 29 80 13 81 27 82 14 84 15 85
REMARK SMILES IDX 28 86 16 87 17 88 18 89 19 90 26 91 20 92 21 93 25 94 22 96
REMARK SMILES IDX 24 97 23 98
REMARK H PARENT 88 23 56 34 29 83 20 95
REMARK Flexibility Score: inf
ROOT
ATOM      1  C   UNL A   1      31.772  32.527  26.888  1.00  0.00     0.275 C 
ENDROOT
BRANCH   1   2
ATOM      2  C   UNL A   1      32.965  33.316  27.448  1.00  0.00     0.275 C 
BRANCH   2   3
ATOM      3  O   UNL A   1      32.619  34.365  28.371  1.00  0.00    -0.458 OA
BRANCH   3   4
ATOM      4  C   UNL A   1      33.551  35.248  28.759  1.00  0.00     0.338 C 
ATOM      5  O   UNL A   1      33.750  36.366  28.286  1.00  0.00    -0.246 OA
BRANCH   4   6
ATOM      6  C   UNL A   1      34.461  34.543  29.705  1.00  0.00     0.060 A 
ATOM      7  C   UNL A   1      35.740  34.235  29.268  1.00  0.00     0.016 A 
ATOM      8  C   UNL A   1      34.008  33.989  30.922  1.00  0.00     0.016 A 
ATOM      9  C   UNL A   1      36.473  33.272  29.962  1.00  0.00     0.010 A 
ATOM     10  C   UNL A   1      34.791  33.077  31.660  1.00  0.00     0.010 A 
ATOM     11  C   UNL A   1      36.028  32.670  31.171  1.00  0.00    -0.014 A 
BRANCH  11  12
ATOM     12  C   UNL A   1      37.006  31.785  31.884  1.00  0.00     0.031 A 
ATOM     13  C   UNL A   1      37.547  30.463  31.369  1.00  0.00     0.074 A 
ATOM     14  C   UNL A   1      37.657  32.389  32.898  1.00  0.00     0.049 A 
ATOM     15  N   UNL A   1      38.786  30.018  31.451  1.00  0.00    -0.248 NA
ATOM     16  C   UNL A   1      36.683  29.568  30.589  1.00  0.00     0.031 C 
ATOM     17  C   UNL A   1      37.290  33.684  33.489  1.00  0.00     0.029 A 
ATOM     18  N   UNL A   1      38.806  32.040  33.547  1.00  0.00    -0.354 N 
ATOM     19  C   UNL A   1      38.897  28.962  30.541  1.00  0.00     0.074 A 
ATOM     20  C   UNL A   1      37.567  28.726  30.039  1.00  0.00     0.031 C 
ATOM     21  C   UNL A   1      38.236  34.051  34.358  1.00  0.00     0.029 A 
ATOM     22  C   UNL A   1      39.175  32.951  34.500  1.00  0.00     0.049 A 
ATOM     23  H   UNL A   1      39.315  31.220  33.352  1.00  0.00     0.167 HD
ATOM     24  C   UNL A   1      40.074  28.478  30.056  1.00  0.00     0.037 A 
ATOM     25  C   UNL A   1      40.097  32.844  35.470  1.00  0.00     0.037 A 
ATOM     26  C   UNL A   1      41.255  28.435  30.884  1.00  0.00     0.049 A 
ATOM     27  C   UNL A   1      41.015  31.671  35.416  1.00  0.00     0.074 A 
ATOM     28  C   UNL A   1      42.368  27.621  30.754  1.00  0.00     0.029 A 
ATOM     29  N   UNL A   1      41.400  29.122  32.077  1.00  0.00    -0.354 N 
ATOM     30  N   UNL A   1      41.243  30.869  34.403  1.00  0.00    -0.248 NA
ATOM     31  C   UNL A   1      41.772  31.356  36.626  1.00  0.00     0.031 C 
ATOM     32  C   UNL A   1      43.082  27.681  31.959  1.00  0.00     0.029 A 
ATOM     33  C   UNL A   1      42.463  28.601  32.790  1.00  0.00     0.049 A 
ATOM     34  H   UNL A   1      40.831  29.869  32.373  1.00  0.00     0.167 HD
ATOM     35  C   UNL A   1      42.192  29.964  34.843  1.00  0.00     0.074 A 
ATOM     36  C   UNL A   1      42.488  30.315  36.219  1.00  0.00     0.031 C 
ATOM     37  C   UNL A   1      42.763  28.946  34.156  1.00  0.00     0.037 A 
BRANCH  24  38
ATOM     38  C   UNL A   1      40.198  27.872  28.680  1.00  0.00     0.064 A 
ATOM     39  C   UNL A   1      40.917  28.548  27.668  1.00  0.00     0.173 A 
ATOM     40  C   UNL A   1      39.845  26.546  28.426  1.00  0.00     0.173 A 
ATOM     41  F   UNL A   1      41.374  29.790  27.877  1.00  0.00    -0.203 F 
ATOM     42  C   UNL A   1      41.248  27.929  26.459  1.00  0.00     0.198 A 
ATOM     43  C   UNL A   1      40.191  25.921  27.223  1.00  0.00     0.198 A 
ATOM     44  F   UNL A   1      39.224  25.830  29.373  1.00  0.00    -0.203 F 
ATOM     45  F   UNL A   1      41.954  28.589  25.529  1.00  0.00    -0.200 F 
ATOM     46  C   UNL A   1      40.889  26.611  26.241  1.00  0.00     0.200 A 
ATOM     47  F   UNL A   1      39.882  24.632  27.031  1.00  0.00    -0.200 F 
ATOM     48  F   UNL A   1      41.239  25.995  25.102  1.00  0.00    -0.200 F 
ENDBRANCH  24  38
BRANCH  25  49
ATOM     49  C   UNL A   1      39.981  33.758  36.632  1.00  0.00     0.064 A 
ATOM     50  C   UNL A   1      40.668  34.969  36.720  1.00  0.00     0.173 A 
ATOM     51  C   UNL A   1      39.096  33.429  37.680  1.00  0.00     0.173 A 
ATOM     52  F   UNL A   1      41.550  35.313  35.771  1.00  0.00    -0.203 F 
ATOM     53  C   UNL A   1      40.447  35.833  37.794  1.00  0.00     0.198 A 
ATOM     54  C   UNL A   1      38.841  34.310  38.720  1.00  0.00     0.198 A 
ATOM     55  F   UNL A   1      38.433  32.261  37.662  1.00  0.00    -0.203 F 
ATOM     56  F   UNL A   1      41.129  36.983  37.875  1.00  0.00    -0.200 F 
ATOM     57  C   UNL A   1      39.520  35.513  38.779  1.00  0.00     0.200 A 
ATOM     58  F   UNL A   1      37.926  33.999  39.649  1.00  0.00    -0.200 F 
ATOM     59  F   UNL A   1      39.285  36.363  39.787  1.00  0.00    -0.200 F 
ENDBRANCH  25  49
BRANCH  37  60
ATOM     60  C   UNL A   1      43.794  28.135  34.872  1.00  0.00     0.064 A 
ATOM     61  C   UNL A   1      45.130  28.552  34.938  1.00  0.00     0.173 A 
ATOM     62  C   UNL A   1      43.434  26.949  35.524  1.00  0.00     0.173 A 
ATOM     63  F   UNL A   1      45.520  29.676  34.318  1.00  0.00    -0.203 F 
ATOM     64  C   UNL A   1      46.078  27.790  35.612  1.00  0.00     0.198 A 
ATOM     65  C   UNL A   1      44.378  26.206  36.224  1.00  0.00     0.198 A 
ATOM     66  F   UNL A   1      42.164  26.519  35.496  1.00  0.00    -0.203 F 
ATOM     67  F   UNL A   1      47.361  28.177  35.622  1.00  0.00    -0.200 F 
ATOM     68  C   UNL A   1      45.701  26.622  36.260  1.00  0.00     0.200 A 
ATOM     69  F   UNL A   1      44.008  25.088  36.862  1.00  0.00    -0.200 F 
ATOM     70  F   UNL A   1      46.615  25.892  36.913  1.00  0.00    -0.200 F 
ENDBRANCH  37  60
ENDBRANCH  11  12
ENDBRANCH   4   6
ENDBRANCH   3   4
ENDBRANCH   2   3
ENDBRANCH   1   2
BRANCH   1  71
ATOM     71  O   UNL A   1      31.845  31.105  27.128  1.00  0.00    -0.458 OA
BRANCH  71  72
ATOM     72  C   UNL A   1      31.712  30.341  26.001  1.00  0.00     0.338 C 
ATOM     73  O   UNL A   1      30.969  30.582  25.069  1.00  0.00    -0.246 OA
BRANCH  72  74
ATOM     74  C   UNL A   1      32.335  28.996  26.201  1.00  0.00     0.062 A 
ATOM     75  C   UNL A   1      33.574  28.791  25.564  1.00  0.00     0.016 A 
ATOM     76  C   UNL A   1      31.650  27.905  26.760  1.00  0.00     0.042 A 
ATOM     77  C   UNL A   1      34.070  27.498  25.375  1.00  0.00     0.017 A 
ATOM     78  C   UNL A   1      32.144  26.608  26.545  1.00  0.00     0.056 A 
ATOM     79  C   UNL A   1      33.323  26.406  25.824  1.00  0.00     0.064 A 
ATOM     80  N   UNL A   1      31.350  25.503  26.867  1.00  0.00    -0.307 N 
ATOM     81  C   UNL A   1      33.626  25.047  25.321  1.00  0.00     0.264 A 
ATOM     82  C   UNL A   1      31.523  24.263  26.308  1.00  0.00     0.328 A 
ATOM     83  H   UNL A   1      30.632  25.621  27.529  1.00  0.00     0.171 HD
ATOM     84  O   UNL A   1      34.704  24.829  24.777  1.00  0.00    -0.268 OA
ATOM     85  N   UNL A   1      32.601  24.111  25.452  1.00  0.00    -0.260 N 
ATOM     86  O   UNL A   1      30.684  23.388  26.518  1.00  0.00    -0.248 OA
BRANCH  85  87
ATOM     87  C   UNL A   1      32.609  22.942  24.573  1.00  0.00     0.136 C 
BRANCH  87  88
ATOM     88  C   UNL A   1      31.727  23.154  23.328  1.00  0.00     0.060 C 
BRANCH  88  89
ATOM     89  C   UNL A   1      31.792  24.534  22.764  1.00  0.00    -0.021 A 
ATOM     90  C   UNL A   1      32.732  24.948  21.851  1.00  0.00     0.087 A 
ATOM     91  C   UNL A   1      30.931  25.657  22.992  1.00  0.00     0.003 A 
ATOM     92  N   UNL A   1      32.353  26.182  21.431  1.00  0.00    -0.361 N 
ATOM     93  C   UNL A   1      31.431  26.735  22.274  1.00  0.00     0.046 A 
ATOM     94  C   UNL A   1      29.748  25.879  23.703  1.00  0.00     0.010 A 
ATOM     95  H   UNL A   1      32.699  26.622  20.621  1.00  0.00     0.166 HD
ATOM     96  C   UNL A   1      30.919  28.038  22.375  1.00  0.00     0.026 A 
ATOM     97  C   UNL A   1      29.198  27.165  23.775  1.00  0.00     0.001 A 
ATOM     98  C   UNL A   1      29.787  28.246  23.147  1.00  0.00     0.002 A 
ENDBRANCH  88  89
ENDBRANCH  87  88
ENDBRANCH  85  87
ENDBRANCH  72  74
ENDBRANCH  71  72
ENDBRANCH   1  71
TORSDOF 14
ENDMDL
MODEL 2
REMARK VINA RESULT:     -13.1      5.107      9.335
REMARK SMILES O=C(OCCOC(=O)c1ccc2c(=O)n(CCc3c[nH]c4ccccc34)c(=O)[nH]c2c1)c1ccc(-c2c3nc(c(-c4c(F)c(F)c(F)c(F)c4F)c4ccc([nH]4)c(-c4c(F)c(F)c(F)c(F)c4F)c4nc(c(-c5c(F)c(F)c(F)c(F)c5F)c5ccc2[nH]5)C=C4)C=C3)cc1
REMARK SMILES IDX 5 1 4 2 3 3 2 4 1 5 32 6 33 7 94 8 34 9 93 10 35 11 36 12
REMARK SMILES IDX 37 13 87 14 38 15 92 16 86 17 88 18 39 19 91 20 85 21 84 22
REMARK SMILES IDX 40 24 72 25 52 26 71 27 53 28 56 29 70 30 89 31 54 32 55 33
REMARK SMILES IDX 69 35 90 36 57 37 41 38 42 39 50 40 43 41 44 42 48 43 51 44
REMARK SMILES IDX 45 45 46 46 49 47 47 48 73 49 74 50 82 51 75 52 76 53 80 54
REMARK SMILES IDX 83 55 77 56 78 57 81 58 79 59 58 60 59 61 67 62 60 63 61 64
REMARK SMILES IDX 65 65 68 66 62 67 63 68 66 69 64 70 6 71 7 72 8 73 9 74
REMARK SMILES IDX 10 75 31 76 11 77 30 78 12 79 29 80 13 81 27 82 14 84 15 85
REMARK SMILES IDX 28 86 16 87 17 88 18 89 19 90 26 91 20 92 21 93 25 94 22 96
REMARK SMILES IDX 24 97 23 98
REMARK H PARENT 88 23 56 34 29 83 20 95
REMARK Flexibility Score: inf
ROOT
ATOM      1  C   UNL A   1      38.204  21.199  25.425  1.00  0.00     0.275 C 
ENDROOT
BRANCH   1   2
ATOM      2  C   UNL A   1      38.976  19.873  25.344  1.00  0.00     0.275 C 
BRANCH   2   3
ATOM      3  O   UNL A   1      39.952  19.675  26.382  1.00  0.00    -0.458 OA
BRANCH   3   4
ATOM      4  C   UNL A   1      41.242  19.499  26.061  1.00  0.00     0.338 C 
ATOM      5  O   UNL A   1      41.774  18.454  25.689  1.00  0.00    -0.246 OA
BRANCH   4   6
ATOM      6  C   UNL A   1      41.971  20.734  26.464  1.00  0.00     0.060 A 
ATOM      7  C   UNL A   1      42.033  21.040  27.814  1.00  0.00     0.016 A 
ATOM      8  C   UNL A   1      42.398  21.702  25.528  1.00  0.00     0.016 A 
ATOM      9  C   UNL A   1      42.367  22.341  28.194  1.00  0.00     0.010 A 
ATOM     10  C   UNL A   1      42.812  22.989  25.928  1.00  0.00     0.010 A 
ATOM     11  C   UNL A   1      42.766  23.347  27.272  1.00  0.00    -0.014 A 
BRANCH  11  12
ATOM     12  C   UNL A   1      43.258  24.639  27.854  1.00  0.00     0.031 A 
ATOM     13  C   UNL A   1      44.694  25.133  27.829  1.00  0.00     0.074 A 
ATOM     14  C   UNL A   1      42.282  25.527  28.126  1.00  0.00     0.049 A 
ATOM     15  N   UNL A   1      45.113  26.363  27.603  1.00  0.00    -0.248 NA
ATOM     16  C   UNL A   1      45.802  24.180  27.960  1.00  0.00     0.031 C 
ATOM     17  C   UNL A   1      40.843  25.225  28.153  1.00  0.00     0.029 A 
ATOM     18  N   UNL A   1      42.343  26.873  28.344  1.00  0.00    -0.354 N 
ATOM     19  C   UNL A   1      46.479  26.277  27.315  1.00  0.00     0.074 A 
ATOM     20  C   UNL A   1      46.851  24.905  27.553  1.00  0.00     0.031 C 
ATOM     21  C   UNL A   1      40.160  26.363  28.301  1.00  0.00     0.029 A 
ATOM     22  C   UNL A   1      41.111  27.436  28.540  1.00  0.00     0.049 A 
ATOM     23  H   UNL A   1      43.184  27.385  28.358  1.00  0.00     0.167 HD
ATOM     24  C   UNL A   1      47.199  27.243  26.680  1.00  0.00     0.037 A 
ATOM     25  C   UNL A   1      40.794  28.660  28.993  1.00  0.00     0.037 A 
ATOM     26  C   UNL A   1      46.908  28.641  26.888  1.00  0.00     0.049 A 
ATOM     27  C   UNL A   1      41.901  29.650  29.118  1.00  0.00     0.074 A 
ATOM     28  C   UNL A   1      47.746  29.729  26.711  1.00  0.00     0.029 A 
ATOM     29  N   UNL A   1      45.747  29.121  27.467  1.00  0.00    -0.354 N 
ATOM     30  N   UNL A   1      43.099  29.596  28.587  1.00  0.00    -0.248 NA
ATOM     31  C   UNL A   1      41.645  30.843  29.923  1.00  0.00     0.031 C 
ATOM     32  C   UNL A   1      47.161  30.826  27.359  1.00  0.00     0.029 A 
ATOM     33  C   UNL A   1      45.924  30.438  27.848  1.00  0.00     0.049 A 
ATOM     34  H   UNL A   1      44.919  28.602  27.590  1.00  0.00     0.167 HD
ATOM     35  C   UNL A   1      43.737  30.761  28.971  1.00  0.00     0.074 A 
ATOM     36  C   UNL A   1      42.792  31.498  29.788  1.00  0.00     0.031 C 
ATOM     37  C   UNL A   1      44.989  31.175  28.659  1.00  0.00     0.037 A 
BRANCH  24  38
ATOM     38  C   UNL A   1      48.391  26.928  25.811  1.00  0.00     0.064 A 
ATOM     39  C   UNL A   1      48.299  27.051  24.406  1.00  0.00     0.173 A 
ATOM     40  C   UNL A   1      49.669  26.761  26.348  1.00  0.00     0.173 A 
ATOM     41  F   UNL A   1      47.119  27.310  23.825  1.00  0.00    -0.203 F 
ATOM     42  C   UNL A   1      49.428  26.991  23.584  1.00  0.00     0.198 A 
ATOM     43  C   UNL A   1      50.800  26.717  25.527  1.00  0.00     0.198 A 
ATOM     44  F   UNL A   1      49.830  26.708  27.677  1.00  0.00    -0.203 F 
ATOM     45  F   UNL A   1      49.310  27.137  22.256  1.00  0.00    -0.200 F 
ATOM     46  C   UNL A   1      50.681  26.830  24.149  1.00  0.00     0.200 A 
ATOM     47  F   UNL A   1      52.016  26.606  26.078  1.00  0.00    -0.200 F 
ATOM     48  F   UNL A   1      51.774  26.814  23.372  1.00  0.00    -0.200 F 
ENDBRANCH  24  38
BRANCH  25  49
ATOM     49  C   UNL A   1      39.434  28.857  29.548  1.00  0.00     0.064 A 
ATOM     50  C   UNL A   1      39.096  28.544  30.866  1.00  0.00     0.173 A 
ATOM     51  C   UNL A   1      38.438  29.440  28.738  1.00  0.00     0.173 A 
ATOM     52  F   UNL A   1      39.993  27.954  31.668  1.00  0.00    -0.203 F 
ATOM     53  C   UNL A   1      37.825  28.839  31.360  1.00  0.00     0.198 A 
ATOM     54  C   UNL A   1      37.192  29.778  29.245  1.00  0.00     0.198 A 
ATOM     55  F   UNL A   1      38.699  29.732  27.452  1.00  0.00    -0.203 F 
ATOM     56  F   UNL A   1      37.509  28.515  32.621  1.00  0.00    -0.200 F 
ATOM     57  C   UNL A   1      36.884  29.475  30.558  1.00  0.00     0.200 A 
ATOM     58  F   UNL A   1      36.304  30.412  28.466  1.00  0.00    -0.200 F 
ATOM     59  F   UNL A   1      35.679  29.789  31.050  1.00  0.00    -0.200 F 
ENDBRANCH  25  49
BRANCH  37  60
ATOM     60  C   UNL A   1      45.418  32.505  29.187  1.00  0.00     0.064 A 
ATOM     61  C   UNL A   1      46.070  32.622  30.422  1.00  0.00     0.173 A 
ATOM     62  C   UNL A   1      45.203  33.668  28.436  1.00  0.00     0.173 A 
ATOM     63  F   UNL A   1      46.285  31.535  31.179  1.00  0.00    -0.203 F 
ATOM     64  C   UNL A   1      46.468  33.866  30.899  1.00  0.00     0.198 A 
ATOM     65  C   UNL A   1      45.631  34.906  28.901  1.00  0.00     0.198 A 
ATOM     66  F   UNL A   1      44.593  33.601  27.243  1.00  0.00    -0.203 F 
ATOM     67  F   UNL A   1      47.045  33.964  32.104  1.00  0.00    -0.200 F 
ATOM     68  C   UNL A   1      46.255  35.005  30.137  1.00  0.00     0.200 A 
ATOM     69  F   UNL A   1      45.439  36.002  28.156  1.00  0.00    -0.200 F 
ATOM     70  F   UNL A   1      46.644  36.202  30.595  1.00  0.00    -0.200 F 
ENDBRANCH  37  60
ENDBRANCH  11  12
ENDBRANCH   4   6
ENDBRANCH   3   4
ENDBRANCH   2   3
ENDBRANCH   1   2
BRANCH   1  71
ATOM     71  O   UNL A   1      37.065  21.271  24.540  1.00  0.00    -0.458 OA
BRANCH  71  72
ATOM     72  C   UNL A   1      35.921  20.727  25.056  1.00  0.00     0.338 C 
ATOM     73  O   UNL A   1      35.453  19.647  24.751  1.00  0.00    -0.246 OA
BRANCH  72  74
ATOM     74  C   UNL A   1      35.130  21.764  25.789  1.00  0.00     0.062 A 
ATOM     75  C   UNL A   1      33.923  21.325  26.364  1.00  0.00     0.016 A 
ATOM     76  C   UNL A   1      35.407  23.138  25.714  1.00  0.00     0.042 A 
ATOM     77  C   UNL A   1      32.943  22.244  26.749  1.00  0.00     0.017 A 
ATOM     78  C   UNL A   1      34.408  24.055  26.081  1.00  0.00     0.056 A 
ATOM     79  C   UNL A   1      33.173  23.609  26.557  1.00  0.00     0.064 A 
ATOM     80  N   UNL A   1      34.565  25.410  25.774  1.00  0.00    -0.307 N 
ATOM     81  C   UNL A   1      32.041  24.563  26.601  1.00  0.00     0.264 A 
ATOM     82  C   UNL A   1      33.516  26.286  25.672  1.00  0.00     0.328 A 
ATOM     83  H   UNL A   1      35.476  25.753  25.626  1.00  0.00     0.171 HD
ATOM     84  O   UNL A   1      30.979  24.218  27.111  1.00  0.00    -0.268 OA
ATOM     85  N   UNL A   1      32.260  25.791  25.979  1.00  0.00    -0.260 N 
ATOM     86  O   UNL A   1      33.721  27.419  25.238  1.00  0.00    -0.248 OA
BRANCH  85  87
ATOM     87  C   UNL A   1      31.100  26.567  25.542  1.00  0.00     0.136 C 
BRANCH  87  88
ATOM     88  C   UNL A   1      30.851  26.423  24.029  1.00  0.00     0.060 C 
BRANCH  88  89
ATOM     89  C   UNL A   1      30.689  27.722  23.313  1.00  0.00    -0.021 A 
ATOM     90  C   UNL A   1      31.724  28.414  22.732  1.00  0.00     0.087 A 
ATOM     91  C   UNL A   1      29.500  28.478  23.046  1.00  0.00     0.003 A 
ATOM     92  N   UNL A   1      31.167  29.425  22.016  1.00  0.00    -0.361 N 
ATOM     93  C   UNL A   1      29.870  29.643  22.387  1.00  0.00     0.046 A 
ATOM     94  C   UNL A   1      28.131  28.291  23.256  1.00  0.00     0.010 A 
ATOM     95  H   UNL A   1      31.639  29.936  21.319  1.00  0.00     0.166 HD
ATOM     96  C   UNL A   1      28.977  30.685  22.096  1.00  0.00     0.026 A 
ATOM     97  C   UNL A   1      27.222  29.304  22.928  1.00  0.00     0.001 A 
ATOM     98  C   UNL A   1      27.633  30.505  22.382  1.00  0.00     0.002 A 
ENDBRANCH  88  89
ENDBRANCH  87  88
ENDBRANCH  85  87
ENDBRANCH  72  74
ENDBRANCH  71  72
ENDBRANCH   1  71
TORSDOF 14
ENDMDL
MODEL 3
REMARK VINA RESULT:     -13.1      0.946      7.285
REMARK SMILES O=C(OCCOC(=O)c1ccc2c(=O)n(CCc3c[nH]c4ccccc34)c(=O)[nH]c2c1)c1ccc(-c2c3nc(c(-c4c(F)c(F)c(F)c(F)c4F)c4ccc([nH]4)c(-c4c(F)c(F)c(F)c(F)c4F)c4nc(c(-c5c(F)c(F)c(F)c(F)c5F)c5ccc2[nH]5)C=C4)C=C3)cc1
REMARK SMILES IDX 5 1 4 2 3 3 2 4 1 5 32 6 33 7 94 8 34 9 93 10 35 11 36 12
REMARK SMILES IDX 37 13 87 14 38 15 92 16 86 17 88 18 39 19 91 20 85 21 84 22
REMARK SMILES IDX 40 24 72 25 52 26 71 27 53 28 56 29 70 30 89 31 54 32 55 33
REMARK SMILES IDX 69 35 90 36 57 37 41 38 42 39 50 40 43 41 44 42 48 43 51 44
REMARK SMILES IDX 45 45 46 46 49 47 47 48 73 49 74 50 82 51 75 52 76 53 80 54
REMARK SMILES IDX 83 55 77 56 78 57 81 58 79 59 58 60 59 61 67 62 60 63 61 64
REMARK SMILES IDX 65 65 68 66 62 67 63 68 66 69 64 70 6 71 7 72 8 73 9 74
REMARK SMILES IDX 10 75 31 76 11 77 30 78 12 79 29 80 13 81 27 82 14 84 15 85
REMARK SMILES IDX 28 86 16 87 17 88 18 89 19 90 26 91 20 92 21 93 25 94 22 96
REMARK SMILES IDX 24 97 23 98
REMARK H PARENT 88 23 56 34 29 83 20 95
REMARK Flexibility Score: inf
ROOT
ATOM      1  C   UNL A   1      31.274  31.954  26.525  1.00  0.00     0.275 C 
ENDROOT
BRANCH   1   2
ATOM      2  C   UNL A   1      32.157  33.154  26.901  1.00  0.00     0.275 C 
BRANCH   2   3
ATOM      3  O   UNL A   1      32.203  33.457  28.307  1.00  0.00    -0.458 OA
BRANCH   3   4
ATOM      4  C   UNL A   1      33.007  34.433  28.754  1.00  0.00     0.338 C 
ATOM      5  O   UNL A   1      32.772  35.640  28.753  1.00  0.00    -0.246 OA
BRANCH   4   6
ATOM      6  C   UNL A   1      34.335  33.818  29.031  1.00  0.00     0.060 A 
ATOM      7  C   UNL A   1      34.470  33.051  30.177  1.00  0.00     0.016 A 
ATOM      8  C   UNL A   1      35.497  34.166  28.307  1.00  0.00     0.016 A 
ATOM      9  C   UNL A   1      35.752  32.780  30.658  1.00  0.00     0.010 A 
ATOM     10  C   UNL A   1      36.786  33.816  28.758  1.00  0.00     0.010 A 
ATOM     11  C   UNL A   1      36.940  33.147  29.969  1.00  0.00    -0.014 A 
BRANCH  11  12
ATOM     12  C   UNL A   1      38.232  32.632  30.529  1.00  0.00     0.031 A 
ATOM     13  C   UNL A   1      38.922  33.141  31.782  1.00  0.00     0.074 A 
ATOM     14  C   UNL A   1      38.608  31.435  30.035  1.00  0.00     0.049 A 
ATOM     15  N   UNL A   1      39.520  32.424  32.714  1.00  0.00    -0.248 NA
ATOM     16  C   UNL A   1      38.873  34.568  32.121  1.00  0.00     0.031 C 
ATOM     17  C   UNL A   1      38.019  30.782  28.856  1.00  0.00     0.029 A 
ATOM     18  N   UNL A   1      39.505  30.522  30.508  1.00  0.00    -0.354 N 
ATOM     19  C   UNL A   1      39.675  33.257  33.826  1.00  0.00     0.074 A 
ATOM     20  C   UNL A   1      39.261  34.570  33.402  1.00  0.00     0.031 C 
ATOM     21  C   UNL A   1      38.519  29.549  28.745  1.00  0.00     0.029 A 
ATOM     22  C   UNL A   1      39.569  29.392  29.738  1.00  0.00     0.049 A 
ATOM     23  H   UNL A   1      40.049  30.661  31.317  1.00  0.00     0.167 HD
ATOM     24  C   UNL A   1      39.906  32.820  35.096  1.00  0.00     0.037 A 
ATOM     25  C   UNL A   1      40.471  28.398  29.757  1.00  0.00     0.037 A 
ATOM     26  C   UNL A   1      40.712  31.649  35.341  1.00  0.00     0.049 A 
ATOM     27  C   UNL A   1      41.437  28.371  30.892  1.00  0.00     0.074 A 
ATOM     28  C   UNL A   1      41.406  31.308  36.490  1.00  0.00     0.029 A 
ATOM     29  N   UNL A   1      41.058  30.721  34.375  1.00  0.00    -0.354 N 
ATOM     30  N   UNL A   1      41.363  29.016  32.032  1.00  0.00    -0.248 NA
ATOM     31  C   UNL A   1      42.619  27.524  30.746  1.00  0.00     0.031 C 
ATOM     32  C   UNL A   1      42.311  30.291  36.155  1.00  0.00     0.029 A 
ATOM     33  C   UNL A   1      42.106  29.942  34.829  1.00  0.00     0.049 A 
ATOM     34  H   UNL A   1      40.623  30.629  33.496  1.00  0.00     0.167 HD
ATOM     35  C   UNL A   1      42.478  28.635  32.755  1.00  0.00     0.074 A 
ATOM     36  C   UNL A   1      43.215  27.708  31.918  1.00  0.00     0.031 C 
ATOM     37  C   UNL A   1      42.841  29.019  34.003  1.00  0.00     0.037 A 
BRANCH  24  38
ATOM     38  C   UNL A   1      39.427  33.572  36.313  1.00  0.00     0.064 A 
ATOM     39  C   UNL A   1      38.372  33.053  37.099  1.00  0.00     0.173 A 
ATOM     40  C   UNL A   1      40.148  34.639  36.849  1.00  0.00     0.173 A 
ATOM     41  F   UNL A   1      37.697  31.968  36.695  1.00  0.00    -0.203 F 
ATOM     42  C   UNL A   1      38.050  33.591  38.348  1.00  0.00     0.198 A 
ATOM     43  C   UNL A   1      39.836  35.166  38.106  1.00  0.00     0.198 A 
ATOM     44  F   UNL A   1      41.203  35.129  36.184  1.00  0.00    -0.203 F 
ATOM     45  F   UNL A   1      37.060  33.060  39.081  1.00  0.00    -0.200 F 
ATOM     46  C   UNL A   1      38.789  34.645  38.853  1.00  0.00     0.200 A 
ATOM     47  F   UNL A   1      40.580  36.158  38.614  1.00  0.00    -0.200 F 
ATOM     48  F   UNL A   1      38.514  35.141  40.069  1.00  0.00    -0.200 F 
ENDBRANCH  24  38
BRANCH  25  49
ATOM     49  C   UNL A   1      40.587  27.552  28.545  1.00  0.00     0.064 A 
ATOM     50  C   UNL A   1      39.916  26.337  28.397  1.00  0.00     0.173 A 
ATOM     51  C   UNL A   1      41.361  28.010  27.458  1.00  0.00     0.173 A 
ATOM     52  F   UNL A   1      39.197  25.838  29.411  1.00  0.00    -0.203 F 
ATOM     53  C   UNL A   1      39.989  25.630  27.195  1.00  0.00     0.198 A 
ATOM     54  C   UNL A   1      41.392  27.331  26.249  1.00  0.00     0.198 A 
ATOM     55  F   UNL A   1      42.053  29.157  27.558  1.00  0.00    -0.203 F 
ATOM     56  F   UNL A   1      39.356  24.456  27.075  1.00  0.00    -0.200 F 
ATOM     57  C   UNL A   1      40.706  26.138  26.118  1.00  0.00     0.200 A 
ATOM     58  F   UNL A   1      42.068  27.845  25.212  1.00  0.00    -0.200 F 
ATOM     59  F   UNL A   1      40.740  25.473  24.956  1.00  0.00    -0.200 F 
ENDBRANCH  25  49
BRANCH  37  60
ATOM     60  C   UNL A   1      44.091  28.422  34.562  1.00  0.00     0.064 A 
ATOM     61  C   UNL A   1      44.077  27.183  35.216  1.00  0.00     0.173 A 
ATOM     62  C   UNL A   1      45.319  29.081  34.413  1.00  0.00     0.173 A 
ATOM     63  F   UNL A   1      42.921  26.524  35.391  1.00  0.00    -0.203 F 
ATOM     64  C   UNL A   1      45.249  26.637  35.728  1.00  0.00     0.198 A 
ATOM     65  C   UNL A   1      46.493  28.517  34.897  1.00  0.00     0.198 A 
ATOM     66  F   UNL A   1      45.380  30.264  33.783  1.00  0.00    -0.203 F 
ATOM     67  F   UNL A   1      45.208  25.475  36.395  1.00  0.00    -0.200 F 
ATOM     68  C   UNL A   1      46.456  27.300  35.562  1.00  0.00     0.200 A 
ATOM     69  F   UNL A   1      47.660  29.151  34.722  1.00  0.00    -0.200 F 
ATOM     70  F   UNL A   1      47.586  26.770  36.051  1.00  0.00    -0.200 F 
ENDBRANCH  37  60
ENDBRANCH  11  12
ENDBRANCH   4   6
ENDBRANCH   3   4
ENDBRANCH   2   3
ENDBRANCH   1   2
BRANCH   1  71
ATOM     71  O   UNL A   1      31.900  30.672  26.750  1.00  0.00    -0.458 OA
BRANCH  71  72
ATOM     72  C   UNL A   1      31.737  29.783  25.723  1.00  0.00     0.338 C 
ATOM     73  O   UNL A   1      30.980  29.923  24.783  1.00  0.00    -0.246 OA
BRANCH  72  74
ATOM     74  C   UNL A   1      32.349  28.463  26.069  1.00  0.00     0.062 A 
ATOM     75  C   UNL A   1      33.616  28.207  25.510  1.00  0.00     0.016 A 
ATOM     76  C   UNL A   1      31.639  27.423  26.689  1.00  0.00     0.042 A 
ATOM     77  C   UNL A   1      34.119  26.904  25.457  1.00  0.00     0.017 A 
ATOM     78  C   UNL A   1      32.140  26.114  26.611  1.00  0.00     0.056 A 
ATOM     79  C   UNL A   1      33.351  25.853  25.966  1.00  0.00     0.064 A 
ATOM     80  N   UNL A   1      31.332  25.039  26.992  1.00  0.00    -0.307 N 
ATOM     81  C   UNL A   1      33.675  24.455  25.598  1.00  0.00     0.264 A 
ATOM     82  C   UNL A   1      31.528  23.755  26.553  1.00  0.00     0.328 A 
ATOM     83  H   UNL A   1      30.584  25.212  27.609  1.00  0.00     0.171 HD
ATOM     84  O   UNL A   1      34.777  24.194  25.125  1.00  0.00    -0.268 OA
ATOM     85  N   UNL A   1      32.644  23.532  25.763  1.00  0.00    -0.260 N 
ATOM     86  O   UNL A   1      30.679  22.899  26.800  1.00  0.00    -0.248 OA
BRANCH  85  87
ATOM     87  C   UNL A   1      32.691  22.290  24.992  1.00  0.00     0.136 C 
BRANCH  87  88
ATOM     88  C   UNL A   1      31.855  22.385  23.702  1.00  0.00     0.060 C 
BRANCH  88  89
ATOM     89  C   UNL A   1      31.998  23.681  22.978  1.00  0.00    -0.021 A 
ATOM     90  C   UNL A   1      32.958  23.929  22.026  1.00  0.00     0.087 A 
ATOM     91  C   UNL A   1      31.202  24.871  23.066  1.00  0.00     0.003 A 
ATOM     92  N   UNL A   1      32.649  25.124  21.459  1.00  0.00    -0.361 N 
ATOM     93  C   UNL A   1      31.762  25.825  22.227  1.00  0.00     0.046 A 
ATOM     94  C   UNL A   1      30.036  25.244  23.741  1.00  0.00     0.010 A 
ATOM     95  H   UNL A   1      33.017  25.444  20.605  1.00  0.00     0.166 HD
ATOM     96  C   UNL A   1      31.325  27.158  22.169  1.00  0.00     0.026 A 
ATOM     97  C   UNL A   1      29.561  26.558  23.656  1.00  0.00     0.001 A 
ATOM     98  C   UNL A   1      30.209  27.521  22.906  1.00  0.00     0.002 A 
ENDBRANCH  88  89
ENDBRANCH  87  88
ENDBRANCH  85  87
ENDBRANCH  72  74
ENDBRANCH  71  72
ENDBRANCH   1  71
TORSDOF 14
ENDMDL
