MODEL 1
REMARK VINA RESULT:     -13.3      0.000      0.000
REMARK SMILES O=C(OCCOC(=O)[C@H]1Cc2[nH]cnc2CN1C(=O)c1ccncc1Cl)c1ccc(-c2c3nc(c(-c4c(F)c(F)c(F)c(F)c4F)c4ccc([nH]4)c(-c4c(F)c(F)c(F)c(F)c4F)c4nc(c(-c5c(F)c(F)c(F)c(F)c5F)c5ccc2[nH]5)C=C4)C=C3)cc1
REMARK SMILES IDX 4 1 3 2 2 3 1 4 27 5 28 6 89 7 29 8 88 9 30 10 31 11 32 12
REMARK SMILES IDX 82 13 33 14 87 15 81 16 83 17 34 18 86 19 80 20 79 21 35 23
REMARK SMILES IDX 67 24 47 25 66 26 48 27 51 28 65 29 84 30 49 31 50 32 64 34
REMARK SMILES IDX 85 35 52 36 36 37 37 38 45 39 38 40 39 41 43 42 46 43 40 44
REMARK SMILES IDX 41 45 44 46 42 47 68 48 69 49 77 50 70 51 71 52 75 53 78 54
REMARK SMILES IDX 72 55 73 56 76 57 74 58 53 59 54 60 62 61 55 62 56 63 60 64
REMARK SMILES IDX 63 65 57 66 58 67 61 68 59 69 5 70 6 71 7 72 8 73 9 74 10 75
REMARK SMILES IDX 17 76 11 77 16 78 12 79 15 80 13 81 14 83 18 84 19 85 20 86
REMARK SMILES IDX 21 87 25 88 22 89 24 90 26 91 23 92
REMARK H PARENT 83 22 51 33 12 82
REMARK Flexibility Score: inf
ROOT
ATOM      1  C   UNL A   1      39.450  21.196  26.170  1.00  0.00     0.275 C 
ENDROOT
BRANCH   1   2
ATOM      2  O   UNL A   1      39.935  21.883  27.324  1.00  0.00    -0.458 OA
BRANCH   2   3
ATOM      3  C   UNL A   1      41.032  22.633  27.082  1.00  0.00     0.338 C 
ATOM      4  O   UNL A   1      42.113  22.239  26.684  1.00  0.00    -0.246 OA
BRANCH   3   5
ATOM      5  C   UNL A   1      40.801  24.000  27.558  1.00  0.00     0.060 A 
ATOM      6  C   UNL A   1      39.698  24.757  27.190  1.00  0.00     0.016 A 
ATOM      7  C   UNL A   1      41.778  24.527  28.400  1.00  0.00     0.016 A 
ATOM      8  C   UNL A   1      39.661  26.083  27.582  1.00  0.00     0.010 A 
ATOM      9  C   UNL A   1      41.765  25.843  28.787  1.00  0.00     0.010 A 
ATOM     10  C   UNL A   1      40.723  26.623  28.329  1.00  0.00    -0.014 A 
BRANCH  10  11
ATOM     11  C   UNL A   1      40.649  28.009  28.716  1.00  0.00     0.031 A 
ATOM     12  C   UNL A   1      41.746  28.835  28.175  1.00  0.00     0.074 A 
ATOM     13  C   UNL A   1      39.661  28.526  29.462  1.00  0.00     0.049 A 
ATOM     14  N   UNL A   1      42.803  29.227  28.802  1.00  0.00    -0.248 NA
ATOM     15  C   UNL A   1      41.754  29.109  26.733  1.00  0.00     0.031 C 
ATOM     16  C   UNL A   1      38.355  27.965  29.805  1.00  0.00     0.029 A 
ATOM     17  N   UNL A   1      39.648  29.747  30.053  1.00  0.00    -0.354 N 
ATOM     18  C   UNL A   1      43.540  29.959  27.880  1.00  0.00     0.074 A 
ATOM     19  C   UNL A   1      42.940  29.706  26.595  1.00  0.00     0.031 C 
ATOM     20  C   UNL A   1      37.606  28.926  30.397  1.00  0.00     0.029 A 
ATOM     21  C   UNL A   1      38.432  30.104  30.603  1.00  0.00     0.049 A 
ATOM     22  H   UNL A   1      40.440  30.330  30.087  1.00  0.00     0.167 HD
ATOM     23  C   UNL A   1      44.438  30.891  28.299  1.00  0.00     0.037 A 
ATOM     24  C   UNL A   1      38.141  31.318  31.128  1.00  0.00     0.037 A 
ATOM     25  C   UNL A   1      44.787  30.686  29.686  1.00  0.00     0.049 A 
ATOM     26  C   UNL A   1      39.432  31.969  31.491  1.00  0.00     0.074 A 
ATOM     27  C   UNL A   1      45.363  29.647  30.396  1.00  0.00     0.029 A 
ATOM     28  N   UNL A   1      44.191  31.486  30.632  1.00  0.00    -0.354 N 
ATOM     29  N   UNL A   1      40.213  31.545  32.450  1.00  0.00    -0.248 NA
ATOM     30  C   UNL A   1      40.080  32.807  30.492  1.00  0.00     0.031 C 
ATOM     31  C   UNL A   1      44.663  29.616  31.641  1.00  0.00     0.029 A 
ATOM     32  C   UNL A   1      43.744  30.666  31.637  1.00  0.00     0.049 A 
ATOM     33  H   UNL A   1      44.102  32.467  30.595  1.00  0.00     0.167 HD
ATOM     34  C   UNL A   1      41.502  31.704  31.960  1.00  0.00     0.074 A 
ATOM     35  C   UNL A   1      41.361  32.568  30.791  1.00  0.00     0.031 C 
ATOM     36  C   UNL A   1      42.524  30.897  32.377  1.00  0.00     0.037 A 
BRANCH  23  37
ATOM     37  C   UNL A   1      44.696  32.198  27.587  1.00  0.00     0.064 A 
ATOM     38  C   UNL A   1      45.882  32.336  26.836  1.00  0.00     0.173 A 
ATOM     39  C   UNL A   1      44.008  33.402  27.857  1.00  0.00     0.173 A 
ATOM     40  F   UNL A   1      46.615  31.260  26.510  1.00  0.00    -0.203 F 
ATOM     41  C   UNL A   1      46.397  33.588  26.493  1.00  0.00     0.198 A 
ATOM     42  C   UNL A   1      44.501  34.646  27.468  1.00  0.00     0.198 A 
ATOM     43  F   UNL A   1      42.898  33.447  28.598  1.00  0.00    -0.203 F 
ATOM     44  F   UNL A   1      47.600  33.672  25.908  1.00  0.00    -0.200 F 
ATOM     45  C   UNL A   1      45.714  34.743  26.823  1.00  0.00     0.200 A 
ATOM     46  F   UNL A   1      43.825  35.754  27.804  1.00  0.00    -0.200 F 
ATOM     47  F   UNL A   1      46.242  35.945  26.565  1.00  0.00    -0.200 F 
ENDBRANCH  23  37
BRANCH  24  48
ATOM     48  C   UNL A   1      36.866  32.055  31.002  1.00  0.00     0.064 A 
ATOM     49  C   UNL A   1      36.000  32.202  32.096  1.00  0.00     0.173 A 
ATOM     50  C   UNL A   1      36.596  32.856  29.874  1.00  0.00     0.173 A 
ATOM     51  F   UNL A   1      36.216  31.512  33.224  1.00  0.00    -0.203 F 
ATOM     52  C   UNL A   1      34.938  33.112  32.068  1.00  0.00     0.198 A 
ATOM     53  C   UNL A   1      35.532  33.757  29.845  1.00  0.00     0.198 A 
ATOM     54  F   UNL A   1      37.415  32.851  28.813  1.00  0.00    -0.203 F 
ATOM     55  F   UNL A   1      34.165  33.269  33.152  1.00  0.00    -0.200 F 
ATOM     56  C   UNL A   1      34.710  33.894  30.947  1.00  0.00     0.200 A 
ATOM     57  F   UNL A   1      35.346  34.533  28.768  1.00  0.00    -0.200 F 
ATOM     58  F   UNL A   1      33.728  34.806  30.943  1.00  0.00    -0.200 F 
ENDBRANCH  24  48
BRANCH  36  59
ATOM     59  C   UNL A   1      42.263  30.001  33.555  1.00  0.00     0.064 A 
ATOM     60  C   UNL A   1      41.761  28.693  33.442  1.00  0.00     0.173 A 
ATOM     61  C   UNL A   1      42.662  30.427  34.828  1.00  0.00     0.173 A 
ATOM     62  F   UNL A   1      41.463  28.171  32.246  1.00  0.00    -0.203 F 
ATOM     63  C   UNL A   1      41.614  27.872  34.559  1.00  0.00     0.198 A 
ATOM     64  C   UNL A   1      42.550  29.593  35.939  1.00  0.00     0.198 A 
ATOM     65  F   UNL A   1      43.208  31.642  34.989  1.00  0.00    -0.203 F 
ATOM     66  F   UNL A   1      41.121  26.631  34.424  1.00  0.00    -0.200 F 
ATOM     67  C   UNL A   1      42.015  28.322  35.806  1.00  0.00     0.200 A 
ATOM     68  F   UNL A   1      42.988  30.012  37.133  1.00  0.00    -0.200 F 
ATOM     69  F   UNL A   1      41.913  27.519  36.875  1.00  0.00    -0.200 F 
ENDBRANCH  36  59
ENDBRANCH  10  11
ENDBRANCH   3   5
ENDBRANCH   2   3
ENDBRANCH   1   2
BRANCH   1  70
ATOM     70  C   UNL A   1      38.338  21.956  25.419  1.00  0.00     0.274 C 
BRANCH  70  71
ATOM     71  O   UNL A   1      37.029  21.497  25.815  1.00  0.00    -0.461 OA
BRANCH  71  72
ATOM     72  C   UNL A   1      36.000  22.397  25.693  1.00  0.00     0.329 C 
ATOM     73  O   UNL A   1      36.080  23.575  26.000  1.00  0.00    -0.250 OA
BRANCH  72  74
ATOM     74  C   UNL A   1      34.709  21.650  25.298  1.00  0.00     0.201 C 
ATOM     75  C   UNL A   1      35.259  20.186  25.118  1.00  0.00     0.093 C 
ATOM     76  N   UNL A   1      33.375  21.631  26.053  1.00  0.00    -0.318 N 
ATOM     77  C   UNL A   1      34.170  19.299  24.673  1.00  0.00     0.042 A 
ATOM     78  C   UNL A   1      32.298  20.841  25.374  1.00  0.00     0.179 C 
ATOM     79  N   UNL A   1      34.245  18.053  24.127  1.00  0.00    -0.348 N 
ATOM     80  C   UNL A   1      32.835  19.586  24.787  1.00  0.00     0.081 A 
ATOM     81  C   UNL A   1      32.954  17.655  23.887  1.00  0.00     0.197 A 
ATOM     82  H   UNL A   1      35.064  17.539  23.942  1.00  0.00     0.167 HD
ATOM     83  N   UNL A   1      32.083  18.569  24.261  1.00  0.00    -0.240 NA
BRANCH  76  84
ATOM     84  C   UNL A   1      32.831  22.583  26.945  1.00  0.00     0.256 C 
ATOM     85  O   UNL A   1      32.924  22.446  28.166  1.00  0.00    -0.269 OA
BRANCH  84  86
ATOM     86  C   UNL A   1      32.165  23.821  26.494  1.00  0.00     0.061 A 
ATOM     87  C   UNL A   1      32.966  24.927  26.221  1.00  0.00     0.035 A 
ATOM     88  C   UNL A   1      30.771  23.982  26.490  1.00  0.00     0.072 A 
ATOM     89  C   UNL A   1      32.355  26.091  25.784  1.00  0.00     0.112 A 
ATOM     90  C   UNL A   1      30.262  25.170  25.988  1.00  0.00     0.132 A 
ATOM     91  Cl  UNL A   1      29.627  22.859  27.135  1.00  0.00    -0.082 Cl
ATOM     92  N   UNL A   1      31.022  26.228  25.625  1.00  0.00    -0.263 NA
ENDBRANCH  84  86
ENDBRANCH  76  84
ENDBRANCH  72  74
ENDBRANCH  71  72
ENDBRANCH  70  71
ENDBRANCH   1  70
TORSDOF 13
ENDMDL
MODEL 2
REMARK VINA RESULT:     -13.1      1.207      1.891
REMARK SMILES O=C(OCCOC(=O)[C@H]1Cc2[nH]cnc2CN1C(=O)c1ccncc1Cl)c1ccc(-c2c3nc(c(-c4c(F)c(F)c(F)c(F)c4F)c4ccc([nH]4)c(-c4c(F)c(F)c(F)c(F)c4F)c4nc(c(-c5c(F)c(F)c(F)c(F)c5F)c5ccc2[nH]5)C=C4)C=C3)cc1
REMARK SMILES IDX 4 1 3 2 2 3 1 4 27 5 28 6 89 7 29 8 88 9 30 10 31 11 32 12
REMARK SMILES IDX 82 13 33 14 87 15 81 16 83 17 34 18 86 19 80 20 79 21 35 23
REMARK SMILES IDX 67 24 47 25 66 26 48 27 51 28 65 29 84 30 49 31 50 32 64 34
REMARK SMILES IDX 85 35 52 36 36 37 37 38 45 39 38 40 39 41 43 42 46 43 40 44
REMARK SMILES IDX 41 45 44 46 42 47 68 48 69 49 77 50 70 51 71 52 75 53 78 54
REMARK SMILES IDX 72 55 73 56 76 57 74 58 53 59 54 60 62 61 55 62 56 63 60 64
REMARK SMILES IDX 63 65 57 66 58 67 61 68 59 69 5 70 6 71 7 72 8 73 9 74 10 75
REMARK SMILES IDX 17 76 11 77 16 78 12 79 15 80 13 81 14 83 18 84 19 85 20 86
REMARK SMILES IDX 21 87 25 88 22 89 24 90 26 91 23 92
REMARK H PARENT 83 22 51 33 12 82
REMARK Flexibility Score: inf
ROOT
ATOM      1  C   UNL A   1      38.607  21.397  25.851  1.00  0.00     0.275 C 
ENDROOT
BRANCH   1   2
ATOM      2  O   UNL A   1      39.379  22.593  25.966  1.00  0.00    -0.458 OA
BRANCH   2   3
ATOM      3  C   UNL A   1      40.103  22.658  27.104  1.00  0.00     0.338 C 
ATOM      4  O   UNL A   1      40.384  21.734  27.845  1.00  0.00    -0.246 OA
BRANCH   3   5
ATOM      5  C   UNL A   1      40.353  24.063  27.441  1.00  0.00     0.060 A 
ATOM      6  C   UNL A   1      41.383  24.473  28.275  1.00  0.00     0.016 A 
ATOM      7  C   UNL A   1      39.470  24.990  26.890  1.00  0.00     0.016 A 
ATOM      8  C   UNL A   1      41.431  25.806  28.640  1.00  0.00     0.010 A 
ATOM      9  C   UNL A   1      39.495  26.313  27.250  1.00  0.00     0.010 A 
ATOM     10  C   UNL A   1      40.453  26.699  28.165  1.00  0.00    -0.014 A 
BRANCH  10  11
ATOM     11  C   UNL A   1      40.535  28.080  28.569  1.00  0.00     0.031 A 
ATOM     12  C   UNL A   1      41.712  28.786  28.026  1.00  0.00     0.074 A 
ATOM     13  C   UNL A   1      39.616  28.693  29.329  1.00  0.00     0.049 A 
ATOM     14  N   UNL A   1      42.811  29.051  28.649  1.00  0.00    -0.248 NA
ATOM     15  C   UNL A   1      41.740  29.075  26.588  1.00  0.00     0.031 C 
ATOM     16  C   UNL A   1      38.259  28.275  29.677  1.00  0.00     0.029 A 
ATOM     17  N   UNL A   1      39.743  29.900  29.934  1.00  0.00    -0.354 N 
ATOM     18  C   UNL A   1      43.617  29.709  27.728  1.00  0.00     0.074 A 
ATOM     19  C   UNL A   1      42.983  29.539  26.446  1.00  0.00     0.031 C 
ATOM     20  C   UNL A   1      37.625  29.305  30.288  1.00  0.00     0.029 A 
ATOM     21  C   UNL A   1      38.578  30.383  30.499  1.00  0.00     0.049 A 
ATOM     22  H   UNL A   1      40.595  30.393  29.967  1.00  0.00     0.167 HD
ATOM     23  C   UNL A   1      44.616  30.531  28.150  1.00  0.00     0.037 A 
ATOM     24  C   UNL A   1      38.427  31.615  31.040  1.00  0.00     0.037 A 
ATOM     25  C   UNL A   1      44.951  30.272  29.531  1.00  0.00     0.049 A 
ATOM     26  C   UNL A   1      39.784  32.115  31.399  1.00  0.00     0.074 A 
ATOM     27  C   UNL A   1      45.414  29.167  30.223  1.00  0.00     0.029 A 
ATOM     28  N   UNL A   1      44.455  31.121  30.492  1.00  0.00    -0.354 N 
ATOM     29  N   UNL A   1      40.521  31.596  32.345  1.00  0.00    -0.248 NA
ATOM     30  C   UNL A   1      40.514  32.889  30.403  1.00  0.00     0.031 C 
ATOM     31  C   UNL A   1      44.725  29.198  31.474  1.00  0.00     0.029 A 
ATOM     32  C   UNL A   1      43.927  30.343  31.491  1.00  0.00     0.049 A 
ATOM     33  H   UNL A   1      44.474  32.106  30.466  1.00  0.00     0.167 HD
ATOM     34  C   UNL A   1      41.817  31.618  31.846  1.00  0.00     0.074 A 
ATOM     35  C   UNL A   1      41.762  32.506  30.688  1.00  0.00     0.031 C 
ATOM     36  C   UNL A   1      42.746  30.698  32.244  1.00  0.00     0.037 A 
BRANCH  23  37
ATOM     37  C   UNL A   1      45.011  31.810  27.449  1.00  0.00     0.064 A 
ATOM     38  C   UNL A   1      46.288  31.889  26.857  1.00  0.00     0.173 A 
ATOM     39  C   UNL A   1      44.338  33.042  27.602  1.00  0.00     0.173 A 
ATOM     40  F   UNL A   1      47.018  30.782  26.652  1.00  0.00    -0.203 F 
ATOM     41  C   UNL A   1      46.889  33.114  26.558  1.00  0.00     0.198 A 
ATOM     42  C   UNL A   1      44.922  34.259  27.255  1.00  0.00     0.198 A 
ATOM     43  F   UNL A   1      43.144  33.143  28.192  1.00  0.00    -0.203 F 
ATOM     44  F   UNL A   1      48.159  33.144  26.133  1.00  0.00    -0.200 F 
ATOM     45  C   UNL A   1      46.211  34.299  26.772  1.00  0.00     0.200 A 
ATOM     46  F   UNL A   1      44.248  35.397  27.477  1.00  0.00    -0.200 F 
ATOM     47  F   UNL A   1      46.811  35.476  26.560  1.00  0.00    -0.200 F 
ENDBRANCH  23  37
BRANCH  24  48
ATOM     48  C   UNL A   1      37.240  32.489  30.934  1.00  0.00     0.064 A 
ATOM     49  C   UNL A   1      36.949  33.182  29.750  1.00  0.00     0.173 A 
ATOM     50  C   UNL A   1      36.220  32.454  31.908  1.00  0.00     0.173 A 
ATOM     51  F   UNL A   1      37.846  33.221  28.755  1.00  0.00    -0.203 F 
ATOM     52  C   UNL A   1      35.704  33.787  29.545  1.00  0.00     0.198 A 
ATOM     53  C   UNL A   1      34.983  33.065  31.705  1.00  0.00     0.198 A 
ATOM     54  F   UNL A   1      36.370  31.745  33.036  1.00  0.00    -0.203 F 
ATOM     55  F   UNL A   1      35.440  34.391  28.378  1.00  0.00    -0.200 F 
ATOM     56  C   UNL A   1      34.721  33.721  30.519  1.00  0.00     0.200 A 
ATOM     57  F   UNL A   1      34.029  32.960  32.641  1.00  0.00    -0.200 F 
ATOM     58  F   UNL A   1      33.510  34.251  30.298  1.00  0.00    -0.200 F 
ENDBRANCH  24  48
BRANCH  36  59
ATOM     59  C   UNL A   1      42.397  29.822  33.415  1.00  0.00     0.064 A 
ATOM     60  C   UNL A   1      41.746  28.582  33.292  1.00  0.00     0.173 A 
ATOM     61  C   UNL A   1      42.858  30.181  34.688  1.00  0.00     0.173 A 
ATOM     62  F   UNL A   1      41.374  28.115  32.094  1.00  0.00    -0.203 F 
ATOM     63  C   UNL A   1      41.518  27.768  34.401  1.00  0.00     0.198 A 
ATOM     64  C   UNL A   1      42.663  29.350  35.789  1.00  0.00     0.198 A 
ATOM     65  F   UNL A   1      43.543  31.322  34.856  1.00  0.00    -0.203 F 
ATOM     66  F   UNL A   1      40.883  26.595  34.257  1.00  0.00    -0.200 F 
ATOM     67  C   UNL A   1      41.982  28.151  35.648  1.00  0.00     0.200 A 
ATOM     68  F   UNL A   1      43.161  29.699  36.983  1.00  0.00    -0.200 F 
ATOM     69  F   UNL A   1      41.801  27.351  36.708  1.00  0.00    -0.200 F 
ENDBRANCH  36  59
ENDBRANCH  10  11
ENDBRANCH   3   5
ENDBRANCH   2   3
ENDBRANCH   1   2
BRANCH   1  70
ATOM     70  C   UNL A   1      37.209  21.618  25.240  1.00  0.00     0.274 C 
BRANCH  70  71
ATOM     71  O   UNL A   1      36.613  22.840  25.724  1.00  0.00    -0.461 OA
BRANCH  71  72
ATOM     72  C   UNL A   1      35.303  22.765  26.128  1.00  0.00     0.329 C 
ATOM     73  O   UNL A   1      34.859  23.329  27.115  1.00  0.00    -0.250 OA
BRANCH  72  74
ATOM     74  C   UNL A   1      34.558  21.727  25.265  1.00  0.00     0.201 C 
ATOM     75  C   UNL A   1      33.997  20.766  26.379  1.00  0.00     0.093 C 
ATOM     76  N   UNL A   1      33.487  21.995  24.202  1.00  0.00    -0.318 N 
ATOM     77  C   UNL A   1      33.281  19.643  25.749  1.00  0.00     0.042 A 
ATOM     78  C   UNL A   1      32.991  20.764  23.506  1.00  0.00     0.179 C 
ATOM     79  N   UNL A   1      32.899  18.455  26.294  1.00  0.00    -0.348 N 
ATOM     80  C   UNL A   1      32.824  19.635  24.458  1.00  0.00     0.081 A 
ATOM     81  C   UNL A   1      32.268  17.755  25.297  1.00  0.00     0.197 A 
ATOM     82  H   UNL A   1      33.046  18.156  27.221  1.00  0.00     0.167 HD
ATOM     83  N   UNL A   1      32.223  18.438  24.172  1.00  0.00    -0.240 NA
BRANCH  76  84
ATOM     84  C   UNL A   1      33.261  23.153  23.422  1.00  0.00     0.256 C 
ATOM     85  O   UNL A   1      33.830  23.321  22.342  1.00  0.00    -0.269 OA
BRANCH  84  86
ATOM     86  C   UNL A   1      32.303  24.209  23.806  1.00  0.00     0.061 A 
ATOM     87  C   UNL A   1      30.998  24.105  23.334  1.00  0.00     0.035 A 
ATOM     88  C   UNL A   1      32.686  25.381  24.476  1.00  0.00     0.072 A 
ATOM     89  C   UNL A   1      30.086  25.083  23.698  1.00  0.00     0.112 A 
ATOM     90  C   UNL A   1      31.686  26.272  24.835  1.00  0.00     0.132 A 
ATOM     91  Cl  UNL A   1      34.310  25.858  24.822  1.00  0.00    -0.082 Cl
ATOM     92  N   UNL A   1      30.390  26.146  24.469  1.00  0.00    -0.263 NA
ENDBRANCH  84  86
ENDBRANCH  76  84
ENDBRANCH  72  74
ENDBRANCH  71  72
ENDBRANCH  70  71
ENDBRANCH   1  70
TORSDOF 13
ENDMDL
MODEL 3
REMARK VINA RESULT:     -13.0      0.939      1.920
REMARK SMILES O=C(OCCOC(=O)[C@H]1Cc2[nH]cnc2CN1C(=O)c1ccncc1Cl)c1ccc(-c2c3nc(c(-c4c(F)c(F)c(F)c(F)c4F)c4ccc([nH]4)c(-c4c(F)c(F)c(F)c(F)c4F)c4nc(c(-c5c(F)c(F)c(F)c(F)c5F)c5ccc2[nH]5)C=C4)C=C3)cc1
REMARK SMILES IDX 4 1 3 2 2 3 1 4 27 5 28 6 89 7 29 8 88 9 30 10 31 11 32 12
REMARK SMILES IDX 82 13 33 14 87 15 81 16 83 17 34 18 86 19 80 20 79 21 35 23
REMARK SMILES IDX 67 24 47 25 66 26 48 27 51 28 65 29 84 30 49 31 50 32 64 34
REMARK SMILES IDX 85 35 52 36 36 37 37 38 45 39 38 40 39 41 43 42 46 43 40 44
REMARK SMILES IDX 41 45 44 46 42 47 68 48 69 49 77 50 70 51 71 52 75 53 78 54
REMARK SMILES IDX 72 55 73 56 76 57 74 58 53 59 54 60 62 61 55 62 56 63 60 64
REMARK SMILES IDX 63 65 57 66 58 67 61 68 59 69 5 70 6 71 7 72 8 73 9 74 10 75
REMARK SMILES IDX 17 76 11 77 16 78 12 79 15 80 13 81 14 83 18 84 19 85 20 86
REMARK SMILES IDX 21 87 25 88 22 89 24 90 26 91 23 92
REMARK H PARENT 83 22 51 33 12 82
REMARK Flexibility Score: inf
ROOT
ATOM      1  C   UNL A   1      38.969  21.964  26.162  1.00  0.00     0.275 C 
ENDROOT
BRANCH   1   2
ATOM      2  O   UNL A   1      39.806  22.459  27.207  1.00  0.00    -0.458 OA
BRANCH   2   3
ATOM      3  C   UNL A   1      40.987  22.943  26.766  1.00  0.00     0.338 C 
ATOM      4  O   UNL A   1      41.871  22.317  26.209  1.00  0.00    -0.246 OA
BRANCH   3   5
ATOM      5  C   UNL A   1      41.151  24.323  27.231  1.00  0.00     0.060 A 
ATOM      6  C   UNL A   1      41.890  24.665  28.354  1.00  0.00     0.016 A 
ATOM      7  C   UNL A   1      40.492  25.301  26.487  1.00  0.00     0.016 A 
ATOM      8  C   UNL A   1      41.852  25.980  28.781  1.00  0.00     0.010 A 
ATOM      9  C   UNL A   1      40.432  26.607  26.902  1.00  0.00     0.010 A 
ATOM     10  C   UNL A   1      41.078  26.923  28.080  1.00  0.00    -0.014 A 
BRANCH  10  11
ATOM     11  C   UNL A   1      41.062  28.283  28.557  1.00  0.00     0.031 A 
ATOM     12  C   UNL A   1      42.242  29.068  28.147  1.00  0.00     0.074 A 
ATOM     13  C   UNL A   1      40.058  28.813  29.270  1.00  0.00     0.049 A 
ATOM     14  N   UNL A   1      43.275  29.349  28.868  1.00  0.00    -0.248 NA
ATOM     15  C   UNL A   1      42.368  29.435  26.731  1.00  0.00     0.031 C 
ATOM     16  C   UNL A   1      38.700  28.318  29.487  1.00  0.00     0.029 A 
ATOM     17  N   UNL A   1      40.078  29.991  29.943  1.00  0.00    -0.354 N 
ATOM     18  C   UNL A   1      44.118  30.090  28.049  1.00  0.00     0.074 A 
ATOM     19  C   UNL A   1      43.595  29.960  26.713  1.00  0.00     0.031 C 
ATOM     20  C   UNL A   1      37.971  29.285  30.094  1.00  0.00     0.029 A 
ATOM     21  C   UNL A   1      38.851  30.391  30.435  1.00  0.00     0.049 A 
ATOM     22  H   UNL A   1      40.900  30.518  30.068  1.00  0.00     0.167 HD
ATOM     23  C   UNL A   1      45.039  30.931  28.590  1.00  0.00     0.037 A 
ATOM     24  C   UNL A   1      38.598  31.584  31.023  1.00  0.00     0.037 A 
ATOM     25  C   UNL A   1      45.278  30.614  29.979  1.00  0.00     0.049 A 
ATOM     26  C   UNL A   1      39.897  32.124  31.514  1.00  0.00     0.074 A 
ATOM     27  C   UNL A   1      45.738  29.496  30.651  1.00  0.00     0.029 A 
ATOM     28  N   UNL A   1      44.667  31.388  30.938  1.00  0.00    -0.354 N 
ATOM     29  N   UNL A   1      40.582  31.588  32.490  1.00  0.00    -0.248 NA
ATOM     30  C   UNL A   1      40.664  32.982  30.620  1.00  0.00     0.031 C 
ATOM     31  C   UNL A   1      44.952  29.429  31.842  1.00  0.00     0.029 A 
ATOM     32  C   UNL A   1      44.101  30.535  31.851  1.00  0.00     0.049 A 
ATOM     33  H   UNL A   1      44.641  32.372  30.963  1.00  0.00     0.167 HD
ATOM     34  C   UNL A   1      41.910  31.694  32.098  1.00  0.00     0.074 A 
ATOM     35  C   UNL A   1      41.904  32.640  30.985  1.00  0.00     0.031 C 
ATOM     36  C   UNL A   1      42.849  30.797  32.524  1.00  0.00     0.037 A 
BRANCH  23  37
ATOM     37  C   UNL A   1      45.426  32.263  27.988  1.00  0.00     0.064 A 
ATOM     38  C   UNL A   1      44.416  33.220  27.762  1.00  0.00     0.173 A 
ATOM     39  C   UNL A   1      46.657  32.519  27.346  1.00  0.00     0.173 A 
ATOM     40  F   UNL A   1      43.207  33.088  28.328  1.00  0.00    -0.203 F 
ATOM     41  C   UNL A   1      44.589  34.278  26.867  1.00  0.00     0.198 A 
ATOM     42  C   UNL A   1      46.842  33.605  26.493  1.00  0.00     0.198 A 
ATOM     43  F   UNL A   1      47.696  31.682  27.418  1.00  0.00    -0.203 F 
ATOM     44  F   UNL A   1      43.553  35.076  26.575  1.00  0.00    -0.200 F 
ATOM     45  C   UNL A   1      45.797  34.461  26.221  1.00  0.00     0.200 A 
ATOM     46  F   UNL A   1      48.020  33.760  25.872  1.00  0.00    -0.200 F 
ATOM     47  F   UNL A   1      45.943  35.426  25.306  1.00  0.00    -0.200 F 
ENDBRANCH  23  37
BRANCH  24  48
ATOM     48  C   UNL A   1      37.382  32.409  30.865  1.00  0.00     0.064 A 
ATOM     49  C   UNL A   1      37.111  33.084  29.666  1.00  0.00     0.173 A 
ATOM     50  C   UNL A   1      36.327  32.337  31.799  1.00  0.00     0.173 A 
ATOM     51  F   UNL A   1      38.044  33.155  28.707  1.00  0.00    -0.203 F 
ATOM     52  C   UNL A   1      35.852  33.638  29.409  1.00  0.00     0.198 A 
ATOM     53  C   UNL A   1      35.076  32.896  31.544  1.00  0.00     0.198 A 
ATOM     54  F   UNL A   1      36.460  31.640  32.936  1.00  0.00    -0.203 F 
ATOM     55  F   UNL A   1      35.609  34.225  28.229  1.00  0.00    -0.200 F 
ATOM     56  C   UNL A   1      34.834  33.536  30.344  1.00  0.00     0.200 A 
ATOM     57  F   UNL A   1      34.090  32.758  32.442  1.00  0.00    -0.200 F 
ATOM     58  F   UNL A   1      33.612  34.015  30.073  1.00  0.00    -0.200 F 
ENDBRANCH  24  48
BRANCH  36  59
ATOM     59  C   UNL A   1      42.452  29.844  33.618  1.00  0.00     0.064 A 
ATOM     60  C   UNL A   1      41.834  28.604  33.383  1.00  0.00     0.173 A 
ATOM     61  C   UNL A   1      42.835  30.133  34.934  1.00  0.00     0.173 A 
ATOM     62  F   UNL A   1      41.540  28.206  32.140  1.00  0.00    -0.203 F 
ATOM     63  C   UNL A   1      41.561  27.720  34.426  1.00  0.00     0.198 A 
ATOM     64  C   UNL A   1      42.595  29.232  35.970  1.00  0.00     0.198 A 
ATOM     65  F   UNL A   1      43.487  31.273  35.210  1.00  0.00    -0.203 F 
ATOM     66  F   UNL A   1      40.958  26.548  34.175  1.00  0.00    -0.200 F 
ATOM     67  C   UNL A   1      41.947  28.034  35.718  1.00  0.00     0.200 A 
ATOM     68  F   UNL A   1      43.018  29.516  37.209  1.00  0.00    -0.200 F 
ATOM     69  F   UNL A   1      41.723  27.167  36.716  1.00  0.00    -0.200 F 
ENDBRANCH  36  59
ENDBRANCH  10  11
ENDBRANCH   3   5
ENDBRANCH   2   3
ENDBRANCH   1   2
BRANCH   1  70
ATOM     70  C   UNL A   1      37.860  22.948  25.737  1.00  0.00     0.274 C 
BRANCH  70  71
ATOM     71  O   UNL A   1      36.577  22.292  25.664  1.00  0.00    -0.461 OA
BRANCH  71  72
ATOM     72  C   UNL A   1      35.761  22.656  24.622  1.00  0.00     0.329 C 
ATOM     73  O   UNL A   1      35.933  23.646  23.930  1.00  0.00    -0.250 OA
BRANCH  72  74
ATOM     74  C   UNL A   1      34.520  21.740  24.598  1.00  0.00     0.201 C 
ATOM     75  C   UNL A   1      35.177  20.344  24.910  1.00  0.00     0.093 C 
ATOM     76  N   UNL A   1      33.221  21.909  25.395  1.00  0.00    -0.318 N 
ATOM     77  C   UNL A   1      34.146  19.293  24.877  1.00  0.00     0.042 A 
ATOM     78  C   UNL A   1      32.185  20.866  25.107  1.00  0.00     0.179 C 
ATOM     79  N   UNL A   1      34.299  17.942  24.800  1.00  0.00    -0.348 N 
ATOM     80  C   UNL A   1      32.798  19.519  24.966  1.00  0.00     0.081 A 
ATOM     81  C   UNL A   1      33.036  17.406  24.798  1.00  0.00     0.197 A 
ATOM     82  H   UNL A   1      35.149  17.446  24.755  1.00  0.00     0.167 HD
ATOM     83  N   UNL A   1      32.110  18.338  24.882  1.00  0.00    -0.240 NA
BRANCH  76  84
ATOM     84  C   UNL A   1      32.637  23.082  25.928  1.00  0.00     0.256 C 
ATOM     85  O   UNL A   1      32.040  23.069  27.006  1.00  0.00    -0.269 OA
BRANCH  84  86
ATOM     86  C   UNL A   1      32.737  24.401  25.273  1.00  0.00     0.061 A 
ATOM     87  C   UNL A   1      33.512  25.377  25.893  1.00  0.00     0.035 A 
ATOM     88  C   UNL A   1      31.963  24.763  24.160  1.00  0.00     0.072 A 
ATOM     89  C   UNL A   1      33.625  26.615  25.282  1.00  0.00     0.112 A 
ATOM     90  C   UNL A   1      32.190  26.010  23.597  1.00  0.00     0.132 A 
ATOM     91  Cl  UNL A   1      30.688  23.822  23.472  1.00  0.00    -0.082 Cl
ATOM     92  N   UNL A   1      33.011  26.943  24.128  1.00  0.00    -0.263 NA
ENDBRANCH  84  86
ENDBRANCH  76  84
ENDBRANCH  72  74
ENDBRANCH  71  72
ENDBRANCH  70  71
ENDBRANCH   1  70
TORSDOF 13
ENDMDL
