MODEL 1
REMARK VINA RESULT:     -12.3      0.000      0.000
REMARK SMILES Cc1cc(C(=O)Nc2c(Cl)cc(Cl)cc2C(=O)OCCOC(=O)c2ccc(-c3c4nc(c(-c5c(F)c(F)c(F)c(F)c5F)c5ccc([nH]5)c(-c5c(F)c(F)c(F)c(F)c5F)c5nc(c(-c6c(F)c(F)c(F)c(F)c6F)c6ccc3[nH]6)C=C5)C=C4)cc2)c(C)s1
REMARK SMILES IDX 19 1 18 2 16 3 17 4 15 5 8 6 9 7 10 8 11 9 14 10 12 11 13 12
REMARK SMILES IDX 7 13 5 14 6 15 4 17 1 18 2 19 3 20 89 21 87 22 88 23 20 24
REMARK SMILES IDX 21 25 22 26 23 27 24 28 25 29 86 30 26 31 85 32 27 33 28 34
REMARK SMILES IDX 29 35 79 36 30 37 84 38 78 39 80 40 31 41 83 42 77 43 76 44
REMARK SMILES IDX 32 46 64 47 44 48 63 49 45 50 48 51 62 52 81 53 46 54 47 55
REMARK SMILES IDX 61 57 82 58 49 59 33 60 34 61 42 62 35 63 36 64 40 65 43 66
REMARK SMILES IDX 37 67 38 68 41 69 39 70 65 71 66 72 74 73 67 74 68 75 72 76
REMARK SMILES IDX 75 77 69 78 70 79 73 80 71 81 50 82 51 83 59 84 52 85 53 86
REMARK SMILES IDX 57 87 60 88 54 89 55 90 58 91 56 92
REMARK H PARENT 7 16 80 45 48 56
REMARK Flexibility Score: inf
ROOT
ATOM      1  C   UNL A   1      31.793  28.594  27.640  1.00  0.00     0.275 C 
ENDROOT
BRANCH   1   2
ATOM      2  O   UNL A   1      32.477  27.509  26.973  1.00  0.00    -0.458 OA
BRANCH   2   3
ATOM      3  C   UNL A   1      31.699  26.557  26.399  1.00  0.00     0.340 C 
ATOM      4  O   UNL A   1      31.120  25.662  26.982  1.00  0.00    -0.246 OA
BRANCH   3   5
ATOM      5  C   UNL A   1      31.585  26.730  24.921  1.00  0.00     0.086 A 
ATOM      6  C   UNL A   1      32.569  26.339  23.993  1.00  0.00     0.075 A 
ATOM      7  C   UNL A   1      32.229  26.348  22.623  1.00  0.00     0.067 A 
ATOM      8  Cl  UNL A   1      33.169  25.508  21.435  1.00  0.00    -0.082 Cl
ATOM      9  C   UNL A   1      31.060  26.970  22.173  1.00  0.00     0.043 A 
ATOM     10  C   UNL A   1      30.396  27.318  24.455  1.00  0.00     0.038 A 
ATOM     11  C   UNL A   1      30.176  27.503  23.095  1.00  0.00     0.043 A 
ATOM     12  Cl  UNL A   1      28.789  28.371  22.568  1.00  0.00    -0.084 Cl
BRANCH   6  13
ATOM     13  N   UNL A   1      33.857  26.007  24.463  1.00  0.00    -0.320 N 
ATOM     14  C   UNL A   1      34.405  24.772  24.764  1.00  0.00     0.256 C 
ATOM     15  O   UNL A   1      35.570  24.768  25.166  1.00  0.00    -0.269 OA
ATOM     16  H   UNL A   1      34.460  26.774  24.598  1.00  0.00     0.170 HD
BRANCH  14  17
ATOM     17  C   UNL A   1      33.655  23.527  24.526  1.00  0.00     0.054 A 
ATOM     18  C   UNL A   1      31.894  21.157  22.150  1.00  0.00     0.056 C 
ATOM     19  C   UNL A   1      32.520  21.872  23.298  1.00  0.00     0.003 A 
ATOM     20  C   UNL A   1      33.516  22.823  23.273  1.00  0.00     0.029 A 
ATOM     21  S   UNL A   1      32.025  21.552  24.892  1.00  0.00    -0.145 S 
ATOM     22  C   UNL A   1      33.012  22.806  25.529  1.00  0.00     0.014 A 
ATOM     23  C   UNL A   1      33.027  22.988  27.013  1.00  0.00     0.057 C 
ENDBRANCH  14  17
ENDBRANCH   6  13
ENDBRANCH   3   5
ENDBRANCH   2   3
ENDBRANCH   1   2
BRANCH   1  24
ATOM     24  C   UNL A   1      31.769  29.869  26.794  1.00  0.00     0.275 C 
BRANCH  24  25
ATOM     25  O   UNL A   1      33.103  30.297  26.462  1.00  0.00    -0.458 OA
BRANCH  25  26
ATOM     26  C   UNL A   1      33.559  31.340  27.189  1.00  0.00     0.338 C 
ATOM     27  O   UNL A   1      32.939  32.328  27.546  1.00  0.00    -0.246 OA
BRANCH  26  28
ATOM     28  C   UNL A   1      34.919  31.066  27.666  1.00  0.00     0.060 A 
ATOM     29  C   UNL A   1      35.207  29.749  28.002  1.00  0.00     0.016 A 
ATOM     30  C   UNL A   1      35.820  32.081  27.972  1.00  0.00     0.016 A 
ATOM     31  C   UNL A   1      36.336  29.441  28.747  1.00  0.00     0.010 A 
ATOM     32  C   UNL A   1      37.015  31.755  28.630  1.00  0.00     0.010 A 
ATOM     33  C   UNL A   1      37.268  30.437  29.062  1.00  0.00    -0.014 A 
BRANCH  33  34
ATOM     34  C   UNL A   1      38.469  30.091  29.876  1.00  0.00     0.031 A 
ATOM     35  C   UNL A   1      39.560  29.231  29.293  1.00  0.00     0.074 A 
ATOM     36  C   UNL A   1      38.606  30.579  31.126  1.00  0.00     0.049 A 
ATOM     37  N   UNL A   1      40.603  28.700  29.882  1.00  0.00    -0.248 NA
ATOM     38  C   UNL A   1      39.459  28.913  27.861  1.00  0.00     0.031 C 
ATOM     39  C   UNL A   1      37.660  31.473  31.796  1.00  0.00     0.029 A 
ATOM     40  N   UNL A   1      39.607  30.408  32.052  1.00  0.00    -0.354 N 
ATOM     41  C   UNL A   1      41.238  27.933  28.913  1.00  0.00     0.074 A 
ATOM     42  C   UNL A   1      40.466  28.068  27.697  1.00  0.00     0.031 C 
ATOM     43  C   UNL A   1      38.148  31.816  32.995  1.00  0.00     0.029 A 
ATOM     44  C   UNL A   1      39.388  31.085  33.228  1.00  0.00     0.049 A 
ATOM     45  H   UNL A   1      40.403  29.853  31.889  1.00  0.00     0.167 HD
ATOM     46  C   UNL A   1      42.360  27.181  29.033  1.00  0.00     0.037 A 
ATOM     47  C   UNL A   1      40.080  31.085  34.382  1.00  0.00     0.037 A 
ATOM     48  C   UNL A   1      43.161  27.107  30.229  1.00  0.00     0.049 A 
ATOM     49  C   UNL A   1      41.296  30.211  34.503  1.00  0.00     0.074 A 
ATOM     50  C   UNL A   1      44.338  26.408  30.438  1.00  0.00     0.029 A 
ATOM     51  N   UNL A   1      42.873  27.766  31.415  1.00  0.00    -0.354 N 
ATOM     52  N   UNL A   1      41.862  29.453  33.596  1.00  0.00    -0.248 NA
ATOM     53  C   UNL A   1      41.952  30.173  35.816  1.00  0.00     0.031 C 
ATOM     54  C   UNL A   1      44.733  26.602  31.766  1.00  0.00     0.029 A 
ATOM     55  C   UNL A   1      43.834  27.467  32.369  1.00  0.00     0.049 A 
ATOM     56  H   UNL A   1      42.099  28.358  31.559  1.00  0.00     0.167 HD
ATOM     57  C   UNL A   1      42.951  28.862  34.221  1.00  0.00     0.074 A 
ATOM     58  C   UNL A   1      42.975  29.364  35.581  1.00  0.00     0.031 C 
ATOM     59  C   UNL A   1      43.847  27.980  33.716  1.00  0.00     0.037 A 
BRANCH  46  60
ATOM     60  C   UNL A   1      42.763  26.336  27.857  1.00  0.00     0.064 A 
ATOM     61  C   UNL A   1      42.249  25.049  27.643  1.00  0.00     0.173 A 
ATOM     62  C   UNL A   1      43.671  26.842  26.912  1.00  0.00     0.173 A 
ATOM     63  F   UNL A   1      41.388  24.511  28.520  1.00  0.00    -0.203 F 
ATOM     64  C   UNL A   1      42.654  24.289  26.547  1.00  0.00     0.198 A 
ATOM     65  C   UNL A   1      44.048  26.093  25.801  1.00  0.00     0.198 A 
ATOM     66  F   UNL A   1      44.190  28.071  27.062  1.00  0.00    -0.203 F 
ATOM     67  F   UNL A   1      42.191  23.040  26.393  1.00  0.00    -0.200 F 
ATOM     68  C   UNL A   1      43.547  24.813  25.624  1.00  0.00     0.200 A 
ATOM     69  F   UNL A   1      44.900  26.608  24.904  1.00  0.00    -0.200 F 
ATOM     70  F   UNL A   1      43.932  24.080  24.570  1.00  0.00    -0.200 F 
ENDBRANCH  46  60
BRANCH  47  71
ATOM     71  C   UNL A   1      39.616  31.915  35.526  1.00  0.00     0.064 A 
ATOM     72  C   UNL A   1      40.139  33.197  35.743  1.00  0.00     0.173 A 
ATOM     73  C   UNL A   1      38.635  31.453  36.417  1.00  0.00     0.173 A 
ATOM     74  F   UNL A   1      41.099  33.673  34.935  1.00  0.00    -0.203 F 
ATOM     75  C   UNL A   1      39.704  33.981  36.809  1.00  0.00     0.198 A 
ATOM     76  C   UNL A   1      38.177  32.251  37.462  1.00  0.00     0.198 A 
ATOM     77  F   UNL A   1      38.104  30.233  36.257  1.00  0.00    -0.203 F 
ATOM     78  F   UNL A   1      40.249  35.188  37.016  1.00  0.00    -0.200 F 
ATOM     79  C   UNL A   1      38.716  33.513  37.661  1.00  0.00     0.200 A 
ATOM     80  F   UNL A   1      37.210  31.800  38.272  1.00  0.00    -0.200 F 
ATOM     81  F   UNL A   1      38.287  34.273  38.677  1.00  0.00    -0.200 F 
ENDBRANCH  47  71
BRANCH  59  82
ATOM     82  C   UNL A   1      44.954  27.534  34.626  1.00  0.00     0.064 A 
ATOM     83  C   UNL A   1      46.155  28.250  34.732  1.00  0.00     0.173 A 
ATOM     84  C   UNL A   1      44.800  26.386  35.419  1.00  0.00     0.173 A 
ATOM     85  F   UNL A   1      46.359  29.342  33.980  1.00  0.00    -0.203 F 
ATOM     86  C   UNL A   1      47.172  27.819  35.580  1.00  0.00     0.198 A 
ATOM     87  C   UNL A   1      45.807  25.976  36.288  1.00  0.00     0.198 A 
ATOM     88  F   UNL A   1      43.669  25.669  35.357  1.00  0.00    -0.203 F 
ATOM     89  F   UNL A   1      48.331  28.490  35.626  1.00  0.00    -0.200 F 
ATOM     90  C   UNL A   1      46.994  26.688  36.361  1.00  0.00     0.200 A 
ATOM     91  F   UNL A   1      45.629  24.889  37.052  1.00  0.00    -0.200 F 
ATOM     92  F   UNL A   1      47.973  26.277  37.180  1.00  0.00    -0.200 F 
ENDBRANCH  59  82
ENDBRANCH  33  34
ENDBRANCH  26  28
ENDBRANCH  25  26
ENDBRANCH  24  25
ENDBRANCH   1  24
TORSDOF 13
ENDMDL
MODEL 2
REMARK VINA RESULT:     -12.3      4.303      9.547
REMARK SMILES Cc1cc(C(=O)Nc2c(Cl)cc(Cl)cc2C(=O)OCCOC(=O)c2ccc(-c3c4nc(c(-c5c(F)c(F)c(F)c(F)c5F)c5ccc([nH]5)c(-c5c(F)c(F)c(F)c(F)c5F)c5nc(c(-c6c(F)c(F)c(F)c(F)c6F)c6ccc3[nH]6)C=C5)C=C4)cc2)c(C)s1
REMARK SMILES IDX 19 1 18 2 16 3 17 4 15 5 8 6 9 7 10 8 11 9 14 10 12 11 13 12
REMARK SMILES IDX 7 13 5 14 6 15 4 17 1 18 2 19 3 20 89 21 87 22 88 23 20 24
REMARK SMILES IDX 21 25 22 26 23 27 24 28 25 29 86 30 26 31 85 32 27 33 28 34
REMARK SMILES IDX 29 35 79 36 30 37 84 38 78 39 80 40 31 41 83 42 77 43 76 44
REMARK SMILES IDX 32 46 64 47 44 48 63 49 45 50 48 51 62 52 81 53 46 54 47 55
REMARK SMILES IDX 61 57 82 58 49 59 33 60 34 61 42 62 35 63 36 64 40 65 43 66
REMARK SMILES IDX 37 67 38 68 41 69 39 70 65 71 66 72 74 73 67 74 68 75 72 76
REMARK SMILES IDX 75 77 69 78 70 79 73 80 71 81 50 82 51 83 59 84 52 85 53 86
REMARK SMILES IDX 57 87 60 88 54 89 55 90 58 91 56 92
REMARK H PARENT 7 16 80 45 48 56
REMARK Flexibility Score: inf
ROOT
ATOM      1  C   UNL A   1      36.903  22.724  23.513  1.00  0.00     0.275 C 
ENDROOT
BRANCH   1   2
ATOM      2  O   UNL A   1      35.991  23.696  24.073  1.00  0.00    -0.458 OA
BRANCH   2   3
ATOM      3  C   UNL A   1      34.772  23.800  23.485  1.00  0.00     0.340 C 
ATOM      4  O   UNL A   1      34.528  24.386  22.449  1.00  0.00    -0.246 OA
BRANCH   3   5
ATOM      5  C   UNL A   1      33.711  23.073  24.242  1.00  0.00     0.086 A 
ATOM      6  C   UNL A   1      33.022  23.595  25.353  1.00  0.00     0.075 A 
ATOM      7  C   UNL A   1      31.889  22.894  25.820  1.00  0.00     0.067 A 
ATOM      8  Cl  UNL A   1      30.725  23.624  26.876  1.00  0.00    -0.082 Cl
ATOM      9  C   UNL A   1      31.609  21.597  25.379  1.00  0.00     0.043 A 
ATOM     10  C   UNL A   1      33.394  21.783  23.781  1.00  0.00     0.038 A 
ATOM     11  C   UNL A   1      32.404  21.028  24.398  1.00  0.00     0.043 A 
ATOM     12  Cl  UNL A   1      32.153  19.396  23.917  1.00  0.00    -0.084 Cl
BRANCH   6  13
ATOM     13  N   UNL A   1      33.518  24.758  25.978  1.00  0.00    -0.320 N 
ATOM     14  C   UNL A   1      33.177  26.087  25.789  1.00  0.00     0.256 C 
ATOM     15  O   UNL A   1      33.779  26.915  26.475  1.00  0.00    -0.269 OA
ATOM     16  H   UNL A   1      34.215  24.600  26.655  1.00  0.00     0.170 HD
BRANCH  14  17
ATOM     17  C   UNL A   1      32.088  26.472  24.874  1.00  0.00     0.054 A 
ATOM     18  C   UNL A   1      28.435  26.328  23.876  1.00  0.00     0.056 C 
ATOM     19  C   UNL A   1      29.896  26.579  24.026  1.00  0.00     0.003 A 
ATOM     20  C   UNL A   1      30.672  26.460  25.158  1.00  0.00     0.029 A 
ATOM     21  S   UNL A   1      30.830  27.086  22.700  1.00  0.00    -0.145 S 
ATOM     22  C   UNL A   1      32.294  26.975  23.593  1.00  0.00     0.014 A 
ATOM     23  C   UNL A   1      33.557  27.376  22.901  1.00  0.00     0.057 C 
ENDBRANCH  14  17
ENDBRANCH   6  13
ENDBRANCH   3   5
ENDBRANCH   2   3
ENDBRANCH   1   2
BRANCH   1  24
ATOM     24  C   UNL A   1      37.061  21.496  24.412  1.00  0.00     0.275 C 
BRANCH  24  25
ATOM     25  O   UNL A   1      37.434  21.877  25.750  1.00  0.00    -0.458 OA
BRANCH  25  26
ATOM     26  C   UNL A   1      38.724  21.635  26.068  1.00  0.00     0.338 C 
ATOM     27  O   UNL A   1      39.396  20.662  25.772  1.00  0.00    -0.246 OA
BRANCH  26  28
ATOM     28  C   UNL A   1      39.312  22.814  26.714  1.00  0.00     0.060 A 
ATOM     29  C   UNL A   1      38.867  24.054  26.271  1.00  0.00     0.016 A 
ATOM     30  C   UNL A   1      40.405  22.727  27.571  1.00  0.00     0.016 A 
ATOM     31  C   UNL A   1      39.570  25.209  26.581  1.00  0.00     0.010 A 
ATOM     32  C   UNL A   1      41.050  23.905  27.973  1.00  0.00     0.010 A 
ATOM     33  C   UNL A   1      40.667  25.157  27.449  1.00  0.00    -0.014 A 
BRANCH  33  34
ATOM     34  C   UNL A   1      41.420  26.406  27.760  1.00  0.00     0.031 A 
ATOM     35  C   UNL A   1      40.795  27.478  28.615  1.00  0.00     0.074 A 
ATOM     36  C   UNL A   1      42.682  26.567  27.313  1.00  0.00     0.049 A 
ATOM     37  N   UNL A   1      41.223  28.689  28.873  1.00  0.00    -0.248 NA
ATOM     38  C   UNL A   1      39.510  27.152  29.251  1.00  0.00     0.031 C 
ATOM     39  C   UNL A   1      43.436  25.587  26.530  1.00  0.00     0.029 A 
ATOM     40  N   UNL A   1      43.564  27.609  27.470  1.00  0.00    -0.354 N 
ATOM     41  C   UNL A   1      40.231  29.288  29.640  1.00  0.00     0.074 A 
ATOM     42  C   UNL A   1      39.179  28.308  29.808  1.00  0.00     0.031 C 
ATOM     43  C   UNL A   1      44.678  26.046  26.323  1.00  0.00     0.029 A 
ATOM     44  C   UNL A   1      44.779  27.395  26.864  1.00  0.00     0.049 A 
ATOM     45  H   UNL A   1      43.346  28.430  27.968  1.00  0.00     0.167 HD
ATOM     46  C   UNL A   1      40.201  30.543  30.152  1.00  0.00     0.037 A 
ATOM     47  C   UNL A   1      45.842  28.208  26.719  1.00  0.00     0.037 A 
ATOM     48  C   UNL A   1      41.283  31.489  30.038  1.00  0.00     0.049 A 
ATOM     49  C   UNL A   1      45.768  29.608  27.258  1.00  0.00     0.074 A 
ATOM     50  C   UNL A   1      41.367  32.770  30.557  1.00  0.00     0.029 A 
ATOM     51  N   UNL A   1      42.474  31.251  29.368  1.00  0.00    -0.354 N 
ATOM     52  N   UNL A   1      44.807  30.181  27.941  1.00  0.00    -0.248 NA
ATOM     53  C   UNL A   1      46.915  30.482  26.982  1.00  0.00     0.031 C 
ATOM     54  C   UNL A   1      42.589  33.325  30.156  1.00  0.00     0.029 A 
ATOM     55  C   UNL A   1      43.289  32.372  29.436  1.00  0.00     0.049 A 
ATOM     56  H   UNL A   1      42.707  30.410  28.911  1.00  0.00     0.167 HD
ATOM     57  C   UNL A   1      45.240  31.476  28.193  1.00  0.00     0.074 A 
ATOM     58  C   UNL A   1      46.559  31.597  27.603  1.00  0.00     0.031 C 
ATOM     59  C   UNL A   1      44.601  32.474  28.849  1.00  0.00     0.037 A 
BRANCH  46  60
ATOM     60  C   UNL A   1      38.940  30.989  30.837  1.00  0.00     0.064 A 
ATOM     61  C   UNL A   1      38.761  30.888  32.224  1.00  0.00     0.173 A 
ATOM     62  C   UNL A   1      37.898  31.552  30.083  1.00  0.00     0.173 A 
ATOM     63  F   UNL A   1      39.718  30.346  32.992  1.00  0.00    -0.203 F 
ATOM     64  C   UNL A   1      37.572  31.301  32.825  1.00  0.00     0.198 A 
ATOM     65  C   UNL A   1      36.725  31.995  30.690  1.00  0.00     0.198 A 
ATOM     66  F   UNL A   1      38.018  31.680  28.752  1.00  0.00    -0.203 F 
ATOM     67  F   UNL A   1      37.401  31.143  34.145  1.00  0.00    -0.200 F 
ATOM     68  C   UNL A   1      36.559  31.860  32.059  1.00  0.00     0.200 A 
ATOM     69  F   UNL A   1      35.755  32.547  29.949  1.00  0.00    -0.200 F 
ATOM     70  F   UNL A   1      35.420  32.260  32.640  1.00  0.00    -0.200 F 
ENDBRANCH  46  60
BRANCH  47  71
ATOM     71  C   UNL A   1      47.052  27.726  26.001  1.00  0.00     0.064 A 
ATOM     72  C   UNL A   1      48.158  27.232  26.707  1.00  0.00     0.173 A 
ATOM     73  C   UNL A   1      47.127  27.738  24.600  1.00  0.00     0.173 A 
ATOM     74  F   UNL A   1      48.147  27.225  28.049  1.00  0.00    -0.203 F 
ATOM     75  C   UNL A   1      49.292  26.773  26.040  1.00  0.00     0.198 A 
ATOM     76  C   UNL A   1      48.247  27.248  23.934  1.00  0.00     0.198 A 
ATOM     77  F   UNL A   1      46.099  28.203  23.876  1.00  0.00    -0.203 F 
ATOM     78  F   UNL A   1      50.350  26.341  26.740  1.00  0.00    -0.200 F 
ATOM     79  C   UNL A   1      49.332  26.772  24.654  1.00  0.00     0.200 A 
ATOM     80  F   UNL A   1      48.274  27.234  22.594  1.00  0.00    -0.200 F 
ATOM     81  F   UNL A   1      50.416  26.318  24.012  1.00  0.00    -0.200 F 
ENDBRANCH  47  71
BRANCH  59  82
ATOM     82  C   UNL A   1      45.338  33.772  29.001  1.00  0.00     0.064 A 
ATOM     83  C   UNL A   1      46.199  34.010  30.082  1.00  0.00     0.173 A 
ATOM     84  C   UNL A   1      45.197  34.784  28.038  1.00  0.00     0.173 A 
ATOM     85  F   UNL A   1      46.352  33.083  31.040  1.00  0.00    -0.203 F 
ATOM     86  C   UNL A   1      46.871  35.223  30.208  1.00  0.00     0.198 A 
ATOM     87  C   UNL A   1      45.895  35.982  28.151  1.00  0.00     0.198 A 
ATOM     88  F   UNL A   1      44.388  34.604  26.983  1.00  0.00    -0.203 F 
ATOM     89  F   UNL A   1      47.649  35.447  31.276  1.00  0.00    -0.200 F 
ATOM     90  C   UNL A   1      46.725  36.204  29.239  1.00  0.00     0.200 A 
ATOM     91  F   UNL A   1      45.761  36.925  27.208  1.00  0.00    -0.200 F 
ATOM     92  F   UNL A   1      47.376  37.368  29.360  1.00  0.00    -0.200 F 
ENDBRANCH  59  82
ENDBRANCH  33  34
ENDBRANCH  26  28
ENDBRANCH  25  26
ENDBRANCH  24  25
ENDBRANCH   1  24
TORSDOF 13
ENDMDL
MODEL 3
REMARK VINA RESULT:     -12.0      4.405      9.721
REMARK SMILES Cc1cc(C(=O)Nc2c(Cl)cc(Cl)cc2C(=O)OCCOC(=O)c2ccc(-c3c4nc(c(-c5c(F)c(F)c(F)c(F)c5F)c5ccc([nH]5)c(-c5c(F)c(F)c(F)c(F)c5F)c5nc(c(-c6c(F)c(F)c(F)c(F)c6F)c6ccc3[nH]6)C=C5)C=C4)cc2)c(C)s1
REMARK SMILES IDX 19 1 18 2 16 3 17 4 15 5 8 6 9 7 10 8 11 9 14 10 12 11 13 12
REMARK SMILES IDX 7 13 5 14 6 15 4 17 1 18 2 19 3 20 89 21 87 22 88 23 20 24
REMARK SMILES IDX 21 25 22 26 23 27 24 28 25 29 86 30 26 31 85 32 27 33 28 34
REMARK SMILES IDX 29 35 79 36 30 37 84 38 78 39 80 40 31 41 83 42 77 43 76 44
REMARK SMILES IDX 32 46 64 47 44 48 63 49 45 50 48 51 62 52 81 53 46 54 47 55
REMARK SMILES IDX 61 57 82 58 49 59 33 60 34 61 42 62 35 63 36 64 40 65 43 66
REMARK SMILES IDX 37 67 38 68 41 69 39 70 65 71 66 72 74 73 67 74 68 75 72 76
REMARK SMILES IDX 75 77 69 78 70 79 73 80 71 81 50 82 51 83 59 84 52 85 53 86
REMARK SMILES IDX 57 87 60 88 54 89 55 90 58 91 56 92
REMARK H PARENT 7 16 80 45 48 56
REMARK Flexibility Score: inf
ROOT
ATOM      1  C   UNL A   1      36.222  20.881  24.604  1.00  0.00     0.275 C 
ENDROOT
BRANCH   1   2
ATOM      2  O   UNL A   1      36.143  22.314  24.783  1.00  0.00    -0.458 OA
BRANCH   2   3
ATOM      3  C   UNL A   1      35.364  22.998  23.907  1.00  0.00     0.340 C 
ATOM      4  O   UNL A   1      35.692  23.362  22.795  1.00  0.00    -0.246 OA
BRANCH   3   5
ATOM      5  C   UNL A   1      33.994  23.251  24.442  1.00  0.00     0.086 A 
ATOM      6  C   UNL A   1      32.962  23.886  23.726  1.00  0.00     0.075 A 
ATOM      7  C   UNL A   1      31.658  23.847  24.267  1.00  0.00     0.067 A 
ATOM      8  Cl  UNL A   1      30.255  24.201  23.314  1.00  0.00    -0.082 Cl
ATOM      9  C   UNL A   1      31.435  23.434  25.584  1.00  0.00     0.043 A 
ATOM     10  C   UNL A   1      33.747  22.804  25.752  1.00  0.00     0.038 A 
ATOM     11  C   UNL A   1      32.498  22.968  26.338  1.00  0.00     0.043 A 
ATOM     12  Cl  UNL A   1      32.274  22.560  27.994  1.00  0.00    -0.084 Cl
BRANCH   6  13
ATOM     13  N   UNL A   1      33.279  24.570  22.534  1.00  0.00    -0.320 N 
ATOM     14  C   UNL A   1      33.276  25.927  22.257  1.00  0.00     0.256 C 
ATOM     15  O   UNL A   1      33.595  26.258  21.113  1.00  0.00    -0.269 OA
ATOM     16  H   UNL A   1      33.542  23.993  21.781  1.00  0.00     0.170 HD
BRANCH  14  17
ATOM     17  C   UNL A   1      32.990  26.919  23.308  1.00  0.00     0.054 A 
ATOM     18  C   UNL A   1      33.798  28.459  26.675  1.00  0.00     0.056 C 
ATOM     19  C   UNL A   1      33.263  28.077  25.338  1.00  0.00     0.003 A 
ATOM     20  C   UNL A   1      33.898  27.388  24.328  1.00  0.00     0.029 A 
ATOM     21  S   UNL A   1      31.678  28.493  24.886  1.00  0.00    -0.145 S 
ATOM     22  C   UNL A   1      31.784  27.604  23.419  1.00  0.00     0.014 A 
ATOM     23  C   UNL A   1      30.603  27.641  22.503  1.00  0.00     0.057 C 
ENDBRANCH  14  17
ENDBRANCH   6  13
ENDBRANCH   3   5
ENDBRANCH   2   3
ENDBRANCH   1   2
BRANCH   1  24
ATOM     24  C   UNL A   1      37.564  20.314  25.072  1.00  0.00     0.275 C 
BRANCH  24  25
ATOM     25  O   UNL A   1      38.517  21.366  25.311  1.00  0.00    -0.458 OA
BRANCH  25  26
ATOM     26  C   UNL A   1      39.454  21.080  26.240  1.00  0.00     0.338 C 
ATOM     27  O   UNL A   1      39.945  19.993  26.495  1.00  0.00    -0.246 OA
BRANCH  26  28
ATOM     28  C   UNL A   1      39.965  22.319  26.838  1.00  0.00     0.060 A 
ATOM     29  C   UNL A   1      39.450  23.509  26.340  1.00  0.00     0.016 A 
ATOM     30  C   UNL A   1      41.053  22.334  27.705  1.00  0.00     0.016 A 
ATOM     31  C   UNL A   1      40.080  24.717  26.604  1.00  0.00     0.010 A 
ATOM     32  C   UNL A   1      41.624  23.565  28.060  1.00  0.00     0.010 A 
ATOM     33  C   UNL A   1      41.170  24.768  27.481  1.00  0.00    -0.014 A 
BRANCH  33  34
ATOM     34  C   UNL A   1      41.844  26.072  27.743  1.00  0.00     0.031 A 
ATOM     35  C   UNL A   1      41.165  27.124  28.581  1.00  0.00     0.074 A 
ATOM     36  C   UNL A   1      43.084  26.304  27.266  1.00  0.00     0.049 A 
ATOM     37  N   UNL A   1      41.516  28.368  28.798  1.00  0.00    -0.248 NA
ATOM     38  C   UNL A   1      39.916  26.732  29.252  1.00  0.00     0.031 C 
ATOM     39  C   UNL A   1      43.887  25.354  26.494  1.00  0.00     0.029 A 
ATOM     40  N   UNL A   1      43.898  27.406  27.377  1.00  0.00    -0.354 N 
ATOM     41  C   UNL A   1      40.501  28.921  29.568  1.00  0.00     0.074 A 
ATOM     42  C   UNL A   1      39.520  27.879  29.784  1.00  0.00     0.031 C 
ATOM     43  C   UNL A   1      45.091  25.887  26.250  1.00  0.00     0.029 A 
ATOM     44  C   UNL A   1      45.113  27.256  26.753  1.00  0.00     0.049 A 
ATOM     45  H   UNL A   1      43.635  28.224  27.857  1.00  0.00     0.167 HD
ATOM     46  C   UNL A   1      40.397  30.186  30.046  1.00  0.00     0.037 A 
ATOM     47  C   UNL A   1      46.117  28.132  26.564  1.00  0.00     0.037 A 
ATOM     48  C   UNL A   1      41.411  31.197  29.885  1.00  0.00     0.049 A 
ATOM     49  C   UNL A   1      45.959  29.539  27.067  1.00  0.00     0.074 A 
ATOM     50  C   UNL A   1      41.420  32.495  30.368  1.00  0.00     0.029 A 
ATOM     51  N   UNL A   1      42.603  31.019  29.198  1.00  0.00    -0.354 N 
ATOM     52  N   UNL A   1      44.975  30.067  27.753  1.00  0.00    -0.248 NA
ATOM     53  C   UNL A   1      47.041  30.479  26.744  1.00  0.00     0.031 C 
ATOM     54  C   UNL A   1      42.594  33.118  29.928  1.00  0.00     0.029 A 
ATOM     55  C   UNL A   1      43.342  32.193  29.219  1.00  0.00     0.049 A 
ATOM     56  H   UNL A   1      42.883  30.184  28.759  1.00  0.00     0.167 HD
ATOM     57  C   UNL A   1      45.326  31.393  27.961  1.00  0.00     0.074 A 
ATOM     58  C   UNL A   1      46.622  31.584  27.342  1.00  0.00     0.031 C 
ATOM     59  C   UNL A   1      44.634  32.366  28.604  1.00  0.00     0.037 A 
BRANCH  46  60
ATOM     60  C   UNL A   1      39.122  30.566  30.745  1.00  0.00     0.064 A 
ATOM     61  C   UNL A   1      38.955  30.437  32.131  1.00  0.00     0.173 A 
ATOM     62  C   UNL A   1      38.052  31.094  30.005  1.00  0.00     0.173 A 
ATOM     63  F   UNL A   1      39.940  29.927  32.886  1.00  0.00    -0.203 F 
ATOM     64  C   UNL A   1      37.754  30.790  32.744  1.00  0.00     0.198 A 
ATOM     65  C   UNL A   1      36.865  31.477  30.625  1.00  0.00     0.198 A 
ATOM     66  F   UNL A   1      38.158  31.247  28.675  1.00  0.00    -0.203 F 
ATOM     67  F   UNL A   1      37.598  30.606  34.063  1.00  0.00    -0.200 F 
ATOM     68  C   UNL A   1      36.713  31.316  31.993  1.00  0.00     0.200 A 
ATOM     69  F   UNL A   1      35.867  31.997  29.897  1.00  0.00    -0.200 F 
ATOM     70  F   UNL A   1      35.561  31.657  32.586  1.00  0.00    -0.200 F 
ENDBRANCH  46  60
BRANCH  47  71
ATOM     71  C   UNL A   1      47.343  27.711  25.835  1.00  0.00     0.064 A 
ATOM     72  C   UNL A   1      47.392  27.743  24.434  1.00  0.00     0.173 A 
ATOM     73  C   UNL A   1      48.491  27.281  26.516  1.00  0.00     0.173 A 
ATOM     74  F   UNL A   1      46.310  28.120  23.735  1.00  0.00    -0.203 F 
ATOM     75  C   UNL A   1      48.539  27.356  23.745  1.00  0.00     0.198 A 
ATOM     76  C   UNL A   1      49.648  26.927  25.828  1.00  0.00     0.198 A 
ATOM     77  F   UNL A   1      48.497  27.229  27.856  1.00  0.00    -0.203 F 
ATOM     78  F   UNL A   1      48.546  27.359  22.405  1.00  0.00    -0.200 F 
ATOM     79  C   UNL A   1      49.670  26.959  24.442  1.00  0.00     0.200 A 
ATOM     80  F   UNL A   1      50.743  26.560  26.507  1.00  0.00    -0.200 F 
ATOM     81  F   UNL A   1      50.777  26.600  23.780  1.00  0.00    -0.200 F 
ENDBRANCH  47  71
BRANCH  59  82
ATOM     82  C   UNL A   1      45.285  33.713  28.705  1.00  0.00     0.064 A 
ATOM     83  C   UNL A   1      46.153  34.036  29.759  1.00  0.00     0.173 A 
ATOM     84  C   UNL A   1      45.055  34.687  27.721  1.00  0.00     0.173 A 
ATOM     85  F   UNL A   1      46.389  33.146  30.735  1.00  0.00    -0.203 F 
ATOM     86  C   UNL A   1      46.745  35.293  29.838  1.00  0.00     0.198 A 
ATOM     87  C   UNL A   1      45.673  35.932  27.788  1.00  0.00     0.198 A 
ATOM     88  F   UNL A   1      44.237  34.427  26.691  1.00  0.00    -0.203 F 
ATOM     89  F   UNL A   1      47.530  35.597  30.881  1.00  0.00    -0.200 F 
ATOM     90  C   UNL A   1      46.511  36.237  28.849  1.00  0.00     0.200 A 
ATOM     91  F   UNL A   1      45.455  36.839  26.825  1.00  0.00    -0.200 F 
ATOM     92  F   UNL A   1      47.086  37.445  28.926  1.00  0.00    -0.200 F 
ENDBRANCH  59  82
ENDBRANCH  33  34
ENDBRANCH  26  28
ENDBRANCH  25  26
ENDBRANCH  24  25
ENDBRANCH   1  24
TORSDOF 13
ENDMDL
