MODEL 1
REMARK VINA RESULT:     -12.1      0.000      0.000
REMARK SMILES Cc1nsc(NC(=O)c2ccc(N)cc2)c1C(=O)OCCOC(=O)c1ccc(-c2c3nc(c(-c4c(F)c(F)c(F)c(F)c4F)c4ccc([nH]4)c(-c4c(F)c(F)c(F)c(F)c4F)c4nc(c(-c5c(F)c(F)c(F)c(F)c5F)c5ccc2[nH]5)C=C4)C=C3)cc1
REMARK SMILES IDX 20 1 19 2 17 3 18 4 16 5 1 6 2 7 3 8 4 9 5 10 6 11 7 12 8 14
REMARK SMILES IDX 9 15 10 16 15 17 11 18 14 19 12 20 13 21 21 24 22 25 23 26
REMARK SMILES IDX 24 27 25 28 26 29 87 30 27 31 86 32 28 33 29 34 30 35 80 36
REMARK SMILES IDX 31 37 85 38 79 39 81 40 32 41 84 42 78 43 77 44 33 46 65 47
REMARK SMILES IDX 45 48 64 49 46 50 49 51 63 52 82 53 47 54 48 55 62 57 83 58
REMARK SMILES IDX 50 59 34 60 35 61 43 62 36 63 37 64 41 65 44 66 38 67 39 68
REMARK SMILES IDX 42 69 40 70 66 71 67 72 75 73 68 74 69 75 73 76 76 77 70 78
REMARK SMILES IDX 71 79 74 80 72 81 51 82 52 83 60 84 53 85 54 86 58 87 61 88
REMARK SMILES IDX 55 89 56 90 59 91 57 92
REMARK H PARENT 6 13 13 22 13 23 81 45 49 56
REMARK Flexibility Score: inf
ROOT
ATOM      1  C   UNL A   1      37.083  21.211  25.391  1.00  0.00     0.275 C 
ENDROOT
BRANCH   1   2
ATOM      2  O   UNL A   1      36.386  21.948  24.370  1.00  0.00    -0.458 OA
BRANCH   2   3
ATOM      3  C   UNL A   1      35.437  22.841  24.779  1.00  0.00     0.343 C 
ATOM      4  O   UNL A   1      35.690  23.886  25.377  1.00  0.00    -0.246 OA
BRANCH   3   5
ATOM      5  C   UNL A   1      34.100  22.508  24.304  1.00  0.00     0.117 A 
ATOM      6  C   UNL A   1      33.645  20.312  25.675  1.00  0.00     0.069 C 
ATOM      7  C   UNL A   1      33.303  21.356  24.668  1.00  0.00     0.068 A 
ATOM      8  N   UNL A   1      32.153  21.209  24.010  1.00  0.00    -0.195 NA
ATOM      9  S   UNL A   1      32.042  22.388  22.867  1.00  0.00    -0.017 S 
ATOM     10  C   UNL A   1      33.436  23.243  23.324  1.00  0.00     0.131 A 
BRANCH  10  11
ATOM     11  N   UNL A   1      33.872  24.397  22.688  1.00  0.00    -0.312 N 
ATOM     12  C   UNL A   1      33.553  25.726  22.865  1.00  0.00     0.256 C 
ATOM     13  H   UNL A   1      34.532  24.235  21.976  1.00  0.00     0.171 HD
ATOM     14  O   UNL A   1      33.816  26.534  21.973  1.00  0.00    -0.269 OA
BRANCH  12  15
ATOM     15  C   UNL A   1      32.963  26.250  24.114  1.00  0.00     0.040 A 
ATOM     16  C   UNL A   1      31.578  26.288  24.297  1.00  0.00     0.016 A 
ATOM     17  C   UNL A   1      33.811  26.647  25.151  1.00  0.00     0.016 A 
ATOM     18  C   UNL A   1      31.048  26.838  25.467  1.00  0.00     0.026 A 
ATOM     19  C   UNL A   1      33.269  27.176  26.327  1.00  0.00     0.026 A 
ATOM     20  C   UNL A   1      31.887  27.328  26.471  1.00  0.00     0.031 A 
BRANCH  20  21
ATOM     21  N   UNL A   1      31.354  27.830  27.648  1.00  0.00    -0.399 N 
ATOM     22  H   UNL A   1      30.611  27.360  28.091  1.00  0.00     0.156 HD
ATOM     23  H   UNL A   1      31.718  28.655  28.041  1.00  0.00     0.156 HD
ENDBRANCH  20  21
ENDBRANCH  12  15
ENDBRANCH  10  11
ENDBRANCH   3   5
ENDBRANCH   2   3
ENDBRANCH   1   2
BRANCH   1  24
ATOM     24  C   UNL A   1      38.545  21.635  25.464  1.00  0.00     0.275 C 
BRANCH  24  25
ATOM     25  O   UNL A   1      38.732  22.635  26.465  1.00  0.00    -0.458 OA
BRANCH  25  26
ATOM     26  C   UNL A   1      39.945  22.627  27.059  1.00  0.00     0.338 C 
ATOM     27  O   UNL A   1      40.473  21.692  27.634  1.00  0.00    -0.246 OA
BRANCH  26  28
ATOM     28  C   UNL A   1      40.481  23.990  27.098  1.00  0.00     0.060 A 
ATOM     29  C   UNL A   1      41.485  24.244  28.035  1.00  0.00     0.016 A 
ATOM     30  C   UNL A   1      39.781  25.024  26.458  1.00  0.00     0.016 A 
ATOM     31  C   UNL A   1      41.642  25.534  28.488  1.00  0.00     0.010 A 
ATOM     32  C   UNL A   1      39.940  26.311  26.912  1.00  0.00     0.010 A 
ATOM     33  C   UNL A   1      40.800  26.532  27.985  1.00  0.00    -0.014 A 
BRANCH  33  34
ATOM     34  C   UNL A   1      40.863  27.836  28.609  1.00  0.00     0.031 A 
ATOM     35  C   UNL A   1      42.012  28.667  28.174  1.00  0.00     0.074 A 
ATOM     36  C   UNL A   1      39.893  28.269  29.434  1.00  0.00     0.049 A 
ATOM     37  N   UNL A   1      42.920  29.229  28.901  1.00  0.00    -0.248 NA
ATOM     38  C   UNL A   1      42.229  28.799  26.724  1.00  0.00     0.031 C 
ATOM     39  C   UNL A   1      38.587  27.665  29.715  1.00  0.00     0.029 A 
ATOM     40  N   UNL A   1      39.845  29.434  30.129  1.00  0.00    -0.354 N 
ATOM     41  C   UNL A   1      43.757  29.899  28.012  1.00  0.00     0.074 A 
ATOM     42  C   UNL A   1      43.356  29.507  26.687  1.00  0.00     0.031 C 
ATOM     43  C   UNL A   1      37.799  28.579  30.325  1.00  0.00     0.029 A 
ATOM     44  C   UNL A   1      38.585  29.774  30.586  1.00  0.00     0.049 A 
ATOM     45  H   UNL A   1      40.641  29.990  30.293  1.00  0.00     0.167 HD
ATOM     46  C   UNL A   1      44.612  30.871  28.424  1.00  0.00     0.037 A 
ATOM     47  C   UNL A   1      38.213  30.994  31.044  1.00  0.00     0.037 A 
ATOM     48  C   UNL A   1      44.915  30.750  29.824  1.00  0.00     0.049 A 
ATOM     49  C   UNL A   1      39.453  31.731  31.406  1.00  0.00     0.074 A 
ATOM     50  C   UNL A   1      45.534  29.779  30.588  1.00  0.00     0.029 A 
ATOM     51  N   UNL A   1      44.256  31.557  30.719  1.00  0.00    -0.354 N 
ATOM     52  N   UNL A   1      40.227  31.411  32.406  1.00  0.00    -0.248 NA
ATOM     53  C   UNL A   1      40.077  32.548  30.373  1.00  0.00     0.031 C 
ATOM     54  C   UNL A   1      44.815  29.760  31.818  1.00  0.00     0.029 A 
ATOM     55  C   UNL A   1      43.832  30.747  31.744  1.00  0.00     0.049 A 
ATOM     56  H   UNL A   1      44.115  32.528  30.641  1.00  0.00     0.167 HD
ATOM     57  C   UNL A   1      41.517  31.627  31.944  1.00  0.00     0.074 A 
ATOM     58  C   UNL A   1      41.360  32.404  30.717  1.00  0.00     0.031 C 
ATOM     59  C   UNL A   1      42.578  30.922  32.436  1.00  0.00     0.037 A 
BRANCH  46  60
ATOM     60  C   UNL A   1      44.934  32.096  27.611  1.00  0.00     0.064 A 
ATOM     61  C   UNL A   1      46.188  32.201  26.979  1.00  0.00     0.173 A 
ATOM     62  C   UNL A   1      44.175  33.287  27.664  1.00  0.00     0.173 A 
ATOM     63  F   UNL A   1      47.001  31.138  26.892  1.00  0.00    -0.203 F 
ATOM     64  C   UNL A   1      46.670  33.422  26.500  1.00  0.00     0.198 A 
ATOM     65  C   UNL A   1      44.637  34.491  27.135  1.00  0.00     0.198 A 
ATOM     66  F   UNL A   1      43.012  33.364  28.321  1.00  0.00    -0.203 F 
ATOM     67  F   UNL A   1      47.917  33.498  26.015  1.00  0.00    -0.200 F 
ATOM     68  C   UNL A   1      45.898  34.565  26.582  1.00  0.00     0.200 A 
ATOM     69  F   UNL A   1      43.879  35.591  27.242  1.00  0.00    -0.200 F 
ATOM     70  F   UNL A   1      46.383  35.747  26.180  1.00  0.00    -0.200 F 
ENDBRANCH  46  60
BRANCH  47  71
ATOM     71  C   UNL A   1      36.909  31.664  30.833  1.00  0.00     0.064 A 
ATOM     72  C   UNL A   1      36.078  31.990  31.915  1.00  0.00     0.173 A 
ATOM     73  C   UNL A   1      36.564  32.228  29.587  1.00  0.00     0.173 A 
ATOM     74  F   UNL A   1      36.365  31.537  33.145  1.00  0.00    -0.203 F 
ATOM     75  C   UNL A   1      34.976  32.840  31.764  1.00  0.00     0.198 A 
ATOM     76  C   UNL A   1      35.459  33.065  29.435  1.00  0.00     0.198 A 
ATOM     77  F   UNL A   1      37.343  32.055  28.510  1.00  0.00    -0.203 F 
ATOM     78  F   UNL A   1      34.239  33.176  32.831  1.00  0.00    -0.200 F 
ATOM     79  C   UNL A   1      34.672  33.381  30.525  1.00  0.00     0.200 A 
ATOM     80  F   UNL A   1      35.200  33.610  28.237  1.00  0.00    -0.200 F 
ATOM     81  F   UNL A   1      33.650  34.237  30.390  1.00  0.00    -0.200 F 
ENDBRANCH  47  71
BRANCH  59  82
ATOM     82  C   UNL A   1      42.340  30.051  33.639  1.00  0.00     0.064 A 
ATOM     83  C   UNL A   1      41.866  28.728  33.557  1.00  0.00     0.173 A 
ATOM     84  C   UNL A   1      42.750  30.507  34.897  1.00  0.00     0.173 A 
ATOM     85  F   UNL A   1      41.563  28.178  32.376  1.00  0.00    -0.203 F 
ATOM     86  C   UNL A   1      41.758  27.923  34.689  1.00  0.00     0.198 A 
ATOM     87  C   UNL A   1      42.678  29.688  36.022  1.00  0.00     0.198 A 
ATOM     88  F   UNL A   1      43.273  31.736  35.029  1.00  0.00    -0.203 F 
ATOM     89  F   UNL A   1      41.290  26.670  34.582  1.00  0.00    -0.200 F 
ATOM     90  C   UNL A   1      42.171  28.402  35.920  1.00  0.00     0.200 A 
ATOM     91  F   UNL A   1      43.128  30.136  37.202  1.00  0.00    -0.200 F 
ATOM     92  F   UNL A   1      42.109  27.615  37.003  1.00  0.00    -0.200 F 
ENDBRANCH  59  82
ENDBRANCH  33  34
ENDBRANCH  26  28
ENDBRANCH  25  26
ENDBRANCH  24  25
ENDBRANCH   1  24
TORSDOF 14
ENDMDL
MODEL 2
REMARK VINA RESULT:     -12.0      3.454      8.819
REMARK SMILES Cc1nsc(NC(=O)c2ccc(N)cc2)c1C(=O)OCCOC(=O)c1ccc(-c2c3nc(c(-c4c(F)c(F)c(F)c(F)c4F)c4ccc([nH]4)c(-c4c(F)c(F)c(F)c(F)c4F)c4nc(c(-c5c(F)c(F)c(F)c(F)c5F)c5ccc2[nH]5)C=C4)C=C3)cc1
REMARK SMILES IDX 20 1 19 2 17 3 18 4 16 5 1 6 2 7 3 8 4 9 5 10 6 11 7 12 8 14
REMARK SMILES IDX 9 15 10 16 15 17 11 18 14 19 12 20 13 21 21 24 22 25 23 26
REMARK SMILES IDX 24 27 25 28 26 29 87 30 27 31 86 32 28 33 29 34 30 35 80 36
REMARK SMILES IDX 31 37 85 38 79 39 81 40 32 41 84 42 78 43 77 44 33 46 65 47
REMARK SMILES IDX 45 48 64 49 46 50 49 51 63 52 82 53 47 54 48 55 62 57 83 58
REMARK SMILES IDX 50 59 34 60 35 61 43 62 36 63 37 64 41 65 44 66 38 67 39 68
REMARK SMILES IDX 42 69 40 70 66 71 67 72 75 73 68 74 69 75 73 76 76 77 70 78
REMARK SMILES IDX 71 79 74 80 72 81 51 82 52 83 60 84 53 85 54 86 58 87 61 88
REMARK SMILES IDX 55 89 56 90 59 91 57 92
REMARK H PARENT 6 13 13 22 13 23 81 45 49 56
REMARK Flexibility Score: inf
ROOT
ATOM      1  C   UNL A   1      32.698  30.067  27.238  1.00  0.00     0.275 C 
ENDROOT
BRANCH   1   2
ATOM      2  O   UNL A   1      32.774  28.730  26.710  1.00  0.00    -0.458 OA
BRANCH   2   3
ATOM      3  C   UNL A   1      31.707  27.907  26.932  1.00  0.00     0.343 C 
ATOM      4  O   UNL A   1      31.103  27.839  28.001  1.00  0.00    -0.246 OA
BRANCH   3   5
ATOM      5  C   UNL A   1      31.257  27.222  25.726  1.00  0.00     0.117 A 
ATOM      6  C   UNL A   1      30.974  29.267  24.099  1.00  0.00     0.069 C 
ATOM      7  C   UNL A   1      30.887  27.825  24.463  1.00  0.00     0.068 A 
ATOM      8  N   UNL A   1      30.395  26.996  23.542  1.00  0.00    -0.195 NA
ATOM      9  S   UNL A   1      30.268  25.492  24.196  1.00  0.00    -0.017 S 
ATOM     10  C   UNL A   1      31.027  25.850  25.672  1.00  0.00     0.131 A 
BRANCH  10  11
ATOM     11  N   UNL A   1      31.222  24.916  26.681  1.00  0.00    -0.312 N 
ATOM     12  C   UNL A   1      32.015  23.791  26.758  1.00  0.00     0.256 C 
ATOM     13  H   UNL A   1      30.695  25.090  27.494  1.00  0.00     0.171 HD
ATOM     14  O   UNL A   1      31.778  22.944  27.621  1.00  0.00    -0.269 OA
BRANCH  12  15
ATOM     15  C   UNL A   1      33.190  23.576  25.888  1.00  0.00     0.040 A 
ATOM     16  C   UNL A   1      34.259  24.476  25.884  1.00  0.00     0.016 A 
ATOM     17  C   UNL A   1      33.255  22.415  25.113  1.00  0.00     0.016 A 
ATOM     18  C   UNL A   1      35.332  24.274  25.011  1.00  0.00     0.026 A 
ATOM     19  C   UNL A   1      34.345  22.212  24.260  1.00  0.00     0.026 A 
ATOM     20  C   UNL A   1      35.363  23.166  24.160  1.00  0.00     0.031 A 
BRANCH  20  21
ATOM     21  N   UNL A   1      36.452  22.948  23.332  1.00  0.00    -0.399 N 
ATOM     22  H   UNL A   1      37.124  22.271  23.571  1.00  0.00     0.156 HD
ATOM     23  H   UNL A   1      36.553  23.470  22.504  1.00  0.00     0.156 HD
ENDBRANCH  20  21
ENDBRANCH  12  15
ENDBRANCH  10  11
ENDBRANCH   3   5
ENDBRANCH   2   3
ENDBRANCH   1   2
BRANCH   1  24
ATOM     24  C   UNL A   1      34.054  30.759  27.161  1.00  0.00     0.275 C 
BRANCH  24  25
ATOM     25  O   UNL A   1      34.704  30.741  28.431  1.00  0.00    -0.458 OA
BRANCH  25  26
ATOM     26  C   UNL A   1      35.758  31.577  28.544  1.00  0.00     0.338 C 
ATOM     27  O   UNL A   1      35.927  32.627  27.948  1.00  0.00    -0.246 OA
BRANCH  26  28
ATOM     28  C   UNL A   1      36.801  30.945  29.354  1.00  0.00     0.060 A 
ATOM     29  C   UNL A   1      38.039  31.592  29.401  1.00  0.00     0.016 A 
ATOM     30  C   UNL A   1      36.640  29.615  29.769  1.00  0.00     0.016 A 
ATOM     31  C   UNL A   1      39.159  30.836  29.664  1.00  0.00     0.010 A 
ATOM     32  C   UNL A   1      37.760  28.863  30.032  1.00  0.00     0.010 A 
ATOM     33  C   UNL A   1      39.008  29.462  29.884  1.00  0.00    -0.014 A 
BRANCH  33  34
ATOM     34  C   UNL A   1      40.212  28.665  29.976  1.00  0.00     0.031 A 
ATOM     35  C   UNL A   1      40.729  28.496  31.356  1.00  0.00     0.074 A 
ATOM     36  C   UNL A   1      40.739  28.058  28.897  1.00  0.00     0.049 A 
ATOM     37  N   UNL A   1      41.908  28.767  31.813  1.00  0.00    -0.248 NA
ATOM     38  C   UNL A   1      39.766  28.062  32.381  1.00  0.00     0.031 C 
ATOM     39  C   UNL A   1      40.171  27.917  27.553  1.00  0.00     0.029 A 
ATOM     40  N   UNL A   1      41.883  27.332  28.822  1.00  0.00    -0.354 N 
ATOM     41  C   UNL A   1      41.880  28.416  33.160  1.00  0.00     0.074 A 
ATOM     42  C   UNL A   1      40.514  28.100  33.482  1.00  0.00     0.031 C 
ATOM     43  C   UNL A   1      40.857  26.964  26.881  1.00  0.00     0.029 A 
ATOM     44  C   UNL A   1      41.976  26.529  27.700  1.00  0.00     0.049 A 
ATOM     45  H   UNL A   1      42.588  27.374  29.509  1.00  0.00     0.167 HD
ATOM     46  C   UNL A   1      43.020  28.240  33.879  1.00  0.00     0.037 A 
ATOM     47  C   UNL A   1      42.856  25.513  27.527  1.00  0.00     0.037 A 
ATOM     48  C   UNL A   1      44.132  28.929  33.285  1.00  0.00     0.049 A 
ATOM     49  C   UNL A   1      43.964  25.712  28.498  1.00  0.00     0.074 A 
ATOM     50  C   UNL A   1      44.409  30.260  33.034  1.00  0.00     0.029 A 
ATOM     51  N   UNL A   1      45.023  28.218  32.519  1.00  0.00    -0.354 N 
ATOM     52  N   UNL A   1      44.828  26.687  28.430  1.00  0.00    -0.248 NA
ATOM     53  C   UNL A   1      43.833  25.087  29.808  1.00  0.00     0.031 C 
ATOM     54  C   UNL A   1      45.089  30.267  31.782  1.00  0.00     0.029 A 
ATOM     55  C   UNL A   1      45.222  28.942  31.369  1.00  0.00     0.049 A 
ATOM     56  H   UNL A   1      45.438  27.356  32.750  1.00  0.00     0.167 HD
ATOM     57  C   UNL A   1      45.042  27.069  29.747  1.00  0.00     0.074 A 
ATOM     58  C   UNL A   1      44.467  25.996  30.555  1.00  0.00     0.031 C 
ATOM     59  C   UNL A   1      45.408  28.344  30.069  1.00  0.00     0.037 A 
BRANCH  46  60
ATOM     60  C   UNL A   1      43.172  27.201  34.957  1.00  0.00     0.064 A 
ATOM     61  C   UNL A   1      43.454  27.604  36.277  1.00  0.00     0.173 A 
ATOM     62  C   UNL A   1      43.331  25.822  34.693  1.00  0.00     0.173 A 
ATOM     63  F   UNL A   1      43.358  28.894  36.634  1.00  0.00    -0.203 F 
ATOM     64  C   UNL A   1      43.928  26.704  37.235  1.00  0.00     0.198 A 
ATOM     65  C   UNL A   1      43.750  24.919  35.668  1.00  0.00     0.198 A 
ATOM     66  F   UNL A   1      43.196  25.311  33.464  1.00  0.00    -0.203 F 
ATOM     67  F   UNL A   1      44.299  27.155  38.442  1.00  0.00    -0.200 F 
ATOM     68  C   UNL A   1      44.080  25.365  36.930  1.00  0.00     0.200 A 
ATOM     69  F   UNL A   1      43.908  23.628  35.344  1.00  0.00    -0.200 F 
ATOM     70  F   UNL A   1      44.591  24.514  37.828  1.00  0.00    -0.200 F 
ENDBRANCH  46  60
BRANCH  47  71
ATOM     71  C   UNL A   1      42.601  24.221  26.848  1.00  0.00     0.064 A 
ATOM     72  C   UNL A   1      43.312  23.854  25.696  1.00  0.00     0.173 A 
ATOM     73  C   UNL A   1      41.834  23.207  27.459  1.00  0.00     0.173 A 
ATOM     74  F   UNL A   1      44.107  24.744  25.083  1.00  0.00    -0.203 F 
ATOM     75  C   UNL A   1      43.271  22.548  25.195  1.00  0.00     0.198 A 
ATOM     76  C   UNL A   1      41.784  21.909  26.952  1.00  0.00     0.198 A 
ATOM     77  F   UNL A   1      41.191  23.428  28.615  1.00  0.00    -0.203 F 
ATOM     78  F   UNL A   1      44.009  22.218  24.126  1.00  0.00    -0.200 F 
ATOM     79  C   UNL A   1      42.512  21.576  25.826  1.00  0.00     0.200 A 
ATOM     80  F   UNL A   1      41.073  20.972  27.596  1.00  0.00    -0.200 F 
ATOM     81  F   UNL A   1      42.514  20.313  25.378  1.00  0.00    -0.200 F 
ENDBRANCH  47  71
BRANCH  59  82
ATOM     82  C   UNL A   1      45.776  29.271  28.943  1.00  0.00     0.064 A 
ATOM     83  C   UNL A   1      44.834  30.035  28.228  1.00  0.00     0.173 A 
ATOM     84  C   UNL A   1      47.129  29.514  28.680  1.00  0.00     0.173 A 
ATOM     85  F   UNL A   1      43.527  29.947  28.501  1.00  0.00    -0.203 F 
ATOM     86  C   UNL A   1      45.229  30.957  27.262  1.00  0.00     0.198 A 
ATOM     87  C   UNL A   1      47.524  30.465  27.741  1.00  0.00     0.198 A 
ATOM     88  F   UNL A   1      48.076  28.865  29.375  1.00  0.00    -0.203 F 
ATOM     89  F   UNL A   1      44.308  31.662  26.588  1.00  0.00    -0.200 F 
ATOM     90  C   UNL A   1      46.575  31.177  27.024  1.00  0.00     0.200 A 
ATOM     91  F   UNL A   1      48.827  30.712  27.551  1.00  0.00    -0.200 F 
ATOM     92  F   UNL A   1      46.959  32.095  26.126  1.00  0.00    -0.200 F 
ENDBRANCH  59  82
ENDBRANCH  33  34
ENDBRANCH  26  28
ENDBRANCH  25  26
ENDBRANCH  24  25
ENDBRANCH   1  24
TORSDOF 14
ENDMDL
MODEL 3
REMARK VINA RESULT:     -12.0      3.362      8.807
REMARK SMILES Cc1nsc(NC(=O)c2ccc(N)cc2)c1C(=O)OCCOC(=O)c1ccc(-c2c3nc(c(-c4c(F)c(F)c(F)c(F)c4F)c4ccc([nH]4)c(-c4c(F)c(F)c(F)c(F)c4F)c4nc(c(-c5c(F)c(F)c(F)c(F)c5F)c5ccc2[nH]5)C=C4)C=C3)cc1
REMARK SMILES IDX 20 1 19 2 17 3 18 4 16 5 1 6 2 7 3 8 4 9 5 10 6 11 7 12 8 14
REMARK SMILES IDX 9 15 10 16 15 17 11 18 14 19 12 20 13 21 21 24 22 25 23 26
REMARK SMILES IDX 24 27 25 28 26 29 87 30 27 31 86 32 28 33 29 34 30 35 80 36
REMARK SMILES IDX 31 37 85 38 79 39 81 40 32 41 84 42 78 43 77 44 33 46 65 47
REMARK SMILES IDX 45 48 64 49 46 50 49 51 63 52 82 53 47 54 48 55 62 57 83 58
REMARK SMILES IDX 50 59 34 60 35 61 43 62 36 63 37 64 41 65 44 66 38 67 39 68
REMARK SMILES IDX 42 69 40 70 66 71 67 72 75 73 68 74 69 75 73 76 76 77 70 78
REMARK SMILES IDX 71 79 74 80 72 81 51 82 52 83 60 84 53 85 54 86 58 87 61 88
REMARK SMILES IDX 55 89 56 90 59 91 57 92
REMARK H PARENT 6 13 13 22 13 23 81 45 49 56
REMARK Flexibility Score: inf
ROOT
ATOM      1  C   UNL A   1      32.283  30.235  27.147  1.00  0.00     0.275 C 
ENDROOT
BRANCH   1   2
ATOM      2  O   UNL A   1      32.546  28.922  26.618  1.00  0.00    -0.458 OA
BRANCH   2   3
ATOM      3  C   UNL A   1      31.625  27.947  26.876  1.00  0.00     0.343 C 
ATOM      4  O   UNL A   1      31.087  27.782  27.969  1.00  0.00    -0.246 OA
BRANCH   3   5
ATOM      5  C   UNL A   1      31.227  27.210  25.682  1.00  0.00     0.117 A 
ATOM      6  C   UNL A   1      30.786  29.202  24.024  1.00  0.00     0.069 C 
ATOM      7  C   UNL A   1      30.811  27.763  24.411  1.00  0.00     0.068 A 
ATOM      8  N   UNL A   1      30.383  26.884  23.503  1.00  0.00    -0.195 NA
ATOM      9  S   UNL A   1      30.373  25.385  24.181  1.00  0.00    -0.017 S 
ATOM     10  C   UNL A   1      31.105  25.824  25.650  1.00  0.00     0.131 A 
BRANCH  10  11
ATOM     11  N   UNL A   1      31.372  24.924  26.673  1.00  0.00    -0.312 N 
ATOM     12  C   UNL A   1      32.167  23.800  26.730  1.00  0.00     0.256 C 
ATOM     13  H   UNL A   1      30.907  25.128  27.516  1.00  0.00     0.171 HD
ATOM     14  O   UNL A   1      31.993  22.983  27.636  1.00  0.00    -0.269 OA
BRANCH  12  15
ATOM     15  C   UNL A   1      33.274  23.551  25.784  1.00  0.00     0.040 A 
ATOM     16  C   UNL A   1      33.163  22.583  24.781  1.00  0.00     0.016 A 
ATOM     17  C   UNL A   1      34.419  24.349  25.856  1.00  0.00     0.016 A 
ATOM     18  C   UNL A   1      34.248  22.335  23.934  1.00  0.00     0.026 A 
ATOM     19  C   UNL A   1      35.490  24.105  24.989  1.00  0.00     0.026 A 
ATOM     20  C   UNL A   1      35.435  23.061  24.061  1.00  0.00     0.031 A 
BRANCH  20  21
ATOM     21  N   UNL A   1      36.488  22.839  23.188  1.00  0.00    -0.399 N 
ATOM     22  H   UNL A   1      36.571  23.380  22.370  1.00  0.00     0.156 HD
ATOM     23  H   UNL A   1      37.154  22.143  23.387  1.00  0.00     0.156 HD
ENDBRANCH  20  21
ENDBRANCH  12  15
ENDBRANCH  10  11
ENDBRANCH   3   5
ENDBRANCH   2   3
ENDBRANCH   1   2
BRANCH   1  24
ATOM     24  C   UNL A   1      33.564  31.060  27.212  1.00  0.00     0.275 C 
BRANCH  24  25
ATOM     25  O   UNL A   1      34.547  30.405  28.011  1.00  0.00    -0.458 OA
BRANCH  25  26
ATOM     26  C   UNL A   1      35.317  31.227  28.756  1.00  0.00     0.338 C 
ATOM     27  O   UNL A   1      34.938  32.149  29.456  1.00  0.00    -0.246 OA
BRANCH  26  28
ATOM     28  C   UNL A   1      36.729  30.987  28.452  1.00  0.00     0.060 A 
ATOM     29  C   UNL A   1      37.027  29.838  27.715  1.00  0.00     0.016 A 
ATOM     30  C   UNL A   1      37.715  31.699  29.150  1.00  0.00     0.016 A 
ATOM     31  C   UNL A   1      38.278  29.282  27.852  1.00  0.00     0.010 A 
ATOM     32  C   UNL A   1      38.964  31.143  29.285  1.00  0.00     0.010 A 
ATOM     33  C   UNL A   1      39.197  29.896  28.710  1.00  0.00    -0.014 A 
BRANCH  33  34
ATOM     34  C   UNL A   1      40.435  29.194  28.976  1.00  0.00     0.031 A 
ATOM     35  C   UNL A   1      40.696  28.939  30.414  1.00  0.00     0.074 A 
ATOM     36  C   UNL A   1      41.214  28.737  27.979  1.00  0.00     0.049 A 
ATOM     37  N   UNL A   1      41.734  29.261  31.113  1.00  0.00    -0.248 NA
ATOM     38  C   UNL A   1      39.604  28.333  31.193  1.00  0.00     0.031 C 
ATOM     39  C   UNL A   1      40.926  28.677  26.542  1.00  0.00     0.029 A 
ATOM     40  N   UNL A   1      42.417  28.117  28.075  1.00  0.00    -0.354 N 
ATOM     41  C   UNL A   1      41.487  28.784  32.398  1.00  0.00     0.074 A 
ATOM     42  C   UNL A   1      40.123  28.328  32.419  1.00  0.00     0.031 C 
ATOM     43  C   UNL A   1      41.817  27.851  25.948  1.00  0.00     0.029 A 
ATOM     44  C   UNL A   1      42.799  27.433  26.935  1.00  0.00     0.049 A 
ATOM     45  H   UNL A   1      42.971  28.151  28.888  1.00  0.00     0.167 HD
ATOM     46  C   UNL A   1      42.482  28.634  33.311  1.00  0.00     0.037 A 
ATOM     47  C   UNL A   1      43.790  26.513  26.861  1.00  0.00     0.037 A 
ATOM     48  C   UNL A   1      43.614  29.465  33.002  1.00  0.00     0.049 A 
ATOM     49  C   UNL A   1      44.671  26.710  28.043  1.00  0.00     0.074 A 
ATOM     50  C   UNL A   1      43.801  30.831  32.913  1.00  0.00     0.029 A 
ATOM     51  N   UNL A   1      44.698  28.904  32.374  1.00  0.00    -0.354 N 
ATOM     52  N   UNL A   1      45.431  27.755  28.221  1.00  0.00    -0.248 NA
ATOM     53  C   UNL A   1      44.356  25.956  29.250  1.00  0.00     0.031 C 
ATOM     54  C   UNL A   1      44.701  31.012  31.824  1.00  0.00     0.029 A 
ATOM     55  C   UNL A   1      45.039  29.747  31.345  1.00  0.00     0.049 A 
ATOM     56  H   UNL A   1      45.145  28.061  32.616  1.00  0.00     0.167 HD
ATOM     57  C   UNL A   1      45.354  28.026  29.580  1.00  0.00     0.074 A 
ATOM     58  C   UNL A   1      44.745  26.839  30.174  1.00  0.00     0.031 C 
ATOM     59  C   UNL A   1      45.526  29.291  30.064  1.00  0.00     0.037 A 
BRANCH  46  60
ATOM     60  C   UNL A   1      42.529  27.514  34.315  1.00  0.00     0.064 A 
ATOM     61  C   UNL A   1      43.020  26.252  33.928  1.00  0.00     0.173 A 
ATOM     62  C   UNL A   1      41.851  27.550  35.554  1.00  0.00     0.173 A 
ATOM     63  F   UNL A   1      43.660  26.097  32.759  1.00  0.00    -0.203 F 
ATOM     64  C   UNL A   1      42.787  25.106  34.691  1.00  0.00     0.198 A 
ATOM     65  C   UNL A   1      41.669  26.414  36.340  1.00  0.00     0.198 A 
ATOM     66  F   UNL A   1      41.244  28.655  36.004  1.00  0.00    -0.203 F 
ATOM     67  F   UNL A   1      43.167  23.909  34.223  1.00  0.00    -0.200 F 
ATOM     68  C   UNL A   1      42.108  25.186  35.893  1.00  0.00     0.200 A 
ATOM     69  F   UNL A   1      40.991  26.511  37.492  1.00  0.00    -0.200 F 
ATOM     70  F   UNL A   1      41.830  24.080  36.594  1.00  0.00    -0.200 F 
ENDBRANCH  46  60
BRANCH  47  71
ATOM     71  C   UNL A   1      43.797  25.275  26.048  1.00  0.00     0.064 A 
ATOM     72  C   UNL A   1      44.867  24.973  25.193  1.00  0.00     0.173 A 
ATOM     73  C   UNL A   1      42.872  24.236  26.283  1.00  0.00     0.173 A 
ATOM     74  F   UNL A   1      45.818  25.889  24.957  1.00  0.00    -0.203 F 
ATOM     75  C   UNL A   1      45.012  23.705  24.619  1.00  0.00     0.198 A 
ATOM     76  C   UNL A   1      43.011  22.976  25.701  1.00  0.00     0.198 A 
ATOM     77  F   UNL A   1      41.866  24.390  27.156  1.00  0.00    -0.203 F 
ATOM     78  F   UNL A   1      46.078  23.435  23.853  1.00  0.00    -0.200 F 
ATOM     79  C   UNL A   1      44.087  22.706  24.879  1.00  0.00     0.200 A 
ATOM     80  F   UNL A   1      42.128  22.010  25.992  1.00  0.00    -0.200 F 
ATOM     81  F   UNL A   1      44.254  21.477  24.373  1.00  0.00    -0.200 F 
ENDBRANCH  47  71
BRANCH  59  82
ATOM     82  C   UNL A   1      46.006  30.347  29.107  1.00  0.00     0.064 A 
ATOM     83  C   UNL A   1      47.365  30.573  28.821  1.00  0.00     0.173 A 
ATOM     84  C   UNL A   1      45.066  31.044  28.339  1.00  0.00     0.173 A 
ATOM     85  F   UNL A   1      48.324  29.864  29.429  1.00  0.00    -0.203 F 
ATOM     86  C   UNL A   1      47.762  31.492  27.851  1.00  0.00     0.198 A 
ATOM     87  C   UNL A   1      45.463  31.933  27.343  1.00  0.00     0.198 A 
ATOM     88  F   UNL A   1      43.754  30.823  28.519  1.00  0.00    -0.203 F 
ATOM     89  F   UNL A   1      49.065  31.696  27.610  1.00  0.00    -0.200 F 
ATOM     90  C   UNL A   1      46.809  32.167  27.108  1.00  0.00     0.200 A 
ATOM     91  F   UNL A   1      44.538  32.545  26.589  1.00  0.00    -0.200 F 
ATOM     92  F   UNL A   1      47.187  33.018  26.144  1.00  0.00    -0.200 F 
ENDBRANCH  59  82
ENDBRANCH  33  34
ENDBRANCH  26  28
ENDBRANCH  25  26
ENDBRANCH  24  25
ENDBRANCH   1  24
TORSDOF 14
ENDMDL
