MODEL 1
REMARK VINA RESULT:     -12.4      0.000      0.000
REMARK SMILES O=Cc1c(OCc2ccc(C(=O)OCCOC(=O)c3ccc(-c4c5nc(c(-c6c(F)c(F)c(F)c(F)c6F)c6ccc([nH]6)c(-c6c(F)c(F)c(F)c(F)c6F)c6nc(c(-c7c(F)c(F)c(F)c(F)c7F)c7ccc4[nH]7)C=C6)C=C5)cc3)cc2)ccc2ccccc12
REMARK SMILES IDX 14 1 13 2 11 3 12 4 10 5 7 6 8 7 83 8 9 9 82 10 6 11 5 12
REMARK SMILES IDX 4 13 3 14 91 15 84 16 86 17 90 18 85 19 87 20 89 21 88 22
REMARK SMILES IDX 2 23 1 24 15 25 16 26 17 27 18 28 19 29 20 30 81 31 21 32
REMARK SMILES IDX 80 33 22 34 23 35 24 36 74 37 25 38 79 39 73 40 75 41 26 42
REMARK SMILES IDX 78 43 72 44 71 45 27 47 59 48 39 49 58 50 40 51 43 52 57 53
REMARK SMILES IDX 76 54 41 55 42 56 56 58 77 59 44 60 28 61 29 62 37 63 30 64
REMARK SMILES IDX 31 65 35 66 38 67 32 68 33 69 36 70 34 71 60 72 61 73 69 74
REMARK SMILES IDX 62 75 63 76 67 77 70 78 64 79 65 80 68 81 66 82 45 83 46 84
REMARK SMILES IDX 54 85 47 86 48 87 52 88 55 89 49 90 50 91 53 92 51 93
REMARK H PARENT 75 46 43 57
REMARK Flexibility Score: inf
ROOT
ATOM      1  C   UNL A   1      31.009  30.047  24.630  1.00  0.00     0.275 C 
ENDROOT
BRANCH   1   2
ATOM      2  O   UNL A   1      31.067  28.669  24.210  1.00  0.00    -0.458 OA
BRANCH   2   3
ATOM      3  C   UNL A   1      32.124  28.346  23.425  1.00  0.00     0.338 C 
ATOM      4  O   UNL A   1      32.499  28.958  22.435  1.00  0.00    -0.246 OA
BRANCH   3   5
ATOM      5  C   UNL A   1      32.873  27.182  23.970  1.00  0.00     0.060 A 
ATOM      6  C   UNL A   1      34.430  24.993  24.815  1.00  0.00    -0.011 A 
ATOM      7  C   UNL A   1      33.981  25.075  23.491  1.00  0.00     0.008 A 
ATOM      8  C   UNL A   1      34.047  25.992  25.724  1.00  0.00     0.008 A 
ATOM      9  C   UNL A   1      33.209  26.159  23.074  1.00  0.00     0.016 A 
ATOM     10  C   UNL A   1      33.276  27.086  25.305  1.00  0.00     0.016 A 
BRANCH   6  11
ATOM     11  C   UNL A   1      35.313  23.841  25.247  1.00  0.00     0.265 C 
BRANCH  11  12
ATOM     12  O   UNL A   1      34.568  22.749  25.785  1.00  0.00    -0.488 OA
BRANCH  12  13
ATOM     13  C   UNL A   1      34.739  21.479  25.301  1.00  0.00     0.130 A 
ATOM     14  C   UNL A   1      33.586  20.807  24.849  1.00  0.00     0.064 A 
ATOM     15  C   UNL A   1      33.616  19.434  24.459  1.00  0.00    -0.004 A 
ATOM     16  C   UNL A   1      35.950  20.795  25.291  1.00  0.00     0.048 A 
ATOM     17  C   UNL A   1      34.858  18.758  24.518  1.00  0.00    -0.017 A 
ATOM     18  C   UNL A   1      32.495  18.693  24.005  1.00  0.00     0.009 A 
ATOM     19  C   UNL A   1      36.008  19.451  24.912  1.00  0.00     0.012 A 
ATOM     20  C   UNL A   1      34.945  17.399  24.171  1.00  0.00     0.009 A 
ATOM     21  C   UNL A   1      32.596  17.341  23.665  1.00  0.00     0.001 A 
ATOM     22  C   UNL A   1      33.819  16.692  23.755  1.00  0.00     0.001 A 
BRANCH  14  23
ATOM     23  C   UNL A   1      32.300  21.543  24.794  1.00  0.00     0.264 C 
ATOM     24  O   UNL A   1      31.910  22.140  23.799  1.00  0.00    -0.298 OA
ENDBRANCH  14  23
ENDBRANCH  12  13
ENDBRANCH  11  12
ENDBRANCH   6  11
ENDBRANCH   3   5
ENDBRANCH   2   3
ENDBRANCH   1   2
BRANCH   1  25
ATOM     25  C   UNL A   1      31.474  30.199  26.077  1.00  0.00     0.275 C 
BRANCH  25  26
ATOM     26  O   UNL A   1      32.884  30.493  26.123  1.00  0.00    -0.458 OA
BRANCH  26  27
ATOM     27  C   UNL A   1      33.252  31.458  26.995  1.00  0.00     0.338 C 
ATOM     28  O   UNL A   1      32.641  32.465  27.303  1.00  0.00    -0.246 OA
BRANCH  27  29
ATOM     29  C   UNL A   1      34.561  31.120  27.576  1.00  0.00     0.060 A 
ATOM     30  C   UNL A   1      34.841  29.793  27.893  1.00  0.00     0.016 A 
ATOM     31  C   UNL A   1      35.450  32.135  27.931  1.00  0.00     0.016 A 
ATOM     32  C   UNL A   1      35.997  29.475  28.607  1.00  0.00     0.010 A 
ATOM     33  C   UNL A   1      36.636  31.809  28.601  1.00  0.00     0.010 A 
ATOM     34  C   UNL A   1      36.907  30.479  28.973  1.00  0.00    -0.014 A 
BRANCH  34  35
ATOM     35  C   UNL A   1      38.107  30.142  29.791  1.00  0.00     0.031 A 
ATOM     36  C   UNL A   1      39.186  29.253  29.228  1.00  0.00     0.074 A 
ATOM     37  C   UNL A   1      38.251  30.647  31.030  1.00  0.00     0.049 A 
ATOM     38  N   UNL A   1      40.249  28.762  29.816  1.00  0.00    -0.248 NA
ATOM     39  C   UNL A   1      39.047  28.857  27.818  1.00  0.00     0.031 C 
ATOM     40  C   UNL A   1      37.304  31.544  31.692  1.00  0.00     0.029 A 
ATOM     41  N   UNL A   1      39.255  30.484  31.956  1.00  0.00    -0.354 N 
ATOM     42  C   UNL A   1      40.875  27.963  28.868  1.00  0.00     0.074 A 
ATOM     43  C   UNL A   1      40.072  28.030  27.666  1.00  0.00     0.031 C 
ATOM     44  C   UNL A   1      37.786  31.880  32.899  1.00  0.00     0.029 A 
ATOM     45  C   UNL A   1      39.042  31.170  33.126  1.00  0.00     0.049 A 
ATOM     46  H   UNL A   1      40.052  29.930  31.794  1.00  0.00     0.167 HD
ATOM     47  C   UNL A   1      42.015  27.239  28.990  1.00  0.00     0.037 A 
ATOM     48  C   UNL A   1      39.757  31.202  34.268  1.00  0.00     0.037 A 
ATOM     49  C   UNL A   1      42.842  27.205  30.169  1.00  0.00     0.049 A 
ATOM     50  C   UNL A   1      41.011  30.380  34.381  1.00  0.00     0.074 A 
ATOM     51  C   UNL A   1      44.030  26.521  30.372  1.00  0.00     0.029 A 
ATOM     52  N   UNL A   1      42.575  27.894  31.344  1.00  0.00    -0.354 N 
ATOM     53  N   UNL A   1      41.577  29.605  33.488  1.00  0.00    -0.248 NA
ATOM     54  C   UNL A   1      41.718  30.424  35.670  1.00  0.00     0.031 C 
ATOM     55  C   UNL A   1      44.463  26.769  31.679  1.00  0.00     0.029 A 
ATOM     56  C   UNL A   1      43.569  27.641  32.278  1.00  0.00     0.049 A 
ATOM     57  H   UNL A   1      41.795  28.476  31.492  1.00  0.00     0.167 HD
ATOM     58  C   UNL A   1      42.706  29.079  34.101  1.00  0.00     0.074 A 
ATOM     59  C   UNL A   1      42.760  29.639  35.435  1.00  0.00     0.031 C 
ATOM     60  C   UNL A   1      43.612  28.202  33.603  1.00  0.00     0.037 A 
BRANCH  47  61
ATOM     61  C   UNL A   1      42.427  26.392  27.820  1.00  0.00     0.064 A 
ATOM     62  C   UNL A   1      41.906  25.107  27.614  1.00  0.00     0.173 A 
ATOM     63  C   UNL A   1      43.330  26.895  26.870  1.00  0.00     0.173 A 
ATOM     64  F   UNL A   1      41.055  24.572  28.503  1.00  0.00    -0.203 F 
ATOM     65  C   UNL A   1      42.289  24.348  26.511  1.00  0.00     0.198 A 
ATOM     66  C   UNL A   1      43.690  26.145  25.754  1.00  0.00     0.198 A 
ATOM     67  F   UNL A   1      43.857  28.121  27.019  1.00  0.00    -0.203 F 
ATOM     68  F   UNL A   1      41.813  23.105  26.359  1.00  0.00    -0.200 F 
ATOM     69  C   UNL A   1      43.174  24.869  25.578  1.00  0.00     0.200 A 
ATOM     70  F   UNL A   1      44.538  26.654  24.850  1.00  0.00    -0.200 F 
ATOM     71  F   UNL A   1      43.536  24.140  24.514  1.00  0.00    -0.200 F 
ENDBRANCH  47  61
BRANCH  48  72
ATOM     72  C   UNL A   1      39.288  32.031  35.408  1.00  0.00     0.064 A 
ATOM     73  C   UNL A   1      39.650  33.381  35.515  1.00  0.00     0.173 A 
ATOM     74  C   UNL A   1      38.464  31.493  36.408  1.00  0.00     0.173 A 
ATOM     75  F   UNL A   1      40.460  33.930  34.599  1.00  0.00    -0.203 F 
ATOM     76  C   UNL A   1      39.210  34.160  36.583  1.00  0.00     0.198 A 
ATOM     77  C   UNL A   1      38.001  32.281  37.459  1.00  0.00     0.198 A 
ATOM     78  F   UNL A   1      38.093  30.205  36.352  1.00  0.00    -0.203 F 
ATOM     79  F   UNL A   1      39.600  35.438  36.682  1.00  0.00    -0.200 F 
ATOM     80  C   UNL A   1      38.379  33.612  37.549  1.00  0.00     0.200 A 
ATOM     81  F   UNL A   1      37.188  31.751  38.383  1.00  0.00    -0.200 F 
ATOM     82  F   UNL A   1      37.946  34.365  38.569  1.00  0.00    -0.200 F 
ENDBRANCH  48  72
BRANCH  60  83
ATOM     83  C   UNL A   1      44.751  27.813  34.497  1.00  0.00     0.064 A 
ATOM     84  C   UNL A   1      44.684  26.677  35.317  1.00  0.00     0.173 A 
ATOM     85  C   UNL A   1      45.934  28.568  34.513  1.00  0.00     0.173 A 
ATOM     86  F   UNL A   1      43.569  25.932  35.349  1.00  0.00    -0.203 F 
ATOM     87  C   UNL A   1      45.751  26.325  36.140  1.00  0.00     0.198 A 
ATOM     88  C   UNL A   1      47.008  28.199  35.319  1.00  0.00     0.198 A 
ATOM     89  F   UNL A   1      46.049  29.661  33.744  1.00  0.00    -0.203 F 
ATOM     90  F   UNL A   1      45.649  25.261  36.948  1.00  0.00    -0.200 F 
ATOM     91  C   UNL A   1      46.914  27.082  36.136  1.00  0.00     0.200 A 
ATOM     92  F   UNL A   1      48.133  28.927  35.308  1.00  0.00    -0.200 F 
ATOM     93  F   UNL A   1      47.940  26.741  36.926  1.00  0.00    -0.200 F 
ENDBRANCH  60  83
ENDBRANCH  34  35
ENDBRANCH  27  29
ENDBRANCH  26  27
ENDBRANCH  25  26
ENDBRANCH   1  25
TORSDOF 15
ENDMDL
MODEL 2
REMARK VINA RESULT:     -12.2      3.551      8.919
REMARK SMILES O=Cc1c(OCc2ccc(C(=O)OCCOC(=O)c3ccc(-c4c5nc(c(-c6c(F)c(F)c(F)c(F)c6F)c6ccc([nH]6)c(-c6c(F)c(F)c(F)c(F)c6F)c6nc(c(-c7c(F)c(F)c(F)c(F)c7F)c7ccc4[nH]7)C=C6)C=C5)cc3)cc2)ccc2ccccc12
REMARK SMILES IDX 14 1 13 2 11 3 12 4 10 5 7 6 8 7 83 8 9 9 82 10 6 11 5 12
REMARK SMILES IDX 4 13 3 14 91 15 84 16 86 17 90 18 85 19 87 20 89 21 88 22
REMARK SMILES IDX 2 23 1 24 15 25 16 26 17 27 18 28 19 29 20 30 81 31 21 32
REMARK SMILES IDX 80 33 22 34 23 35 24 36 74 37 25 38 79 39 73 40 75 41 26 42
REMARK SMILES IDX 78 43 72 44 71 45 27 47 59 48 39 49 58 50 40 51 43 52 57 53
REMARK SMILES IDX 76 54 41 55 42 56 56 58 77 59 44 60 28 61 29 62 37 63 30 64
REMARK SMILES IDX 31 65 35 66 38 67 32 68 33 69 36 70 34 71 60 72 61 73 69 74
REMARK SMILES IDX 62 75 63 76 67 77 70 78 64 79 65 80 68 81 66 82 45 83 46 84
REMARK SMILES IDX 54 85 47 86 48 87 52 88 55 89 49 90 50 91 53 92 51 93
REMARK H PARENT 75 46 43 57
REMARK Flexibility Score: inf
ROOT
ATOM      1  C   UNL A   1      34.093  34.940  28.174  1.00  0.00     0.275 C 
ENDROOT
BRANCH   1   2
ATOM      2  O   UNL A   1      33.899  33.515  28.284  1.00  0.00    -0.458 OA
BRANCH   2   3
ATOM      3  C   UNL A   1      34.982  32.758  27.984  1.00  0.00     0.338 C 
ATOM      4  O   UNL A   1      36.147  33.128  28.001  1.00  0.00    -0.246 OA
BRANCH   3   5
ATOM      5  C   UNL A   1      34.604  31.344  27.721  1.00  0.00     0.060 A 
ATOM      6  C   UNL A   1      33.768  28.743  27.036  1.00  0.00    -0.011 A 
ATOM      7  C   UNL A   1      32.851  29.801  27.054  1.00  0.00     0.008 A 
ATOM      8  C   UNL A   1      35.097  28.991  27.416  1.00  0.00     0.008 A 
ATOM      9  C   UNL A   1      33.265  31.088  27.394  1.00  0.00     0.016 A 
ATOM     10  C   UNL A   1      35.517  30.286  27.752  1.00  0.00     0.016 A 
BRANCH   6  11
ATOM     11  C   UNL A   1      33.322  27.359  26.613  1.00  0.00     0.265 C 
BRANCH  11  12
ATOM     12  O   UNL A   1      33.176  27.238  25.197  1.00  0.00    -0.488 OA
BRANCH  12  13
ATOM     13  C   UNL A   1      31.957  27.420  24.602  1.00  0.00     0.130 A 
ATOM     14  C   UNL A   1      31.853  28.465  23.662  1.00  0.00     0.064 A 
ATOM     15  C   UNL A   1      30.604  28.842  23.086  1.00  0.00    -0.004 A 
ATOM     16  C   UNL A   1      30.811  26.693  24.912  1.00  0.00     0.048 A 
ATOM     17  C   UNL A   1      29.452  28.113  23.471  1.00  0.00    -0.017 A 
ATOM     18  C   UNL A   1      30.424  29.887  22.143  1.00  0.00     0.009 A 
ATOM     19  C   UNL A   1      29.575  27.040  24.360  1.00  0.00     0.012 A 
ATOM     20  C   UNL A   1      28.190  28.455  22.956  1.00  0.00     0.009 A 
ATOM     21  C   UNL A   1      29.162  30.217  21.641  1.00  0.00     0.001 A 
ATOM     22  C   UNL A   1      28.044  29.506  22.054  1.00  0.00     0.001 A 
BRANCH  14  23
ATOM     23  C   UNL A   1      33.077  29.206  23.275  1.00  0.00     0.264 C 
ATOM     24  O   UNL A   1      33.861  28.809  22.422  1.00  0.00    -0.298 OA
ENDBRANCH  14  23
ENDBRANCH  12  13
ENDBRANCH  11  12
ENDBRANCH   6  11
ENDBRANCH   3   5
ENDBRANCH   2   3
ENDBRANCH   1   2
BRANCH   1  25
ATOM     25  C   UNL A   1      33.004  35.700  28.928  1.00  0.00     0.275 C 
BRANCH  25  26
ATOM     26  O   UNL A   1      32.562  34.944  30.071  1.00  0.00    -0.458 OA
BRANCH  26  27
ATOM     27  C   UNL A   1      32.810  35.505  31.276  1.00  0.00     0.338 C 
ATOM     28  O   UNL A   1      32.204  36.410  31.821  1.00  0.00    -0.246 OA
BRANCH  27  29
ATOM     29  C   UNL A   1      33.967  34.844  31.897  1.00  0.00     0.060 A 
ATOM     30  C   UNL A   1      35.232  35.410  31.752  1.00  0.00     0.016 A 
ATOM     31  C   UNL A   1      33.818  33.596  32.503  1.00  0.00     0.016 A 
ATOM     32  C   UNL A   1      36.363  34.710  32.174  1.00  0.00     0.010 A 
ATOM     33  C   UNL A   1      34.948  32.918  32.974  1.00  0.00     0.010 A 
ATOM     34  C   UNL A   1      36.236  33.455  32.787  1.00  0.00    -0.014 A 
BRANCH  34  35
ATOM     35  C   UNL A   1      37.450  32.684  33.178  1.00  0.00     0.031 A 
ATOM     36  C   UNL A   1      38.108  32.926  34.513  1.00  0.00     0.074 A 
ATOM     37  C   UNL A   1      37.959  31.748  32.355  1.00  0.00     0.049 A 
ATOM     38  N   UNL A   1      39.225  32.435  34.990  1.00  0.00    -0.248 NA
ATOM     39  C   UNL A   1      37.421  33.848  35.430  1.00  0.00     0.031 C 
ATOM     40  C   UNL A   1      37.411  31.386  31.048  1.00  0.00     0.029 A 
ATOM     41  N   UNL A   1      39.049  30.923  32.497  1.00  0.00    -0.354 N 
ATOM     42  C   UNL A   1      39.400  33.025  36.235  1.00  0.00     0.074 A 
ATOM     43  C   UNL A   1      38.276  33.913  36.440  1.00  0.00     0.031 C 
ATOM     44  C   UNL A   1      38.143  30.391  30.525  1.00  0.00     0.029 A 
ATOM     45  C   UNL A   1      39.253  30.090  31.425  1.00  0.00     0.049 A 
ATOM     46  H   UNL A   1      39.628  30.927  33.294  1.00  0.00     0.167 HD
ATOM     47  C   UNL A   1      40.406  32.842  37.125  1.00  0.00     0.037 A 
ATOM     48  C   UNL A   1      40.238  29.204  31.176  1.00  0.00     0.037 A 
ATOM     49  C   UNL A   1      41.502  31.925  36.945  1.00  0.00     0.049 A 
ATOM     50  C   UNL A   1      41.349  29.030  32.174  1.00  0.00     0.074 A 
ATOM     51  C   UNL A   1      42.552  31.654  37.808  1.00  0.00     0.029 A 
ATOM     52  N   UNL A   1      41.686  31.118  35.831  1.00  0.00    -0.354 N 
ATOM     53  N   UNL A   1      41.519  29.614  33.334  1.00  0.00    -0.248 NA
ATOM     54  C   UNL A   1      42.416  28.082  31.818  1.00  0.00     0.031 C 
ATOM     55  C   UNL A   1      43.389  30.709  37.201  1.00  0.00     0.029 A 
ATOM     56  C   UNL A   1      42.838  30.360  35.979  1.00  0.00     0.049 A 
ATOM     57  H   UNL A   1      41.087  31.090  35.050  1.00  0.00     0.167 HD
ATOM     58  C   UNL A   1      42.701  29.102  33.850  1.00  0.00     0.074 A 
ATOM     59  C   UNL A   1      43.197  28.141  32.888  1.00  0.00     0.031 C 
ATOM     60  C   UNL A   1      43.323  29.408  35.015  1.00  0.00     0.037 A 
BRANCH  47  61
ATOM     61  C   UNL A   1      40.388  33.676  38.374  1.00  0.00     0.064 A 
ATOM     62  C   UNL A   1      41.144  34.850  38.493  1.00  0.00     0.173 A 
ATOM     63  C   UNL A   1      39.568  33.311  39.453  1.00  0.00     0.173 A 
ATOM     64  F   UNL A   1      41.960  35.233  37.498  1.00  0.00    -0.203 F 
ATOM     65  C   UNL A   1      41.096  35.618  39.654  1.00  0.00     0.198 A 
ATOM     66  C   UNL A   1      39.501  34.095  40.602  1.00  0.00     0.198 A 
ATOM     67  F   UNL A   1      38.822  32.197  39.390  1.00  0.00    -0.203 F 
ATOM     68  F   UNL A   1      41.863  36.712  39.763  1.00  0.00    -0.200 F 
ATOM     69  C   UNL A   1      40.270  35.245  40.704  1.00  0.00     0.200 A 
ATOM     70  F   UNL A   1      38.695  33.737  41.611  1.00  0.00    -0.200 F 
ATOM     71  F   UNL A   1      40.220  35.989  41.817  1.00  0.00    -0.200 F 
ENDBRANCH  47  61
BRANCH  48  72
ATOM     72  C   UNL A   1      40.227  28.427  29.909  1.00  0.00     0.064 A 
ATOM     73  C   UNL A   1      39.549  27.204  29.821  1.00  0.00     0.173 A 
ATOM     74  C   UNL A   1      40.886  28.895  28.762  1.00  0.00     0.173 A 
ATOM     75  F   UNL A   1      38.930  26.702  30.899  1.00  0.00    -0.203 F 
ATOM     76  C   UNL A   1      39.537  26.474  28.634  1.00  0.00     0.198 A 
ATOM     77  C   UNL A   1      40.848  28.179  27.569  1.00  0.00     0.198 A 
ATOM     78  F   UNL A   1      41.551  30.059  28.798  1.00  0.00    -0.203 F 
ATOM     79  F   UNL A   1      38.914  25.289  28.585  1.00  0.00    -0.200 F 
ATOM     80  C   UNL A   1      40.179  26.967  27.507  1.00  0.00     0.200 A 
ATOM     81  F   UNL A   1      41.458  28.665  26.479  1.00  0.00    -0.200 F 
ATOM     82  F   UNL A   1      40.156  26.270  26.362  1.00  0.00    -0.200 F 
ENDBRANCH  48  72
BRANCH  60  83
ATOM     83  C   UNL A   1      44.597  28.679  35.322  1.00  0.00     0.064 A 
ATOM     84  C   UNL A   1      44.593  27.437  35.973  1.00  0.00     0.173 A 
ATOM     85  C   UNL A   1      45.836  29.215  34.936  1.00  0.00     0.173 A 
ATOM     86  F   UNL A   1      43.435  26.891  36.377  1.00  0.00    -0.203 F 
ATOM     87  C   UNL A   1      45.783  26.769  36.250  1.00  0.00     0.198 A 
ATOM     88  C   UNL A   1      47.022  28.533  35.192  1.00  0.00     0.198 A 
ATOM     89  F   UNL A   1      45.894  30.398  34.307  1.00  0.00    -0.203 F 
ATOM     90  F   UNL A   1      45.758  25.605  36.912  1.00  0.00    -0.200 F 
ATOM     91  C   UNL A   1      46.996  27.314  35.853  1.00  0.00     0.200 A 
ATOM     92  F   UNL A   1      48.193  29.056  34.802  1.00  0.00    -0.200 F 
ATOM     93  F   UNL A   1      48.140  26.669  36.118  1.00  0.00    -0.200 F 
ENDBRANCH  60  83
ENDBRANCH  34  35
ENDBRANCH  27  29
ENDBRANCH  26  27
ENDBRANCH  25  26
ENDBRANCH   1  25
TORSDOF 15
ENDMDL
MODEL 3
REMARK VINA RESULT:     -12.2      2.920      8.651
REMARK SMILES O=Cc1c(OCc2ccc(C(=O)OCCOC(=O)c3ccc(-c4c5nc(c(-c6c(F)c(F)c(F)c(F)c6F)c6ccc([nH]6)c(-c6c(F)c(F)c(F)c(F)c6F)c6nc(c(-c7c(F)c(F)c(F)c(F)c7F)c7ccc4[nH]7)C=C6)C=C5)cc3)cc2)ccc2ccccc12
REMARK SMILES IDX 14 1 13 2 11 3 12 4 10 5 7 6 8 7 83 8 9 9 82 10 6 11 5 12
REMARK SMILES IDX 4 13 3 14 91 15 84 16 86 17 90 18 85 19 87 20 89 21 88 22
REMARK SMILES IDX 2 23 1 24 15 25 16 26 17 27 18 28 19 29 20 30 81 31 21 32
REMARK SMILES IDX 80 33 22 34 23 35 24 36 74 37 25 38 79 39 73 40 75 41 26 42
REMARK SMILES IDX 78 43 72 44 71 45 27 47 59 48 39 49 58 50 40 51 43 52 57 53
REMARK SMILES IDX 76 54 41 55 42 56 56 58 77 59 44 60 28 61 29 62 37 63 30 64
REMARK SMILES IDX 31 65 35 66 38 67 32 68 33 69 36 70 34 71 60 72 61 73 69 74
REMARK SMILES IDX 62 75 63 76 67 77 70 78 64 79 65 80 68 81 66 82 45 83 46 84
REMARK SMILES IDX 54 85 47 86 48 87 52 88 55 89 49 90 50 91 53 92 51 93
REMARK H PARENT 75 46 43 57
REMARK Flexibility Score: inf
ROOT
ATOM      1  C   UNL A   1      33.523  32.135  27.533  1.00  0.00     0.275 C 
ENDROOT
BRANCH   1   2
ATOM      2  O   UNL A   1      32.959  30.836  27.261  1.00  0.00    -0.458 OA
BRANCH   2   3
ATOM      3  C   UNL A   1      33.839  29.805  27.291  1.00  0.00     0.338 C 
ATOM      4  O   UNL A   1      34.982  29.844  27.721  1.00  0.00    -0.246 OA
BRANCH   3   5
ATOM      5  C   UNL A   1      33.212  28.540  26.819  1.00  0.00     0.060 A 
ATOM      6  C   UNL A   1      31.850  26.276  25.846  1.00  0.00    -0.011 A 
ATOM      7  C   UNL A   1      31.168  27.251  26.583  1.00  0.00     0.008 A 
ATOM      8  C   UNL A   1      33.233  26.420  25.645  1.00  0.00     0.008 A 
ATOM      9  C   UNL A   1      31.844  28.371  27.066  1.00  0.00     0.016 A 
ATOM     10  C   UNL A   1      33.913  27.549  26.124  1.00  0.00     0.016 A 
BRANCH   6  11
ATOM     11  C   UNL A   1      31.099  25.089  25.278  1.00  0.00     0.265 C 
BRANCH  11  12
ATOM     12  O   UNL A   1      30.679  25.300  23.930  1.00  0.00    -0.488 OA
BRANCH  12  13
ATOM     13  C   UNL A   1      29.793  26.299  23.621  1.00  0.00     0.130 A 
ATOM     14  C   UNL A   1      30.296  27.398  22.896  1.00  0.00     0.064 A 
ATOM     15  C   UNL A   1      29.508  28.560  22.643  1.00  0.00    -0.004 A 
ATOM     16  C   UNL A   1      28.464  26.329  24.032  1.00  0.00     0.048 A 
ATOM     17  C   UNL A   1      28.177  28.574  23.127  1.00  0.00    -0.017 A 
ATOM     18  C   UNL A   1      29.950  29.704  21.931  1.00  0.00     0.009 A 
ATOM     19  C   UNL A   1      27.669  27.454  23.794  1.00  0.00     0.012 A 
ATOM     20  C   UNL A   1      27.361  29.701  22.930  1.00  0.00     0.009 A 
ATOM     21  C   UNL A   1      29.128  30.819  21.745  1.00  0.00     0.001 A 
ATOM     22  C   UNL A   1      27.836  30.820  22.251  1.00  0.00     0.001 A 
BRANCH  14  23
ATOM     23  C   UNL A   1      31.691  27.352  22.399  1.00  0.00     0.264 C 
ATOM     24  O   UNL A   1      32.569  28.112  22.788  1.00  0.00    -0.298 OA
ENDBRANCH  14  23
ENDBRANCH  12  13
ENDBRANCH  11  12
ENDBRANCH   6  11
ENDBRANCH   3   5
ENDBRANCH   2   3
ENDBRANCH   1   2
BRANCH   1  25
ATOM     25  C   UNL A   1      32.427  33.190  27.670  1.00  0.00     0.275 C 
BRANCH  25  26
ATOM     26  O   UNL A   1      32.991  34.513  27.593  1.00  0.00    -0.458 OA
BRANCH  26  27
ATOM     27  C   UNL A   1      33.126  35.162  28.771  1.00  0.00     0.338 C 
ATOM     28  O   UNL A   1      32.449  36.076  29.206  1.00  0.00    -0.246 OA
BRANCH  27  29
ATOM     29  C   UNL A   1      34.254  34.589  29.520  1.00  0.00     0.060 A 
ATOM     30  C   UNL A   1      35.525  34.603  28.949  1.00  0.00     0.016 A 
ATOM     31  C   UNL A   1      34.027  33.919  30.723  1.00  0.00     0.016 A 
ATOM     32  C   UNL A   1      36.571  33.908  29.558  1.00  0.00     0.010 A 
ATOM     33  C   UNL A   1      35.089  33.266  31.359  1.00  0.00     0.010 A 
ATOM     34  C   UNL A   1      36.366  33.228  30.768  1.00  0.00    -0.014 A 
BRANCH  34  35
ATOM     35  C   UNL A   1      37.469  32.435  31.380  1.00  0.00     0.031 A 
ATOM     36  C   UNL A   1      37.921  32.722  32.790  1.00  0.00     0.074 A 
ATOM     37  C   UNL A   1      38.058  31.440  30.691  1.00  0.00     0.049 A 
ATOM     38  N   UNL A   1      38.928  32.216  33.459  1.00  0.00    -0.248 NA
ATOM     39  C   UNL A   1      37.141  33.714  33.544  1.00  0.00     0.031 C 
ATOM     40  C   UNL A   1      37.705  31.030  29.332  1.00  0.00     0.029 A 
ATOM     41  N   UNL A   1      39.076  30.584  31.041  1.00  0.00    -0.354 N 
ATOM     42  C   UNL A   1      38.933  32.863  34.688  1.00  0.00     0.074 A 
ATOM     43  C   UNL A   1      37.831  33.801  34.672  1.00  0.00     0.031 C 
ATOM     44  C   UNL A   1      38.466  29.984  28.976  1.00  0.00     0.029 A 
ATOM     45  C   UNL A   1      39.408  29.689  30.053  1.00  0.00     0.049 A 
ATOM     46  H   UNL A   1      39.523  30.609  31.917  1.00  0.00     0.167 HD
ATOM     47  C   UNL A   1      39.779  32.690  35.733  1.00  0.00     0.037 A 
ATOM     48  C   UNL A   1      40.379  28.757  30.003  1.00  0.00     0.037 A 
ATOM     49  C   UNL A   1      40.848  31.725  35.770  1.00  0.00     0.049 A 
ATOM     50  C   UNL A   1      41.312  28.594  31.170  1.00  0.00     0.074 A 
ATOM     51  C   UNL A   1      41.738  31.461  36.799  1.00  0.00     0.029 A 
ATOM     52  N   UNL A   1      41.168  30.856  34.736  1.00  0.00    -0.354 N 
ATOM     53  N   UNL A   1      41.325  29.231  32.315  1.00  0.00    -0.248 NA
ATOM     54  C   UNL A   1      42.379  27.591  31.031  1.00  0.00     0.031 C 
ATOM     55  C   UNL A   1      42.616  30.456  36.375  1.00  0.00     0.029 A 
ATOM     56  C   UNL A   1      42.247  30.065  35.099  1.00  0.00     0.049 A 
ATOM     57  H   UNL A   1      40.697  30.808  33.873  1.00  0.00     0.167 HD
ATOM     58  C   UNL A   1      42.389  28.704  33.034  1.00  0.00     0.074 A 
ATOM     59  C   UNL A   1      42.986  27.676  32.207  1.00  0.00     0.031 C 
ATOM     60  C   UNL A   1      42.835  29.047  34.267  1.00  0.00     0.037 A 
BRANCH  47  61
ATOM     61  C   UNL A   1      39.603  33.587  36.924  1.00  0.00     0.064 A 
ATOM     62  C   UNL A   1      38.794  33.227  38.011  1.00  0.00     0.173 A 
ATOM     63  C   UNL A   1      40.290  34.809  36.993  1.00  0.00     0.173 A 
ATOM     64  F   UNL A   1      38.100  32.079  37.986  1.00  0.00    -0.203 F 
ATOM     65  C   UNL A   1      38.662  34.067  39.114  1.00  0.00     0.198 A 
ATOM     66  C   UNL A   1      40.178  35.634  38.109  1.00  0.00     0.198 A 
ATOM     67  F   UNL A   1      41.080  35.200  35.981  1.00  0.00    -0.203 F 
ATOM     68  F   UNL A   1      37.847  33.724  40.120  1.00  0.00    -0.200 F 
ATOM     69  C   UNL A   1      39.359  35.265  39.166  1.00  0.00     0.200 A 
ATOM     70  F   UNL A   1      40.860  36.787  38.160  1.00  0.00    -0.200 F 
ATOM     71  F   UNL A   1      39.236  36.069  40.231  1.00  0.00    -0.200 F 
ENDBRANCH  47  61
BRANCH  48  72
ATOM     72  C   UNL A   1      40.530  27.916  28.787  1.00  0.00     0.064 A 
ATOM     73  C   UNL A   1      39.864  26.689  28.672  1.00  0.00     0.173 A 
ATOM     74  C   UNL A   1      41.338  28.326  27.715  1.00  0.00     0.173 A 
ATOM     75  F   UNL A   1      39.105  26.242  29.682  1.00  0.00    -0.203 F 
ATOM     76  C   UNL A   1      40.004  25.900  27.532  1.00  0.00     0.198 A 
ATOM     77  C   UNL A   1      41.455  27.550  26.565  1.00  0.00     0.198 A 
ATOM     78  F   UNL A   1      42.000  29.491  27.780  1.00  0.00    -0.203 F 
ATOM     79  F   UNL A   1      39.387  24.713  27.461  1.00  0.00    -0.200 F 
ATOM     80  C   UNL A   1      40.792  26.335  26.476  1.00  0.00     0.200 A 
ATOM     81  F   UNL A   1      42.206  27.980  25.542  1.00  0.00    -0.200 F 
ATOM     82  F   UNL A   1      40.917  25.581  25.375  1.00  0.00    -0.200 F 
ENDBRANCH  48  72
BRANCH  60  83
ATOM     83  C   UNL A   1      44.012  28.289  34.804  1.00  0.00     0.064 A 
ATOM     84  C   UNL A   1      45.324  28.757  34.636  1.00  0.00     0.173 A 
ATOM     85  C   UNL A   1      43.825  27.096  35.520  1.00  0.00     0.173 A 
ATOM     86  F   UNL A   1      45.555  29.883  33.945  1.00  0.00    -0.203 F 
ATOM     87  C   UNL A   1      46.408  28.045  35.144  1.00  0.00     0.198 A 
ATOM     88  C   UNL A   1      44.910  26.401  36.048  1.00  0.00     0.198 A 
ATOM     89  F   UNL A   1      42.591  26.610  35.712  1.00  0.00    -0.203 F 
ATOM     90  F   UNL A   1      47.655  28.487  34.933  1.00  0.00    -0.200 F 
ATOM     91  C   UNL A   1      46.200  26.872  35.854  1.00  0.00     0.200 A 
ATOM     92  F   UNL A   1      44.707  25.272  36.741  1.00  0.00    -0.200 F 
ATOM     93  F   UNL A   1      47.244  26.190  36.343  1.00  0.00    -0.200 F 
ENDBRANCH  60  83
ENDBRANCH  34  35
ENDBRANCH  27  29
ENDBRANCH  26  27
ENDBRANCH  25  26
ENDBRANCH   1  25
TORSDOF 15
ENDMDL
