MODEL 1
REMARK VINA RESULT:     -11.0      0.000      0.000
REMARK SMILES CCNC(=O)c1ccc(N[C@@H]2COC[C@@]2(C)C(=O)OCCOC(=O)c2ccc(-c3c4nc(c(-c5c(F)c(F)c(F)c(F)c5F)c5ccc([nH]5)c(-c5c(F)c(F)c(F)c(F)c5F)c5nc(c(-c6c(F)c(F)c(F)c(F)c6F)c6ccc3[nH]6)C=C5)C=C4)cc2)nn1
REMARK SMILES IDX 20 1 19 2 17 3 18 4 15 5 11 6 12 7 13 8 14 9 16 10 10 11
REMARK SMILES IDX 9 13 6 14 7 15 89 16 8 17 88 18 4 19 3 20 5 22 2 23 1 24
REMARK SMILES IDX 21 25 22 26 23 27 24 28 25 29 26 30 87 31 27 32 86 33 28 34
REMARK SMILES IDX 29 35 30 36 80 37 31 38 85 39 79 40 81 41 32 42 84 43 78 44
REMARK SMILES IDX 77 45 33 47 65 48 45 49 64 50 46 51 49 52 63 53 82 54 47 55
REMARK SMILES IDX 48 56 62 58 83 59 50 60 34 61 35 62 43 63 36 64 37 65 41 66
REMARK SMILES IDX 44 67 38 68 39 69 42 70 40 71 66 72 67 73 75 74 68 75 69 76
REMARK SMILES IDX 73 77 76 78 70 79 71 80 74 81 72 82 51 83 52 84 60 85 53 86
REMARK SMILES IDX 54 87 58 88 61 89 55 90 56 91 59 92 57 93
REMARK H PARENT 10 12 3 21 81 46 49 57
REMARK Flexibility Score: inf
ROOT
ATOM      1  C   UNL A   1      34.597  34.282  29.265  1.00  0.00     0.274 C 
ENDROOT
BRANCH   1   2
ATOM      2  O   UNL A   1      33.562  34.356  30.269  1.00  0.00    -0.462 OA
BRANCH   2   3
ATOM      3  C   UNL A   1      32.919  35.549  30.406  1.00  0.00     0.316 C 
ATOM      4  O   UNL A   1      32.442  36.180  29.469  1.00  0.00    -0.251 OA
BRANCH   3   5
ATOM      5  C   UNL A   1      32.883  36.050  31.841  1.00  0.00     0.111 C 
ATOM      6  C   UNL A   1      34.063  35.620  32.713  1.00  0.00     0.126 C 
ATOM      7  C   UNL A   1      34.118  36.715  33.764  1.00  0.00     0.186 C 
ATOM      8  O   UNL A   1      33.764  37.926  33.062  1.00  0.00    -0.378 OA
ATOM      9  C   UNL A   1      33.137  37.563  31.814  1.00  0.00     0.181 C 
ATOM     10  C   UNL A   1      31.487  35.822  32.442  1.00  0.00     0.028 C 
BRANCH   6  11
ATOM     11  N   UNL A   1      34.122  34.228  33.152  1.00  0.00    -0.362 N 
ATOM     12  H   UNL A   1      33.259  33.793  33.336  1.00  0.00     0.162 HD
BRANCH  11  13
ATOM     13  C   UNL A   1      35.249  33.457  33.338  1.00  0.00     0.149 A 
ATOM     14  C   UNL A   1      37.328  31.710  33.687  1.00  0.00     0.150 A 
ATOM     15  C   UNL A   1      36.911  31.980  32.398  1.00  0.00     0.040 A 
ATOM     16  N   UNL A   1      36.780  32.316  34.755  1.00  0.00    -0.143 NA
ATOM     17  C   UNL A   1      35.859  32.877  32.228  1.00  0.00     0.051 A 
ATOM     18  N   UNL A   1      35.754  33.219  34.562  1.00  0.00    -0.132 NA
BRANCH  14  19
ATOM     19  C   UNL A   1      38.245  30.582  33.955  1.00  0.00     0.271 C 
ATOM     20  N   UNL A   1      39.570  30.811  34.244  1.00  0.00    -0.351 N 
ATOM     21  H   UNL A   1      40.163  30.029  34.179  1.00  0.00     0.163 HD
ATOM     22  O   UNL A   1      37.828  29.433  33.848  1.00  0.00    -0.267 OA
BRANCH  20  23
ATOM     23  C   UNL A   1      40.210  32.054  34.631  1.00  0.00     0.113 C 
ATOM     24  C   UNL A   1      40.433  32.099  36.132  1.00  0.00     0.027 C 
ENDBRANCH  20  23
ENDBRANCH  14  19
ENDBRANCH  11  13
ENDBRANCH   6  11
ENDBRANCH   3   5
ENDBRANCH   2   3
ENDBRANCH   1   2
BRANCH   1  25
ATOM     25  C   UNL A   1      34.337  33.106  28.327  1.00  0.00     0.275 C 
BRANCH  25  26
ATOM     26  O   UNL A   1      34.625  31.882  29.016  1.00  0.00    -0.458 OA
BRANCH  26  27
ATOM     27  C   UNL A   1      34.647  30.760  28.250  1.00  0.00     0.338 C 
ATOM     28  O   UNL A   1      33.765  30.342  27.502  1.00  0.00    -0.246 OA
BRANCH  27  29
ATOM     29  C   UNL A   1      35.972  30.135  28.343  1.00  0.00     0.060 A 
ATOM     30  C   UNL A   1      36.330  29.559  29.552  1.00  0.00     0.016 A 
ATOM     31  C   UNL A   1      36.897  30.258  27.314  1.00  0.00     0.016 A 
ATOM     32  C   UNL A   1      37.651  29.178  29.783  1.00  0.00     0.010 A 
ATOM     33  C   UNL A   1      38.206  29.789  27.512  1.00  0.00     0.010 A 
ATOM     34  C   UNL A   1      38.609  29.287  28.764  1.00  0.00    -0.014 A 
BRANCH  34  35
ATOM     35  C   UNL A   1      40.034  28.941  29.043  1.00  0.00     0.031 A 
ATOM     36  C   UNL A   1      40.884  29.846  29.897  1.00  0.00     0.074 A 
ATOM     37  C   UNL A   1      40.563  27.792  28.575  1.00  0.00     0.049 A 
ATOM     38  N   UNL A   1      42.165  29.774  30.170  1.00  0.00    -0.248 NA
ATOM     39  C   UNL A   1      40.213  31.008  30.502  1.00  0.00     0.031 C 
ATOM     40  C   UNL A   1      39.861  26.804  27.757  1.00  0.00     0.029 A 
ATOM     41  N   UNL A   1      41.816  27.253  28.743  1.00  0.00    -0.354 N 
ATOM     42  C   UNL A   1      42.451  30.884  30.952  1.00  0.00     0.074 A 
ATOM     43  C   UNL A   1      41.221  31.632  31.094  1.00  0.00     0.031 C 
ATOM     44  C   UNL A   1      40.671  25.755  27.543  1.00  0.00     0.029 A 
ATOM     45  C   UNL A   1      41.969  26.020  28.156  1.00  0.00     0.049 A 
ATOM     46  H   UNL A   1      42.537  27.706  29.238  1.00  0.00     0.167 HD
ATOM     47  C   UNL A   1      43.632  31.248  31.506  1.00  0.00     0.037 A 
ATOM     48  C   UNL A   1      43.036  25.200  28.105  1.00  0.00     0.037 A 
ATOM     49  C   UNL A   1      44.845  30.480  31.432  1.00  0.00     0.049 A 
ATOM     50  C   UNL A   1      44.330  25.621  28.745  1.00  0.00     0.074 A 
ATOM     51  C   UNL A   1      46.092  30.780  31.956  1.00  0.00     0.029 A 
ATOM     52  N   UNL A   1      44.956  29.243  30.818  1.00  0.00    -0.354 N 
ATOM     53  N   UNL A   1      44.605  26.711  29.417  1.00  0.00    -0.248 NA
ATOM     54  C   UNL A   1      45.470  24.703  28.598  1.00  0.00     0.031 C 
ATOM     55  C   UNL A   1      46.963  29.731  31.643  1.00  0.00     0.029 A 
ATOM     56  C   UNL A   1      46.252  28.769  30.946  1.00  0.00     0.049 A 
ATOM     57  H   UNL A   1      44.224  28.770  30.360  1.00  0.00     0.167 HD
ATOM     58  C   UNL A   1      45.944  26.613  29.768  1.00  0.00     0.074 A 
ATOM     59  C   UNL A   1      46.421  25.343  29.263  1.00  0.00     0.031 C 
ATOM     60  C   UNL A   1      46.714  27.507  30.434  1.00  0.00     0.037 A 
BRANCH  47  61
ATOM     61  C   UNL A   1      43.680  32.559  32.227  1.00  0.00     0.064 A 
ATOM     62  C   UNL A   1      43.817  33.774  31.542  1.00  0.00     0.173 A 
ATOM     63  C   UNL A   1      43.539  32.598  33.622  1.00  0.00     0.173 A 
ATOM     64  F   UNL A   1      43.981  33.786  30.209  1.00  0.00    -0.203 F 
ATOM     65  C   UNL A   1      43.817  34.983  32.232  1.00  0.00     0.198 A 
ATOM     66  C   UNL A   1      43.521  33.809  34.306  1.00  0.00     0.198 A 
ATOM     67  F   UNL A   1      43.409  31.458  34.320  1.00  0.00    -0.203 F 
ATOM     68  F   UNL A   1      43.980  36.133  31.563  1.00  0.00    -0.200 F 
ATOM     69  C   UNL A   1      43.662  35.000  33.612  1.00  0.00     0.200 A 
ATOM     70  F   UNL A   1      43.369  33.823  35.639  1.00  0.00    -0.200 F 
ATOM     71  F   UNL A   1      43.658  36.166  34.272  1.00  0.00    -0.200 F 
ENDBRANCH  47  61
BRANCH  48  72
ATOM     72  C   UNL A   1      42.937  23.898  27.400  1.00  0.00     0.064 A 
ATOM     73  C   UNL A   1      43.278  23.786  26.045  1.00  0.00     0.173 A 
ATOM     74  C   UNL A   1      42.483  22.747  28.058  1.00  0.00     0.173 A 
ATOM     75  F   UNL A   1      43.684  24.868  25.364  1.00  0.00    -0.203 F 
ATOM     76  C   UNL A   1      43.157  22.572  25.372  1.00  0.00     0.198 A 
ATOM     77  C   UNL A   1      42.386  21.528  27.390  1.00  0.00     0.198 A 
ATOM     78  F   UNL A   1      42.138  22.805  29.353  1.00  0.00    -0.203 F 
ATOM     79  F   UNL A   1      43.446  22.500  24.064  1.00  0.00    -0.200 F 
ATOM     80  C   UNL A   1      42.717  21.443  26.047  1.00  0.00     0.200 A 
ATOM     81  F   UNL A   1      41.966  20.439  28.049  1.00  0.00    -0.200 F 
ATOM     82  F   UNL A   1      42.599  20.276  25.399  1.00  0.00    -0.200 F 
ENDBRANCH  48  72
BRANCH  60  83
ATOM     83  C   UNL A   1      48.150  27.141  30.646  1.00  0.00     0.064 A 
ATOM     84  C   UNL A   1      49.136  27.522  29.725  1.00  0.00     0.173 A 
ATOM     85  C   UNL A   1      48.547  26.427  31.785  1.00  0.00     0.173 A 
ATOM     86  F   UNL A   1      48.800  28.194  28.614  1.00  0.00    -0.203 F 
ATOM     87  C   UNL A   1      50.470  27.180  29.926  1.00  0.00     0.198 A 
ATOM     88  C   UNL A   1      49.885  26.103  31.992  1.00  0.00     0.198 A 
ATOM     89  F   UNL A   1      47.640  26.047  32.696  1.00  0.00    -0.203 F 
ATOM     90  F   UNL A   1      51.393  27.521  29.015  1.00  0.00    -0.200 F 
ATOM     91  C   UNL A   1      50.844  26.474  31.060  1.00  0.00     0.200 A 
ATOM     92  F   UNL A   1      50.248  25.426  33.090  1.00  0.00    -0.200 F 
ATOM     93  F   UNL A   1      52.128  26.143  31.252  1.00  0.00    -0.200 F 
ENDBRANCH  60  83
ENDBRANCH  34  35
ENDBRANCH  27  29
ENDBRANCH  26  27
ENDBRANCH  25  26
ENDBRANCH   1  25
TORSDOF 15
ENDMDL
MODEL 2
REMARK VINA RESULT:     -11.0      5.125     10.361
REMARK SMILES CCNC(=O)c1ccc(N[C@@H]2COC[C@@]2(C)C(=O)OCCOC(=O)c2ccc(-c3c4nc(c(-c5c(F)c(F)c(F)c(F)c5F)c5ccc([nH]5)c(-c5c(F)c(F)c(F)c(F)c5F)c5nc(c(-c6c(F)c(F)c(F)c(F)c6F)c6ccc3[nH]6)C=C5)C=C4)cc2)nn1
REMARK SMILES IDX 20 1 19 2 17 3 18 4 15 5 11 6 12 7 13 8 14 9 16 10 10 11
REMARK SMILES IDX 9 13 6 14 7 15 89 16 8 17 88 18 4 19 3 20 5 22 2 23 1 24
REMARK SMILES IDX 21 25 22 26 23 27 24 28 25 29 26 30 87 31 27 32 86 33 28 34
REMARK SMILES IDX 29 35 30 36 80 37 31 38 85 39 79 40 81 41 32 42 84 43 78 44
REMARK SMILES IDX 77 45 33 47 65 48 45 49 64 50 46 51 49 52 63 53 82 54 47 55
REMARK SMILES IDX 48 56 62 58 83 59 50 60 34 61 35 62 43 63 36 64 37 65 41 66
REMARK SMILES IDX 44 67 38 68 39 69 42 70 40 71 66 72 67 73 75 74 68 75 69 76
REMARK SMILES IDX 73 77 76 78 70 79 71 80 74 81 72 82 51 83 52 84 60 85 53 86
REMARK SMILES IDX 54 87 58 88 61 89 55 90 56 91 59 92 57 93
REMARK H PARENT 10 12 3 21 81 46 49 57
REMARK Flexibility Score: inf
ROOT
ATOM      1  C   UNL A   1      31.271  29.670  24.437  1.00  0.00     0.274 C 
ENDROOT
BRANCH   1   2
ATOM      2  O   UNL A   1      32.155  28.528  24.437  1.00  0.00    -0.462 OA
BRANCH   2   3
ATOM      3  C   UNL A   1      31.582  27.303  24.279  1.00  0.00     0.316 C 
ATOM      4  O   UNL A   1      30.483  27.000  24.732  1.00  0.00    -0.251 OA
BRANCH   3   5
ATOM      5  C   UNL A   1      32.459  26.323  23.517  1.00  0.00     0.111 C 
ATOM      6  C   UNL A   1      31.734  25.473  22.472  1.00  0.00     0.126 C 
ATOM      7  C   UNL A   1      32.843  25.132  21.492  1.00  0.00     0.186 C 
ATOM      8  O   UNL A   1      33.674  26.312  21.441  1.00  0.00    -0.378 OA
ATOM      9  C   UNL A   1      33.366  27.136  22.584  1.00  0.00     0.181 C 
ATOM     10  C   UNL A   1      33.363  25.556  24.495  1.00  0.00     0.028 C 
BRANCH   6  11
ATOM     11  N   UNL A   1      30.865  24.399  22.943  1.00  0.00    -0.362 N 
ATOM     12  H   UNL A   1      29.896  24.559  22.872  1.00  0.00     0.162 HD
BRANCH  11  13
ATOM     13  C   UNL A   1      31.246  23.186  23.474  1.00  0.00     0.149 A 
ATOM     14  C   UNL A   1      32.225  20.897  24.614  1.00  0.00     0.150 A 
ATOM     15  C   UNL A   1      31.577  21.806  25.427  1.00  0.00     0.040 A 
ATOM     16  N   UNL A   1      32.338  21.082  23.286  1.00  0.00    -0.143 NA
ATOM     17  C   UNL A   1      31.073  22.964  24.838  1.00  0.00     0.051 A 
ATOM     18  N   UNL A   1      31.810  22.225  22.720  1.00  0.00    -0.132 NA
BRANCH  14  19
ATOM     19  C   UNL A   1      33.009  19.791  25.204  1.00  0.00     0.271 C 
ATOM     20  N   UNL A   1      34.378  19.877  25.297  1.00  0.00    -0.351 N 
ATOM     21  H   UNL A   1      34.847  19.030  25.476  1.00  0.00     0.163 HD
ATOM     22  O   UNL A   1      32.431  18.764  25.547  1.00  0.00    -0.267 OA
BRANCH  20  23
ATOM     23  C   UNL A   1      35.222  21.048  25.166  1.00  0.00     0.113 C 
ATOM     24  C   UNL A   1      35.244  21.843  26.459  1.00  0.00     0.027 C 
ENDBRANCH  20  23
ENDBRANCH  14  19
ENDBRANCH  11  13
ENDBRANCH   6  11
ENDBRANCH   3   5
ENDBRANCH   2   3
ENDBRANCH   1   2
BRANCH   1  25
ATOM     25  C   UNL A   1      31.403  30.436  25.751  1.00  0.00     0.275 C 
BRANCH  25  26
ATOM     26  O   UNL A   1      32.765  30.380  26.195  1.00  0.00    -0.458 OA
BRANCH  26  27
ATOM     27  C   UNL A   1      33.177  31.409  26.981  1.00  0.00     0.338 C 
ATOM     28  O   UNL A   1      32.539  32.407  27.309  1.00  0.00    -0.246 OA
BRANCH  27  29
ATOM     29  C   UNL A   1      34.512  31.107  27.514  1.00  0.00     0.060 A 
ATOM     30  C   UNL A   1      34.823  29.779  27.762  1.00  0.00     0.016 A 
ATOM     31  C   UNL A   1      35.374  32.124  27.907  1.00  0.00     0.016 A 
ATOM     32  C   UNL A   1      35.963  29.452  28.494  1.00  0.00     0.010 A 
ATOM     33  C   UNL A   1      36.570  31.790  28.563  1.00  0.00     0.010 A 
ATOM     34  C   UNL A   1      36.854  30.454  28.905  1.00  0.00    -0.014 A 
BRANCH  34  35
ATOM     35  C   UNL A   1      38.035  30.100  29.746  1.00  0.00     0.031 A 
ATOM     36  C   UNL A   1      39.149  29.258  29.180  1.00  0.00     0.074 A 
ATOM     37  C   UNL A   1      38.143  30.569  31.006  1.00  0.00     0.049 A 
ATOM     38  N   UNL A   1      40.205  28.760  29.777  1.00  0.00    -0.248 NA
ATOM     39  C   UNL A   1      39.050  28.899  27.756  1.00  0.00     0.031 C 
ATOM     40  C   UNL A   1      37.161  31.414  31.685  1.00  0.00     0.029 A 
ATOM     41  N   UNL A   1      39.146  30.417  31.933  1.00  0.00    -0.354 N 
ATOM     42  C   UNL A   1      40.875  28.018  28.814  1.00  0.00     0.074 A 
ATOM     43  C   UNL A   1      40.099  28.105  27.597  1.00  0.00     0.031 C 
ATOM     44  C   UNL A   1      37.634  31.753  32.896  1.00  0.00     0.029 A 
ATOM     45  C   UNL A   1      38.924  31.101  33.103  1.00  0.00     0.049 A 
ATOM     46  H   UNL A   1      39.948  29.869  31.775  1.00  0.00     0.167 HD
ATOM     47  C   UNL A   1      42.034  27.328  28.931  1.00  0.00     0.037 A 
ATOM     48  C   UNL A   1      39.667  31.186  34.223  1.00  0.00     0.037 A 
ATOM     49  C   UNL A   1      42.851  27.289  30.113  1.00  0.00     0.049 A 
ATOM     50  C   UNL A   1      40.958  30.424  34.320  1.00  0.00     0.074 A 
ATOM     51  C   UNL A   1      44.037  26.606  30.324  1.00  0.00     0.029 A 
ATOM     52  N   UNL A   1      42.582  27.989  31.279  1.00  0.00    -0.354 N 
ATOM     53  N   UNL A   1      41.540  29.664  33.425  1.00  0.00    -0.248 NA
ATOM     54  C   UNL A   1      41.687  30.515  35.594  1.00  0.00     0.031 C 
ATOM     55  C   UNL A   1      44.477  26.878  31.624  1.00  0.00     0.029 A 
ATOM     56  C   UNL A   1      43.577  27.749  32.213  1.00  0.00     0.049 A 
ATOM     57  H   UNL A   1      41.801  28.571  31.422  1.00  0.00     0.167 HD
ATOM     58  C   UNL A   1      42.695  29.185  34.027  1.00  0.00     0.074 A 
ATOM     59  C   UNL A   1      42.752  29.763  35.352  1.00  0.00     0.031 C 
ATOM     60  C   UNL A   1      43.617  28.327  33.529  1.00  0.00     0.037 A 
BRANCH  47  61
ATOM     61  C   UNL A   1      42.481  26.527  27.749  1.00  0.00     0.064 A 
ATOM     62  C   UNL A   1      43.383  27.040  26.807  1.00  0.00     0.173 A 
ATOM     63  C   UNL A   1      42.035  25.207  27.586  1.00  0.00     0.173 A 
ATOM     64  F   UNL A   1      43.819  28.307  26.907  1.00  0.00    -0.203 F 
ATOM     65  C   UNL A   1      43.816  26.260  25.739  1.00  0.00     0.198 A 
ATOM     66  C   UNL A   1      42.484  24.424  26.528  1.00  0.00     0.198 A 
ATOM     67  F   UNL A   1      41.168  24.674  28.462  1.00  0.00    -0.203 F 
ATOM     68  F   UNL A   1      44.655  26.779  24.831  1.00  0.00    -0.200 F 
ATOM     69  C   UNL A   1      43.373  24.951  25.604  1.00  0.00     0.200 A 
ATOM     70  F   UNL A   1      42.056  23.159  26.401  1.00  0.00    -0.200 F 
ATOM     71  F   UNL A   1      43.797  24.202  24.577  1.00  0.00    -0.200 F 
ENDBRANCH  47  61
BRANCH  48  72
ATOM     72  C   UNL A   1      39.196  32.012  35.364  1.00  0.00     0.064 A 
ATOM     73  C   UNL A   1      39.552  33.363  35.469  1.00  0.00     0.173 A 
ATOM     74  C   UNL A   1      38.399  31.464  36.378  1.00  0.00     0.173 A 
ATOM     75  F   UNL A   1      40.342  33.922  34.540  1.00  0.00    -0.203 F 
ATOM     76  C   UNL A   1      39.138  34.133  36.554  1.00  0.00     0.198 A 
ATOM     77  C   UNL A   1      37.965  32.241  37.450  1.00  0.00     0.198 A 
ATOM     78  F   UNL A   1      38.038  30.173  36.326  1.00  0.00    -0.203 F 
ATOM     79  F   UNL A   1      39.529  35.411  36.656  1.00  0.00    -0.200 F 
ATOM     80  C   UNL A   1      38.339  33.572  37.540  1.00  0.00     0.200 A 
ATOM     81  F   UNL A   1      37.189  31.696  38.397  1.00  0.00    -0.200 F 
ATOM     82  F   UNL A   1      37.942  34.313  38.584  1.00  0.00    -0.200 F 
ENDBRANCH  48  72
BRANCH  60  83
ATOM     83  C   UNL A   1      44.758  27.959  34.427  1.00  0.00     0.064 A 
ATOM     84  C   UNL A   1      45.938  28.715  34.441  1.00  0.00     0.173 A 
ATOM     85  C   UNL A   1      44.664  26.861  35.293  1.00  0.00     0.173 A 
ATOM     86  F   UNL A   1      46.078  29.766  33.619  1.00  0.00    -0.203 F 
ATOM     87  C   UNL A   1      46.996  28.370  35.278  1.00  0.00     0.198 A 
ATOM     88  C   UNL A   1      45.716  26.530  36.141  1.00  0.00     0.198 A 
ATOM     89  F   UNL A   1      43.551  26.112  35.318  1.00  0.00    -0.203 F 
ATOM     90  F   UNL A   1      48.131  29.084  35.250  1.00  0.00    -0.200 F 
ATOM     91  C   UNL A   1      46.883  27.281  36.128  1.00  0.00     0.200 A 
ATOM     92  F   UNL A   1      45.606  25.481  36.967  1.00  0.00    -0.200 F 
ATOM     93  F   UNL A   1      47.903  26.948  36.932  1.00  0.00    -0.200 F 
ENDBRANCH  60  83
ENDBRANCH  34  35
ENDBRANCH  27  29
ENDBRANCH  26  27
ENDBRANCH  25  26
ENDBRANCH   1  25
TORSDOF 15
ENDMDL
MODEL 3
REMARK VINA RESULT:     -11.0      5.008      7.912
REMARK SMILES CCNC(=O)c1ccc(N[C@@H]2COC[C@@]2(C)C(=O)OCCOC(=O)c2ccc(-c3c4nc(c(-c5c(F)c(F)c(F)c(F)c5F)c5ccc([nH]5)c(-c5c(F)c(F)c(F)c(F)c5F)c5nc(c(-c6c(F)c(F)c(F)c(F)c6F)c6ccc3[nH]6)C=C5)C=C4)cc2)nn1
REMARK SMILES IDX 20 1 19 2 17 3 18 4 15 5 11 6 12 7 13 8 14 9 16 10 10 11
REMARK SMILES IDX 9 13 6 14 7 15 89 16 8 17 88 18 4 19 3 20 5 22 2 23 1 24
REMARK SMILES IDX 21 25 22 26 23 27 24 28 25 29 26 30 87 31 27 32 86 33 28 34
REMARK SMILES IDX 29 35 30 36 80 37 31 38 85 39 79 40 81 41 32 42 84 43 78 44
REMARK SMILES IDX 77 45 33 47 65 48 45 49 64 50 46 51 49 52 63 53 82 54 47 55
REMARK SMILES IDX 48 56 62 58 83 59 50 60 34 61 35 62 43 63 36 64 37 65 41 66
REMARK SMILES IDX 44 67 38 68 39 69 42 70 40 71 66 72 67 73 75 74 68 75 69 76
REMARK SMILES IDX 73 77 76 78 70 79 71 80 74 81 72 82 51 83 52 84 60 85 53 86
REMARK SMILES IDX 54 87 58 88 61 89 55 90 56 91 59 92 57 93
REMARK H PARENT 10 12 3 21 81 46 49 57
REMARK Flexibility Score: inf
ROOT
ATOM      1  C   UNL A   1      32.787  29.421  24.947  1.00  0.00     0.274 C 
ENDROOT
BRANCH   1   2
ATOM      2  O   UNL A   1      32.057  28.815  23.859  1.00  0.00    -0.462 OA
BRANCH   2   3
ATOM      3  C   UNL A   1      31.617  27.539  24.045  1.00  0.00     0.316 C 
ATOM      4  O   UNL A   1      30.648  27.246  24.737  1.00  0.00    -0.251 OA
BRANCH   3   5
ATOM      5  C   UNL A   1      32.474  26.500  23.341  1.00  0.00     0.111 C 
ATOM      6  C   UNL A   1      31.725  25.584  22.372  1.00  0.00     0.126 C 
ATOM      7  C   UNL A   1      32.815  25.164  21.401  1.00  0.00     0.186 C 
ATOM      8  O   UNL A   1      33.653  26.330  21.251  1.00  0.00    -0.378 OA
ATOM      9  C   UNL A   1      33.370  27.236  22.337  1.00  0.00     0.181 C 
ATOM     10  C   UNL A   1      33.389  25.797  24.357  1.00  0.00     0.028 C 
BRANCH   6  11
ATOM     11  N   UNL A   1      30.856  24.553  22.932  1.00  0.00    -0.362 N 
ATOM     12  H   UNL A   1      29.889  24.732  22.895  1.00  0.00     0.162 HD
BRANCH  11  13
ATOM     13  C   UNL A   1      31.235  23.360  23.507  1.00  0.00     0.149 A 
ATOM     14  C   UNL A   1      32.208  21.114  24.736  1.00  0.00     0.150 A 
ATOM     15  C   UNL A   1      31.530  22.039  25.506  1.00  0.00     0.040 A 
ATOM     16  N   UNL A   1      32.354  21.264  23.407  1.00  0.00    -0.143 NA
ATOM     17  C   UNL A   1      31.030  23.174  24.872  1.00  0.00     0.051 A 
ATOM     18  N   UNL A   1      31.829  22.385  22.795  1.00  0.00    -0.132 NA
BRANCH  14  19
ATOM     19  C   UNL A   1      32.988  20.035  25.376  1.00  0.00     0.271 C 
ATOM     20  N   UNL A   1      34.296  20.240  25.744  1.00  0.00    -0.351 N 
ATOM     21  H   UNL A   1      34.817  19.429  25.942  1.00  0.00     0.163 HD
ATOM     22  O   UNL A   1      32.476  18.927  25.514  1.00  0.00    -0.267 OA
BRANCH  20  23
ATOM     23  C   UNL A   1      35.012  21.494  25.878  1.00  0.00     0.113 C 
ATOM     24  C   UNL A   1      35.823  21.786  24.628  1.00  0.00     0.027 C 
ENDBRANCH  20  23
ENDBRANCH  14  19
ENDBRANCH  11  13
ENDBRANCH   6  11
ENDBRANCH   3   5
ENDBRANCH   2   3
ENDBRANCH   1   2
BRANCH   1  25
ATOM     25  C   UNL A   1      31.868  30.338  25.751  1.00  0.00     0.275 C 
BRANCH  25  26
ATOM     26  O   UNL A   1      32.396  30.491  27.075  1.00  0.00    -0.458 OA
BRANCH  26  27
ATOM     27  C   UNL A   1      33.142  31.606  27.292  1.00  0.00     0.338 C 
ATOM     28  O   UNL A   1      32.773  32.778  27.252  1.00  0.00    -0.246 OA
BRANCH  27  29
ATOM     29  C   UNL A   1      34.491  31.212  27.717  1.00  0.00     0.060 A 
ATOM     30  C   UNL A   1      34.718  29.870  27.981  1.00  0.00     0.016 A 
ATOM     31  C   UNL A   1      35.461  32.165  28.001  1.00  0.00     0.016 A 
ATOM     32  C   UNL A   1      35.890  29.471  28.622  1.00  0.00     0.010 A 
ATOM     33  C   UNL A   1      36.681  31.753  28.562  1.00  0.00     0.010 A 
ATOM     34  C   UNL A   1      36.889  30.407  28.921  1.00  0.00    -0.014 A 
BRANCH  34  35
ATOM     35  C   UNL A   1      38.109  29.981  29.668  1.00  0.00     0.031 A 
ATOM     36  C   UNL A   1      38.327  30.433  31.090  1.00  0.00     0.074 A 
ATOM     37  C   UNL A   1      39.005  29.149  29.099  1.00  0.00     0.049 A 
ATOM     38  N   UNL A   1      39.365  30.255  31.871  1.00  0.00    -0.248 NA
ATOM     39  C   UNL A   1      37.246  31.216  31.709  1.00  0.00     0.031 C 
ATOM     40  C   UNL A   1      38.920  28.608  27.744  1.00  0.00     0.029 A 
ATOM     41  N   UNL A   1      40.156  28.595  29.605  1.00  0.00    -0.354 N 
ATOM     42  C   UNL A   1      39.071  30.920  33.053  1.00  0.00     0.074 A 
ATOM     43  C   UNL A   1      37.770  31.528  32.886  1.00  0.00     0.031 C 
ATOM     44  C   UNL A   1      39.940  27.757  27.545  1.00  0.00     0.029 A 
ATOM     45  C   UNL A   1      40.784  27.738  28.736  1.00  0.00     0.049 A 
ATOM     46  H   UNL A   1      40.499  28.793  30.507  1.00  0.00     0.167 HD
ATOM     47  C   UNL A   1      39.817  31.014  34.180  1.00  0.00     0.037 A 
ATOM     48  C   UNL A   1      41.918  27.024  28.873  1.00  0.00     0.037 A 
ATOM     49  C   UNL A   1      41.080  30.358  34.387  1.00  0.00     0.049 A 
ATOM     50  C   UNL A   1      42.716  27.133  30.142  1.00  0.00     0.074 A 
ATOM     51  C   UNL A   1      41.909  30.407  35.495  1.00  0.00     0.029 A 
ATOM     52  N   UNL A   1      41.682  29.508  33.474  1.00  0.00    -0.354 N 
ATOM     53  N   UNL A   1      42.463  27.828  31.224  1.00  0.00    -0.248 NA
ATOM     54  C   UNL A   1      43.975  26.373  30.199  1.00  0.00     0.031 C 
ATOM     55  C   UNL A   1      43.024  29.600  35.245  1.00  0.00     0.029 A 
ATOM     56  C   UNL A   1      42.875  29.031  33.992  1.00  0.00     0.049 A 
ATOM     57  H   UNL A   1      41.317  29.276  32.590  1.00  0.00     0.167 HD
ATOM     58  C   UNL A   1      43.525  27.593  32.084  1.00  0.00     0.074 A 
ATOM     59  C   UNL A   1      44.414  26.667  31.415  1.00  0.00     0.031 C 
ATOM     60  C   UNL A   1      43.752  28.115  33.313  1.00  0.00     0.037 A 
BRANCH  47  61
ATOM     61  C   UNL A   1      39.296  31.886  35.280  1.00  0.00     0.064 A 
ATOM     62  C   UNL A   1      38.516  31.370  36.324  1.00  0.00     0.173 A 
ATOM     63  C   UNL A   1      39.627  33.248  35.311  1.00  0.00     0.173 A 
ATOM     64  F   UNL A   1      38.153  30.078  36.325  1.00  0.00    -0.203 F 
ATOM     65  C   UNL A   1      38.079  32.194  37.358  1.00  0.00     0.198 A 
ATOM     66  C   UNL A   1      39.204  34.064  36.355  1.00  0.00     0.198 A 
ATOM     67  F   UNL A   1      40.370  33.786  34.330  1.00  0.00    -0.203 F 
ATOM     68  F   UNL A   1      37.308  31.690  38.332  1.00  0.00    -0.200 F 
ATOM     69  C   UNL A   1      38.430  33.538  37.377  1.00  0.00     0.200 A 
ATOM     70  F   UNL A   1      39.545  35.361  36.373  1.00  0.00    -0.200 F 
ATOM     71  F   UNL A   1      38.011  34.326  38.377  1.00  0.00    -0.200 F 
ENDBRANCH  47  61
BRANCH  48  72
ATOM     72  C   UNL A   1      42.385  26.153  27.765  1.00  0.00     0.064 A 
ATOM     73  C   UNL A   1      43.376  26.590  26.876  1.00  0.00     0.173 A 
ATOM     74  C   UNL A   1      41.840  24.879  27.562  1.00  0.00     0.173 A 
ATOM     75  F   UNL A   1      43.903  27.817  27.010  1.00  0.00    -0.203 F 
ATOM     76  C   UNL A   1      43.795  25.788  25.817  1.00  0.00     0.198 A 
ATOM     77  C   UNL A   1      42.277  24.068  26.518  1.00  0.00     0.198 A 
ATOM     78  F   UNL A   1      40.883  24.419  28.383  1.00  0.00    -0.203 F 
ATOM     79  F   UNL A   1      44.712  26.247  24.952  1.00  0.00    -0.200 F 
ATOM     80  C   UNL A   1      43.249  24.525  25.643  1.00  0.00     0.200 A 
ATOM     81  F   UNL A   1      41.750  22.846  26.357  1.00  0.00    -0.200 F 
ATOM     82  F   UNL A   1      43.652  23.754  24.623  1.00  0.00    -0.200 F 
ENDBRANCH  48  72
BRANCH  60  83
ATOM     83  C   UNL A   1      45.013  27.699  34.005  1.00  0.00     0.064 A 
ATOM     84  C   UNL A   1      46.199  28.430  33.847  1.00  0.00     0.173 A 
ATOM     85  C   UNL A   1      45.033  26.580  34.848  1.00  0.00     0.173 A 
ATOM     86  F   UNL A   1      46.230  29.500  33.038  1.00  0.00    -0.203 F 
ATOM     87  C   UNL A   1      47.369  28.040  34.492  1.00  0.00     0.198 A 
ATOM     88  C   UNL A   1      46.200  26.204  35.507  1.00  0.00     0.198 A 
ATOM     89  F   UNL A   1      43.921  25.854  35.035  1.00  0.00    -0.203 F 
ATOM     90  F   UNL A   1      48.502  28.731  34.298  1.00  0.00    -0.200 F 
ATOM     91  C   UNL A   1      47.368  26.930  35.323  1.00  0.00     0.200 A 
ATOM     92  F   UNL A   1      46.198  25.135  36.315  1.00  0.00    -0.200 F 
ATOM     93  F   UNL A   1      48.495  26.555  35.943  1.00  0.00    -0.200 F 
ENDBRANCH  60  83
ENDBRANCH  34  35
ENDBRANCH  27  29
ENDBRANCH  26  27
ENDBRANCH  25  26
ENDBRANCH   1  25
TORSDOF 15
ENDMDL
