MODEL 1
REMARK VINA RESULT:     -13.6      0.000      0.000
REMARK SMILES Cc1c(/C=C/C(=O)OCCOC(=O)c2ccc(-c3c4nc(c(-c5c(F)c(F)c(F)c(F)c5F)c5ccc([nH]5)c(-c5c(F)c(F)c(F)c(F)c5F)c5nc(c(-c6c(F)c(F)c(F)c(F)c6F)c6ccc3[nH]6)C=C5)C=C4)cc2)cccc1C(=O)N1C[C@@H](C)[C@@H](C)C1
REMARK SMILES IDX 9 1 8 2 6 3 7 4 5 5 4 6 3 7 1 8 2 9 80 10 77 11 79 12 78 13
REMARK SMILES IDX 81 14 82 15 83 16 84 17 89 18 85 19 87 20 86 21 88 22 10 23
REMARK SMILES IDX 11 24 12 25 13 26 14 27 15 28 76 29 16 30 75 31 17 32 18 33
REMARK SMILES IDX 19 34 69 35 20 36 74 37 68 38 70 39 21 40 73 41 67 42 66 43
REMARK SMILES IDX 22 45 54 46 34 47 53 48 35 49 38 50 52 51 71 52 36 53 37 54
REMARK SMILES IDX 51 56 72 57 39 58 23 59 24 60 32 61 25 62 26 63 30 64 33 65
REMARK SMILES IDX 27 66 28 67 31 68 29 69 55 70 56 71 64 72 57 73 58 74 62 75
REMARK SMILES IDX 65 76 59 77 60 78 63 79 61 80 40 81 41 82 49 83 42 84 43 85
REMARK SMILES IDX 47 86 50 87 44 88 45 89 48 90 46 91
REMARK H PARENT 70 44 38 55
REMARK Flexibility Score: inf
ROOT
ATOM      1  C   UNL A   1      32.306  29.652  27.147  1.00  0.00     0.275 C 
ENDROOT
BRANCH   1   2
ATOM      2  O   UNL A   1      32.576  28.490  26.365  1.00  0.00    -0.459 OA
BRANCH   2   3
ATOM      3  C   UNL A   1      31.814  27.422  26.689  1.00  0.00     0.330 C 
ATOM      4  O   UNL A   1      31.026  27.350  27.620  1.00  0.00    -0.247 OA
BRANCH   3   5
ATOM      5  C   UNL A   1      32.072  26.342  25.723  1.00  0.00     0.094 C 
ATOM      6  C   UNL A   1      32.870  25.349  26.138  1.00  0.00     0.016 C 
BRANCH   6   7
ATOM      7  C   UNL A   1      33.623  24.507  25.211  1.00  0.00    -0.022 A 
ATOM      8  C   UNL A   1      34.052  23.003  27.177  1.00  0.00     0.046 C 
ATOM      9  C   UNL A   1      34.100  23.259  25.690  1.00  0.00    -0.031 A 
ATOM     10  C   UNL A   1      34.610  22.331  24.760  1.00  0.00     0.043 A 
ATOM     11  C   UNL A   1      33.800  24.890  23.881  1.00  0.00     0.008 A 
ATOM     12  C   UNL A   1      34.768  22.729  23.417  1.00  0.00     0.014 A 
ATOM     13  C   UNL A   1      34.395  24.005  22.987  1.00  0.00     0.001 A 
BRANCH  10  14
ATOM     14  C   UNL A   1      35.176  20.995  25.121  1.00  0.00     0.254 C 
ATOM     15  O   UNL A   1      36.290  20.958  25.644  1.00  0.00    -0.269 OA
BRANCH  14  16
ATOM     16  N   UNL A   1      34.404  19.856  24.986  1.00  0.00    -0.338 N 
ATOM     17  C   UNL A   1      34.931  18.727  24.254  1.00  0.00     0.123 C 
ATOM     18  C   UNL A   1      32.969  19.743  25.206  1.00  0.00     0.123 C 
ATOM     19  C   UNL A   1      33.725  17.886  23.854  1.00  0.00     0.010 C 
ATOM     20  C   UNL A   1      32.623  18.283  24.862  1.00  0.00     0.010 C 
ATOM     21  C   UNL A   1      34.086  16.409  23.778  1.00  0.00     0.010 C 
ATOM     22  C   UNL A   1      32.527  17.397  26.104  1.00  0.00     0.010 C 
ENDBRANCH  14  16
ENDBRANCH  10  14
ENDBRANCH   6   7
ENDBRANCH   3   5
ENDBRANCH   2   3
ENDBRANCH   1   2
BRANCH   1  23
ATOM     23  C   UNL A   1      33.511  30.598  27.131  1.00  0.00     0.275 C 
BRANCH  23  24
ATOM     24  O   UNL A   1      34.793  30.116  27.656  1.00  0.00    -0.458 OA
BRANCH  24  25
ATOM     25  C   UNL A   1      35.967  30.763  27.878  1.00  0.00     0.338 C 
ATOM     26  O   UNL A   1      36.059  31.982  27.784  1.00  0.00    -0.246 OA
BRANCH  25  27
ATOM     27  C   UNL A   1      37.151  29.967  28.249  1.00  0.00     0.060 A 
ATOM     28  C   UNL A   1      37.146  29.148  29.398  1.00  0.00     0.016 A 
ATOM     29  C   UNL A   1      38.237  29.963  27.396  1.00  0.00     0.016 A 
ATOM     30  C   UNL A   1      38.189  28.244  29.616  1.00  0.00     0.010 A 
ATOM     31  C   UNL A   1      39.129  28.932  27.484  1.00  0.00     0.010 A 
ATOM     32  C   UNL A   1      39.163  28.123  28.629  1.00  0.00    -0.014 A 
BRANCH  32  33
ATOM     33  C   UNL A   1      40.408  27.379  28.746  1.00  0.00     0.031 A 
ATOM     34  C   UNL A   1      40.547  25.955  28.423  1.00  0.00     0.074 A 
ATOM     35  C   UNL A   1      41.467  28.180  29.007  1.00  0.00     0.049 A 
ATOM     36  N   UNL A   1      41.472  25.209  28.919  1.00  0.00    -0.248 NA
ATOM     37  C   UNL A   1      39.666  25.238  27.506  1.00  0.00     0.031 C 
ATOM     38  C   UNL A   1      42.894  27.959  28.878  1.00  0.00     0.029 A 
ATOM     39  N   UNL A   1      41.379  29.469  29.566  1.00  0.00    -0.354 N 
ATOM     40  C   UNL A   1      41.522  24.066  28.150  1.00  0.00     0.074 A 
ATOM     41  C   UNL A   1      40.293  24.058  27.393  1.00  0.00     0.031 C 
ATOM     42  C   UNL A   1      43.530  28.896  29.613  1.00  0.00     0.029 A 
ATOM     43  C   UNL A   1      42.514  29.624  30.364  1.00  0.00     0.049 A 
ATOM     44  H   UNL A   1      40.662  30.128  29.422  1.00  0.00     0.167 HD
ATOM     45  C   UNL A   1      42.693  23.368  28.075  1.00  0.00     0.037 A 
ATOM     46  C   UNL A   1      42.323  29.616  31.718  1.00  0.00     0.037 A 
ATOM     47  C   UNL A   1      43.738  24.039  28.844  1.00  0.00     0.049 A 
ATOM     48  C   UNL A   1      42.975  28.421  32.376  1.00  0.00     0.074 A 
ATOM     49  C   UNL A   1      44.755  24.912  28.494  1.00  0.00     0.029 A 
ATOM     50  N   UNL A   1      43.593  24.158  30.213  1.00  0.00    -0.354 N 
ATOM     51  N   UNL A   1      43.383  27.368  31.726  1.00  0.00    -0.248 NA
ATOM     52  C   UNL A   1      43.151  28.290  33.817  1.00  0.00     0.031 C 
ATOM     53  C   UNL A   1      45.231  25.542  29.678  1.00  0.00     0.029 A 
ATOM     54  C   UNL A   1      44.500  25.051  30.744  1.00  0.00     0.049 A 
ATOM     55  H   UNL A   1      42.925  23.666  30.744  1.00  0.00     0.167 HD
ATOM     56  C   UNL A   1      43.908  26.461  32.598  1.00  0.00     0.074 A 
ATOM     57  C   UNL A   1      43.690  27.061  33.904  1.00  0.00     0.031 C 
ATOM     58  C   UNL A   1      44.482  25.297  32.175  1.00  0.00     0.037 A 
BRANCH  45  59
ATOM     59  C   UNL A   1      42.974  22.271  27.076  1.00  0.00     0.064 A 
ATOM     60  C   UNL A   1      42.274  21.045  27.132  1.00  0.00     0.173 A 
ATOM     61  C   UNL A   1      43.917  22.369  26.035  1.00  0.00     0.173 A 
ATOM     62  F   UNL A   1      41.293  20.834  28.017  1.00  0.00    -0.203 F 
ATOM     63  C   UNL A   1      42.556  19.976  26.280  1.00  0.00     0.198 A 
ATOM     64  C   UNL A   1      44.222  21.284  25.201  1.00  0.00     0.198 A 
ATOM     65  F   UNL A   1      44.545  23.525  25.778  1.00  0.00    -0.203 F 
ATOM     66  F   UNL A   1      41.863  18.834  26.397  1.00  0.00    -0.200 F 
ATOM     67  C   UNL A   1      43.547  20.086  25.329  1.00  0.00     0.200 A 
ATOM     68  F   UNL A   1      45.177  21.409  24.267  1.00  0.00    -0.200 F 
ATOM     69  F   UNL A   1      43.838  19.049  24.532  1.00  0.00    -0.200 F 
ENDBRANCH  45  59
BRANCH  46  70
ATOM     70  C   UNL A   1      40.991  30.195  32.123  1.00  0.00     0.064 A 
ATOM     71  C   UNL A   1      39.928  29.313  32.429  1.00  0.00     0.173 A 
ATOM     72  C   UNL A   1      40.860  31.518  32.567  1.00  0.00     0.173 A 
ATOM     73  F   UNL A   1      39.991  28.026  32.047  1.00  0.00    -0.203 F 
ATOM     74  C   UNL A   1      38.863  29.702  33.242  1.00  0.00     0.198 A 
ATOM     75  C   UNL A   1      39.773  31.912  33.355  1.00  0.00     0.198 A 
ATOM     76  F   UNL A   1      41.821  32.419  32.318  1.00  0.00    -0.203 F 
ATOM     77  F   UNL A   1      37.950  28.798  33.628  1.00  0.00    -0.200 F 
ATOM     78  C   UNL A   1      38.797  30.998  33.720  1.00  0.00     0.200 A 
ATOM     79  F   UNL A   1      39.715  33.165  33.830  1.00  0.00    -0.200 F 
ATOM     80  F   UNL A   1      37.817  31.356  34.562  1.00  0.00    -0.200 F 
ENDBRANCH  46  70
BRANCH  58  81
ATOM     81  C   UNL A   1      45.088  24.275  33.091  1.00  0.00     0.064 A 
ATOM     82  C   UNL A   1      44.377  23.160  33.552  1.00  0.00     0.173 A 
ATOM     83  C   UNL A   1      46.390  24.438  33.616  1.00  0.00     0.173 A 
ATOM     84  F   UNL A   1      43.087  22.982  33.233  1.00  0.00    -0.203 F 
ATOM     85  C   UNL A   1      44.969  22.211  34.386  1.00  0.00     0.198 A 
ATOM     86  C   UNL A   1      46.955  23.524  34.499  1.00  0.00     0.198 A 
ATOM     87  F   UNL A   1      47.170  25.475  33.280  1.00  0.00    -0.203 F 
ATOM     88  F   UNL A   1      44.280  21.115  34.734  1.00  0.00    -0.200 F 
ATOM     89  C   UNL A   1      46.256  22.393  34.858  1.00  0.00     0.200 A 
ATOM     90  F   UNL A   1      48.184  23.746  34.984  1.00  0.00    -0.200 F 
ATOM     91  F   UNL A   1      46.820  21.484  35.664  1.00  0.00    -0.200 F 
ENDBRANCH  58  81
ENDBRANCH  32  33
ENDBRANCH  25  27
ENDBRANCH  24  25
ENDBRANCH  23  24
ENDBRANCH   1  23
TORSDOF 14
ENDMDL
MODEL 2
REMARK VINA RESULT:     -13.5      1.564      2.061
REMARK SMILES Cc1c(/C=C/C(=O)OCCOC(=O)c2ccc(-c3c4nc(c(-c5c(F)c(F)c(F)c(F)c5F)c5ccc([nH]5)c(-c5c(F)c(F)c(F)c(F)c5F)c5nc(c(-c6c(F)c(F)c(F)c(F)c6F)c6ccc3[nH]6)C=C5)C=C4)cc2)cccc1C(=O)N1C[C@@H](C)[C@@H](C)C1
REMARK SMILES IDX 9 1 8 2 6 3 7 4 5 5 4 6 3 7 1 8 2 9 80 10 77 11 79 12 78 13
REMARK SMILES IDX 81 14 82 15 83 16 84 17 89 18 85 19 87 20 86 21 88 22 10 23
REMARK SMILES IDX 11 24 12 25 13 26 14 27 15 28 76 29 16 30 75 31 17 32 18 33
REMARK SMILES IDX 19 34 69 35 20 36 74 37 68 38 70 39 21 40 73 41 67 42 66 43
REMARK SMILES IDX 22 45 54 46 34 47 53 48 35 49 38 50 52 51 71 52 36 53 37 54
REMARK SMILES IDX 51 56 72 57 39 58 23 59 24 60 32 61 25 62 26 63 30 64 33 65
REMARK SMILES IDX 27 66 28 67 31 68 29 69 55 70 56 71 64 72 57 73 58 74 62 75
REMARK SMILES IDX 65 76 59 77 60 78 63 79 61 80 40 81 41 82 49 83 42 84 43 85
REMARK SMILES IDX 47 86 50 87 44 88 45 89 48 90 46 91
REMARK H PARENT 70 44 38 55
REMARK Flexibility Score: inf
ROOT
ATOM      1  C   UNL A   1      32.333  30.685  26.277  1.00  0.00     0.275 C 
ENDROOT
BRANCH   1   2
ATOM      2  O   UNL A   1      32.289  29.800  25.158  1.00  0.00    -0.459 OA
BRANCH   2   3
ATOM      3  C   UNL A   1      31.068  29.698  24.588  1.00  0.00     0.330 C 
ATOM      4  O   UNL A   1      30.261  30.602  24.437  1.00  0.00    -0.247 OA
BRANCH   3   5
ATOM      5  C   UNL A   1      30.860  28.307  24.155  1.00  0.00     0.094 C 
ATOM      6  C   UNL A   1      30.885  27.373  25.115  1.00  0.00     0.016 C 
BRANCH   6   7
ATOM      7  C   UNL A   1      31.204  25.973  24.842  1.00  0.00    -0.022 A 
ATOM      8  C   UNL A   1      33.165  26.287  26.380  1.00  0.00     0.046 C 
ATOM      9  C   UNL A   1      32.261  25.380  25.580  1.00  0.00    -0.031 A 
ATOM     10  C   UNL A   1      32.427  23.983  25.515  1.00  0.00     0.043 A 
ATOM     11  C   UNL A   1      30.443  25.230  23.938  1.00  0.00     0.008 A 
ATOM     12  C   UNL A   1      31.639  23.245  24.608  1.00  0.00     0.014 A 
ATOM     13  C   UNL A   1      30.678  23.865  23.806  1.00  0.00     0.001 A 
BRANCH  10  14
ATOM     14  C   UNL A   1      33.514  23.226  26.209  1.00  0.00     0.254 C 
ATOM     15  O   UNL A   1      33.244  22.659  27.267  1.00  0.00    -0.269 OA
BRANCH  14  16
ATOM     16  N   UNL A   1      34.745  23.067  25.599  1.00  0.00    -0.338 N 
ATOM     17  C   UNL A   1      35.588  21.959  25.986  1.00  0.00     0.123 C 
ATOM     18  C   UNL A   1      35.474  24.066  24.830  1.00  0.00     0.123 C 
ATOM     19  C   UNL A   1      36.999  22.333  25.551  1.00  0.00     0.010 C 
ATOM     20  C   UNL A   1      36.796  23.383  24.435  1.00  0.00     0.010 C 
ATOM     21  C   UNL A   1      37.809  21.095  25.188  1.00  0.00     0.010 C 
ATOM     22  C   UNL A   1      36.763  22.825  23.013  1.00  0.00     0.010 C 
ENDBRANCH  14  16
ENDBRANCH  10  14
ENDBRANCH   6   7
ENDBRANCH   3   5
ENDBRANCH   2   3
ENDBRANCH   1   2
BRANCH   1  23
ATOM     23  C   UNL A   1      33.183  30.084  27.401  1.00  0.00     0.275 C 
BRANCH  23  24
ATOM     24  O   UNL A   1      34.632  29.969  27.204  1.00  0.00    -0.458 OA
BRANCH  24  25
ATOM     25  C   UNL A   1      35.665  30.656  27.759  1.00  0.00     0.338 C 
ATOM     26  O   UNL A   1      35.601  31.863  27.962  1.00  0.00    -0.246 OA
BRANCH  25  27
ATOM     27  C   UNL A   1      36.885  29.917  28.128  1.00  0.00     0.060 A 
ATOM     28  C   UNL A   1      36.955  29.184  29.332  1.00  0.00     0.016 A 
ATOM     29  C   UNL A   1      37.929  29.873  27.225  1.00  0.00     0.016 A 
ATOM     30  C   UNL A   1      38.030  28.322  29.564  1.00  0.00     0.010 A 
ATOM     31  C   UNL A   1      38.851  28.872  27.344  1.00  0.00     0.010 A 
ATOM     32  C   UNL A   1      38.959  28.150  28.542  1.00  0.00    -0.014 A 
BRANCH  32  33
ATOM     33  C   UNL A   1      40.227  27.445  28.651  1.00  0.00     0.031 A 
ATOM     34  C   UNL A   1      40.403  26.021  28.347  1.00  0.00     0.074 A 
ATOM     35  C   UNL A   1      41.266  28.280  28.883  1.00  0.00     0.049 A 
ATOM     36  N   UNL A   1      41.357  25.309  28.841  1.00  0.00    -0.248 NA
ATOM     37  C   UNL A   1      39.530  25.264  27.455  1.00  0.00     0.031 C 
ATOM     38  C   UNL A   1      42.696  28.099  28.736  1.00  0.00     0.029 A 
ATOM     39  N   UNL A   1      41.148  29.574  29.424  1.00  0.00    -0.354 N 
ATOM     40  C   UNL A   1      41.429  24.157  28.089  1.00  0.00     0.074 A 
ATOM     41  C   UNL A   1      40.190  24.101  27.351  1.00  0.00     0.031 C 
ATOM     42  C   UNL A   1      43.316  29.065  29.448  1.00  0.00     0.029 A 
ATOM     43  C   UNL A   1      42.290  29.775  30.203  1.00  0.00     0.049 A 
ATOM     44  H   UNL A   1      40.410  30.211  29.281  1.00  0.00     0.167 HD
ATOM     45  C   UNL A   1      42.619  23.492  28.007  1.00  0.00     0.037 A 
ATOM     46  C   UNL A   1      42.119  29.783  31.560  1.00  0.00     0.037 A 
ATOM     47  C   UNL A   1      43.655  24.205  28.750  1.00  0.00     0.049 A 
ATOM     48  C   UNL A   1      42.815  28.618  32.225  1.00  0.00     0.074 A 
ATOM     49  C   UNL A   1      44.641  25.102  28.371  1.00  0.00     0.029 A 
ATOM     50  N   UNL A   1      43.526  24.342  30.119  1.00  0.00    -0.354 N 
ATOM     51  N   UNL A   1      43.244  27.567  31.585  1.00  0.00    -0.248 NA
ATOM     52  C   UNL A   1      43.017  28.515  33.666  1.00  0.00     0.031 C 
ATOM     53  C   UNL A   1      45.115  25.763  29.537  1.00  0.00     0.029 A 
ATOM     54  C   UNL A   1      44.415  25.269  30.622  1.00  0.00     0.049 A 
ATOM     55  H   UNL A   1      42.881  23.839  30.667  1.00  0.00     0.167 HD
ATOM     56  C   UNL A   1      43.809  26.690  32.464  1.00  0.00     0.074 A 
ATOM     57  C   UNL A   1      43.592  27.303  33.763  1.00  0.00     0.031 C 
ATOM     58  C   UNL A   1      44.410  25.537  32.050  1.00  0.00     0.037 A 
BRANCH  45  59
ATOM     59  C   UNL A   1      42.917  22.389  27.020  1.00  0.00     0.064 A 
ATOM     60  C   UNL A   1      42.276  21.133  27.123  1.00  0.00     0.173 A 
ATOM     61  C   UNL A   1      43.821  22.507  25.947  1.00  0.00     0.173 A 
ATOM     62  F   UNL A   1      41.335  20.896  28.044  1.00  0.00    -0.203 F 
ATOM     63  C   UNL A   1      42.579  20.060  26.283  1.00  0.00     0.198 A 
ATOM     64  C   UNL A   1      44.148  21.420  25.124  1.00  0.00     0.198 A 
ATOM     65  F   UNL A   1      44.387  23.685  25.647  1.00  0.00    -0.203 F 
ATOM     66  F   UNL A   1      41.943  18.891  26.446  1.00  0.00    -0.200 F 
ATOM     67  C   UNL A   1      43.533  20.195  25.298  1.00  0.00     0.200 A 
ATOM     68  F   UNL A   1      45.065  21.568  24.156  1.00  0.00    -0.200 F 
ATOM     69  F   UNL A   1      43.845  19.156  24.512  1.00  0.00    -0.200 F 
ENDBRANCH  45  59
BRANCH  46  70
ATOM     70  C   UNL A   1      40.777  30.329  31.976  1.00  0.00     0.064 A 
ATOM     71  C   UNL A   1      39.755  29.422  32.342  1.00  0.00     0.173 A 
ATOM     72  C   UNL A   1      40.608  31.663  32.372  1.00  0.00     0.173 A 
ATOM     73  F   UNL A   1      39.856  28.124  32.008  1.00  0.00    -0.203 F 
ATOM     74  C   UNL A   1      38.696  29.804  33.166  1.00  0.00     0.198 A 
ATOM     75  C   UNL A   1      39.527  32.048  33.172  1.00  0.00     0.198 A 
ATOM     76  F   UNL A   1      41.529  32.587  32.065  1.00  0.00    -0.203 F 
ATOM     77  F   UNL A   1      37.826  28.884  33.609  1.00  0.00    -0.200 F 
ATOM     78  C   UNL A   1      38.593  31.115  33.596  1.00  0.00     0.200 A 
ATOM     79  F   UNL A   1      39.434  33.316  33.600  1.00  0.00    -0.200 F 
ATOM     80  F   UNL A   1      37.621  31.470  34.448  1.00  0.00    -0.200 F 
ENDBRANCH  46  70
BRANCH  58  81
ATOM     81  C   UNL A   1      45.059  24.546  32.971  1.00  0.00     0.064 A 
ATOM     82  C   UNL A   1      44.406  23.392  33.419  1.00  0.00     0.173 A 
ATOM     83  C   UNL A   1      46.343  24.781  33.517  1.00  0.00     0.173 A 
ATOM     84  F   UNL A   1      43.132  23.142  33.080  1.00  0.00    -0.203 F 
ATOM     85  C   UNL A   1      45.038  22.474  34.259  1.00  0.00     0.198 A 
ATOM     86  C   UNL A   1      46.944  23.897  34.405  1.00  0.00     0.198 A 
ATOM     87  F   UNL A   1      47.068  25.861  33.195  1.00  0.00    -0.203 F 
ATOM     88  F   UNL A   1      44.407  21.341  34.593  1.00  0.00    -0.200 F 
ATOM     89  C   UNL A   1      46.306  22.727  34.751  1.00  0.00     0.200 A 
ATOM     90  F   UNL A   1      48.152  24.186  34.909  1.00  0.00    -0.200 F 
ATOM     91  F   UNL A   1      46.908  21.849  35.562  1.00  0.00    -0.200 F 
ENDBRANCH  58  81
ENDBRANCH  32  33
ENDBRANCH  25  27
ENDBRANCH  24  25
ENDBRANCH  23  24
ENDBRANCH   1  23
TORSDOF 14
ENDMDL
MODEL 3
REMARK VINA RESULT:     -13.3      4.031     10.498
REMARK SMILES Cc1c(/C=C/C(=O)OCCOC(=O)c2ccc(-c3c4nc(c(-c5c(F)c(F)c(F)c(F)c5F)c5ccc([nH]5)c(-c5c(F)c(F)c(F)c(F)c5F)c5nc(c(-c6c(F)c(F)c(F)c(F)c6F)c6ccc3[nH]6)C=C5)C=C4)cc2)cccc1C(=O)N1C[C@@H](C)[C@@H](C)C1
REMARK SMILES IDX 9 1 8 2 6 3 7 4 5 5 4 6 3 7 1 8 2 9 80 10 77 11 79 12 78 13
REMARK SMILES IDX 81 14 82 15 83 16 84 17 89 18 85 19 87 20 86 21 88 22 10 23
REMARK SMILES IDX 11 24 12 25 13 26 14 27 15 28 76 29 16 30 75 31 17 32 18 33
REMARK SMILES IDX 19 34 69 35 20 36 74 37 68 38 70 39 21 40 73 41 67 42 66 43
REMARK SMILES IDX 22 45 54 46 34 47 53 48 35 49 38 50 52 51 71 52 36 53 37 54
REMARK SMILES IDX 51 56 72 57 39 58 23 59 24 60 32 61 25 62 26 63 30 64 33 65
REMARK SMILES IDX 27 66 28 67 31 68 29 69 55 70 56 71 64 72 57 73 58 74 62 75
REMARK SMILES IDX 65 76 59 77 60 78 63 79 61 80 40 81 41 82 49 83 42 84 43 85
REMARK SMILES IDX 47 86 50 87 44 88 45 89 48 90 46 91
REMARK H PARENT 70 44 38 55
REMARK Flexibility Score: inf
ROOT
ATOM      1  C   UNL A   1      40.853  20.696  27.054  1.00  0.00     0.275 C 
ENDROOT
BRANCH   1   2
ATOM      2  O   UNL A   1      39.760  20.842  26.148  1.00  0.00    -0.459 OA
BRANCH   2   3
ATOM      3  C   UNL A   1      39.379  19.687  25.558  1.00  0.00     0.330 C 
ATOM      4  O   UNL A   1      39.955  18.613  25.630  1.00  0.00    -0.247 OA
BRANCH   3   5
ATOM      5  C   UNL A   1      38.133  19.923  24.812  1.00  0.00     0.094 C 
ATOM      6  C   UNL A   1      37.523  21.097  25.024  1.00  0.00     0.016 C 
BRANCH   6   7
ATOM      7  C   UNL A   1      36.093  21.292  24.796  1.00  0.00    -0.022 A 
ATOM      8  C   UNL A   1      36.665  23.682  24.275  1.00  0.00     0.046 C 
ATOM      9  C   UNL A   1      35.670  22.546  24.284  1.00  0.00    -0.031 A 
ATOM     10  C   UNL A   1      34.343  22.675  23.827  1.00  0.00     0.043 A 
ATOM     11  C   UNL A   1      35.187  20.251  25.007  1.00  0.00     0.008 A 
ATOM     12  C   UNL A   1      33.445  21.608  24.035  1.00  0.00     0.014 A 
ATOM     13  C   UNL A   1      33.855  20.419  24.645  1.00  0.00     0.001 A 
BRANCH  10  14
ATOM     14  C   UNL A   1      33.750  23.940  23.296  1.00  0.00     0.254 C 
ATOM     15  O   UNL A   1      33.652  24.069  22.076  1.00  0.00    -0.269 OA
BRANCH  14  16
ATOM     16  N   UNL A   1      33.211  24.870  24.166  1.00  0.00    -0.338 N 
ATOM     17  C   UNL A   1      34.060  25.910  24.704  1.00  0.00     0.123 C 
ATOM     18  C   UNL A   1      31.954  24.762  24.892  1.00  0.00     0.123 C 
ATOM     19  C   UNL A   1      33.356  26.422  25.954  1.00  0.00     0.010 C 
ATOM     20  C   UNL A   1      31.872  26.038  25.749  1.00  0.00     0.010 C 
ATOM     21  C   UNL A   1      33.656  27.896  26.190  1.00  0.00     0.010 C 
ATOM     22  C   UNL A   1      31.003  27.118  25.108  1.00  0.00     0.010 C 
ENDBRANCH  14  16
ENDBRANCH  10  14
ENDBRANCH   6   7
ENDBRANCH   3   5
ENDBRANCH   2   3
ENDBRANCH   1   2
BRANCH   1  23
ATOM     23  C   UNL A   1      41.313  22.066  27.561  1.00  0.00     0.275 C 
BRANCH  23  24
ATOM     24  O   UNL A   1      40.809  23.271  26.893  1.00  0.00    -0.458 OA
BRANCH  24  25
ATOM     25  C   UNL A   1      39.684  24.002  27.101  1.00  0.00     0.338 C 
ATOM     26  O   UNL A   1      38.566  23.527  26.932  1.00  0.00    -0.246 OA
BRANCH  25  27
ATOM     27  C   UNL A   1      39.824  25.399  27.550  1.00  0.00     0.060 A 
ATOM     28  C   UNL A   1      40.209  26.417  26.652  1.00  0.00     0.016 A 
ATOM     29  C   UNL A   1      39.475  25.713  28.849  1.00  0.00     0.016 A 
ATOM     30  C   UNL A   1      40.130  27.757  27.039  1.00  0.00     0.010 A 
ATOM     31  C   UNL A   1      39.181  27.012  29.148  1.00  0.00     0.010 A 
ATOM     32  C   UNL A   1      39.580  28.044  28.285  1.00  0.00    -0.014 A 
BRANCH  32  33
ATOM     33  C   UNL A   1      39.575  29.345  28.936  1.00  0.00     0.031 A 
ATOM     34  C   UNL A   1      38.525  30.352  28.749  1.00  0.00     0.074 A 
ATOM     35  C   UNL A   1      40.542  29.458  29.876  1.00  0.00     0.049 A 
ATOM     36  N   UNL A   1      38.715  31.611  28.946  1.00  0.00    -0.248 NA
ATOM     37  C   UNL A   1      37.162  30.040  28.332  1.00  0.00     0.031 C 
ATOM     38  C   UNL A   1      40.712  30.389  30.974  1.00  0.00     0.029 A 
ATOM     39  N   UNL A   1      41.704  28.665  29.929  1.00  0.00    -0.354 N 
ATOM     40  C   UNL A   1      37.471  32.198  29.026  1.00  0.00     0.074 A 
ATOM     41  C   UNL A   1      36.552  31.224  28.487  1.00  0.00     0.031 C 
ATOM     42  C   UNL A   1      42.000  30.333  31.374  1.00  0.00     0.029 A 
ATOM     43  C   UNL A   1      42.716  29.491  30.422  1.00  0.00     0.049 A 
ATOM     44  H   UNL A   1      41.786  27.718  29.673  1.00  0.00     0.167 HD
ATOM     45  C   UNL A   1      37.327  33.353  29.739  1.00  0.00     0.037 A 
ATOM     46  C   UNL A   1      43.681  29.883  29.536  1.00  0.00     0.037 A 
ATOM     47  C   UNL A   1      38.597  33.739  30.349  1.00  0.00     0.049 A 
ATOM     48  C   UNL A   1      43.651  31.373  29.286  1.00  0.00     0.074 A 
ATOM     49  C   UNL A   1      39.134  33.551  31.612  1.00  0.00     0.029 A 
ATOM     50  N   UNL A   1      39.662  34.068  29.531  1.00  0.00    -0.354 N 
ATOM     51  N   UNL A   1      42.649  32.143  29.607  1.00  0.00    -0.248 NA
ATOM     52  C   UNL A   1      44.711  32.097  28.595  1.00  0.00     0.031 C 
ATOM     53  C   UNL A   1      40.534  33.793  31.543  1.00  0.00     0.029 A 
ATOM     54  C   UNL A   1      40.846  34.125  30.237  1.00  0.00     0.049 A 
ATOM     55  H   UNL A   1      39.585  34.241  28.565  1.00  0.00     0.167 HD
ATOM     56  C   UNL A   1      42.917  33.428  29.238  1.00  0.00     0.074 A 
ATOM     57  C   UNL A   1      44.198  33.340  28.557  1.00  0.00     0.031 C 
ATOM     58  C   UNL A   1      42.067  34.456  29.526  1.00  0.00     0.037 A 
BRANCH  45  59
ATOM     59  C   UNL A   1      36.000  33.954  30.138  1.00  0.00     0.064 A 
ATOM     60  C   UNL A   1      35.105  34.443  29.159  1.00  0.00     0.173 A 
ATOM     61  C   UNL A   1      35.550  34.072  31.466  1.00  0.00     0.173 A 
ATOM     62  F   UNL A   1      35.361  34.329  27.851  1.00  0.00    -0.203 F 
ATOM     63  C   UNL A   1      33.905  35.077  29.485  1.00  0.00     0.198 A 
ATOM     64  C   UNL A   1      34.360  34.738  31.794  1.00  0.00     0.198 A 
ATOM     65  F   UNL A   1      36.232  33.519  32.479  1.00  0.00    -0.203 F 
ATOM     66  F   UNL A   1      33.109  35.532  28.506  1.00  0.00    -0.200 F 
ATOM     67  C   UNL A   1      33.543  35.248  30.803  1.00  0.00     0.200 A 
ATOM     68  F   UNL A   1      34.009  34.881  33.080  1.00  0.00    -0.200 F 
ATOM     69  F   UNL A   1      32.406  35.884  31.115  1.00  0.00    -0.200 F 
ENDBRANCH  45  59
BRANCH  46  70
ATOM     70  C   UNL A   1      43.958  28.843  28.480  1.00  0.00     0.064 A 
ATOM     71  C   UNL A   1      44.408  27.564  28.883  1.00  0.00     0.173 A 
ATOM     72  C   UNL A   1      43.448  28.951  27.179  1.00  0.00     0.173 A 
ATOM     73  F   UNL A   1      44.898  27.383  30.121  1.00  0.00    -0.203 F 
ATOM     74  C   UNL A   1      44.234  26.437  28.078  1.00  0.00     0.198 A 
ATOM     75  C   UNL A   1      43.305  27.823  26.362  1.00  0.00     0.198 A 
ATOM     76  F   UNL A   1      43.001  30.127  26.717  1.00  0.00    -0.203 F 
ATOM     77  F   UNL A   1      44.541  25.221  28.552  1.00  0.00    -0.200 F 
ATOM     78  C   UNL A   1      43.664  26.566  26.824  1.00  0.00     0.200 A 
ATOM     79  F   UNL A   1      42.741  27.945  25.152  1.00  0.00    -0.200 F 
ATOM     80  F   UNL A   1      43.427  25.478  26.078  1.00  0.00    -0.200 F 
ENDBRANCH  46  70
BRANCH  58  81
ATOM     81  C   UNL A   1      42.322  35.889  29.157  1.00  0.00     0.064 A 
ATOM     82  C   UNL A   1      41.838  36.460  27.974  1.00  0.00     0.173 A 
ATOM     83  C   UNL A   1      43.154  36.715  29.948  1.00  0.00     0.173 A 
ATOM     84  F   UNL A   1      41.159  35.728  27.079  1.00  0.00    -0.203 F 
ATOM     85  C   UNL A   1      42.069  37.801  27.663  1.00  0.00     0.198 A 
ATOM     86  C   UNL A   1      43.436  38.031  29.603  1.00  0.00     0.198 A 
ATOM     87  F   UNL A   1      43.705  36.286  31.092  1.00  0.00    -0.203 F 
ATOM     88  F   UNL A   1      41.515  38.329  26.564  1.00  0.00    -0.200 F 
ATOM     89  C   UNL A   1      42.867  38.585  28.478  1.00  0.00     0.200 A 
ATOM     90  F   UNL A   1      44.252  38.758  30.379  1.00  0.00    -0.200 F 
ATOM     91  F   UNL A   1      43.093  39.869  28.174  1.00  0.00    -0.200 F 
ENDBRANCH  58  81
ENDBRANCH  32  33
ENDBRANCH  25  27
ENDBRANCH  24  25
ENDBRANCH  23  24
ENDBRANCH   1  23
TORSDOF 14
ENDMDL
