MODEL 1
REMARK VINA RESULT:     -12.1      0.000      0.000
REMARK SMILES CC(C)[C@H](C)n1c(SCC(=O)OCCOC(=O)c2ccc(-c3c4nc(c(-c5c(F)c(F)c(F)c(F)c5F)c5ccc([nH]5)c(-c5c(F)c(F)c(F)c(F)c5F)c5nc(c(-c6c(F)c(F)c(F)c(F)c6F)c6ccc3[nH]6)C=C5)C=C4)cc2)nc2cc(Br)cnc21
REMARK SMILES IDX 13 1 12 2 10 3 11 4 9 5 8 6 7 7 6 8 88 9 81 10 82 11 87 12
REMARK SMILES IDX 83 13 86 14 84 15 85 16 4 17 5 18 2 19 1 20 3 21 14 22 15 23
REMARK SMILES IDX 16 24 17 25 18 26 19 27 80 28 20 29 79 30 21 31 22 32 23 33
REMARK SMILES IDX 73 34 24 35 78 36 72 37 74 38 25 39 77 40 71 41 70 42 26 44
REMARK SMILES IDX 58 45 38 46 57 47 39 48 42 49 56 50 75 51 40 52 41 53 55 55
REMARK SMILES IDX 76 56 43 57 27 58 28 59 36 60 29 61 30 62 34 63 37 64 31 65
REMARK SMILES IDX 32 66 35 67 33 68 59 69 60 70 68 71 61 72 62 73 66 74 69 75
REMARK SMILES IDX 63 76 64 77 67 78 65 79 44 80 45 81 53 82 46 83 47 84 51 85
REMARK SMILES IDX 54 86 48 87 49 88 52 89 50 90
REMARK H PARENT 74 43 42 54
REMARK Flexibility Score: inf
ROOT
ATOM      1  C   UNL A   1      39.431  21.661  26.147  1.00  0.00     0.274 C 
ENDROOT
BRANCH   1   2
ATOM      2  O   UNL A   1      38.131  22.297  26.165  1.00  0.00    -0.461 OA
BRANCH   2   3
ATOM      3  C   UNL A   1      37.372  22.095  25.048  1.00  0.00     0.316 C 
ATOM      4  O   UNL A   1      37.103  20.985  24.599  1.00  0.00    -0.251 OA
BRANCH   3   5
ATOM      5  C   UNL A   1      36.848  23.379  24.411  1.00  0.00     0.200 C 
BRANCH   5   6
ATOM      6  S   UNL A   1      35.582  23.083  23.169  1.00  0.00    -0.076 SA
BRANCH   6   7
ATOM      7  C   UNL A   1      34.119  23.970  23.519  1.00  0.00     0.171 A 
ATOM      8  N   UNL A   1      32.908  23.505  24.008  1.00  0.00    -0.301 N 
ATOM      9  C   UNL A   1      32.304  24.587  24.641  1.00  0.00     0.161 A 
ATOM     10  N   UNL A   1      34.220  25.280  23.672  1.00  0.00    -0.221 NA
ATOM     11  C   UNL A   1      33.188  25.638  24.488  1.00  0.00     0.110 A 
ATOM     12  N   UNL A   1      31.216  24.546  25.441  1.00  0.00    -0.235 NA
ATOM     13  C   UNL A   1      32.981  26.784  25.264  1.00  0.00     0.049 A 
ATOM     14  C   UNL A   1      31.085  25.643  26.221  1.00  0.00     0.129 A 
ATOM     15  C   UNL A   1      31.936  26.741  26.190  1.00  0.00     0.038 A 
ATOM     16  Br  UNL A   1      31.778  28.112  27.476  1.00  0.00    -0.049 Br
BRANCH   8  17
ATOM     17  C   UNL A   1      32.553  22.149  24.396  1.00  0.00     0.091 C 
ATOM     18  C   UNL A   1      32.190  21.380  23.124  1.00  0.00     0.032 C 
BRANCH  17  19
ATOM     19  C   UNL A   1      33.497  21.395  25.393  1.00  0.00     0.006 C 
ATOM     20  C   UNL A   1      33.483  21.843  26.855  1.00  0.00     0.009 C 
ATOM     21  C   UNL A   1      33.259  19.878  25.352  1.00  0.00     0.009 C 
ENDBRANCH  17  19
ENDBRANCH   8  17
ENDBRANCH   6   7
ENDBRANCH   5   6
ENDBRANCH   3   5
ENDBRANCH   2   3
ENDBRANCH   1   2
BRANCH   1  22
ATOM     22  C   UNL A   1      40.431  22.488  26.960  1.00  0.00     0.275 C 
BRANCH  22  23
ATOM     23  O   UNL A   1      39.914  23.682  27.589  1.00  0.00    -0.458 OA
BRANCH  23  24
ATOM     24  C   UNL A   1      40.268  24.860  27.039  1.00  0.00     0.338 C 
ATOM     25  O   UNL A   1      41.131  25.011  26.171  1.00  0.00    -0.246 OA
BRANCH  24  26
ATOM     26  C   UNL A   1      39.694  25.990  27.811  1.00  0.00     0.060 A 
ATOM     27  C   UNL A   1      39.730  27.243  27.199  1.00  0.00     0.016 A 
ATOM     28  C   UNL A   1      39.436  25.896  29.183  1.00  0.00     0.016 A 
ATOM     29  C   UNL A   1      39.741  28.389  27.987  1.00  0.00     0.010 A 
ATOM     30  C   UNL A   1      39.357  27.053  29.960  1.00  0.00     0.010 A 
ATOM     31  C   UNL A   1      39.603  28.305  29.384  1.00  0.00    -0.014 A 
BRANCH  31  32
ATOM     32  C   UNL A   1      39.567  29.574  30.151  1.00  0.00     0.031 A 
ATOM     33  C   UNL A   1      40.864  30.331  30.160  1.00  0.00     0.074 A 
ATOM     34  C   UNL A   1      38.450  30.140  30.664  1.00  0.00     0.049 A 
ATOM     35  N   UNL A   1      41.453  30.951  31.137  1.00  0.00    -0.248 NA
ATOM     36  C   UNL A   1      41.652  30.301  28.909  1.00  0.00     0.031 C 
ATOM     37  C   UNL A   1      37.077  29.636  30.569  1.00  0.00     0.029 A 
ATOM     38  N   UNL A   1      38.280  31.380  31.235  1.00  0.00    -0.354 N 
ATOM     39  C   UNL A   1      42.607  31.501  30.581  1.00  0.00     0.074 A 
ATOM     40  C   UNL A   1      42.758  30.943  29.265  1.00  0.00     0.031 C 
ATOM     41  C   UNL A   1      36.218  30.654  30.781  1.00  0.00     0.029 A 
ATOM     42  C   UNL A   1      36.972  31.847  31.124  1.00  0.00     0.049 A 
ATOM     43  H   UNL A   1      39.003  31.882  31.675  1.00  0.00     0.167 HD
ATOM     44  C   UNL A   1      43.255  32.572  31.104  1.00  0.00     0.037 A 
ATOM     45  C   UNL A   1      36.547  33.134  31.177  1.00  0.00     0.037 A 
ATOM     46  C   UNL A   1      43.007  32.777  32.495  1.00  0.00     0.049 A 
ATOM     47  C   UNL A   1      37.594  33.954  31.825  1.00  0.00     0.074 A 
ATOM     48  C   UNL A   1      43.265  32.073  33.652  1.00  0.00     0.029 A 
ATOM     49  N   UNL A   1      42.160  33.792  32.847  1.00  0.00    -0.354 N 
ATOM     50  N   UNL A   1      37.887  33.936  33.093  1.00  0.00    -0.248 NA
ATOM     51  C   UNL A   1      38.549  34.651  30.974  1.00  0.00     0.031 C 
ATOM     52  C   UNL A   1      42.247  32.455  34.569  1.00  0.00     0.029 A 
ATOM     53  C   UNL A   1      41.418  33.369  33.918  1.00  0.00     0.049 A 
ATOM     54  H   UNL A   1      42.095  34.671  32.409  1.00  0.00     0.167 HD
ATOM     55  C   UNL A   1      39.236  34.240  33.142  1.00  0.00     0.074 A 
ATOM     56  C   UNL A   1      39.545  34.819  31.844  1.00  0.00     0.031 C 
ATOM     57  C   UNL A   1      40.034  33.722  34.119  1.00  0.00     0.037 A 
BRANCH  44  58
ATOM     58  C   UNL A   1      43.833  33.635  30.211  1.00  0.00     0.064 A 
ATOM     59  C   UNL A   1      43.008  34.400  29.374  1.00  0.00     0.173 A 
ATOM     60  C   UNL A   1      45.223  33.739  29.978  1.00  0.00     0.173 A 
ATOM     61  F   UNL A   1      41.673  34.310  29.468  1.00  0.00    -0.203 F 
ATOM     62  C   UNL A   1      43.544  35.217  28.373  1.00  0.00     0.198 A 
ATOM     63  C   UNL A   1      45.756  34.599  29.025  1.00  0.00     0.198 A 
ATOM     64  F   UNL A   1      46.100  32.935  30.597  1.00  0.00    -0.203 F 
ATOM     65  F   UNL A   1      42.726  35.863  27.532  1.00  0.00    -0.200 F 
ATOM     66  C   UNL A   1      44.916  35.325  28.209  1.00  0.00     0.200 A 
ATOM     67  F   UNL A   1      47.085  34.663  28.863  1.00  0.00    -0.200 F 
ATOM     68  F   UNL A   1      45.428  36.083  27.232  1.00  0.00    -0.200 F 
ENDBRANCH  44  58
BRANCH  45  69
ATOM     69  C   UNL A   1      35.408  33.765  30.457  1.00  0.00     0.064 A 
ATOM     70  C   UNL A   1      34.362  34.387  31.164  1.00  0.00     0.173 A 
ATOM     71  C   UNL A   1      35.444  34.005  29.069  1.00  0.00     0.173 A 
ATOM     72  F   UNL A   1      34.275  34.258  32.496  1.00  0.00    -0.203 F 
ATOM     73  C   UNL A   1      33.429  35.214  30.526  1.00  0.00     0.198 A 
ATOM     74  C   UNL A   1      34.501  34.813  28.431  1.00  0.00     0.198 A 
ATOM     75  F   UNL A   1      36.448  33.544  28.312  1.00  0.00    -0.203 F 
ATOM     76  F   UNL A   1      32.493  35.846  31.247  1.00  0.00    -0.200 F 
ATOM     77  C   UNL A   1      33.503  35.430  29.160  1.00  0.00     0.200 A 
ATOM     78  F   UNL A   1      34.606  35.038  27.113  1.00  0.00    -0.200 F 
ATOM     79  F   UNL A   1      32.645  36.264  28.557  1.00  0.00    -0.200 F 
ENDBRANCH  45  69
BRANCH  57  80
ATOM     80  C   UNL A   1      39.381  33.227  35.374  1.00  0.00     0.064 A 
ATOM     81  C   UNL A   1      39.072  34.035  36.478  1.00  0.00     0.173 A 
ATOM     82  C   UNL A   1      38.938  31.896  35.397  1.00  0.00     0.173 A 
ATOM     83  F   UNL A   1      39.362  35.345  36.487  1.00  0.00    -0.203 F 
ATOM     84  C   UNL A   1      38.399  33.509  37.577  1.00  0.00     0.198 A 
ATOM     85  C   UNL A   1      38.221  31.390  36.478  1.00  0.00     0.198 A 
ATOM     86  F   UNL A   1      39.162  31.092  34.345  1.00  0.00    -0.203 F 
ATOM     87  F   UNL A   1      38.141  34.283  38.638  1.00  0.00    -0.200 F 
ATOM     88  C   UNL A   1      37.963  32.193  37.573  1.00  0.00     0.200 A 
ATOM     89  F   UNL A   1      37.761  30.132  36.444  1.00  0.00    -0.200 F 
ATOM     90  F   UNL A   1      37.272  31.711  38.615  1.00  0.00    -0.200 F 
ENDBRANCH  57  80
ENDBRANCH  31  32
ENDBRANCH  24  26
ENDBRANCH  23  24
ENDBRANCH  22  23
ENDBRANCH   1  22
TORSDOF 15
ENDMDL
MODEL 2
REMARK VINA RESULT:     -12.1      6.280     10.951
REMARK SMILES CC(C)[C@H](C)n1c(SCC(=O)OCCOC(=O)c2ccc(-c3c4nc(c(-c5c(F)c(F)c(F)c(F)c5F)c5ccc([nH]5)c(-c5c(F)c(F)c(F)c(F)c5F)c5nc(c(-c6c(F)c(F)c(F)c(F)c6F)c6ccc3[nH]6)C=C5)C=C4)cc2)nc2cc(Br)cnc21
REMARK SMILES IDX 13 1 12 2 10 3 11 4 9 5 8 6 7 7 6 8 88 9 81 10 82 11 87 12
REMARK SMILES IDX 83 13 86 14 84 15 85 16 4 17 5 18 2 19 1 20 3 21 14 22 15 23
REMARK SMILES IDX 16 24 17 25 18 26 19 27 80 28 20 29 79 30 21 31 22 32 23 33
REMARK SMILES IDX 73 34 24 35 78 36 72 37 74 38 25 39 77 40 71 41 70 42 26 44
REMARK SMILES IDX 58 45 38 46 57 47 39 48 42 49 56 50 75 51 40 52 41 53 55 55
REMARK SMILES IDX 76 56 43 57 27 58 28 59 36 60 29 61 30 62 34 63 37 64 31 65
REMARK SMILES IDX 32 66 35 67 33 68 59 69 60 70 68 71 61 72 62 73 66 74 69 75
REMARK SMILES IDX 63 76 64 77 67 78 65 79 44 80 45 81 53 82 46 83 47 84 51 85
REMARK SMILES IDX 54 86 48 87 49 88 52 89 50 90
REMARK H PARENT 74 43 42 54
REMARK Flexibility Score: inf
ROOT
ATOM      1  C   UNL A   1      33.636  28.871  26.387  1.00  0.00     0.274 C 
ENDROOT
BRANCH   1   2
ATOM      2  O   UNL A   1      32.790  29.625  25.486  1.00  0.00    -0.461 OA
BRANCH   2   3
ATOM      3  C   UNL A   1      32.414  28.960  24.354  1.00  0.00     0.316 C 
ATOM      4  O   UNL A   1      31.385  29.203  23.731  1.00  0.00    -0.251 OA
BRANCH   3   5
ATOM      5  C   UNL A   1      33.409  27.897  23.898  1.00  0.00     0.200 C 
BRANCH   5   6
ATOM      6  S   UNL A   1      32.671  26.265  23.735  1.00  0.00    -0.076 SA
BRANCH   6   7
ATOM      7  C   UNL A   1      33.392  25.121  24.839  1.00  0.00     0.171 A 
ATOM      8  N   UNL A   1      33.054  23.797  25.073  1.00  0.00    -0.301 N 
ATOM      9  C   UNL A   1      34.205  23.181  25.553  1.00  0.00     0.161 A 
ATOM     10  N   UNL A   1      34.609  25.385  25.285  1.00  0.00    -0.221 NA
ATOM     11  C   UNL A   1      35.165  24.175  25.583  1.00  0.00     0.110 A 
ATOM     12  N   UNL A   1      34.402  21.853  25.710  1.00  0.00    -0.235 NA
ATOM     13  C   UNL A   1      36.499  23.792  25.754  1.00  0.00     0.049 A 
ATOM     14  C   UNL A   1      35.708  21.515  25.808  1.00  0.00     0.129 A 
ATOM     15  C   UNL A   1      36.762  22.421  25.804  1.00  0.00     0.038 A 
ATOM     16  Br  UNL A   1      38.546  21.813  25.728  1.00  0.00    -0.049 Br
BRANCH   8  17
ATOM     17  C   UNL A   1      32.024  23.000  24.423  1.00  0.00     0.091 C 
ATOM     18  C   UNL A   1      30.677  23.677  24.687  1.00  0.00     0.032 C 
BRANCH  17  19
ATOM     19  C   UNL A   1      32.270  22.537  22.947  1.00  0.00     0.006 C 
ATOM     20  C   UNL A   1      33.543  23.026  22.257  1.00  0.00     0.009 C 
ATOM     21  C   UNL A   1      32.209  21.007  22.822  1.00  0.00     0.009 C 
ENDBRANCH  17  19
ENDBRANCH   8  17
ENDBRANCH   6   7
ENDBRANCH   5   6
ENDBRANCH   3   5
ENDBRANCH   2   3
ENDBRANCH   1   2
BRANCH   1  22
ATOM     22  C   UNL A   1      34.515  29.825  27.201  1.00  0.00     0.275 C 
BRANCH  22  23
ATOM     23  O   UNL A   1      35.907  29.459  27.334  1.00  0.00    -0.458 OA
BRANCH  23  24
ATOM     24  C   UNL A   1      36.687  30.289  28.055  1.00  0.00     0.338 C 
ATOM     25  O   UNL A   1      36.547  31.512  28.134  1.00  0.00    -0.246 OA
BRANCH  24  26
ATOM     26  C   UNL A   1      37.911  29.586  28.514  1.00  0.00     0.060 A 
ATOM     27  C   UNL A   1      39.114  30.277  28.370  1.00  0.00     0.016 A 
ATOM     28  C   UNL A   1      37.928  28.210  28.765  1.00  0.00     0.016 A 
ATOM     29  C   UNL A   1      40.302  29.564  28.245  1.00  0.00     0.010 A 
ATOM     30  C   UNL A   1      39.134  27.508  28.729  1.00  0.00     0.010 A 
ATOM     31  C   UNL A   1      40.319  28.163  28.375  1.00  0.00    -0.014 A 
BRANCH  31  32
ATOM     32  C   UNL A   1      41.631  27.478  28.286  1.00  0.00     0.031 A 
ATOM     33  C   UNL A   1      42.525  27.690  29.475  1.00  0.00     0.074 A 
ATOM     34  C   UNL A   1      41.977  26.584  27.331  1.00  0.00     0.049 A 
ATOM     35  N   UNL A   1      43.802  27.920  29.520  1.00  0.00    -0.248 NA
ATOM     36  C   UNL A   1      41.860  27.744  30.795  1.00  0.00     0.031 C 
ATOM     37  C   UNL A   1      41.151  26.112  26.216  1.00  0.00     0.029 A 
ATOM     38  N   UNL A   1      43.086  25.774  27.251  1.00  0.00    -0.354 N 
ATOM     39  C   UNL A   1      44.113  28.005  30.876  1.00  0.00     0.074 A 
ATOM     40  C   UNL A   1      42.871  28.048  31.599  1.00  0.00     0.031 C 
ATOM     41  C   UNL A   1      41.638  24.935  25.773  1.00  0.00     0.029 A 
ATOM     42  C   UNL A   1      42.857  24.625  26.498  1.00  0.00     0.049 A 
ATOM     43  H   UNL A   1      43.947  25.984  27.679  1.00  0.00     0.167 HD
ATOM     44  C   UNL A   1      45.354  27.782  31.376  1.00  0.00     0.037 A 
ATOM     45  C   UNL A   1      43.536  23.451  26.554  1.00  0.00     0.037 A 
ATOM     46  C   UNL A   1      46.403  27.966  30.425  1.00  0.00     0.049 A 
ATOM     47  C   UNL A   1      44.847  23.690  27.196  1.00  0.00     0.074 A 
ATOM     48  C   UNL A   1      46.899  29.032  29.705  1.00  0.00     0.029 A 
ATOM     49  N   UNL A   1      46.994  26.846  29.906  1.00  0.00    -0.354 N 
ATOM     50  N   UNL A   1      45.851  24.313  26.649  1.00  0.00    -0.248 NA
ATOM     51  C   UNL A   1      44.968  23.449  28.627  1.00  0.00     0.031 C 
ATOM     52  C   UNL A   1      47.459  28.470  28.524  1.00  0.00     0.029 A 
ATOM     53  C   UNL A   1      47.268  27.089  28.586  1.00  0.00     0.049 A 
ATOM     54  H   UNL A   1      47.189  26.014  30.394  1.00  0.00     0.167 HD
ATOM     55  C   UNL A   1      46.515  24.901  27.710  1.00  0.00     0.074 A 
ATOM     56  C   UNL A   1      46.028  24.211  28.895  1.00  0.00     0.031 C 
ATOM     57  C   UNL A   1      47.171  26.086  27.554  1.00  0.00     0.037 A 
BRANCH  44  58
ATOM     58  C   UNL A   1      45.542  27.037  32.668  1.00  0.00     0.064 A 
ATOM     59  C   UNL A   1      45.138  25.700  32.795  1.00  0.00     0.173 A 
ATOM     60  C   UNL A   1      45.885  27.700  33.869  1.00  0.00     0.173 A 
ATOM     61  F   UNL A   1      44.722  25.011  31.722  1.00  0.00    -0.203 F 
ATOM     62  C   UNL A   1      45.084  25.071  34.042  1.00  0.00     0.198 A 
ATOM     63  C   UNL A   1      45.891  27.054  35.100  1.00  0.00     0.198 A 
ATOM     64  F   UNL A   1      46.123  29.019  33.899  1.00  0.00    -0.203 F 
ATOM     65  F   UNL A   1      44.606  23.824  34.139  1.00  0.00    -0.200 F 
ATOM     66  C   UNL A   1      45.472  25.744  35.190  1.00  0.00     0.200 A 
ATOM     67  F   UNL A   1      46.240  27.735  36.200  1.00  0.00    -0.200 F 
ATOM     68  F   UNL A   1      45.393  25.151  36.388  1.00  0.00    -0.200 F 
ENDBRANCH  44  58
BRANCH  45  69
ATOM     69  C   UNL A   1      43.022  22.071  26.339  1.00  0.00     0.064 A 
ATOM     70  C   UNL A   1      43.654  21.197  25.437  1.00  0.00     0.173 A 
ATOM     71  C   UNL A   1      42.067  21.490  27.198  1.00  0.00     0.173 A 
ATOM     72  F   UNL A   1      44.613  21.649  24.615  1.00  0.00    -0.203 F 
ATOM     73  C   UNL A   1      43.367  19.826  25.413  1.00  0.00     0.198 A 
ATOM     74  C   UNL A   1      41.766  20.127  27.158  1.00  0.00     0.198 A 
ATOM     75  F   UNL A   1      41.473  22.207  28.161  1.00  0.00    -0.203 F 
ATOM     76  F   UNL A   1      44.045  19.016  24.588  1.00  0.00    -0.200 F 
ATOM     77  C   UNL A   1      42.427  19.293  26.278  1.00  0.00     0.200 A 
ATOM     78  F   UNL A   1      40.877  19.620  28.025  1.00  0.00    -0.200 F 
ATOM     79  F   UNL A   1      42.190  17.974  26.294  1.00  0.00    -0.200 F 
ENDBRANCH  45  69
BRANCH  57  80
ATOM     80  C   UNL A   1      47.565  26.496  26.168  1.00  0.00     0.064 A 
ATOM     81  C   UNL A   1      46.743  27.221  25.292  1.00  0.00     0.173 A 
ATOM     82  C   UNL A   1      48.886  26.247  25.765  1.00  0.00     0.173 A 
ATOM     83  F   UNL A   1      45.505  27.595  25.646  1.00  0.00    -0.203 F 
ATOM     84  C   UNL A   1      47.215  27.625  24.046  1.00  0.00     0.198 A 
ATOM     85  C   UNL A   1      49.367  26.698  24.539  1.00  0.00     0.198 A 
ATOM     86  F   UNL A   1      49.731  25.602  26.586  1.00  0.00    -0.203 F 
ATOM     87  F   UNL A   1      46.409  28.287  23.207  1.00  0.00    -0.200 F 
ATOM     88  C   UNL A   1      48.527  27.375  23.674  1.00  0.00     0.200 A 
ATOM     89  F   UNL A   1      50.649  26.496  24.209  1.00  0.00    -0.200 F 
ATOM     90  F   UNL A   1      48.986  27.812  22.493  1.00  0.00    -0.200 F 
ENDBRANCH  57  80
ENDBRANCH  31  32
ENDBRANCH  24  26
ENDBRANCH  23  24
ENDBRANCH  22  23
ENDBRANCH   1  22
TORSDOF 15
ENDMDL
MODEL 3
REMARK VINA RESULT:     -12.1      6.310     11.013
REMARK SMILES CC(C)[C@H](C)n1c(SCC(=O)OCCOC(=O)c2ccc(-c3c4nc(c(-c5c(F)c(F)c(F)c(F)c5F)c5ccc([nH]5)c(-c5c(F)c(F)c(F)c(F)c5F)c5nc(c(-c6c(F)c(F)c(F)c(F)c6F)c6ccc3[nH]6)C=C5)C=C4)cc2)nc2cc(Br)cnc21
REMARK SMILES IDX 13 1 12 2 10 3 11 4 9 5 8 6 7 7 6 8 88 9 81 10 82 11 87 12
REMARK SMILES IDX 83 13 86 14 84 15 85 16 4 17 5 18 2 19 1 20 3 21 14 22 15 23
REMARK SMILES IDX 16 24 17 25 18 26 19 27 80 28 20 29 79 30 21 31 22 32 23 33
REMARK SMILES IDX 73 34 24 35 78 36 72 37 74 38 25 39 77 40 71 41 70 42 26 44
REMARK SMILES IDX 58 45 38 46 57 47 39 48 42 49 56 50 75 51 40 52 41 53 55 55
REMARK SMILES IDX 76 56 43 57 27 58 28 59 36 60 29 61 30 62 34 63 37 64 31 65
REMARK SMILES IDX 32 66 35 67 33 68 59 69 60 70 68 71 61 72 62 73 66 74 69 75
REMARK SMILES IDX 63 76 64 77 67 78 65 79 44 80 45 81 53 82 46 83 47 84 51 85
REMARK SMILES IDX 54 86 48 87 49 88 52 89 50 90
REMARK H PARENT 74 43 42 54
REMARK Flexibility Score: inf
ROOT
ATOM      1  C   UNL A   1      33.575  30.419  27.197  1.00  0.00     0.274 C 
ENDROOT
BRANCH   1   2
ATOM      2  O   UNL A   1      33.928  29.021  27.077  1.00  0.00    -0.461 OA
BRANCH   2   3
ATOM      3  C   UNL A   1      32.947  28.218  26.566  1.00  0.00     0.316 C 
ATOM      4  O   UNL A   1      31.771  28.557  26.472  1.00  0.00    -0.251 OA
BRANCH   3   5
ATOM      5  C   UNL A   1      33.444  26.859  26.083  1.00  0.00     0.200 C 
BRANCH   5   6
ATOM      6  S   UNL A   1      33.716  26.800  24.307  1.00  0.00    -0.076 SA
BRANCH   6   7
ATOM      7  C   UNL A   1      32.293  27.290  23.422  1.00  0.00     0.171 A 
ATOM      8  N   UNL A   1      31.086  26.627  23.266  1.00  0.00    -0.301 N 
ATOM      9  C   UNL A   1      30.134  27.608  23.007  1.00  0.00     0.161 A 
ATOM     10  N   UNL A   1      32.170  28.573  23.124  1.00  0.00    -0.221 NA
ATOM     11  C   UNL A   1      30.829  28.802  23.018  1.00  0.00     0.110 A 
ATOM     12  N   UNL A   1      28.792  27.446  23.001  1.00  0.00    -0.235 NA
ATOM     13  C   UNL A   1      30.091  29.989  23.068  1.00  0.00     0.049 A 
ATOM     14  C   UNL A   1      28.113  28.611  23.114  1.00  0.00     0.129 A 
ATOM     15  C   UNL A   1      28.704  29.867  23.180  1.00  0.00     0.038 A 
ATOM     16  Br  UNL A   1      27.663  31.395  23.556  1.00  0.00    -0.049 Br
BRANCH   8  17
ATOM     17  C   UNL A   1      30.676  25.354  23.838  1.00  0.00     0.091 C 
ATOM     18  C   UNL A   1      31.357  24.242  23.037  1.00  0.00     0.032 C 
BRANCH  17  19
ATOM     19  C   UNL A   1      30.729  25.193  25.396  1.00  0.00     0.006 C 
ATOM     20  C   UNL A   1      29.481  25.581  26.188  1.00  0.00     0.009 C 
ATOM     21  C   UNL A   1      31.132  23.766  25.798  1.00  0.00     0.009 C 
ENDBRANCH  17  19
ENDBRANCH   8  17
ENDBRANCH   6   7
ENDBRANCH   5   6
ENDBRANCH   3   5
ENDBRANCH   2   3
ENDBRANCH   1   2
BRANCH   1  22
ATOM     22  C   UNL A   1      34.675  31.174  27.949  1.00  0.00     0.275 C 
BRANCH  22  23
ATOM     23  O   UNL A   1      36.032  30.747  27.699  1.00  0.00    -0.458 OA
BRANCH  23  24
ATOM     24  C   UNL A   1      36.698  30.202  28.737  1.00  0.00     0.338 C 
ATOM     25  O   UNL A   1      36.598  30.557  29.915  1.00  0.00    -0.246 OA
BRANCH  24  26
ATOM     26  C   UNL A   1      37.784  29.314  28.253  1.00  0.00     0.060 A 
ATOM     27  C   UNL A   1      38.082  28.207  29.047  1.00  0.00     0.016 A 
ATOM     28  C   UNL A   1      38.681  29.714  27.256  1.00  0.00     0.016 A 
ATOM     29  C   UNL A   1      39.359  27.656  29.000  1.00  0.00     0.010 A 
ATOM     30  C   UNL A   1      39.929  29.099  27.151  1.00  0.00     0.010 A 
ATOM     31  C   UNL A   1      40.316  28.128  28.084  1.00  0.00    -0.014 A 
BRANCH  31  32
ATOM     32  C   UNL A   1      41.636  27.453  28.055  1.00  0.00     0.031 A 
ATOM     33  C   UNL A   1      42.490  27.708  29.264  1.00  0.00     0.074 A 
ATOM     34  C   UNL A   1      42.019  26.536  27.137  1.00  0.00     0.049 A 
ATOM     35  N   UNL A   1      43.763  27.950  29.342  1.00  0.00    -0.248 NA
ATOM     36  C   UNL A   1      41.784  27.793  30.561  1.00  0.00     0.031 C 
ATOM     37  C   UNL A   1      41.232  26.025  26.011  1.00  0.00     0.029 A 
ATOM     38  N   UNL A   1      43.137  25.735  27.114  1.00  0.00    -0.354 N 
ATOM     39  C   UNL A   1      44.031  28.077  30.703  1.00  0.00     0.074 A 
ATOM     40  C   UNL A   1      42.767  28.129  31.387  1.00  0.00     0.031 C 
ATOM     41  C   UNL A   1      41.742  24.841  25.617  1.00  0.00     0.029 A 
ATOM     42  C   UNL A   1      42.941  24.563  26.387  1.00  0.00     0.049 A 
ATOM     43  H   UNL A   1      43.982  25.964  27.562  1.00  0.00     0.167 HD
ATOM     44  C   UNL A   1      45.258  27.880  31.248  1.00  0.00     0.037 A 
ATOM     45  C   UNL A   1      43.628  23.397  26.498  1.00  0.00     0.037 A 
ATOM     46  C   UNL A   1      46.335  28.047  30.325  1.00  0.00     0.049 A 
ATOM     47  C   UNL A   1      44.916  23.667  27.174  1.00  0.00     0.074 A 
ATOM     48  C   UNL A   1      46.843  29.096  29.591  1.00  0.00     0.029 A 
ATOM     49  N   UNL A   1      46.951  26.918  29.857  1.00  0.00    -0.354 N 
ATOM     50  N   UNL A   1      45.931  24.283  26.639  1.00  0.00    -0.248 NA
ATOM     51  C   UNL A   1      44.995  23.467  28.614  1.00  0.00     0.031 C 
ATOM     52  C   UNL A   1      47.445  28.506  28.444  1.00  0.00     0.029 A 
ATOM     53  C   UNL A   1      47.264  27.126  28.540  1.00  0.00     0.049 A 
ATOM     54  H   UNL A   1      47.137  26.102  30.374  1.00  0.00     0.167 HD
ATOM     55  C   UNL A   1      46.557  24.907  27.704  1.00  0.00     0.074 A 
ATOM     56  C   UNL A   1      46.039  24.247  28.892  1.00  0.00     0.031 C 
ATOM     57  C   UNL A   1      47.207  26.093  27.534  1.00  0.00     0.037 A 
BRANCH  44  58
ATOM     58  C   UNL A   1      45.412  27.173  32.566  1.00  0.00     0.064 A 
ATOM     59  C   UNL A   1      44.980  25.849  32.729  1.00  0.00     0.173 A 
ATOM     60  C   UNL A   1      45.749  27.868  33.751  1.00  0.00     0.173 A 
ATOM     61  F   UNL A   1      44.566  25.134  31.673  1.00  0.00    -0.203 F 
ATOM     62  C   UNL A   1      44.895  25.262  33.995  1.00  0.00     0.198 A 
ATOM     63  C   UNL A   1      45.724  27.263  35.001  1.00  0.00     0.198 A 
ATOM     64  F   UNL A   1      46.013  29.183  33.741  1.00  0.00    -0.203 F 
ATOM     65  F   UNL A   1      44.392  24.028  34.124  1.00  0.00    -0.200 F 
ATOM     66  C   UNL A   1      45.279  25.964  35.127  1.00  0.00     0.200 A 
ATOM     67  F   UNL A   1      46.070  27.972  36.085  1.00  0.00    -0.200 F 
ATOM     68  F   UNL A   1      45.170  25.412  36.342  1.00  0.00    -0.200 F 
ENDBRANCH  44  58
BRANCH  45  69
ATOM     69  C   UNL A   1      43.132  22.007  26.307  1.00  0.00     0.064 A 
ATOM     70  C   UNL A   1      43.781  21.123  25.425  1.00  0.00     0.173 A 
ATOM     71  C   UNL A   1      42.181  21.429  27.172  1.00  0.00     0.173 A 
ATOM     72  F   UNL A   1      44.738  21.572  24.599  1.00  0.00    -0.203 F 
ATOM     73  C   UNL A   1      43.511  19.749  25.426  1.00  0.00     0.198 A 
ATOM     74  C   UNL A   1      41.897  20.062  27.157  1.00  0.00     0.198 A 
ATOM     75  F   UNL A   1      41.573  22.157  28.118  1.00  0.00    -0.203 F 
ATOM     76  F   UNL A   1      44.204  18.933  24.620  1.00  0.00    -0.200 F 
ATOM     77  C   UNL A   1      42.573  19.220  26.295  1.00  0.00     0.200 A 
ATOM     78  F   UNL A   1      41.010  19.561  28.028  1.00  0.00    -0.200 F 
ATOM     79  F   UNL A   1      42.353  17.899  26.335  1.00  0.00    -0.200 F 
ENDBRANCH  45  69
BRANCH  57  80
ATOM     80  C   UNL A   1      47.641  26.468  26.149  1.00  0.00     0.064 A 
ATOM     81  C   UNL A   1      46.859  27.203  25.246  1.00  0.00     0.173 A 
ATOM     82  C   UNL A   1      48.961  26.171  25.777  1.00  0.00     0.173 A 
ATOM     83  F   UNL A   1      45.627  27.622  25.570  1.00  0.00    -0.203 F 
ATOM     84  C   UNL A   1      47.368  27.572  24.003  1.00  0.00     0.198 A 
ATOM     85  C   UNL A   1      49.479  26.586  24.554  1.00  0.00     0.198 A 
ATOM     86  F   UNL A   1      49.769  25.513  26.625  1.00  0.00    -0.203 F 
ATOM     87  F   UNL A   1      46.600  28.244  23.138  1.00  0.00    -0.200 F 
ATOM     88  C   UNL A   1      48.678  27.275  23.662  1.00  0.00     0.200 A 
ATOM     89  F   UNL A   1      50.761  26.338  24.252  1.00  0.00    -0.200 F 
ATOM     90  F   UNL A   1      49.173  27.677  22.483  1.00  0.00    -0.200 F 
ENDBRANCH  57  80
ENDBRANCH  31  32
ENDBRANCH  24  26
ENDBRANCH  23  24
ENDBRANCH  22  23
ENDBRANCH   1  22
TORSDOF 15
ENDMDL
