MODEL 1
REMARK VINA RESULT:     -13.3      0.000      0.000
REMARK SMILES CC1=CC[C@@H]2C(=O)N(c3ccc(Cl)c(C(=O)OCCOC(=O)c4ccc(-c5c6nc(c(-c7c(F)c(F)c(F)c(F)c7F)c7ccc([nH]7)c(-c7c(F)c(F)c(F)c(F)c7F)c7nc(c(-c8c(F)c(F)c(F)c(F)c8F)c8ccc5[nH]8)C=C7)C=C6)cc4)c3)C(=O)[C@H]2C1
REMARK SMILES IDX 19 1 18 2 17 3 15 4 16 5 14 6 9 7 10 8 86 9 11 10 12 11
REMARK SMILES IDX 13 12 8 13 1 14 2 15 3 16 90 17 4 18 89 19 5 20 87 21 6 22
REMARK SMILES IDX 88 23 7 24 20 25 21 26 22 27 23 28 24 29 85 30 25 31 84 32
REMARK SMILES IDX 26 33 27 34 28 35 78 36 29 37 83 38 77 39 79 40 30 41 82 42
REMARK SMILES IDX 76 43 75 44 31 46 63 47 43 48 62 49 44 50 47 51 61 52 80 53
REMARK SMILES IDX 45 54 46 55 60 57 81 58 48 59 32 60 33 61 41 62 34 63 35 64
REMARK SMILES IDX 39 65 42 66 36 67 37 68 40 69 38 70 64 71 65 72 73 73 66 74
REMARK SMILES IDX 67 75 71 76 74 77 68 78 69 79 72 80 70 81 49 82 50 83 58 84
REMARK SMILES IDX 51 85 52 86 56 87 59 88 53 89 54 90 57 91 55 92
REMARK H PARENT 79 45 47 56
REMARK Flexibility Score: inf
ROOT
ATOM      1  C   UNL A   1      31.425  31.008  26.019  1.00  0.00     0.275 C 
ENDROOT
BRANCH   1   2
ATOM      2  C   UNL A   1      31.256  29.830  25.065  1.00  0.00     0.275 C 
BRANCH   2   3
ATOM      3  O   UNL A   1      30.441  30.202  23.932  1.00  0.00    -0.458 OA
BRANCH   3   4
ATOM      4  C   UNL A   1      30.309  29.265  22.967  1.00  0.00     0.339 C 
ATOM      5  O   UNL A   1      30.344  29.447  21.759  1.00  0.00    -0.246 OA
BRANCH   4   6
ATOM      6  C   UNL A   1      30.214  27.905  23.533  1.00  0.00     0.080 A 
ATOM      7  C   UNL A   1      31.443  25.859  24.055  1.00  0.00     0.053 A 
ATOM      8  C   UNL A   1      30.230  25.183  24.193  1.00  0.00     0.028 A 
ATOM      9  C   UNL A   1      31.425  27.215  23.729  1.00  0.00     0.044 A 
ATOM     10  C   UNL A   1      29.019  25.875  24.053  1.00  0.00     0.023 A 
ATOM     11  C   UNL A   1      29.004  27.235  23.711  1.00  0.00     0.055 A 
ATOM     12  Cl  UNL A   1      27.469  27.974  23.440  1.00  0.00    -0.083 Cl
BRANCH   7  13
ATOM     13  N   UNL A   1      32.676  25.184  24.160  1.00  0.00    -0.250 N 
ATOM     14  C   UNL A   1      37.961  22.711  25.849  1.00  0.00     0.039 C 
ATOM     15  C   UNL A   1      36.819  23.216  25.013  1.00  0.00    -0.076 C 
ATOM     16  C   UNL A   1      36.703  22.900  23.703  1.00  0.00    -0.027 C 
ATOM     17  C   UNL A   1      35.800  24.094  25.739  1.00  0.00     0.044 C 
ATOM     18  C   UNL A   1      35.516  23.292  22.844  1.00  0.00     0.041 C 
ATOM     19  C   UNL A   1      34.879  24.750  24.724  1.00  0.00     0.096 C 
ATOM     20  C   UNL A   1      34.376  23.683  23.762  1.00  0.00     0.096 C 
ATOM     21  C   UNL A   1      33.600  25.398  25.170  1.00  0.00     0.238 C 
ATOM     22  C   UNL A   1      33.144  24.314  23.190  1.00  0.00     0.238 C 
ATOM     23  O   UNL A   1      33.469  26.049  26.195  1.00  0.00    -0.274 OA
ATOM     24  O   UNL A   1      32.665  24.061  22.101  1.00  0.00    -0.274 OA
ENDBRANCH   7  13
ENDBRANCH   4   6
ENDBRANCH   3   4
ENDBRANCH   2   3
ENDBRANCH   1   2
BRANCH   1  25
ATOM     25  O   UNL A   1      32.555  30.769  26.878  1.00  0.00    -0.458 OA
BRANCH  25  26
ATOM     26  C   UNL A   1      33.208  31.870  27.307  1.00  0.00     0.338 C 
ATOM     27  O   UNL A   1      32.782  33.012  27.385  1.00  0.00    -0.246 OA
BRANCH  26  28
ATOM     28  C   UNL A   1      34.558  31.495  27.754  1.00  0.00     0.060 A 
ATOM     29  C   UNL A   1      34.811  30.167  28.070  1.00  0.00     0.016 A 
ATOM     30  C   UNL A   1      35.517  32.469  28.019  1.00  0.00     0.016 A 
ATOM     31  C   UNL A   1      35.955  29.825  28.787  1.00  0.00     0.010 A 
ATOM     32  C   UNL A   1      36.730  32.098  28.615  1.00  0.00     0.010 A 
ATOM     33  C   UNL A   1      36.944  30.779  29.060  1.00  0.00    -0.014 A 
BRANCH  33  34
ATOM     34  C   UNL A   1      38.166  30.408  29.837  1.00  0.00     0.031 A 
ATOM     35  C   UNL A   1      39.214  29.503  29.233  1.00  0.00     0.074 A 
ATOM     36  C   UNL A   1      38.363  30.885  31.084  1.00  0.00     0.049 A 
ATOM     37  N   UNL A   1      40.227  28.903  29.811  1.00  0.00    -0.248 NA
ATOM     38  C   UNL A   1      39.095  29.217  27.796  1.00  0.00     0.031 C 
ATOM     39  C   UNL A   1      37.468  31.798  31.797  1.00  0.00     0.029 A 
ATOM     40  N   UNL A   1      39.388  30.672  31.977  1.00  0.00    -0.354 N 
ATOM     41  C   UNL A   1      40.808  28.107  28.830  1.00  0.00     0.074 A 
ATOM     42  C   UNL A   1      40.043  28.307  27.618  1.00  0.00     0.031 C 
ATOM     43  C   UNL A   1      38.005  32.109  32.985  1.00  0.00     0.029 A 
ATOM     44  C   UNL A   1      39.225  31.333  33.171  1.00  0.00     0.049 A 
ATOM     45  H   UNL A   1      40.165  30.099  31.780  1.00  0.00     0.167 HD
ATOM     46  C   UNL A   1      41.881  27.285  28.934  1.00  0.00     0.037 A 
ATOM     47  C   UNL A   1      39.939  31.288  34.311  1.00  0.00     0.037 A 
ATOM     48  C   UNL A   1      42.696  27.152  30.115  1.00  0.00     0.049 A 
ATOM     49  C   UNL A   1      41.124  30.368  34.402  1.00  0.00     0.074 A 
ATOM     50  C   UNL A   1      43.825  26.374  30.301  1.00  0.00     0.029 A 
ATOM     51  N   UNL A   1      42.479  27.829  31.306  1.00  0.00    -0.354 N 
ATOM     52  N   UNL A   1      41.627  29.577  33.489  1.00  0.00    -0.248 NA
ATOM     53  C   UNL A   1      41.822  30.318  35.694  1.00  0.00     0.031 C 
ATOM     54  C   UNL A   1      44.274  26.554  31.615  1.00  0.00     0.029 A 
ATOM     55  C   UNL A   1      43.450  27.480  32.232  1.00  0.00     0.049 A 
ATOM     56  H   UNL A   1      41.744  28.464  31.468  1.00  0.00     0.167 HD
ATOM     57  C   UNL A   1      42.704  28.941  34.089  1.00  0.00     0.074 A 
ATOM     58  C   UNL A   1      42.798  29.457  35.439  1.00  0.00     0.031 C 
ATOM     59  C   UNL A   1      43.535  28.006  33.569  1.00  0.00     0.037 A 
BRANCH  46  60
ATOM     60  C   UNL A   1      42.230  26.435  27.745  1.00  0.00     0.064 A 
ATOM     61  C   UNL A   1      43.232  26.798  26.834  1.00  0.00     0.173 A 
ATOM     62  C   UNL A   1      41.582  25.203  27.549  1.00  0.00     0.173 A 
ATOM     63  F   UNL A   1      43.878  27.966  26.973  1.00  0.00    -0.203 F 
ATOM     64  C   UNL A   1      43.553  25.976  25.756  1.00  0.00     0.198 A 
ATOM     65  C   UNL A   1      41.927  24.370  26.487  1.00  0.00     0.198 A 
ATOM     66  F   UNL A   1      40.625  24.799  28.398  1.00  0.00    -0.203 F 
ATOM     67  F   UNL A   1      44.484  26.364  24.875  1.00  0.00    -0.200 F 
ATOM     68  C   UNL A   1      42.906  24.760  25.588  1.00  0.00     0.200 A 
ATOM     69  F   UNL A   1      41.313  23.187  26.338  1.00  0.00    -0.200 F 
ATOM     70  F   UNL A   1      43.226  23.965  24.557  1.00  0.00    -0.200 F 
ENDBRANCH  46  60
BRANCH  47  71
ATOM     71  C   UNL A   1      39.520  32.109  35.478  1.00  0.00     0.064 A 
ATOM     72  C   UNL A   1      40.001  33.414  35.650  1.00  0.00     0.173 A 
ATOM     73  C   UNL A   1      38.623  31.613  36.436  1.00  0.00     0.173 A 
ATOM     74  F   UNL A   1      40.882  33.922  34.776  1.00  0.00    -0.203 F 
ATOM     75  C   UNL A   1      39.605  34.189  36.738  1.00  0.00     0.198 A 
ATOM     76  C   UNL A   1      38.202  32.400  37.505  1.00  0.00     0.198 A 
ATOM     77  F   UNL A   1      38.135  30.369  36.319  1.00  0.00    -0.203 F 
ATOM     78  F   UNL A   1      40.111  35.419  36.901  1.00  0.00    -0.200 F 
ATOM     79  C   UNL A   1      38.698  33.684  37.659  1.00  0.00     0.200 A 
ATOM     80  F   UNL A   1      37.313  31.914  38.381  1.00  0.00    -0.200 F 
ATOM     81  F   UNL A   1      38.307  34.436  38.697  1.00  0.00    -0.200 F 
ENDBRANCH  47  71
BRANCH  59  82
ATOM     82  C   UNL A   1      44.639  27.506  34.453  1.00  0.00     0.064 A 
ATOM     83  C   UNL A   1      45.879  28.159  34.522  1.00  0.00     0.173 A 
ATOM     84  C   UNL A   1      44.446  26.375  35.259  1.00  0.00     0.173 A 
ATOM     85  F   UNL A   1      46.119  29.234  33.756  1.00  0.00    -0.203 F 
ATOM     86  C   UNL A   1      46.893  27.682  35.348  1.00  0.00     0.198 A 
ATOM     87  C   UNL A   1      45.452  25.917  36.105  1.00  0.00     0.198 A 
ATOM     88  F   UNL A   1      43.276  25.718  35.232  1.00  0.00    -0.203 F 
ATOM     89  F   UNL A   1      48.086  28.294  35.363  1.00  0.00    -0.200 F 
ATOM     90  C   UNL A   1      46.677  26.567  36.143  1.00  0.00     0.200 A 
ATOM     91  F   UNL A   1      45.239  24.845  36.879  1.00  0.00    -0.200 F 
ATOM     92  F   UNL A   1      47.653  26.111  36.939  1.00  0.00    -0.200 F 
ENDBRANCH  59  82
ENDBRANCH  33  34
ENDBRANCH  26  28
ENDBRANCH  25  26
ENDBRANCH   1  25
TORSDOF 12
ENDMDL
MODEL 2
REMARK VINA RESULT:     -13.2      1.113      2.193
REMARK SMILES CC1=CC[C@@H]2C(=O)N(c3ccc(Cl)c(C(=O)OCCOC(=O)c4ccc(-c5c6nc(c(-c7c(F)c(F)c(F)c(F)c7F)c7ccc([nH]7)c(-c7c(F)c(F)c(F)c(F)c7F)c7nc(c(-c8c(F)c(F)c(F)c(F)c8F)c8ccc5[nH]8)C=C7)C=C6)cc4)c3)C(=O)[C@H]2C1
REMARK SMILES IDX 19 1 18 2 17 3 15 4 16 5 14 6 9 7 10 8 86 9 11 10 12 11
REMARK SMILES IDX 13 12 8 13 1 14 2 15 3 16 90 17 4 18 89 19 5 20 87 21 6 22
REMARK SMILES IDX 88 23 7 24 20 25 21 26 22 27 23 28 24 29 85 30 25 31 84 32
REMARK SMILES IDX 26 33 27 34 28 35 78 36 29 37 83 38 77 39 79 40 30 41 82 42
REMARK SMILES IDX 76 43 75 44 31 46 63 47 43 48 62 49 44 50 47 51 61 52 80 53
REMARK SMILES IDX 45 54 46 55 60 57 81 58 48 59 32 60 33 61 41 62 34 63 35 64
REMARK SMILES IDX 39 65 42 66 36 67 37 68 40 69 38 70 64 71 65 72 73 73 66 74
REMARK SMILES IDX 67 75 71 76 74 77 68 78 69 79 72 80 70 81 49 82 50 83 58 84
REMARK SMILES IDX 51 85 52 86 56 87 59 88 53 89 54 90 57 91 55 92
REMARK H PARENT 79 45 47 56
REMARK Flexibility Score: inf
ROOT
ATOM      1  C   UNL A   1      31.761  30.450  25.768  1.00  0.00     0.275 C 
ENDROOT
BRANCH   1   2
ATOM      2  C   UNL A   1      32.137  29.129  25.104  1.00  0.00     0.275 C 
BRANCH   2   3
ATOM      3  O   UNL A   1      30.991  28.254  25.017  1.00  0.00    -0.458 OA
BRANCH   3   4
ATOM      4  C   UNL A   1      31.007  27.177  25.834  1.00  0.00     0.339 C 
ATOM      5  O   UNL A   1      30.940  27.182  27.054  1.00  0.00    -0.246 OA
BRANCH   4   6
ATOM      6  C   UNL A   1      31.012  25.913  25.073  1.00  0.00     0.080 A 
ATOM      7  C   UNL A   1      32.357  23.995  24.377  1.00  0.00     0.053 A 
ATOM      8  C   UNL A   1      31.401  23.697  23.405  1.00  0.00     0.028 A 
ATOM      9  C   UNL A   1      32.152  25.099  25.205  1.00  0.00     0.044 A 
ATOM     10  C   UNL A   1      30.236  24.469  23.303  1.00  0.00     0.023 A 
ATOM     11  C   UNL A   1      30.041  25.586  24.127  1.00  0.00     0.055 A 
ATOM     12  Cl  UNL A   1      28.637  26.550  23.849  1.00  0.00    -0.083 Cl
BRANCH   7  13
ATOM     13  N   UNL A   1      33.552  23.255  24.484  1.00  0.00    -0.250 N 
ATOM     14  C   UNL A   1      37.893  19.039  25.018  1.00  0.00     0.039 C 
ATOM     15  C   UNL A   1      37.176  20.360  24.979  1.00  0.00    -0.076 C 
ATOM     16  C   UNL A   1      37.849  21.532  24.937  1.00  0.00    -0.027 C 
ATOM     17  C   UNL A   1      35.649  20.290  24.978  1.00  0.00     0.044 C 
ATOM     18  C   UNL A   1      37.178  22.884  24.786  1.00  0.00     0.041 C 
ATOM     19  C   UNL A   1      35.076  21.676  25.220  1.00  0.00     0.096 C 
ATOM     20  C   UNL A   1      35.766  22.658  24.285  1.00  0.00     0.096 C 
ATOM     21  C   UNL A   1      33.625  21.952  24.950  1.00  0.00     0.238 C 
ATOM     22  C   UNL A   1      34.801  23.802  24.242  1.00  0.00     0.238 C 
ATOM     23  O   UNL A   1      32.712  21.178  25.188  1.00  0.00    -0.274 OA
ATOM     24  O   UNL A   1      35.091  24.959  24.005  1.00  0.00    -0.274 OA
ENDBRANCH   7  13
ENDBRANCH   4   6
ENDBRANCH   3   4
ENDBRANCH   2   3
ENDBRANCH   1   2
BRANCH   1  25
ATOM     25  O   UNL A   1      32.404  30.538  27.053  1.00  0.00    -0.458 OA
BRANCH  25  26
ATOM     26  C   UNL A   1      33.094  31.675  27.285  1.00  0.00     0.338 C 
ATOM     27  O   UNL A   1      32.692  32.826  27.205  1.00  0.00    -0.246 OA
BRANCH  26  28
ATOM     28  C   UNL A   1      34.454  31.339  27.731  1.00  0.00     0.060 A 
ATOM     29  C   UNL A   1      34.757  30.013  28.010  1.00  0.00     0.016 A 
ATOM     30  C   UNL A   1      35.374  32.340  28.030  1.00  0.00     0.016 A 
ATOM     31  C   UNL A   1      35.907  29.694  28.726  1.00  0.00     0.010 A 
ATOM     32  C   UNL A   1      36.597  31.999  28.624  1.00  0.00     0.010 A 
ATOM     33  C   UNL A   1      36.858  30.677  29.033  1.00  0.00    -0.014 A 
BRANCH  33  34
ATOM     34  C   UNL A   1      38.089  30.331  29.808  1.00  0.00     0.031 A 
ATOM     35  C   UNL A   1      39.151  29.443  29.204  1.00  0.00     0.074 A 
ATOM     36  C   UNL A   1      38.280  30.814  31.054  1.00  0.00     0.049 A 
ATOM     37  N   UNL A   1      40.176  28.864  29.781  1.00  0.00    -0.248 NA
ATOM     38  C   UNL A   1      39.034  29.151  27.768  1.00  0.00     0.031 C 
ATOM     39  C   UNL A   1      37.370  31.713  31.766  1.00  0.00     0.029 A 
ATOM     40  N   UNL A   1      39.310  30.623  31.944  1.00  0.00    -0.354 N 
ATOM     41  C   UNL A   1      40.769  28.075  28.802  1.00  0.00     0.074 A 
ATOM     42  C   UNL A   1      39.998  28.257  27.591  1.00  0.00     0.031 C 
ATOM     43  C   UNL A   1      37.904  32.038  32.952  1.00  0.00     0.029 A 
ATOM     44  C   UNL A   1      39.138  31.285  33.137  1.00  0.00     0.049 A 
ATOM     45  H   UNL A   1      40.097  30.063  31.748  1.00  0.00     0.167 HD
ATOM     46  C   UNL A   1      41.858  27.273  28.905  1.00  0.00     0.037 A 
ATOM     47  C   UNL A   1      39.855  31.255  34.276  1.00  0.00     0.037 A 
ATOM     48  C   UNL A   1      42.677  27.158  30.084  1.00  0.00     0.049 A 
ATOM     49  C   UNL A   1      41.057  30.358  34.367  1.00  0.00     0.074 A 
ATOM     50  C   UNL A   1      43.821  26.401  30.271  1.00  0.00     0.029 A 
ATOM     51  N   UNL A   1      42.451  27.835  31.274  1.00  0.00    -0.354 N 
ATOM     52  N   UNL A   1      41.573  29.573  33.455  1.00  0.00    -0.248 NA
ATOM     53  C   UNL A   1      41.759  30.324  35.657  1.00  0.00     0.031 C 
ATOM     54  C   UNL A   1      44.269  26.593  31.582  1.00  0.00     0.029 A 
ATOM     55  C   UNL A   1      43.430  27.506  32.199  1.00  0.00     0.049 A 
ATOM     56  H   UNL A   1      41.705  28.457  31.437  1.00  0.00     0.167 HD
ATOM     57  C   UNL A   1      42.662  28.958  34.054  1.00  0.00     0.074 A 
ATOM     58  C   UNL A   1      42.750  29.480  35.402  1.00  0.00     0.031 C 
ATOM     59  C   UNL A   1      43.509  28.037  33.535  1.00  0.00     0.037 A 
BRANCH  46  60
ATOM     60  C   UNL A   1      42.219  26.425  27.718  1.00  0.00     0.064 A 
ATOM     61  C   UNL A   1      43.222  26.797  26.812  1.00  0.00     0.173 A 
ATOM     62  C   UNL A   1      41.582  25.189  27.518  1.00  0.00     0.173 A 
ATOM     63  F   UNL A   1      43.859  27.969  26.954  1.00  0.00    -0.203 F 
ATOM     64  C   UNL A   1      43.555  25.977  25.736  1.00  0.00     0.198 A 
ATOM     65  C   UNL A   1      41.938  24.359  26.458  1.00  0.00     0.198 A 
ATOM     66  F   UNL A   1      40.623  24.778  28.362  1.00  0.00    -0.203 F 
ATOM     67  F   UNL A   1      44.488  26.373  24.859  1.00  0.00    -0.200 F 
ATOM     68  C   UNL A   1      42.919  24.757  25.564  1.00  0.00     0.200 A 
ATOM     69  F   UNL A   1      41.334  23.172  26.306  1.00  0.00    -0.200 F 
ATOM     70  F   UNL A   1      43.250  23.965  24.534  1.00  0.00    -0.200 F 
ENDBRANCH  46  60
BRANCH  47  71
ATOM     71  C   UNL A   1      39.425  32.072  35.441  1.00  0.00     0.064 A 
ATOM     72  C   UNL A   1      38.557  31.545  36.408  1.00  0.00     0.173 A 
ATOM     73  C   UNL A   1      39.881  33.387  35.621  1.00  0.00     0.173 A 
ATOM     74  F   UNL A   1      38.072  30.303  36.266  1.00  0.00    -0.203 F 
ATOM     75  C   UNL A   1      38.158  32.305  37.506  1.00  0.00     0.198 A 
ATOM     76  C   UNL A   1      39.508  34.134  36.736  1.00  0.00     0.198 A 
ATOM     77  F   UNL A   1      40.712  33.938  34.723  1.00  0.00    -0.203 F 
ATOM     78  F   UNL A   1      37.296  31.793  38.394  1.00  0.00    -0.200 F 
ATOM     79  C   UNL A   1      38.642  33.595  37.673  1.00  0.00     0.200 A 
ATOM     80  F   UNL A   1      39.991  35.371  36.901  1.00  0.00    -0.200 F 
ATOM     81  F   UNL A   1      38.268  34.319  38.737  1.00  0.00    -0.200 F 
ENDBRANCH  47  71
BRANCH  59  82
ATOM     82  C   UNL A   1      44.624  27.560  34.417  1.00  0.00     0.064 A 
ATOM     83  C   UNL A   1      44.494  26.412  35.212  1.00  0.00     0.173 A 
ATOM     84  C   UNL A   1      45.847  28.247  34.448  1.00  0.00     0.173 A 
ATOM     85  F   UNL A   1      43.337  25.732  35.230  1.00  0.00    -0.203 F 
ATOM     86  C   UNL A   1      45.539  25.983  36.025  1.00  0.00     0.198 A 
ATOM     87  C   UNL A   1      46.900  27.799  35.241  1.00  0.00     0.198 A 
ATOM     88  F   UNL A   1      46.023  29.348  33.702  1.00  0.00    -0.203 F 
ATOM     89  F   UNL A   1      45.377  24.910  36.812  1.00  0.00    -0.200 F 
ATOM     90  C   UNL A   1      46.742  26.672  36.034  1.00  0.00     0.200 A 
ATOM     91  F   UNL A   1      48.065  28.461  35.242  1.00  0.00    -0.200 F 
ATOM     92  F   UNL A   1      47.749  26.256  36.815  1.00  0.00    -0.200 F 
ENDBRANCH  59  82
ENDBRANCH  33  34
ENDBRANCH  26  28
ENDBRANCH  25  26
ENDBRANCH   1  25
TORSDOF 12
ENDMDL
MODEL 3
REMARK VINA RESULT:     -13.1      4.488      9.830
REMARK SMILES CC1=CC[C@@H]2C(=O)N(c3ccc(Cl)c(C(=O)OCCOC(=O)c4ccc(-c5c6nc(c(-c7c(F)c(F)c(F)c(F)c7F)c7ccc([nH]7)c(-c7c(F)c(F)c(F)c(F)c7F)c7nc(c(-c8c(F)c(F)c(F)c(F)c8F)c8ccc5[nH]8)C=C7)C=C6)cc4)c3)C(=O)[C@H]2C1
REMARK SMILES IDX 19 1 18 2 17 3 15 4 16 5 14 6 9 7 10 8 86 9 11 10 12 11
REMARK SMILES IDX 13 12 8 13 1 14 2 15 3 16 90 17 4 18 89 19 5 20 87 21 6 22
REMARK SMILES IDX 88 23 7 24 20 25 21 26 22 27 23 28 24 29 85 30 25 31 84 32
REMARK SMILES IDX 26 33 27 34 28 35 78 36 29 37 83 38 77 39 79 40 30 41 82 42
REMARK SMILES IDX 76 43 75 44 31 46 63 47 43 48 62 49 44 50 47 51 61 52 80 53
REMARK SMILES IDX 45 54 46 55 60 57 81 58 48 59 32 60 33 61 41 62 34 63 35 64
REMARK SMILES IDX 39 65 42 66 36 67 37 68 40 69 38 70 64 71 65 72 73 73 66 74
REMARK SMILES IDX 67 75 71 76 74 77 68 78 69 79 72 80 70 81 49 82 50 83 58 84
REMARK SMILES IDX 51 85 52 86 56 87 59 88 53 89 54 90 57 91 55 92
REMARK H PARENT 79 45 47 56
REMARK Flexibility Score: inf
ROOT
ATOM      1  C   UNL A   1      37.160  20.269  25.001  1.00  0.00     0.275 C 
ENDROOT
BRANCH   1   2
ATOM      2  C   UNL A   1      35.734  20.693  25.338  1.00  0.00     0.275 C 
BRANCH   2   3
ATOM      3  O   UNL A   1      34.792  19.665  24.961  1.00  0.00    -0.458 OA
BRANCH   3   4
ATOM      4  C   UNL A   1      33.490  19.946  25.189  1.00  0.00     0.339 C 
ATOM      5  O   UNL A   1      32.766  19.433  26.031  1.00  0.00    -0.246 OA
BRANCH   4   6
ATOM      6  C   UNL A   1      33.014  21.063  24.351  1.00  0.00     0.080 A 
ATOM      7  C   UNL A   1      32.480  23.447  24.299  1.00  0.00     0.053 A 
ATOM      8  C   UNL A   1      31.786  23.250  23.105  1.00  0.00     0.028 A 
ATOM      9  C   UNL A   1      33.091  22.352  24.910  1.00  0.00     0.044 A 
ATOM     10  C   UNL A   1      31.750  21.980  22.512  1.00  0.00     0.023 A 
ATOM     11  C   UNL A   1      32.353  20.879  23.137  1.00  0.00     0.055 A 
ATOM     12  Cl  UNL A   1      32.153  19.333  22.398  1.00  0.00    -0.083 Cl
BRANCH   7  13
ATOM     13  N   UNL A   1      32.508  24.705  24.934  1.00  0.00    -0.250 N 
ATOM     14  C   UNL A   1      33.810  30.226  27.109  1.00  0.00     0.039 C 
ATOM     15  C   UNL A   1      33.158  28.889  26.892  1.00  0.00    -0.076 C 
ATOM     16  C   UNL A   1      31.952  28.592  27.428  1.00  0.00    -0.027 C 
ATOM     17  C   UNL A   1      33.936  27.901  26.024  1.00  0.00     0.044 C 
ATOM     18  C   UNL A   1      31.202  27.304  27.151  1.00  0.00     0.041 C 
ATOM     19  C   UNL A   1      33.301  26.524  26.126  1.00  0.00     0.096 C 
ATOM     20  C   UNL A   1      31.800  26.663  25.915  1.00  0.00     0.096 C 
ATOM     21  C   UNL A   1      33.658  25.451  25.139  1.00  0.00     0.238 C 
ATOM     22  C   UNL A   1      31.395  25.275  25.527  1.00  0.00     0.238 C 
ATOM     23  O   UNL A   1      34.778  25.258  24.693  1.00  0.00    -0.274 OA
ATOM     24  O   UNL A   1      30.289  24.794  25.688  1.00  0.00    -0.274 OA
ENDBRANCH   7  13
ENDBRANCH   4   6
ENDBRANCH   3   4
ENDBRANCH   2   3
ENDBRANCH   1   2
BRANCH   1  25
ATOM     25  O   UNL A   1      38.055  21.370  25.245  1.00  0.00    -0.458 OA
BRANCH  25  26
ATOM     26  C   UNL A   1      39.144  21.085  25.991  1.00  0.00     0.338 C 
ATOM     27  O   UNL A   1      39.698  20.004  26.127  1.00  0.00    -0.246 OA
BRANCH  26  28
ATOM     28  C   UNL A   1      39.649  22.318  26.611  1.00  0.00     0.060 A 
ATOM     29  C   UNL A   1      39.141  23.537  26.182  1.00  0.00     0.016 A 
ATOM     30  C   UNL A   1      40.732  22.285  27.486  1.00  0.00     0.016 A 
ATOM     31  C   UNL A   1      39.800  24.721  26.501  1.00  0.00     0.010 A 
ATOM     32  C   UNL A   1      41.306  23.488  27.918  1.00  0.00     0.010 A 
ATOM     33  C   UNL A   1      40.886  24.722  27.387  1.00  0.00    -0.014 A 
BRANCH  33  34
ATOM     34  C   UNL A   1      41.595  25.996  27.721  1.00  0.00     0.031 A 
ATOM     35  C   UNL A   1      40.918  27.054  28.559  1.00  0.00     0.074 A 
ATOM     36  C   UNL A   1      42.856  26.217  27.292  1.00  0.00     0.049 A 
ATOM     37  N   UNL A   1      41.278  28.296  28.779  1.00  0.00    -0.248 NA
ATOM     38  C   UNL A   1      39.660  26.675  29.218  1.00  0.00     0.031 C 
ATOM     39  C   UNL A   1      43.663  25.282  26.507  1.00  0.00     0.029 A 
ATOM     40  N   UNL A   1      43.686  27.300  27.463  1.00  0.00    -0.354 N 
ATOM     41  C   UNL A   1      40.252  28.864  29.526  1.00  0.00     0.074 A 
ATOM     42  C   UNL A   1      39.260  27.831  29.730  1.00  0.00     0.031 C 
ATOM     43  C   UNL A   1      44.883  25.803  26.312  1.00  0.00     0.029 A 
ATOM     44  C   UNL A   1      44.913  27.154  26.858  1.00  0.00     0.049 A 
ATOM     45  H   UNL A   1      43.427  28.104  27.969  1.00  0.00     0.167 HD
ATOM     46  C   UNL A   1      40.149  30.131  29.995  1.00  0.00     0.037 A 
ATOM     47  C   UNL A   1      45.932  28.021  26.707  1.00  0.00     0.037 A 
ATOM     48  C   UNL A   1      41.174  31.135  29.867  1.00  0.00     0.049 A 
ATOM     49  C   UNL A   1      45.794  29.420  27.235  1.00  0.00     0.074 A 
ATOM     50  C   UNL A   1      41.176  32.434  30.344  1.00  0.00     0.029 A 
ATOM     51  N   UNL A   1      42.391  30.945  29.229  1.00  0.00    -0.354 N 
ATOM     52  N   UNL A   1      44.796  29.963  27.887  1.00  0.00    -0.248 NA
ATOM     53  C   UNL A   1      46.915  30.335  26.982  1.00  0.00     0.031 C 
ATOM     54  C   UNL A   1      42.379  33.042  29.968  1.00  0.00     0.029 A 
ATOM     55  C   UNL A   1      43.147  32.106  29.295  1.00  0.00     0.049 A 
ATOM     56  H   UNL A   1      42.677  30.109  28.794  1.00  0.00     0.167 HD
ATOM     57  C   UNL A   1      45.169  31.276  28.129  1.00  0.00     0.074 A 
ATOM     58  C   UNL A   1      46.497  31.444  27.577  1.00  0.00     0.031 C 
ATOM     59  C   UNL A   1      44.469  32.258  28.747  1.00  0.00     0.037 A 
BRANCH  46  60
ATOM     60  C   UNL A   1      38.867  30.526  30.674  1.00  0.00     0.064 A 
ATOM     61  C   UNL A   1      38.723  30.507  32.068  1.00  0.00     0.173 A 
ATOM     62  C   UNL A   1      37.780  30.982  29.909  1.00  0.00     0.173 A 
ATOM     63  F   UNL A   1      39.728  30.075  32.844  1.00  0.00    -0.203 F 
ATOM     64  C   UNL A   1      37.531  30.905  32.671  1.00  0.00     0.198 A 
ATOM     65  C   UNL A   1      36.601  31.407  30.516  1.00  0.00     0.198 A 
ATOM     66  F   UNL A   1      37.868  31.033  28.571  1.00  0.00    -0.203 F 
ATOM     67  F   UNL A   1      37.403  30.838  34.003  1.00  0.00    -0.200 F 
ATOM     68  C   UNL A   1      36.475  31.361  31.896  1.00  0.00     0.200 A 
ATOM     69  F   UNL A   1      35.589  31.866  29.767  1.00  0.00    -0.200 F 
ATOM     70  F   UNL A   1      35.334  31.754  32.479  1.00  0.00    -0.200 F 
ENDBRANCH  46  60
BRANCH  47  71
ATOM     71  C   UNL A   1      47.158  27.599  25.980  1.00  0.00     0.064 A 
ATOM     72  C   UNL A   1      48.258  27.070  26.669  1.00  0.00     0.173 A 
ATOM     73  C   UNL A   1      47.252  27.701  24.583  1.00  0.00     0.173 A 
ATOM     74  F   UNL A   1      48.227  26.977  28.007  1.00  0.00    -0.203 F 
ATOM     75  C   UNL A   1      49.406  26.666  25.990  1.00  0.00     0.198 A 
ATOM     76  C   UNL A   1      48.387  27.267  23.903  1.00  0.00     0.198 A 
ATOM     77  F   UNL A   1      46.227  28.203  23.877  1.00  0.00    -0.203 F 
ATOM     78  F   UNL A   1      50.459  26.202  26.676  1.00  0.00    -0.200 F 
ATOM     79  C   UNL A   1      49.465  26.756  24.607  1.00  0.00     0.200 A 
ATOM     80  F   UNL A   1      48.431  27.340  22.566  1.00  0.00    -0.200 F 
ATOM     81  F   UNL A   1      50.564  26.354  23.954  1.00  0.00    -0.200 F 
ENDBRANCH  47  71
BRANCH  59  82
ATOM     82  C   UNL A   1      45.141  33.591  28.889  1.00  0.00     0.064 A 
ATOM     83  C   UNL A   1      45.968  33.886  29.982  1.00  0.00     0.173 A 
ATOM     84  C   UNL A   1      44.975  34.577  27.905  1.00  0.00     0.173 A 
ATOM     85  F   UNL A   1      46.143  32.982  30.958  1.00  0.00    -0.203 F 
ATOM     86  C   UNL A   1      46.585  35.128  30.098  1.00  0.00     0.198 A 
ATOM     87  C   UNL A   1      45.616  35.809  28.009  1.00  0.00     0.198 A 
ATOM     88  F   UNL A   1      44.197  34.342  26.837  1.00  0.00    -0.203 F 
ATOM     89  F   UNL A   1      47.334  35.405  31.175  1.00  0.00    -0.200 F 
ATOM     90  C   UNL A   1      46.414  36.085  29.109  1.00  0.00     0.200 A 
ATOM     91  F   UNL A   1      45.456  36.729  27.049  1.00  0.00    -0.200 F 
ATOM     92  F   UNL A   1      47.011  37.280  29.220  1.00  0.00    -0.200 F 
ENDBRANCH  59  82
ENDBRANCH  33  34
ENDBRANCH  26  28
ENDBRANCH  25  26
ENDBRANCH   1  25
TORSDOF 12
ENDMDL
