MODEL 1
REMARK VINA RESULT:     -12.6      0.000      0.000
REMARK SMILES CC1(C)CCN(c2ncccc2C(=O)OCCOC(=O)c2ccc(-c3c4nc(c(-c5c(F)c(F)c(F)c(F)c5F)c5ccc([nH]5)c(-c5c(F)c(F)c(F)c(F)c5F)c5nc(c(-c6c(F)c(F)c(F)c(F)c6F)c6ccc3[nH]6)C=C5)C=C4)cc2)C1
REMARK SMILES IDX 17 1 16 2 15 3 13 4 14 5 12 6 7 7 8 8 9 9 11 10 10 11 6 12
REMARK SMILES IDX 1 13 2 14 3 15 4 16 84 17 5 18 18 19 19 20 20 21 21 22 22 23
REMARK SMILES IDX 83 24 23 25 82 26 24 27 25 28 26 29 76 30 27 31 81 32 75 33
REMARK SMILES IDX 77 34 28 35 80 36 74 37 73 38 29 40 61 41 41 42 60 43 42 44
REMARK SMILES IDX 45 45 59 46 78 47 43 48 44 49 58 51 79 52 46 53 30 54 31 55
REMARK SMILES IDX 39 56 32 57 33 58 37 59 40 60 34 61 35 62 38 63 36 64 62 65
REMARK SMILES IDX 63 66 71 67 64 68 65 69 69 70 72 71 66 72 67 73 70 74 68 75
REMARK SMILES IDX 47 76 48 77 56 78 49 79 50 80 54 81 57 82 51 83 52 84 55 85
REMARK SMILES IDX 53 86
REMARK H PARENT 77 39 45 50
REMARK Flexibility Score: inf
ROOT
ATOM      1  C   UNL A   1      31.540  29.381  25.296  1.00  0.00     0.275 C 
ENDROOT
BRANCH   1   2
ATOM      2  C   UNL A   1      31.523  28.148  26.202  1.00  0.00     0.275 C 
BRANCH   2   3
ATOM      3  O   UNL A   1      31.653  26.919  25.436  1.00  0.00    -0.458 OA
BRANCH   3   4
ATOM      4  C   UNL A   1      32.912  26.545  25.059  1.00  0.00     0.342 C 
ATOM      5  O   UNL A   1      33.932  26.779  25.687  1.00  0.00    -0.246 OA
BRANCH   4   6
ATOM      6  C   UNL A   1      32.904  25.850  23.744  1.00  0.00     0.102 A 
ATOM      7  C   UNL A   1      33.647  24.689  23.413  1.00  0.00     0.143 A 
ATOM      8  N   UNL A   1      33.642  24.218  22.138  1.00  0.00    -0.238 NA
ATOM      9  C   UNL A   1      32.906  24.850  21.201  1.00  0.00     0.113 A 
ATOM     10  C   UNL A   1      32.127  26.462  22.749  1.00  0.00     0.021 A 
ATOM     11  C   UNL A   1      32.121  25.953  21.460  1.00  0.00     0.021 A 
BRANCH   7  12
ATOM     12  N   UNL A   1      34.113  23.744  24.316  1.00  0.00    -0.355 N 
ATOM     13  C   UNL A   1      37.279  23.707  26.122  1.00  0.00     0.013 C 
ATOM     14  C   UNL A   1      36.718  22.107  25.127  1.00  0.00    -0.016 C 
ATOM     15  C   UNL A   1      37.223  20.298  24.738  1.00  0.00     0.013 C 
ATOM     16  C   UNL A   1      34.952  20.876  24.955  1.00  0.00     0.030 C 
ATOM     17  C   UNL A   1      35.894  23.964  24.516  1.00  0.00     0.124 C 
ATOM     18  C   UNL A   1      33.494  22.104  24.499  1.00  0.00     0.119 C 
ENDBRANCH   7  12
ENDBRANCH   4   6
ENDBRANCH   3   4
ENDBRANCH   2   3
ENDBRANCH   1   2
BRANCH   1  19
ATOM     19  O   UNL A   1      32.708  30.144  25.607  1.00  0.00    -0.458 OA
BRANCH  19  20
ATOM     20  C   UNL A   1      32.501  31.008  26.610  1.00  0.00     0.338 C 
ATOM     21  O   UNL A   1      31.509  31.659  26.886  1.00  0.00    -0.246 OA
BRANCH  20  22
ATOM     22  C   UNL A   1      33.654  30.994  27.479  1.00  0.00     0.060 A 
ATOM     23  C   UNL A   1      34.495  32.568  27.917  1.00  0.00     0.016 A 
ATOM     24  C   UNL A   1      34.490  29.437  27.753  1.00  0.00     0.016 A 
ATOM     25  C   UNL A   1      36.510  32.462  28.370  1.00  0.00     0.010 A 
ATOM     26  C   UNL A   1      36.037  29.332  28.695  1.00  0.00     0.010 A 
ATOM     27  C   UNL A   1      37.081  30.802  29.072  1.00  0.00    -0.014 A 
BRANCH  27  28
ATOM     28  C   UNL A   1      38.279  30.379  29.871  1.00  0.00     0.031 A 
ATOM     29  C   UNL A   1      39.250  29.318  29.331  1.00  0.00     0.074 A 
ATOM     30  C   UNL A   1      38.332  30.720  31.177  1.00  0.00     0.049 A 
ATOM     31  N   UNL A   1      40.327  28.831  29.900  1.00  0.00    -0.248 NA
ATOM     32  C   UNL A   1      38.991  28.655  28.033  1.00  0.00     0.031 C 
ATOM     33  C   UNL A   1      37.260  31.381  31.901  1.00  0.00     0.029 A 
ATOM     34  N   UNL A   1      39.266  30.551  32.163  1.00  0.00    -0.354 N 
ATOM     35  C   UNL A   1      40.870  27.924  28.990  1.00  0.00     0.074 A 
ATOM     36  C   UNL A   1      40.001  27.833  27.869  1.00  0.00     0.031 C 
ATOM     37  C   UNL A   1      37.660  31.804  33.101  1.00  0.00     0.029 A 
ATOM     38  C   UNL A   1      38.944  31.194  33.346  1.00  0.00     0.049 A 
ATOM     39  H   UNL A   1      40.089  30.024  32.042  1.00  0.00     0.167 HD
ATOM     40  C   UNL A   1      42.002  27.198  29.069  1.00  0.00     0.037 A 
ATOM     41  C   UNL A   1      39.563  31.205  34.538  1.00  0.00     0.037 A 
ATOM     42  C   UNL A   1      42.760  27.144  30.271  1.00  0.00     0.049 A 
ATOM     43  C   UNL A   1      40.776  30.336  34.629  1.00  0.00     0.074 A 
ATOM     44  C   UNL A   1      43.894  26.417  30.546  1.00  0.00     0.029 A 
ATOM     45  N   UNL A   1      42.399  27.828  31.425  1.00  0.00    -0.354 N 
ATOM     46  N   UNL A   1      41.307  29.576  33.700  1.00  0.00    -0.248 NA
ATOM     47  C   UNL A   1      41.460  30.288  35.921  1.00  0.00     0.031 C 
ATOM     48  C   UNL A   1      44.192  26.619  31.893  1.00  0.00     0.029 A 
ATOM     49  C   UNL A   1      43.298  27.542  32.425  1.00  0.00     0.049 A 
ATOM     50  H   UNL A   1      41.621  28.424  31.514  1.00  0.00     0.167 HD
ATOM     51  C   UNL A   1      42.415  28.991  34.276  1.00  0.00     0.074 A 
ATOM     52  C   UNL A   1      42.482  29.495  35.636  1.00  0.00     0.031 C 
ATOM     53  C   UNL A   1      43.302  28.121  33.743  1.00  0.00     0.037 A 
BRANCH  40  54
ATOM     54  C   UNL A   1      42.411  26.422  27.848  1.00  0.00     0.064 A 
ATOM     55  C   UNL A   1      41.895  25.133  27.609  1.00  0.00     0.173 A 
ATOM     56  C   UNL A   1      43.362  26.917  26.947  1.00  0.00     0.173 A 
ATOM     57  F   UNL A   1      41.026  24.583  28.472  1.00  0.00    -0.203 F 
ATOM     58  C   UNL A   1      42.327  24.371  26.527  1.00  0.00     0.198 A 
ATOM     59  C   UNL A   1      43.766  26.165  25.845  1.00  0.00     0.198 A 
ATOM     60  F   UNL A   1      43.926  28.116  27.150  1.00  0.00    -0.203 F 
ATOM     61  F   UNL A   1      41.873  23.120  26.366  1.00  0.00    -0.200 F 
ATOM     62  C   UNL A   1      43.252  24.893  25.638  1.00  0.00     0.200 A 
ATOM     63  F   UNL A   1      44.669  26.664  24.990  1.00  0.00    -0.200 F 
ATOM     64  F   UNL A   1      43.665  24.161  24.594  1.00  0.00    -0.200 F 
ENDBRANCH  40  54
BRANCH  41  65
ATOM     65  C   UNL A   1      39.047  31.990  35.700  1.00  0.00     0.064 A 
ATOM     66  C   UNL A   1      39.383  33.345  35.851  1.00  0.00     0.173 A 
ATOM     67  C   UNL A   1      38.233  31.423  36.696  1.00  0.00     0.173 A 
ATOM     68  F   UNL A   1      40.151  33.948  34.932  1.00  0.00    -0.203 F 
ATOM     69  C   UNL A   1      38.979  34.076  36.969  1.00  0.00     0.198 A 
ATOM     70  C   UNL A   1      37.782  32.171  37.785  1.00  0.00     0.198 A 
ATOM     71  F   UNL A   1      37.856  30.138  36.612  1.00  0.00    -0.203 F 
ATOM     72  F   UNL A   1      39.392  35.341  37.122  1.00  0.00    -0.200 F 
ATOM     73  C   UNL A   1      38.176  33.489  37.934  1.00  0.00     0.200 A 
ATOM     74  F   UNL A   1      36.974  31.607  38.694  1.00  0.00    -0.200 F 
ATOM     75  F   UNL A   1      37.798  34.189  39.012  1.00  0.00    -0.200 F 
ENDBRANCH  41  65
BRANCH  53  76
ATOM     76  C   UNL A   1      44.464  27.762  34.600  1.00  0.00     0.064 A 
ATOM     77  C   UNL A   1      45.627  28.537  34.628  1.00  0.00     0.173 A 
ATOM     78  C   UNL A   1      44.355  26.664  35.465  1.00  0.00     0.173 A 
ATOM     79  F   UNL A   1      45.764  29.586  33.804  1.00  0.00    -0.203 F 
ATOM     80  C   UNL A   1      46.667  28.201  35.481  1.00  0.00     0.198 A 
ATOM     81  C   UNL A   1      45.372  26.367  36.355  1.00  0.00     0.198 A 
ATOM     82  F   UNL A   1      43.243  25.912  35.470  1.00  0.00    -0.203 F 
ATOM     83  F   UNL A   1      47.803  28.910  35.456  1.00  0.00    -0.200 F 
ATOM     84  C   UNL A   1      46.531  27.128  36.354  1.00  0.00     0.200 A 
ATOM     85  F   UNL A   1      45.225  25.356  37.221  1.00  0.00    -0.200 F 
ATOM     86  F   UNL A   1      47.526  26.827  37.198  1.00  0.00    -0.200 F 
ENDBRANCH  53  76
ENDBRANCH  27  28
ENDBRANCH  20  22
ENDBRANCH  19  20
ENDBRANCH   1  19
TORSDOF 12
ENDMDL
MODEL 2
REMARK VINA RESULT:     -12.6      0.711      1.626
REMARK SMILES CC1(C)CCN(c2ncccc2C(=O)OCCOC(=O)c2ccc(-c3c4nc(c(-c5c(F)c(F)c(F)c(F)c5F)c5ccc([nH]5)c(-c5c(F)c(F)c(F)c(F)c5F)c5nc(c(-c6c(F)c(F)c(F)c(F)c6F)c6ccc3[nH]6)C=C5)C=C4)cc2)C1
REMARK SMILES IDX 17 1 16 2 15 3 13 4 14 5 12 6 7 7 8 8 9 9 11 10 10 11 6 12
REMARK SMILES IDX 1 13 2 14 3 15 4 16 84 17 5 18 18 19 19 20 20 21 21 22 22 23
REMARK SMILES IDX 83 24 23 25 82 26 24 27 25 28 26 29 76 30 27 31 81 32 75 33
REMARK SMILES IDX 77 34 28 35 80 36 74 37 73 38 29 40 61 41 41 42 60 43 42 44
REMARK SMILES IDX 45 45 59 46 78 47 43 48 44 49 58 51 79 52 46 53 30 54 31 55
REMARK SMILES IDX 39 56 32 57 33 58 37 59 40 60 34 61 35 62 38 63 36 64 62 65
REMARK SMILES IDX 63 66 71 67 64 68 65 69 69 70 72 71 66 72 67 73 70 74 68 75
REMARK SMILES IDX 47 76 48 77 56 78 49 79 50 80 54 81 57 82 51 83 52 84 55 85
REMARK SMILES IDX 53 86
REMARK H PARENT 77 39 45 50
REMARK Flexibility Score: inf
ROOT
ATOM      1  C   UNL A   1      31.588  29.372  25.190  1.00  0.00     0.275 C 
ENDROOT
BRANCH   1   2
ATOM      2  C   UNL A   1      31.519  28.141  26.097  1.00  0.00     0.275 C 
BRANCH   2   3
ATOM      3  O   UNL A   1      32.382  27.074  25.617  1.00  0.00    -0.458 OA
BRANCH   3   4
ATOM      4  C   UNL A   1      31.776  25.960  25.107  1.00  0.00     0.342 C 
ATOM      5  O   UNL A   1      31.068  25.192  25.739  1.00  0.00    -0.246 OA
BRANCH   4   6
ATOM      6  C   UNL A   1      32.123  25.758  23.674  1.00  0.00     0.102 A 
ATOM      7  C   UNL A   1      33.266  25.077  23.184  1.00  0.00     0.143 A 
ATOM      8  N   UNL A   1      33.530  25.063  21.852  1.00  0.00    -0.238 NA
ATOM      9  C   UNL A   1      32.683  25.679  21.002  1.00  0.00     0.113 A 
ATOM     10  C   UNL A   1      31.250  26.362  22.758  1.00  0.00     0.021 A 
ATOM     11  C   UNL A   1      31.528  26.318  21.400  1.00  0.00     0.021 A 
BRANCH   7  12
ATOM     12  N   UNL A   1      33.980  24.104  23.868  1.00  0.00    -0.355 N 
ATOM     13  C   UNL A   1      33.218  20.555  24.204  1.00  0.00     0.013 C 
ATOM     14  C   UNL A   1      33.613  21.613  25.813  1.00  0.00    -0.016 C 
ATOM     15  C   UNL A   1      33.834  21.474  27.713  1.00  0.00     0.013 C 
ATOM     16  C   UNL A   1      35.129  23.000  26.476  1.00  0.00     0.030 C 
ATOM     17  C   UNL A   1      32.913  22.667  24.111  1.00  0.00     0.124 C 
ATOM     18  C   UNL A   1      35.197  24.402  25.107  1.00  0.00     0.119 C 
ENDBRANCH   7  12
ENDBRANCH   4   6
ENDBRANCH   3   4
ENDBRANCH   2   3
ENDBRANCH   1   2
BRANCH   1  19
ATOM     19  O   UNL A   1      32.761  30.111  25.534  1.00  0.00    -0.458 OA
BRANCH  19  20
ATOM     20  C   UNL A   1      32.545  30.974  26.538  1.00  0.00     0.338 C 
ATOM     21  O   UNL A   1      31.545  31.613  26.814  1.00  0.00    -0.246 OA
BRANCH  20  22
ATOM     22  C   UNL A   1      33.698  30.973  27.406  1.00  0.00     0.060 A 
ATOM     23  C   UNL A   1      34.504  32.559  27.866  1.00  0.00     0.016 A 
ATOM     24  C   UNL A   1      34.569  29.432  27.658  1.00  0.00     0.016 A 
ATOM     25  C   UNL A   1      36.521  32.492  28.317  1.00  0.00     0.010 A 
ATOM     26  C   UNL A   1      36.119  29.348  28.598  1.00  0.00     0.010 A 
ATOM     27  C   UNL A   1      37.130  30.836  28.996  1.00  0.00    -0.014 A 
BRANCH  27  28
ATOM     28  C   UNL A   1      38.337  30.429  29.788  1.00  0.00     0.031 A 
ATOM     29  C   UNL A   1      39.317  29.378  29.244  1.00  0.00     0.074 A 
ATOM     30  C   UNL A   1      38.393  30.773  31.093  1.00  0.00     0.049 A 
ATOM     31  N   UNL A   1      40.404  28.905  29.808  1.00  0.00    -0.248 NA
ATOM     32  C   UNL A   1      39.059  28.710  27.948  1.00  0.00     0.031 C 
ATOM     33  C   UNL A   1      37.318  31.422  31.823  1.00  0.00     0.029 A 
ATOM     34  N   UNL A   1      39.336  30.616  32.074  1.00  0.00    -0.354 N 
ATOM     35  C   UNL A   1      40.952  28.004  28.895  1.00  0.00     0.074 A 
ATOM     36  C   UNL A   1      40.078  27.900  27.779  1.00  0.00     0.031 C 
ATOM     37  C   UNL A   1      37.720  31.851  33.020  1.00  0.00     0.029 A 
ATOM     38  C   UNL A   1      39.013  31.257  33.258  1.00  0.00     0.049 A 
ATOM     39  H   UNL A   1      40.164  30.099  31.949  1.00  0.00     0.167 HD
ATOM     40  C   UNL A   1      42.094  27.292  28.969  1.00  0.00     0.037 A 
ATOM     41  C   UNL A   1      39.638  31.278  34.446  1.00  0.00     0.037 A 
ATOM     42  C   UNL A   1      42.859  27.248  30.167  1.00  0.00     0.049 A 
ATOM     43  C   UNL A   1      40.863  30.423  34.531  1.00  0.00     0.074 A 
ATOM     44  C   UNL A   1      44.003  26.536  30.436  1.00  0.00     0.029 A 
ATOM     45  N   UNL A   1      42.497  27.930  31.322  1.00  0.00    -0.354 N 
ATOM     46  N   UNL A   1      41.398  29.668  33.600  1.00  0.00    -0.248 NA
ATOM     47  C   UNL A   1      41.554  30.385  35.819  1.00  0.00     0.031 C 
ATOM     48  C   UNL A   1      44.307  26.743  31.781  1.00  0.00     0.029 A 
ATOM     49  C   UNL A   1      43.405  27.656  32.317  1.00  0.00     0.049 A 
ATOM     50  H   UNL A   1      41.712  28.516  31.414  1.00  0.00     0.167 HD
ATOM     51  C   UNL A   1      42.515  29.098  34.171  1.00  0.00     0.074 A 
ATOM     52  C   UNL A   1      42.584  29.604  35.530  1.00  0.00     0.031 C 
ATOM     53  C   UNL A   1      43.410  28.237  33.633  1.00  0.00     0.037 A 
BRANCH  40  54
ATOM     54  C   UNL A   1      42.504  26.518  27.747  1.00  0.00     0.064 A 
ATOM     55  C   UNL A   1      42.018  25.215  27.523  1.00  0.00     0.173 A 
ATOM     56  C   UNL A   1      43.430  27.032  26.829  1.00  0.00     0.173 A 
ATOM     57  F   UNL A   1      41.176  24.649  28.401  1.00  0.00    -0.203 F 
ATOM     58  C   UNL A   1      42.454  24.458  26.439  1.00  0.00     0.198 A 
ATOM     59  C   UNL A   1      43.837  26.283  25.726  1.00  0.00     0.198 A 
ATOM     60  F   UNL A   1      43.967  28.246  27.017  1.00  0.00    -0.203 F 
ATOM     61  F   UNL A   1      42.029  23.195  26.292  1.00  0.00    -0.200 F 
ATOM     62  C   UNL A   1      43.353  24.997  25.534  1.00  0.00     0.200 A 
ATOM     63  F   UNL A   1      44.716  26.800  24.855  1.00  0.00    -0.200 F 
ATOM     64  F   UNL A   1      43.770  24.270  24.488  1.00  0.00    -0.200 F 
ENDBRANCH  40  54
BRANCH  41  65
ATOM     65  C   UNL A   1      39.120  32.057  35.610  1.00  0.00     0.064 A 
ATOM     66  C   UNL A   1      39.457  33.412  35.768  1.00  0.00     0.173 A 
ATOM     67  C   UNL A   1      38.302  31.488  36.601  1.00  0.00     0.173 A 
ATOM     68  F   UNL A   1      40.228  34.018  34.854  1.00  0.00    -0.203 F 
ATOM     69  C   UNL A   1      39.050  34.138  36.888  1.00  0.00     0.198 A 
ATOM     70  C   UNL A   1      37.849  32.231  37.692  1.00  0.00     0.198 A 
ATOM     71  F   UNL A   1      37.924  30.203  36.511  1.00  0.00    -0.203 F 
ATOM     72  F   UNL A   1      39.464  35.403  37.047  1.00  0.00    -0.200 F 
ATOM     73  C   UNL A   1      38.244  33.548  37.848  1.00  0.00     0.200 A 
ATOM     74  F   UNL A   1      37.038  31.665  38.596  1.00  0.00    -0.200 F 
ATOM     75  F   UNL A   1      37.863  34.244  38.928  1.00  0.00    -0.200 F 
ENDBRANCH  41  65
BRANCH  53  76
ATOM     76  C   UNL A   1      44.581  27.893  34.484  1.00  0.00     0.064 A 
ATOM     77  C   UNL A   1      44.583  26.773  35.319  1.00  0.00     0.173 A 
ATOM     78  C   UNL A   1      45.745  28.669  34.380  1.00  0.00     0.173 A 
ATOM     79  F   UNL A   1      43.480  26.020  35.447  1.00  0.00    -0.203 F 
ATOM     80  C   UNL A   1      45.713  26.455  36.056  1.00  0.00     0.198 A 
ATOM     81  C   UNL A   1      46.889  28.313  35.073  1.00  0.00     0.198 A 
ATOM     82  F   UNL A   1      45.776  29.741  33.574  1.00  0.00    -0.203 F 
ATOM     83  F   UNL A   1      45.686  25.417  36.902  1.00  0.00    -0.200 F 
ATOM     84  C   UNL A   1      46.869  27.214  35.918  1.00  0.00     0.200 A 
ATOM     85  F   UNL A   1      48.012  29.025  34.911  1.00  0.00    -0.200 F 
ATOM     86  F   UNL A   1      47.968  26.885  36.608  1.00  0.00    -0.200 F 
ENDBRANCH  53  76
ENDBRANCH  27  28
ENDBRANCH  20  22
ENDBRANCH  19  20
ENDBRANCH   1  19
TORSDOF 12
ENDMDL
MODEL 3
REMARK VINA RESULT:     -12.4      0.781      7.818
REMARK SMILES CC1(C)CCN(c2ncccc2C(=O)OCCOC(=O)c2ccc(-c3c4nc(c(-c5c(F)c(F)c(F)c(F)c5F)c5ccc([nH]5)c(-c5c(F)c(F)c(F)c(F)c5F)c5nc(c(-c6c(F)c(F)c(F)c(F)c6F)c6ccc3[nH]6)C=C5)C=C4)cc2)C1
REMARK SMILES IDX 17 1 16 2 15 3 13 4 14 5 12 6 7 7 8 8 9 9 11 10 10 11 6 12
REMARK SMILES IDX 1 13 2 14 3 15 4 16 84 17 5 18 18 19 19 20 20 21 21 22 22 23
REMARK SMILES IDX 83 24 23 25 82 26 24 27 25 28 26 29 76 30 27 31 81 32 75 33
REMARK SMILES IDX 77 34 28 35 80 36 74 37 73 38 29 40 61 41 41 42 60 43 42 44
REMARK SMILES IDX 45 45 59 46 78 47 43 48 44 49 58 51 79 52 46 53 30 54 31 55
REMARK SMILES IDX 39 56 32 57 33 58 37 59 40 60 34 61 35 62 38 63 36 64 62 65
REMARK SMILES IDX 63 66 71 67 64 68 65 69 69 70 72 71 66 72 67 73 70 74 68 75
REMARK SMILES IDX 47 76 48 77 56 78 49 79 50 80 54 81 57 82 51 83 52 84 55 85
REMARK SMILES IDX 53 86
REMARK H PARENT 77 39 45 50
REMARK Flexibility Score: inf
ROOT
ATOM      1  C   UNL A   1      31.415  29.844  25.066  1.00  0.00     0.275 C 
ENDROOT
BRANCH   1   2
ATOM      2  C   UNL A   1      31.283  28.429  25.631  1.00  0.00     0.275 C 
BRANCH   2   3
ATOM      3  O   UNL A   1      32.413  27.594  25.254  1.00  0.00    -0.458 OA
BRANCH   3   4
ATOM      4  C   UNL A   1      32.167  26.268  25.032  1.00  0.00     0.342 C 
ATOM      5  O   UNL A   1      31.862  25.457  25.892  1.00  0.00    -0.246 OA
BRANCH   4   6
ATOM      6  C   UNL A   1      32.365  25.908  23.603  1.00  0.00     0.102 A 
ATOM      7  C   UNL A   1      33.395  25.080  23.090  1.00  0.00     0.143 A 
ATOM      8  N   UNL A   1      33.536  24.923  21.747  1.00  0.00    -0.238 NA
ATOM      9  C   UNL A   1      32.673  25.539  20.913  1.00  0.00     0.113 A 
ATOM     10  C   UNL A   1      31.469  26.508  22.706  1.00  0.00     0.021 A 
ATOM     11  C   UNL A   1      31.619  26.317  21.341  1.00  0.00     0.021 A 
BRANCH   7  12
ATOM     12  N   UNL A   1      34.081  24.108  23.804  1.00  0.00    -0.355 N 
ATOM     13  C   UNL A   1      33.235  20.587  24.218  1.00  0.00     0.013 C 
ATOM     14  C   UNL A   1      33.638  21.675  25.804  1.00  0.00    -0.016 C 
ATOM     15  C   UNL A   1      33.839  21.577  27.709  1.00  0.00     0.013 C 
ATOM     16  C   UNL A   1      35.180  23.043  26.448  1.00  0.00     0.030 C 
ATOM     17  C   UNL A   1      32.979  22.702  24.070  1.00  0.00     0.124 C 
ATOM     18  C   UNL A   1      35.293  24.409  25.047  1.00  0.00     0.119 C 
ENDBRANCH   7  12
ENDBRANCH   4   6
ENDBRANCH   3   4
ENDBRANCH   2   3
ENDBRANCH   1   2
BRANCH   1  19
ATOM     19  O   UNL A   1      32.650  30.394  25.530  1.00  0.00    -0.458 OA
BRANCH  19  20
ATOM     20  C   UNL A   1      32.476  31.256  26.542  1.00  0.00     0.338 C 
ATOM     21  O   UNL A   1      31.524  31.970  26.803  1.00  0.00    -0.246 OA
BRANCH  20  22
ATOM     22  C   UNL A   1      33.601  31.149  27.440  1.00  0.00     0.060 A 
ATOM     23  C   UNL A   1      34.532  32.655  27.932  1.00  0.00     0.016 A 
ATOM     24  C   UNL A   1      34.325  29.535  27.704  1.00  0.00     0.016 A 
ATOM     25  C   UNL A   1      36.522  32.407  28.434  1.00  0.00     0.010 A 
ATOM     26  C   UNL A   1      35.836  29.310  28.683  1.00  0.00     0.010 A 
ATOM     27  C   UNL A   1      36.964  30.699  29.117  1.00  0.00    -0.014 A 
BRANCH  27  28
ATOM     28  C   UNL A   1      38.109  30.183  29.938  1.00  0.00     0.031 A 
ATOM     29  C   UNL A   1      38.384  30.742  31.342  1.00  0.00     0.074 A 
ATOM     30  C   UNL A   1      39.058  29.445  29.322  1.00  0.00     0.049 A 
ATOM     31  N   UNL A   1      39.341  30.413  32.179  1.00  0.00    -0.248 NA
ATOM     32  C   UNL A   1      37.554  31.837  31.891  1.00  0.00     0.031 C 
ATOM     33  C   UNL A   1      39.111  29.197  27.891  1.00  0.00     0.029 A 
ATOM     34  N   UNL A   1      40.180  28.792  29.756  1.00  0.00    -0.354 N 
ATOM     35  C   UNL A   1      39.133  31.181  33.325  1.00  0.00     0.074 A 
ATOM     36  C   UNL A   1      38.038  32.057  33.091  1.00  0.00     0.031 C 
ATOM     37  C   UNL A   1      40.007  28.259  27.584  1.00  0.00     0.029 A 
ATOM     38  C   UNL A   1      40.795  28.036  28.772  1.00  0.00     0.049 A 
ATOM     39  H   UNL A   1      40.517  28.852  30.679  1.00  0.00     0.167 HD
ATOM     40  C   UNL A   1      39.804  31.183  34.493  1.00  0.00     0.037 A 
ATOM     41  C   UNL A   1      41.933  27.324  28.793  1.00  0.00     0.037 A 
ATOM     42  C   UNL A   1      41.014  30.452  34.649  1.00  0.00     0.049 A 
ATOM     43  C   UNL A   1      42.702  27.397  30.074  1.00  0.00     0.074 A 
ATOM     44  C   UNL A   1      41.851  30.387  35.738  1.00  0.00     0.029 A 
ATOM     45  N   UNL A   1      41.576  29.691  33.631  1.00  0.00    -0.354 N 
ATOM     46  N   UNL A   1      42.404  28.059  31.168  1.00  0.00    -0.248 NA
ATOM     47  C   UNL A   1      43.967  26.667  30.128  1.00  0.00     0.031 C 
ATOM     48  C   UNL A   1      42.957  29.626  35.359  1.00  0.00     0.029 A 
ATOM     49  C   UNL A   1      42.758  29.144  34.070  1.00  0.00     0.049 A 
ATOM     50  H   UNL A   1      41.188  29.565  32.736  1.00  0.00     0.167 HD
ATOM     51  C   UNL A   1      43.421  27.792  32.060  1.00  0.00     0.074 A 
ATOM     52  C   UNL A   1      44.340  26.898  31.377  1.00  0.00     0.031 C 
ATOM     53  C   UNL A   1      43.590  28.236  33.327  1.00  0.00     0.037 A 
BRANCH  40  54
ATOM     54  C   UNL A   1      39.241  32.016  35.611  1.00  0.00     0.064 A 
ATOM     55  C   UNL A   1      39.611  33.367  35.758  1.00  0.00     0.173 A 
ATOM     56  C   UNL A   1      38.389  31.468  36.579  1.00  0.00     0.173 A 
ATOM     57  F   UNL A   1      40.472  33.928  34.895  1.00  0.00    -0.203 F 
ATOM     58  C   UNL A   1      39.162  34.126  36.835  1.00  0.00     0.198 A 
ATOM     59  C   UNL A   1      37.914  32.241  37.636  1.00  0.00     0.198 A 
ATOM     60  F   UNL A   1      38.043  30.173  36.520  1.00  0.00    -0.203 F 
ATOM     61  F   UNL A   1      39.588  35.388  36.988  1.00  0.00    -0.200 F 
ATOM     62  C   UNL A   1      38.303  33.567  37.766  1.00  0.00     0.200 A 
ATOM     63  F   UNL A   1      37.091  31.698  38.544  1.00  0.00    -0.200 F 
ATOM     64  F   UNL A   1      37.867  34.298  38.801  1.00  0.00    -0.200 F 
ENDBRANCH  40  54
BRANCH  41  65
ATOM     65  C   UNL A   1      42.419  26.557  27.606  1.00  0.00     0.064 A 
ATOM     66  C   UNL A   1      41.947  25.258  27.355  1.00  0.00     0.173 A 
ATOM     67  C   UNL A   1      43.370  27.071  26.708  1.00  0.00     0.173 A 
ATOM     68  F   UNL A   1      41.033  24.711  28.170  1.00  0.00    -0.203 F 
ATOM     69  C   UNL A   1      42.445  24.493  26.300  1.00  0.00     0.198 A 
ATOM     70  C   UNL A   1      43.826  26.326  25.620  1.00  0.00     0.198 A 
ATOM     71  F   UNL A   1      43.856  28.311  26.873  1.00  0.00    -0.203 F 
ATOM     72  F   UNL A   1      42.034  23.227  26.143  1.00  0.00    -0.200 F 
ATOM     73  C   UNL A   1      43.382  25.029  25.431  1.00  0.00     0.200 A 
ATOM     74  F   UNL A   1      44.703  26.865  24.761  1.00  0.00    -0.200 F 
ATOM     75  F   UNL A   1      43.867  24.289  24.424  1.00  0.00    -0.200 F 
ENDBRANCH  41  65
BRANCH  53  76
ATOM     76  C   UNL A   1      44.746  27.666  34.071  1.00  0.00     0.064 A 
ATOM     77  C   UNL A   1      45.987  28.308  34.110  1.00  0.00     0.173 A 
ATOM     78  C   UNL A   1      44.559  26.497  34.822  1.00  0.00     0.173 A 
ATOM     79  F   UNL A   1      46.198  29.422  33.393  1.00  0.00    -0.203 F 
ATOM     80  C   UNL A   1      47.024  27.775  34.859  1.00  0.00     0.198 A 
ATOM     81  C   UNL A   1      45.580  26.001  35.614  1.00  0.00     0.198 A 
ATOM     82  F   UNL A   1      43.373  25.869  34.815  1.00  0.00    -0.203 F 
ATOM     83  F   UNL A   1      48.228  28.361  34.840  1.00  0.00    -0.200 F 
ATOM     84  C   UNL A   1      46.814  26.633  35.623  1.00  0.00     0.200 A 
ATOM     85  F   UNL A   1      45.365  24.922  36.377  1.00  0.00    -0.200 F 
ATOM     86  F   UNL A   1      47.809  26.139  36.370  1.00  0.00    -0.200 F 
ENDBRANCH  53  76
ENDBRANCH  27  28
ENDBRANCH  20  22
ENDBRANCH  19  20
ENDBRANCH   1  19
TORSDOF 12
ENDMDL
