MODEL 1
REMARK VINA RESULT:     -11.5      0.000      0.000
REMARK SMILES CC(=O)N[C@@H](CCC(=O)OCCOC(=O)c1ccc(-c2c3nc(c(-c4c(F)c(F)c(F)c(F)c4F)c4ccc([nH]4)c(-c4c(F)c(F)c(F)c(F)c4F)c4nc(c(-c5c(F)c(F)c(F)c(F)c5F)c5ccc2[nH]5)C=C4)C=C3)cc1)Cc1nc(C)ccc1O
REMARK SMILES IDX 10 1 8 2 9 3 7 4 6 5 5 6 4 7 1 8 2 9 3 10 79 12 80 13 81 14
REMARK SMILES IDX 86 15 82 16 85 17 83 18 84 19 87 20 11 22 12 23 13 24 14 25
REMARK SMILES IDX 15 26 16 27 17 28 78 29 18 30 77 31 19 32 20 33 21 34 71 35
REMARK SMILES IDX 22 36 76 37 70 38 72 39 23 40 75 41 69 42 68 43 24 45 56 46
REMARK SMILES IDX 36 47 55 48 37 49 40 50 54 51 73 52 38 53 39 54 53 56 74 57
REMARK SMILES IDX 41 58 25 59 26 60 34 61 27 62 28 63 32 64 35 65 29 66 30 67
REMARK SMILES IDX 33 68 31 69 57 70 58 71 66 72 59 73 60 74 64 75 67 76 61 77
REMARK SMILES IDX 62 78 65 79 63 80 42 81 43 82 51 83 44 84 45 85 49 86 52 87
REMARK SMILES IDX 46 88 47 89 50 90 48 91
REMARK H PARENT 4 11 87 21 72 44 40 55
REMARK Flexibility Score: inf
ROOT
ATOM      1  O   UNL A   1      30.721  29.169  24.000  1.00  0.00    -0.462 OA
ENDROOT
BRANCH   1   2
ATOM      2  C   UNL A   1      30.412  28.054  23.310  1.00  0.00     0.305 C 
ATOM      3  O   UNL A   1      30.275  28.002  22.095  1.00  0.00    -0.252 OA
BRANCH   2   4
ATOM      4  C   UNL A   1      30.206  26.866  24.227  1.00  0.00     0.125 C 
BRANCH   4   5
ATOM      5  C   UNL A   1      30.100  25.475  23.576  1.00  0.00     0.037 C 
BRANCH   5   6
ATOM      6  C   UNL A   1      31.386  24.626  23.406  1.00  0.00     0.088 C 
BRANCH   6   7
ATOM      7  N   UNL A   1      31.842  24.674  22.019  1.00  0.00    -0.353 N 
ATOM      8  C   UNL A   1      33.528  26.452  22.359  1.00  0.00     0.114 C 
ATOM      9  C   UNL A   1      32.795  25.483  21.472  1.00  0.00     0.217 C 
ATOM     10  O   UNL A   1      33.021  25.409  20.265  1.00  0.00    -0.275 OA
ATOM     11  H   UNL A   1      31.408  24.043  21.401  1.00  0.00     0.163 HD
ENDBRANCH   6   7
BRANCH   6  12
ATOM     12  C   UNL A   1      31.297  23.217  24.022  1.00  0.00     0.085 C 
BRANCH  12  13
ATOM     13  C   UNL A   1      32.591  22.490  24.262  1.00  0.00     0.084 A 
ATOM     14  N   UNL A   1      33.706  23.069  23.749  1.00  0.00    -0.254 NA
ATOM     15  C   UNL A   1      32.645  21.309  25.006  1.00  0.00     0.137 A 
ATOM     16  C   UNL A   1      34.899  22.473  23.983  1.00  0.00     0.038 A 
ATOM     17  C   UNL A   1      33.878  20.723  25.261  1.00  0.00     0.050 A 
ATOM     18  C   UNL A   1      36.095  23.116  23.353  1.00  0.00     0.067 C 
ATOM     19  C   UNL A   1      35.025  21.314  24.743  1.00  0.00     0.027 A 
BRANCH  15  20
ATOM     20  O   UNL A   1      31.508  20.733  25.491  1.00  0.00    -0.506 OA
ATOM     21  H   UNL A   1      30.806  20.518  24.908  1.00  0.00     0.293 HD
ENDBRANCH  15  20
ENDBRANCH  12  13
ENDBRANCH   6  12
ENDBRANCH   5   6
ENDBRANCH   4   5
ENDBRANCH   2   4
ENDBRANCH   1   2
BRANCH   1  22
ATOM     22  C   UNL A   1      31.616  29.063  25.127  1.00  0.00     0.274 C 
BRANCH  22  23
ATOM     23  C   UNL A   1      31.769  30.408  25.844  1.00  0.00     0.275 C 
BRANCH  23  24
ATOM     24  O   UNL A   1      33.146  30.626  26.193  1.00  0.00    -0.458 OA
BRANCH  24  25
ATOM     25  C   UNL A   1      33.392  31.655  27.034  1.00  0.00     0.338 C 
ATOM     26  O   UNL A   1      32.682  32.619  27.262  1.00  0.00    -0.246 OA
BRANCH  25  27
ATOM     27  C   UNL A   1      34.614  31.345  27.789  1.00  0.00     0.060 A 
ATOM     28  C   UNL A   1      34.775  30.053  28.300  1.00  0.00     0.016 A 
ATOM     29  C   UNL A   1      35.599  32.315  27.976  1.00  0.00     0.016 A 
ATOM     30  C   UNL A   1      35.940  29.711  28.975  1.00  0.00     0.010 A 
ATOM     31  C   UNL A   1      36.764  31.975  28.663  1.00  0.00     0.010 A 
ATOM     32  C   UNL A   1      36.940  30.671  29.163  1.00  0.00    -0.014 A 
BRANCH  32  33
ATOM     33  C   UNL A   1      38.150  30.329  29.938  1.00  0.00     0.031 A 
ATOM     34  C   UNL A   1      39.150  29.384  29.346  1.00  0.00     0.074 A 
ATOM     35  C   UNL A   1      38.337  30.862  31.158  1.00  0.00     0.049 A 
ATOM     36  N   UNL A   1      40.223  28.867  29.884  1.00  0.00    -0.248 NA
ATOM     37  C   UNL A   1      38.904  28.956  27.959  1.00  0.00     0.031 C 
ATOM     38  C   UNL A   1      37.441  31.820  31.806  1.00  0.00     0.029 A 
ATOM     39  N   UNL A   1      39.335  30.661  32.077  1.00  0.00    -0.354 N 
ATOM     40  C   UNL A   1      40.765  28.036  28.915  1.00  0.00     0.074 A 
ATOM     41  C   UNL A   1      39.895  28.101  27.760  1.00  0.00     0.031 C 
ATOM     42  C   UNL A   1      37.922  32.111  33.026  1.00  0.00     0.029 A 
ATOM     43  C   UNL A   1      39.131  31.326  33.261  1.00  0.00     0.049 A 
ATOM     44  H   UNL A   1      40.121  30.094  31.905  1.00  0.00     0.167 HD
ATOM     45  C   UNL A   1      41.890  27.286  28.991  1.00  0.00     0.037 A 
ATOM     46  C   UNL A   1      39.822  31.272  34.415  1.00  0.00     0.037 A 
ATOM     47  C   UNL A   1      42.748  27.245  30.145  1.00  0.00     0.049 A 
ATOM     48  C   UNL A   1      41.043  30.392  34.486  1.00  0.00     0.074 A 
ATOM     49  C   UNL A   1      43.930  26.548  30.318  1.00  0.00     0.029 A 
ATOM     50  N   UNL A   1      42.508  27.926  31.331  1.00  0.00    -0.354 N 
ATOM     51  N   UNL A   1      41.568  29.627  33.558  1.00  0.00    -0.248 NA
ATOM     52  C   UNL A   1      41.769  30.368  35.762  1.00  0.00     0.031 C 
ATOM     53  C   UNL A   1      44.371  26.755  31.628  1.00  0.00     0.029 A 
ATOM     54  C   UNL A   1      43.503  27.638  32.251  1.00  0.00     0.049 A 
ATOM     55  H   UNL A   1      41.744  28.525  31.494  1.00  0.00     0.167 HD
ATOM     56  C   UNL A   1      42.698  29.054  34.128  1.00  0.00     0.074 A 
ATOM     57  C   UNL A   1      42.792  29.575  35.476  1.00  0.00     0.031 C 
ATOM     58  C   UNL A   1      43.579  28.177  33.586  1.00  0.00     0.037 A 
BRANCH  45  59
ATOM     59  C   UNL A   1      42.235  26.421  27.813  1.00  0.00     0.064 A 
ATOM     60  C   UNL A   1      43.146  26.831  26.828  1.00  0.00     0.173 A 
ATOM     61  C   UNL A   1      41.672  25.141  27.693  1.00  0.00     0.173 A 
ATOM     62  F   UNL A   1      43.700  28.051  26.886  1.00  0.00    -0.203 F 
ATOM     63  C   UNL A   1      43.462  26.001  25.756  1.00  0.00     0.198 A 
ATOM     64  C   UNL A   1      42.015  24.302  26.636  1.00  0.00     0.198 A 
ATOM     65  F   UNL A   1      40.795  24.698  28.607  1.00  0.00    -0.203 F 
ATOM     66  F   UNL A   1      44.301  26.431  24.802  1.00  0.00    -0.200 F 
ATOM     67  C   UNL A   1      42.904  24.735  25.666  1.00  0.00     0.200 A 
ATOM     68  F   UNL A   1      41.483  23.073  26.559  1.00  0.00    -0.200 F 
ATOM     69  F   UNL A   1      43.220  23.932  24.639  1.00  0.00    -0.200 F 
ENDBRANCH  45  59
BRANCH  46  70
ATOM     70  C   UNL A   1      39.364  32.046  35.599  1.00  0.00     0.064 A 
ATOM     71  C   UNL A   1      38.492  31.487  36.542  1.00  0.00     0.173 A 
ATOM     72  C   UNL A   1      39.773  33.374  35.800  1.00  0.00     0.173 A 
ATOM     73  F   UNL A   1      38.052  30.229  36.384  1.00  0.00    -0.203 F 
ATOM     74  C   UNL A   1      38.024  32.231  37.624  1.00  0.00     0.198 A 
ATOM     75  C   UNL A   1      39.332  34.106  36.901  1.00  0.00     0.198 A 
ATOM     76  F   UNL A   1      40.606  33.961  34.929  1.00  0.00    -0.203 F 
ATOM     77  F   UNL A   1      37.144  31.689  38.477  1.00  0.00    -0.200 F 
ATOM     78  C   UNL A   1      38.449  33.538  37.806  1.00  0.00     0.200 A 
ATOM     79  F   UNL A   1      39.758  35.365  37.080  1.00  0.00    -0.200 F 
ATOM     80  F   UNL A   1      38.000  34.253  38.846  1.00  0.00    -0.200 F 
ENDBRANCH  46  70
BRANCH  58  81
ATOM     81  C   UNL A   1      44.745  27.759  34.436  1.00  0.00     0.064 A 
ATOM     82  C   UNL A   1      44.702  26.605  35.233  1.00  0.00     0.173 A 
ATOM     83  C   UNL A   1      45.934  28.503  34.420  1.00  0.00     0.173 A 
ATOM     84  F   UNL A   1      43.584  25.867  35.295  1.00  0.00    -0.203 F 
ATOM     85  C   UNL A   1      45.799  26.230  36.004  1.00  0.00     0.198 A 
ATOM     86  C   UNL A   1      47.040  28.104  35.163  1.00  0.00     0.198 A 
ATOM     87  F   UNL A   1      46.030  29.610  33.668  1.00  0.00    -0.203 F 
ATOM     88  F   UNL A   1      45.718  25.154  36.800  1.00  0.00    -0.200 F 
ATOM     89  C   UNL A   1      46.969  26.972  35.962  1.00  0.00     0.200 A 
ATOM     90  F   UNL A   1      48.176  28.814  35.105  1.00  0.00    -0.200 F 
ATOM     91  F   UNL A   1      48.027  26.603  36.697  1.00  0.00    -0.200 F 
ENDBRANCH  58  81
ENDBRANCH  32  33
ENDBRANCH  25  27
ENDBRANCH  24  25
ENDBRANCH  23  24
ENDBRANCH  22  23
ENDBRANCH   1  22
TORSDOF 17
ENDMDL
MODEL 2
REMARK VINA RESULT:     -11.3      4.619      9.948
REMARK SMILES CC(=O)N[C@@H](CCC(=O)OCCOC(=O)c1ccc(-c2c3nc(c(-c4c(F)c(F)c(F)c(F)c4F)c4ccc([nH]4)c(-c4c(F)c(F)c(F)c(F)c4F)c4nc(c(-c5c(F)c(F)c(F)c(F)c5F)c5ccc2[nH]5)C=C4)C=C3)cc1)Cc1nc(C)ccc1O
REMARK SMILES IDX 10 1 8 2 9 3 7 4 6 5 5 6 4 7 1 8 2 9 3 10 79 12 80 13 81 14
REMARK SMILES IDX 86 15 82 16 85 17 83 18 84 19 87 20 11 22 12 23 13 24 14 25
REMARK SMILES IDX 15 26 16 27 17 28 78 29 18 30 77 31 19 32 20 33 21 34 71 35
REMARK SMILES IDX 22 36 76 37 70 38 72 39 23 40 75 41 69 42 68 43 24 45 56 46
REMARK SMILES IDX 36 47 55 48 37 49 40 50 54 51 73 52 38 53 39 54 53 56 74 57
REMARK SMILES IDX 41 58 25 59 26 60 34 61 27 62 28 63 32 64 35 65 29 66 30 67
REMARK SMILES IDX 33 68 31 69 57 70 58 71 66 72 59 73 60 74 64 75 67 76 61 77
REMARK SMILES IDX 62 78 65 79 63 80 42 81 43 82 51 83 44 84 45 85 49 86 52 87
REMARK SMILES IDX 46 88 47 89 50 90 48 91
REMARK H PARENT 4 11 87 21 72 44 40 55
REMARK Flexibility Score: inf
ROOT
ATOM      1  O   UNL A   1      34.169  34.734  29.332  1.00  0.00    -0.462 OA
ENDROOT
BRANCH   1   2
ATOM      2  C   UNL A   1      33.488  35.090  30.439  1.00  0.00     0.305 C 
ATOM      3  O   UNL A   1      32.358  35.558  30.441  1.00  0.00    -0.252 OA
BRANCH   2   4
ATOM      4  C   UNL A   1      34.311  34.882  31.694  1.00  0.00     0.125 C 
BRANCH   4   5
ATOM      5  C   UNL A   1      34.642  33.434  32.096  1.00  0.00     0.037 C 
BRANCH   5   6
ATOM      6  C   UNL A   1      36.103  32.934  31.963  1.00  0.00     0.088 C 
BRANCH   6   7
ATOM      7  N   UNL A   1      36.504  32.913  30.559  1.00  0.00    -0.353 N 
ATOM      8  C   UNL A   1      38.468  34.393  30.824  1.00  0.00     0.114 C 
ATOM      9  C   UNL A   1      37.552  33.559  29.971  1.00  0.00     0.217 C 
ATOM     10  O   UNL A   1      37.713  33.454  28.755  1.00  0.00    -0.275 OA
ATOM     11  H   UNL A   1      35.948  32.362  29.961  1.00  0.00     0.163 HD
ENDBRANCH   6   7
BRANCH   6  12
ATOM     12  C   UNL A   1      36.402  31.645  32.753  1.00  0.00     0.085 C 
BRANCH  12  13
ATOM     13  C   UNL A   1      37.663  31.619  33.572  1.00  0.00     0.084 A 
ATOM     14  N   UNL A   1      38.184  32.827  33.906  1.00  0.00    -0.254 NA
ATOM     15  C   UNL A   1      38.240  30.421  33.998  1.00  0.00     0.137 A 
ATOM     16  C   UNL A   1      39.292  32.851  34.683  1.00  0.00     0.038 A 
ATOM     17  C   UNL A   1      39.361  30.460  34.816  1.00  0.00     0.050 A 
ATOM     18  C   UNL A   1      39.862  34.202  34.981  1.00  0.00     0.067 C 
ATOM     19  C   UNL A   1      39.896  31.695  35.167  1.00  0.00     0.027 A 
BRANCH  15  20
ATOM     20  O   UNL A   1      37.713  29.219  33.628  1.00  0.00    -0.506 OA
ATOM     21  H   UNL A   1      36.866  28.963  33.936  1.00  0.00     0.293 HD
ENDBRANCH  15  20
ENDBRANCH  12  13
ENDBRANCH   6  12
ENDBRANCH   5   6
ENDBRANCH   4   5
ENDBRANCH   2   4
ENDBRANCH   1   2
BRANCH   1  22
ATOM     22  C   UNL A   1      33.509  33.916  28.344  1.00  0.00     0.274 C 
BRANCH  22  23
ATOM     23  C   UNL A   1      34.450  32.838  27.796  1.00  0.00     0.275 C 
BRANCH  23  24
ATOM     24  O   UNL A   1      34.412  31.675  28.640  1.00  0.00    -0.458 OA
BRANCH  24  25
ATOM     25  C   UNL A   1      34.652  30.491  28.035  1.00  0.00     0.338 C 
ATOM     26  O   UNL A   1      33.943  29.905  27.235  1.00  0.00    -0.246 OA
BRANCH  25  27
ATOM     27  C   UNL A   1      36.022  30.078  28.368  1.00  0.00     0.060 A 
ATOM     28  C   UNL A   1      36.277  29.575  29.647  1.00  0.00     0.016 A 
ATOM     29  C   UNL A   1      37.042  30.171  27.421  1.00  0.00     0.016 A 
ATOM     30  C   UNL A   1      37.550  29.128  29.981  1.00  0.00     0.010 A 
ATOM     31  C   UNL A   1      38.322  29.733  27.758  1.00  0.00     0.010 A 
ATOM     32  C   UNL A   1      38.580  29.208  29.038  1.00  0.00    -0.014 A 
BRANCH  32  33
ATOM     33  C   UNL A   1      39.949  28.796  29.411  1.00  0.00     0.031 A 
ATOM     34  C   UNL A   1      40.782  29.716  30.250  1.00  0.00     0.074 A 
ATOM     35  C   UNL A   1      40.431  27.612  28.993  1.00  0.00     0.049 A 
ATOM     36  N   UNL A   1      42.034  29.608  30.607  1.00  0.00    -0.248 NA
ATOM     37  C   UNL A   1      40.114  30.930  30.749  1.00  0.00     0.031 C 
ATOM     38  C   UNL A   1      39.686  26.631  28.204  1.00  0.00     0.029 A 
ATOM     39  N   UNL A   1      41.666  27.042  29.160  1.00  0.00    -0.354 N 
ATOM     40  C   UNL A   1      42.312  30.747  31.349  1.00  0.00     0.074 A 
ATOM     41  C   UNL A   1      41.105  31.543  31.378  1.00  0.00     0.031 C 
ATOM     42  C   UNL A   1      40.486  25.584  27.941  1.00  0.00     0.029 A 
ATOM     43  C   UNL A   1      41.809  25.845  28.502  1.00  0.00     0.049 A 
ATOM     44  H   UNL A   1      42.382  27.451  29.699  1.00  0.00     0.167 HD
ATOM     45  C   UNL A   1      43.476  31.089  31.950  1.00  0.00     0.037 A 
ATOM     46  C   UNL A   1      42.898  25.070  28.341  1.00  0.00     0.037 A 
ATOM     47  C   UNL A   1      44.663  30.276  31.918  1.00  0.00     0.049 A 
ATOM     48  C   UNL A   1      44.193  25.501  28.980  1.00  0.00     0.074 A 
ATOM     49  C   UNL A   1      45.886  30.510  32.520  1.00  0.00     0.029 A 
ATOM     50  N   UNL A   1      44.776  29.071  31.237  1.00  0.00    -0.354 N 
ATOM     51  N   UNL A   1      44.446  26.566  29.704  1.00  0.00    -0.248 NA
ATOM     52  C   UNL A   1      45.354  24.623  28.783  1.00  0.00     0.031 C 
ATOM     53  C   UNL A   1      46.757  29.481  32.151  1.00  0.00     0.029 A 
ATOM     54  C   UNL A   1      46.059  28.568  31.377  1.00  0.00     0.049 A 
ATOM     55  H   UNL A   1      44.052  28.639  30.730  1.00  0.00     0.167 HD
ATOM     56  C   UNL A   1      45.782  26.472  30.070  1.00  0.00     0.074 A 
ATOM     57  C   UNL A   1      46.282  25.236  29.504  1.00  0.00     0.031 C 
ATOM     58  C   UNL A   1      46.530  27.329  30.809  1.00  0.00     0.037 A 
BRANCH  45  59
ATOM     59  C   UNL A   1      43.537  32.413  32.654  1.00  0.00     0.064 A 
ATOM     60  C   UNL A   1      43.763  33.614  31.965  1.00  0.00     0.173 A 
ATOM     61  C   UNL A   1      43.323  32.483  34.039  1.00  0.00     0.173 A 
ATOM     62  F   UNL A   1      43.989  33.603  30.643  1.00  0.00    -0.203 F 
ATOM     63  C   UNL A   1      43.795  34.832  32.641  1.00  0.00     0.198 A 
ATOM     64  C   UNL A   1      43.325  33.705  34.706  1.00  0.00     0.198 A 
ATOM     65  F   UNL A   1      43.103  31.365  34.747  1.00  0.00    -0.203 F 
ATOM     66  F   UNL A   1      44.057  35.962  31.969  1.00  0.00    -0.200 F 
ATOM     67  C   UNL A   1      43.567  34.877  34.007  1.00  0.00     0.200 A 
ATOM     68  F   UNL A   1      43.092  33.747  36.026  1.00  0.00    -0.200 F 
ATOM     69  F   UNL A   1      43.586  36.052  34.654  1.00  0.00    -0.200 F 
ENDBRANCH  45  59
BRANCH  46  70
ATOM     70  C   UNL A   1      42.822  23.832  27.521  1.00  0.00     0.064 A 
ATOM     71  C   UNL A   1      42.393  22.617  28.072  1.00  0.00     0.173 A 
ATOM     72  C   UNL A   1      43.201  23.833  26.169  1.00  0.00     0.173 A 
ATOM     73  F   UNL A   1      42.043  22.556  29.366  1.00  0.00    -0.203 F 
ATOM     74  C   UNL A   1      42.371  21.448  27.314  1.00  0.00     0.198 A 
ATOM     75  C   UNL A   1      43.145  22.671  25.403  1.00  0.00     0.198 A 
ATOM     76  F   UNL A   1      43.621  24.967  25.589  1.00  0.00    -0.203 F 
ATOM     77  F   UNL A   1      42.013  20.289  27.884  1.00  0.00    -0.200 F 
ATOM     78  C   UNL A   1      42.741  21.477  25.978  1.00  0.00     0.200 A 
ATOM     79  F   UNL A   1      43.491  22.707  24.108  1.00  0.00    -0.200 F 
ATOM     80  F   UNL A   1      42.719  20.352  25.250  1.00  0.00    -0.200 F 
ENDBRANCH  46  70
BRANCH  58  81
ATOM     81  C   UNL A   1      47.954  26.939  31.083  1.00  0.00     0.064 A 
ATOM     82  C   UNL A   1      48.294  26.062  32.123  1.00  0.00     0.173 A 
ATOM     83  C   UNL A   1      48.988  27.419  30.265  1.00  0.00     0.173 A 
ATOM     84  F   UNL A   1      47.345  25.586  32.943  1.00  0.00    -0.203 F 
ATOM     85  C   UNL A   1      49.620  25.704  32.351  1.00  0.00     0.198 A 
ATOM     86  C   UNL A   1      50.307  27.030  30.472  1.00  0.00     0.198 A 
ATOM     87  F   UNL A   1      48.716  28.254  29.250  1.00  0.00    -0.203 F 
ATOM     88  F   UNL A   1      49.928  24.908  33.384  1.00  0.00    -0.200 F 
ATOM     89  C   UNL A   1      50.624  26.180  31.522  1.00  0.00     0.200 A 
ATOM     90  F   UNL A   1      51.273  27.477  29.657  1.00  0.00    -0.200 F 
ATOM     91  F   UNL A   1      51.898  25.826  31.736  1.00  0.00    -0.200 F 
ENDBRANCH  58  81
ENDBRANCH  32  33
ENDBRANCH  25  27
ENDBRANCH  24  25
ENDBRANCH  23  24
ENDBRANCH  22  23
ENDBRANCH   1  22
TORSDOF 17
ENDMDL
MODEL 3
REMARK VINA RESULT:     -11.0      1.987      3.201
REMARK SMILES CC(=O)N[C@@H](CCC(=O)OCCOC(=O)c1ccc(-c2c3nc(c(-c4c(F)c(F)c(F)c(F)c4F)c4ccc([nH]4)c(-c4c(F)c(F)c(F)c(F)c4F)c4nc(c(-c5c(F)c(F)c(F)c(F)c5F)c5ccc2[nH]5)C=C4)C=C3)cc1)Cc1nc(C)ccc1O
REMARK SMILES IDX 10 1 8 2 9 3 7 4 6 5 5 6 4 7 1 8 2 9 3 10 79 12 80 13 81 14
REMARK SMILES IDX 86 15 82 16 85 17 83 18 84 19 87 20 11 22 12 23 13 24 14 25
REMARK SMILES IDX 15 26 16 27 17 28 78 29 18 30 77 31 19 32 20 33 21 34 71 35
REMARK SMILES IDX 22 36 76 37 70 38 72 39 23 40 75 41 69 42 68 43 24 45 56 46
REMARK SMILES IDX 36 47 55 48 37 49 40 50 54 51 73 52 38 53 39 54 53 56 74 57
REMARK SMILES IDX 41 58 25 59 26 60 34 61 27 62 28 63 32 64 35 65 29 66 30 67
REMARK SMILES IDX 33 68 31 69 57 70 58 71 66 72 59 73 60 74 64 75 67 76 61 77
REMARK SMILES IDX 62 78 65 79 63 80 42 81 43 82 51 83 44 84 45 85 49 86 52 87
REMARK SMILES IDX 46 88 47 89 50 90 48 91
REMARK H PARENT 4 11 87 21 72 44 40 55
REMARK Flexibility Score: inf
ROOT
ATOM      1  O   UNL A   1      32.466  30.948  27.142  1.00  0.00    -0.462 OA
ENDROOT
BRANCH   1   2
ATOM      2  C   UNL A   1      32.025  29.906  26.409  1.00  0.00     0.305 C 
ATOM      3  O   UNL A   1      31.471  30.004  25.323  1.00  0.00    -0.252 OA
BRANCH   2   4
ATOM      4  C   UNL A   1      32.256  28.586  27.116  1.00  0.00     0.125 C 
BRANCH   4   5
ATOM      5  C   UNL A   1      33.283  27.620  26.499  1.00  0.00     0.037 C 
BRANCH   5   6
ATOM      6  C   UNL A   1      32.774  26.386  25.712  1.00  0.00     0.088 C 
BRANCH   6   7
ATOM      7  N   UNL A   1      31.636  25.782  26.400  1.00  0.00    -0.353 N 
ATOM      8  C   UNL A   1      30.026  26.061  24.542  1.00  0.00     0.114 C 
ATOM      9  C   UNL A   1      30.363  25.615  25.940  1.00  0.00     0.217 C 
ATOM     10  O   UNL A   1      29.518  25.116  26.683  1.00  0.00    -0.275 OA
ATOM     11  H   UNL A   1      31.810  25.454  27.312  1.00  0.00     0.163 HD
ENDBRANCH   6   7
BRANCH   6  12
ATOM     12  C   UNL A   1      33.884  25.405  25.289  1.00  0.00     0.085 C 
BRANCH  12  13
ATOM     13  C   UNL A   1      33.480  24.238  24.431  1.00  0.00     0.084 A 
ATOM     14  N   UNL A   1      33.036  23.138  25.089  1.00  0.00    -0.254 NA
ATOM     15  C   UNL A   1      33.521  24.301  23.036  1.00  0.00     0.137 A 
ATOM     16  C   UNL A   1      32.616  22.081  24.353  1.00  0.00     0.038 A 
ATOM     17  C   UNL A   1      33.063  23.221  22.295  1.00  0.00     0.050 A 
ATOM     18  C   UNL A   1      32.185  20.871  25.121  1.00  0.00     0.067 C 
ATOM     19  C   UNL A   1      32.601  22.092  22.962  1.00  0.00     0.027 A 
BRANCH  15  20
ATOM     20  O   UNL A   1      33.996  25.409  22.398  1.00  0.00    -0.506 OA
ATOM     21  H   UNL A   1      33.434  25.901  21.833  1.00  0.00     0.293 HD
ENDBRANCH  15  20
ENDBRANCH  12  13
ENDBRANCH   6  12
ENDBRANCH   5   6
ENDBRANCH   4   5
ENDBRANCH   2   4
ENDBRANCH   1   2
BRANCH   1  22
ATOM     22  C   UNL A   1      31.813  32.225  26.997  1.00  0.00     0.274 C 
BRANCH  22  23
ATOM     23  C   UNL A   1      32.784  33.380  27.261  1.00  0.00     0.275 C 
BRANCH  23  24
ATOM     24  O   UNL A   1      32.271  34.226  28.304  1.00  0.00    -0.458 OA
BRANCH  24  25
ATOM     25  C   UNL A   1      33.091  35.214  28.727  1.00  0.00     0.338 C 
ATOM     26  O   UNL A   1      32.873  36.413  28.734  1.00  0.00    -0.246 OA
BRANCH  25  27
ATOM     27  C   UNL A   1      34.265  34.594  29.357  1.00  0.00     0.060 A 
ATOM     28  C   UNL A   1      34.073  33.793  30.487  1.00  0.00     0.016 A 
ATOM     29  C   UNL A   1      35.541  34.788  28.826  1.00  0.00     0.016 A 
ATOM     30  C   UNL A   1      35.155  33.152  31.078  1.00  0.00     0.010 A 
ATOM     31  C   UNL A   1      36.628  34.152  29.425  1.00  0.00     0.010 A 
ATOM     32  C   UNL A   1      36.439  33.330  30.552  1.00  0.00    -0.014 A 
BRANCH  32  33
ATOM     33  C   UNL A   1      37.599  32.703  31.218  1.00  0.00     0.031 A 
ATOM     34  C   UNL A   1      38.299  31.565  30.540  1.00  0.00     0.074 A 
ATOM     35  C   UNL A   1      38.008  33.154  32.417  1.00  0.00     0.049 A 
ATOM     36  N   UNL A   1      39.264  30.804  30.982  1.00  0.00    -0.248 NA
ATOM     37  C   UNL A   1      37.841  31.233  29.180  1.00  0.00     0.031 C 
ATOM     38  C   UNL A   1      37.417  34.279  33.140  1.00  0.00     0.029 A 
ATOM     39  N   UNL A   1      39.007  32.710  33.244  1.00  0.00    -0.354 N 
ATOM     40  C   UNL A   1      39.515  29.889  29.969  1.00  0.00     0.074 A 
ATOM     41  C   UNL A   1      38.588  30.176  28.895  1.00  0.00     0.031 C 
ATOM     42  C   UNL A   1      38.055  34.427  34.313  1.00  0.00     0.029 A 
ATOM     43  C   UNL A   1      39.064  33.380  34.441  1.00  0.00     0.049 A 
ATOM     44  H   UNL A   1      39.623  31.980  33.003  1.00  0.00     0.167 HD
ATOM     45  C   UNL A   1      40.438  28.899  29.946  1.00  0.00     0.037 A 
ATOM     46  C   UNL A   1      39.821  33.145  35.529  1.00  0.00     0.037 A 
ATOM     47  C   UNL A   1      41.359  28.638  31.020  1.00  0.00     0.049 A 
ATOM     48  C   UNL A   1      40.807  32.006  35.493  1.00  0.00     0.074 A 
ATOM     49  C   UNL A   1      42.357  27.684  31.088  1.00  0.00     0.029 A 
ATOM     50  N   UNL A   1      41.385  29.332  32.223  1.00  0.00    -0.354 N 
ATOM     51  N   UNL A   1      41.059  31.159  34.523  1.00  0.00    -0.248 NA
ATOM     52  C   UNL A   1      41.614  31.790  36.701  1.00  0.00     0.031 C 
ATOM     53  C   UNL A   1      42.945  27.758  32.354  1.00  0.00     0.029 A 
ATOM     54  C   UNL A   1      42.362  28.804  33.052  1.00  0.00     0.049 A 
ATOM     55  H   UNL A   1      40.797  30.088  32.452  1.00  0.00     0.167 HD
ATOM     56  C   UNL A   1      42.070  30.330  34.991  1.00  0.00     0.074 A 
ATOM     57  C   UNL A   1      42.397  30.788  36.326  1.00  0.00     0.031 C 
ATOM     58  C   UNL A   1      42.675  29.284  34.374  1.00  0.00     0.037 A 
BRANCH  45  59
ATOM     59  C   UNL A   1      40.471  28.002  28.743  1.00  0.00     0.064 A 
ATOM     60  C   UNL A   1      41.216  28.317  27.597  1.00  0.00     0.173 A 
ATOM     61  C   UNL A   1      39.774  26.783  28.756  1.00  0.00     0.173 A 
ATOM     62  F   UNL A   1      41.887  29.477  27.526  1.00  0.00    -0.203 F 
ATOM     63  C   UNL A   1      41.245  27.457  26.502  1.00  0.00     0.198 A 
ATOM     64  C   UNL A   1      39.831  25.912  27.672  1.00  0.00     0.198 A 
ATOM     65  F   UNL A   1      39.045  26.431  29.826  1.00  0.00    -0.203 F 
ATOM     66  F   UNL A   1      41.927  27.801  25.401  1.00  0.00    -0.200 F 
ATOM     67  C   UNL A   1      40.560  26.253  26.544  1.00  0.00     0.200 A 
ATOM     68  F   UNL A   1      39.178  24.742  27.720  1.00  0.00    -0.200 F 
ATOM     69  F   UNL A   1      40.599  25.420  25.493  1.00  0.00    -0.200 F 
ENDBRANCH  45  59
BRANCH  46  70
ATOM     70  C   UNL A   1      39.658  33.980  36.749  1.00  0.00     0.064 A 
ATOM     71  C   UNL A   1      40.320  35.207  36.887  1.00  0.00     0.173 A 
ATOM     72  C   UNL A   1      38.851  33.555  37.816  1.00  0.00     0.173 A 
ATOM     73  F   UNL A   1      41.122  35.649  35.906  1.00  0.00    -0.203 F 
ATOM     74  C   UNL A   1      40.204  35.963  38.053  1.00  0.00     0.198 A 
ATOM     75  C   UNL A   1      38.709  34.328  38.967  1.00  0.00     0.198 A 
ATOM     76  F   UNL A   1      38.195  32.387  37.740  1.00  0.00    -0.203 F 
ATOM     77  F   UNL A   1      40.896  37.104  38.179  1.00  0.00    -0.200 F 
ATOM     78  C   UNL A   1      39.394  35.526  39.089  1.00  0.00     0.200 A 
ATOM     79  F   UNL A   1      37.913  33.906  39.960  1.00  0.00    -0.200 F 
ATOM     80  F   UNL A   1      39.283  36.253  40.209  1.00  0.00    -0.200 F 
ENDBRANCH  46  70
BRANCH  58  81
ATOM     81  C   UNL A   1      43.780  28.592  35.119  1.00  0.00     0.064 A 
ATOM     82  C   UNL A   1      43.536  27.483  35.942  1.00  0.00     0.173 A 
ATOM     83  C   UNL A   1      45.108  29.021  34.972  1.00  0.00     0.173 A 
ATOM     84  F   UNL A   1      42.282  27.042  36.127  1.00  0.00    -0.203 F 
ATOM     85  C   UNL A   1      44.577  26.849  36.613  1.00  0.00     0.198 A 
ATOM     86  C   UNL A   1      46.150  28.362  35.615  1.00  0.00     0.198 A 
ATOM     87  F   UNL A   1      45.397  30.072  34.189  1.00  0.00    -0.203 F 
ATOM     88  F   UNL A   1      44.315  25.825  37.438  1.00  0.00    -0.200 F 
ATOM     89  C   UNL A   1      45.884  27.282  36.443  1.00  0.00     0.200 A 
ATOM     90  F   UNL A   1      47.414  28.772  35.433  1.00  0.00    -0.200 F 
ATOM     91  F   UNL A   1      46.886  26.663  37.081  1.00  0.00    -0.200 F 
ENDBRANCH  58  81
ENDBRANCH  32  33
ENDBRANCH  25  27
ENDBRANCH  24  25
ENDBRANCH  23  24
ENDBRANCH  22  23
ENDBRANCH   1  22
TORSDOF 17
ENDMDL
