MODEL 1
REMARK VINA RESULT:     -12.3      0.000      0.000
REMARK SMILES COC[C@@H](C)Nc1cnn(-c2ccccc2C(=O)OCCOC(=O)c2ccc(-c3c4nc(c(-c5c(F)c(F)c(F)c(F)c5F)c5ccc([nH]5)c(-c5c(F)c(F)c(F)c(F)c5F)c5nc(c(-c6c(F)c(F)c(F)c(F)c6F)c6ccc3[nH]6)C=C5)C=C4)cc2)c(=O)c1Cl
REMARK SMILES IDX 19 1 17 2 18 3 16 4 11 5 12 6 13 7 15 8 14 9 10 10 7 11 8 12
REMARK SMILES IDX 90 13 9 14 88 15 91 16 89 17 6 18 4 20 5 21 3 22 2 23 1 24
REMARK SMILES IDX 20 25 21 26 22 27 23 28 24 29 25 30 26 31 87 32 27 33 86 34
REMARK SMILES IDX 28 35 29 36 30 37 80 38 31 39 85 40 79 41 81 42 32 43 84 44
REMARK SMILES IDX 78 45 77 46 33 48 65 49 45 50 64 51 46 52 49 53 63 54 82 55
REMARK SMILES IDX 47 56 48 57 62 59 83 60 50 61 34 62 35 63 43 64 36 65 37 66
REMARK SMILES IDX 41 67 44 68 38 69 39 70 42 71 40 72 66 73 67 74 75 75 68 76
REMARK SMILES IDX 69 77 73 78 76 79 70 80 71 81 74 82 72 83 51 84 52 85 60 86
REMARK SMILES IDX 53 87 54 88 58 89 61 90 55 91 56 92 59 93 57 94
REMARK H PARENT 6 19 81 47 49 58
REMARK Flexibility Score: inf
ROOT
ATOM      1  O   UNL A   1      32.707  27.923  26.565  1.00  0.00    -0.458 OA
ENDROOT
BRANCH   1   2
ATOM      2  C   UNL A   1      32.307  26.640  26.370  1.00  0.00     0.340 C 
ATOM      3  O   UNL A   1      31.376  26.082  26.931  1.00  0.00    -0.246 OA
BRANCH   2   4
ATOM      4  C   UNL A   1      33.051  26.029  25.234  1.00  0.00     0.085 A 
ATOM      5  C   UNL A   1      32.642  26.120  23.888  1.00  0.00     0.083 A 
ATOM      6  C   UNL A   1      33.315  25.325  22.941  1.00  0.00     0.029 A 
ATOM      7  C   UNL A   1      34.376  24.493  23.308  1.00  0.00     0.002 A 
ATOM      8  C   UNL A   1      34.155  25.229  25.586  1.00  0.00     0.018 A 
ATOM      9  C   UNL A   1      34.805  24.453  24.630  1.00  0.00     0.001 A 
BRANCH   5  10
ATOM     10  N   UNL A   1      31.614  27.017  23.464  1.00  0.00    -0.195 N 
ATOM     11  C   UNL A   1      29.754  29.038  22.777  1.00  0.00     0.079 A 
ATOM     12  C   UNL A   1      31.228  29.066  22.566  1.00  0.00     0.161 A 
ATOM     13  C   UNL A   1      29.322  27.852  23.241  1.00  0.00     0.132 A 
ATOM     14  N   UNL A   1      32.090  28.165  22.887  1.00  0.00    -0.171 NA
ATOM     15  C   UNL A   1      30.254  26.727  23.588  1.00  0.00     0.292 A 
ATOM     16  Cl  UNL A   1      27.642  27.487  23.490  1.00  0.00    -0.076 Cl
ATOM     17  O   UNL A   1      29.797  25.663  24.007  1.00  0.00    -0.266 OA
BRANCH  11  18
ATOM     18  N   UNL A   1      29.091  30.216  22.452  1.00  0.00    -0.378 N 
ATOM     19  H   UNL A   1      28.764  30.279  21.527  1.00  0.00     0.161 HD
BRANCH  18  20
ATOM     20  C   UNL A   1      28.815  31.376  23.302  1.00  0.00     0.102 C 
ATOM     21  C   UNL A   1      27.372  31.274  23.798  1.00  0.00     0.033 C 
BRANCH  20  22
ATOM     22  C   UNL A   1      29.064  32.676  22.494  1.00  0.00     0.184 C 
BRANCH  22  23
ATOM     23  O   UNL A   1      27.917  33.179  21.807  1.00  0.00    -0.383 OA
ATOM     24  C   UNL A   1      27.803  32.747  20.460  1.00  0.00     0.194 C 
ENDBRANCH  22  23
ENDBRANCH  20  22
ENDBRANCH  18  20
ENDBRANCH  11  18
ENDBRANCH   5  10
ENDBRANCH   2   4
ENDBRANCH   1   2
BRANCH   1  25
ATOM     25  C   UNL A   1      31.719  28.860  27.032  1.00  0.00     0.275 C 
BRANCH  25  26
ATOM     26  C   UNL A   1      31.930  30.221  26.367  1.00  0.00     0.275 C 
BRANCH  26  27
ATOM     27  O   UNL A   1      33.328  30.561  26.391  1.00  0.00    -0.458 OA
BRANCH  27  28
ATOM     28  C   UNL A   1      33.654  31.572  27.225  1.00  0.00     0.338 C 
ATOM     29  O   UNL A   1      32.972  32.534  27.546  1.00  0.00    -0.246 OA
BRANCH  28  30
ATOM     30  C   UNL A   1      34.931  31.239  27.864  1.00  0.00     0.060 A 
ATOM     31  C   UNL A   1      35.941  32.185  28.025  1.00  0.00     0.016 A 
ATOM     32  C   UNL A   1      35.095  29.934  28.333  1.00  0.00     0.016 A 
ATOM     33  C   UNL A   1      37.133  31.804  28.649  1.00  0.00     0.010 A 
ATOM     34  C   UNL A   1      36.279  29.556  28.960  1.00  0.00     0.010 A 
ATOM     35  C   UNL A   1      37.312  30.488  29.120  1.00  0.00    -0.014 A 
BRANCH  35  36
ATOM     36  C   UNL A   1      38.549  30.113  29.849  1.00  0.00     0.031 A 
ATOM     37  C   UNL A   1      38.817  30.614  31.239  1.00  0.00     0.074 A 
ATOM     38  C   UNL A   1      39.449  29.325  29.232  1.00  0.00     0.049 A 
ATOM     39  N   UNL A   1      39.791  30.293  32.055  1.00  0.00    -0.248 NA
ATOM     40  C   UNL A   1      37.890  31.621  31.779  1.00  0.00     0.031 C 
ATOM     41  C   UNL A   1      39.341  28.855  27.851  1.00  0.00     0.029 A 
ATOM     42  N   UNL A   1      40.619  28.770  29.684  1.00  0.00    -0.354 N 
ATOM     43  C   UNL A   1      39.585  31.042  33.205  1.00  0.00     0.074 A 
ATOM     44  C   UNL A   1      38.434  31.884  32.961  1.00  0.00     0.031 C 
ATOM     45  C   UNL A   1      40.368  28.035  27.586  1.00  0.00     0.029 A 
ATOM     46  C   UNL A   1      41.216  27.935  28.772  1.00  0.00     0.049 A 
ATOM     47  H   UNL A   1      40.995  28.953  30.576  1.00  0.00     0.167 HD
ATOM     48  C   UNL A   1      40.278  31.004  34.369  1.00  0.00     0.037 A 
ATOM     49  C   UNL A   1      42.306  27.153  28.889  1.00  0.00     0.037 A 
ATOM     50  C   UNL A   1      41.416  30.155  34.607  1.00  0.00     0.049 A 
ATOM     51  C   UNL A   1      43.045  27.113  30.197  1.00  0.00     0.074 A 
ATOM     52  C   UNL A   1      42.145  29.996  35.774  1.00  0.00     0.029 A 
ATOM     53  N   UNL A   1      41.993  29.323  33.659  1.00  0.00    -0.354 N 
ATOM     54  N   UNL A   1      42.780  27.745  31.314  1.00  0.00    -0.248 NA
ATOM     55  C   UNL A   1      44.229  26.246  30.265  1.00  0.00     0.031 C 
ATOM     56  C   UNL A   1      43.186  29.099  35.521  1.00  0.00     0.029 A 
ATOM     57  C   UNL A   1      43.081  28.664  34.210  1.00  0.00     0.049 A 
ATOM     58  H   UNL A   1      41.677  29.217  32.733  1.00  0.00     0.167 HD
ATOM     59  C   UNL A   1      43.747  27.338  32.222  1.00  0.00     0.074 A 
ATOM     60  C   UNL A   1      44.598  26.391  31.531  1.00  0.00     0.031 C 
ATOM     61  C   UNL A   1      43.914  27.719  33.512  1.00  0.00     0.037 A 
BRANCH  48  62
ATOM     62  C   UNL A   1      39.808  31.876  35.497  1.00  0.00     0.064 A 
ATOM     63  C   UNL A   1      40.335  33.163  35.686  1.00  0.00     0.173 A 
ATOM     64  C   UNL A   1      38.761  31.467  36.337  1.00  0.00     0.173 A 
ATOM     65  F   UNL A   1      41.338  33.602  34.910  1.00  0.00    -0.203 F 
ATOM     66  C   UNL A   1      39.843  34.001  36.684  1.00  0.00     0.198 A 
ATOM     67  C   UNL A   1      38.253  32.318  37.316  1.00  0.00     0.198 A 
ATOM     68  F   UNL A   1      38.212  30.251  36.191  1.00  0.00    -0.203 F 
ATOM     69  F   UNL A   1      40.380  35.215  36.861  1.00  0.00    -0.200 F 
ATOM     70  C   UNL A   1      38.796  33.581  37.490  1.00  0.00     0.200 A 
ATOM     71  F   UNL A   1      37.229  31.919  38.084  1.00  0.00    -0.200 F 
ATOM     72  F   UNL A   1      38.309  34.399  38.435  1.00  0.00    -0.200 F 
ENDBRANCH  48  62
BRANCH  49  73
ATOM     73  C   UNL A   1      42.706  26.283  27.753  1.00  0.00     0.064 A 
ATOM     74  C   UNL A   1      42.101  25.033  27.565  1.00  0.00     0.173 A 
ATOM     75  C   UNL A   1      43.665  26.695  26.816  1.00  0.00     0.173 A 
ATOM     76  F   UNL A   1      41.189  24.591  28.444  1.00  0.00    -0.203 F 
ATOM     77  C   UNL A   1      42.445  24.223  26.486  1.00  0.00     0.198 A 
ATOM     78  C   UNL A   1      43.990  25.894  25.723  1.00  0.00     0.198 A 
ATOM     79  F   UNL A   1      44.266  27.885  26.949  1.00  0.00    -0.203 F 
ATOM     80  F   UNL A   1      41.872  23.019  26.346  1.00  0.00    -0.200 F 
ATOM     81  C   UNL A   1      43.383  24.657  25.562  1.00  0.00     0.200 A 
ATOM     82  F   UNL A   1      44.885  26.322  24.824  1.00  0.00    -0.200 F 
ATOM     83  F   UNL A   1      43.705  23.882  24.517  1.00  0.00    -0.200 F 
ENDBRANCH  49  73
BRANCH  61  84
ATOM     84  C   UNL A   1      45.054  27.113  34.275  1.00  0.00     0.064 A 
ATOM     85  C   UNL A   1      46.301  27.749  34.349  1.00  0.00     0.173 A 
ATOM     86  C   UNL A   1      44.869  25.935  35.014  1.00  0.00     0.173 A 
ATOM     87  F   UNL A   1      46.530  28.871  33.649  1.00  0.00    -0.203 F 
ATOM     88  C   UNL A   1      47.325  27.224  35.133  1.00  0.00     0.198 A 
ATOM     89  C   UNL A   1      45.887  25.428  35.818  1.00  0.00     0.198 A 
ATOM     90  F   UNL A   1      43.691  25.294  34.982  1.00  0.00    -0.203 F 
ATOM     91  F   UNL A   1      48.517  27.836  35.172  1.00  0.00    -0.200 F 
ATOM     92  C   UNL A   1      47.113  26.071  35.875  1.00  0.00     0.200 A 
ATOM     93  F   UNL A   1      45.676  24.322  36.545  1.00  0.00    -0.200 F 
ATOM     94  F   UNL A   1      48.093  25.580  36.646  1.00  0.00    -0.200 F 
ENDBRANCH  61  84
ENDBRANCH  35  36
ENDBRANCH  28  30
ENDBRANCH  27  28
ENDBRANCH  26  27
ENDBRANCH  25  26
ENDBRANCH   1  25
TORSDOF 16
ENDMDL
MODEL 2
REMARK VINA RESULT:     -11.8      5.101     10.446
REMARK SMILES COC[C@@H](C)Nc1cnn(-c2ccccc2C(=O)OCCOC(=O)c2ccc(-c3c4nc(c(-c5c(F)c(F)c(F)c(F)c5F)c5ccc([nH]5)c(-c5c(F)c(F)c(F)c(F)c5F)c5nc(c(-c6c(F)c(F)c(F)c(F)c6F)c6ccc3[nH]6)C=C5)C=C4)cc2)c(=O)c1Cl
REMARK SMILES IDX 19 1 17 2 18 3 16 4 11 5 12 6 13 7 15 8 14 9 10 10 7 11 8 12
REMARK SMILES IDX 90 13 9 14 88 15 91 16 89 17 6 18 4 20 5 21 3 22 2 23 1 24
REMARK SMILES IDX 20 25 21 26 22 27 23 28 24 29 25 30 26 31 87 32 27 33 86 34
REMARK SMILES IDX 28 35 29 36 30 37 80 38 31 39 85 40 79 41 81 42 32 43 84 44
REMARK SMILES IDX 78 45 77 46 33 48 65 49 45 50 64 51 46 52 49 53 63 54 82 55
REMARK SMILES IDX 47 56 48 57 62 59 83 60 50 61 34 62 35 63 43 64 36 65 37 66
REMARK SMILES IDX 41 67 44 68 38 69 39 70 42 71 40 72 66 73 67 74 75 75 68 76
REMARK SMILES IDX 69 77 73 78 76 79 70 80 71 81 74 82 72 83 51 84 52 85 60 86
REMARK SMILES IDX 53 87 54 88 58 89 61 90 55 91 56 92 59 93 57 94
REMARK H PARENT 6 19 81 47 49 58
REMARK Flexibility Score: inf
ROOT
ATOM      1  O   UNL A   1      36.001  22.818  25.062  1.00  0.00    -0.458 OA
ENDROOT
BRANCH   1   2
ATOM      2  C   UNL A   1      35.277  23.645  24.263  1.00  0.00     0.340 C 
ATOM      3  O   UNL A   1      35.421  23.793  23.060  1.00  0.00    -0.246 OA
BRANCH   2   4
ATOM      4  C   UNL A   1      34.142  24.240  25.023  1.00  0.00     0.085 A 
ATOM      5  C   UNL A   1      32.898  23.603  25.203  1.00  0.00     0.083 A 
ATOM      6  C   UNL A   1      31.846  24.357  25.756  1.00  0.00     0.029 A 
ATOM      7  C   UNL A   1      32.028  25.687  26.146  1.00  0.00     0.002 A 
ATOM      8  C   UNL A   1      34.331  25.563  25.467  1.00  0.00     0.018 A 
ATOM      9  C   UNL A   1      33.274  26.287  26.013  1.00  0.00     0.001 A 
BRANCH   5  10
ATOM     10  N   UNL A   1      32.698  22.223  24.889  1.00  0.00    -0.195 N 
ATOM     11  C   UNL A   1      32.587  19.431  24.433  1.00  0.00     0.079 A 
ATOM     12  C   UNL A   1      32.793  20.120  25.737  1.00  0.00     0.161 A 
ATOM     13  C   UNL A   1      32.319  20.290  23.433  1.00  0.00     0.132 A 
ATOM     14  N   UNL A   1      32.864  21.386  25.961  1.00  0.00    -0.171 NA
ATOM     15  C   UNL A   1      32.324  21.780  23.619  1.00  0.00     0.292 A 
ATOM     16  Cl  UNL A   1      31.937  19.775  21.819  1.00  0.00    -0.076 Cl
ATOM     17  O   UNL A   1      32.068  22.515  22.664  1.00  0.00    -0.266 OA
BRANCH  11  18
ATOM     18  N   UNL A   1      32.694  18.046  24.476  1.00  0.00    -0.378 N 
ATOM     19  H   UNL A   1      31.851  17.558  24.613  1.00  0.00     0.161 HD
BRANCH  18  20
ATOM     20  C   UNL A   1      33.893  17.215  24.346  1.00  0.00     0.102 C 
ATOM     21  C   UNL A   1      34.103  16.905  22.863  1.00  0.00     0.033 C 
BRANCH  20  22
ATOM     22  C   UNL A   1      33.719  15.927  25.192  1.00  0.00     0.184 C 
BRANCH  22  23
ATOM     23  O   UNL A   1      34.897  15.128  25.310  1.00  0.00    -0.383 OA
ATOM     24  C   UNL A   1      36.063  15.850  25.674  1.00  0.00     0.194 C 
ENDBRANCH  22  23
ENDBRANCH  20  22
ENDBRANCH  18  20
ENDBRANCH  11  18
ENDBRANCH   5  10
ENDBRANCH   2   4
ENDBRANCH   1   2
BRANCH   1  25
ATOM     25  C   UNL A   1      36.189  21.464  24.611  1.00  0.00     0.275 C 
BRANCH  25  26
ATOM     26  C   UNL A   1      37.651  21.051  24.786  1.00  0.00     0.275 C 
BRANCH  26  27
ATOM     27  O   UNL A   1      38.101  21.403  26.107  1.00  0.00    -0.458 OA
BRANCH  27  28
ATOM     28  C   UNL A   1      39.412  21.180  26.341  1.00  0.00     0.338 C 
ATOM     29  O   UNL A   1      40.063  20.178  26.085  1.00  0.00    -0.246 OA
BRANCH  28  30
ATOM     30  C   UNL A   1      40.013  22.439  26.797  1.00  0.00     0.060 A 
ATOM     31  C   UNL A   1      41.027  22.465  27.751  1.00  0.00     0.016 A 
ATOM     32  C   UNL A   1      39.544  23.621  26.221  1.00  0.00     0.016 A 
ATOM     33  C   UNL A   1      41.561  23.698  28.138  1.00  0.00     0.010 A 
ATOM     34  C   UNL A   1      40.080  24.848  26.602  1.00  0.00     0.010 A 
ATOM     35  C   UNL A   1      41.092  24.898  27.568  1.00  0.00    -0.014 A 
BRANCH  35  36
ATOM     36  C   UNL A   1      41.717  26.194  27.928  1.00  0.00     0.031 A 
ATOM     37  C   UNL A   1      43.105  26.545  27.474  1.00  0.00     0.074 A 
ATOM     38  C   UNL A   1      41.022  27.056  28.694  1.00  0.00     0.049 A 
ATOM     39  N   UNL A   1      43.753  27.676  27.606  1.00  0.00    -0.248 NA
ATOM     40  C   UNL A   1      43.877  25.486  26.805  1.00  0.00     0.031 C 
ATOM     41  C   UNL A   1      39.705  26.787  29.272  1.00  0.00     0.029 A 
ATOM     42  N   UNL A   1      41.315  28.331  29.108  1.00  0.00    -0.354 N 
ATOM     43  C   UNL A   1      44.997  27.471  27.026  1.00  0.00     0.074 A 
ATOM     44  C   UNL A   1      45.041  26.090  26.597  1.00  0.00     0.031 C 
ATOM     45  C   UNL A   1      39.277  27.883  29.915  1.00  0.00     0.029 A 
ATOM     46  C   UNL A   1      40.295  28.925  29.809  1.00  0.00     0.049 A 
ATOM     47  H   UNL A   1      42.174  28.776  28.922  1.00  0.00     0.167 HD
ATOM     48  C   UNL A   1      45.996  28.367  26.839  1.00  0.00     0.037 A 
ATOM     49  C   UNL A   1      40.181  30.179  30.287  1.00  0.00     0.037 A 
ATOM     50  C   UNL A   1      45.938  29.744  27.258  1.00  0.00     0.049 A 
ATOM     51  C   UNL A   1      41.295  31.161  30.049  1.00  0.00     0.074 A 
ATOM     52  C   UNL A   1      46.871  30.747  27.057  1.00  0.00     0.029 A 
ATOM     53  N   UNL A   1      44.889  30.311  27.967  1.00  0.00    -0.354 N 
ATOM     54  N   UNL A   1      42.423  30.988  29.405  1.00  0.00    -0.248 NA
ATOM     55  C   UNL A   1      41.117  32.513  30.596  1.00  0.00     0.031 C 
ATOM     56  C   UNL A   1      46.406  31.909  27.677  1.00  0.00     0.029 A 
ATOM     57  C   UNL A   1      45.162  31.644  28.227  1.00  0.00     0.049 A 
ATOM     58  H   UNL A   1      44.072  29.836  28.244  1.00  0.00     0.167 HD
ATOM     59  C   UNL A   1      43.079  32.210  29.450  1.00  0.00     0.074 A 
ATOM     60  C   UNL A   1      42.216  33.122  30.172  1.00  0.00     0.031 C 
ATOM     61  C   UNL A   1      44.290  32.542  28.941  1.00  0.00     0.037 A 
BRANCH  48  62
ATOM     62  C   UNL A   1      47.228  27.908  26.117  1.00  0.00     0.064 A 
ATOM     63  C   UNL A   1      48.359  27.468  26.822  1.00  0.00     0.173 A 
ATOM     64  C   UNL A   1      47.252  27.814  24.717  1.00  0.00     0.173 A 
ATOM     65  F   UNL A   1      48.388  27.537  28.162  1.00  0.00    -0.203 F 
ATOM     66  C   UNL A   1      49.473  26.968  26.153  1.00  0.00     0.198 A 
ATOM     67  C   UNL A   1      48.357  27.287  24.052  1.00  0.00     0.198 A 
ATOM     68  F   UNL A   1      46.192  28.208  23.995  1.00  0.00    -0.203 F 
ATOM     69  F   UNL A   1      50.550  26.578  26.847  1.00  0.00    -0.200 F 
ATOM     70  C   UNL A   1      49.467  26.868  24.770  1.00  0.00     0.200 A 
ATOM     71  F   UNL A   1      48.344  27.175  22.717  1.00  0.00    -0.200 F 
ATOM     72  F   UNL A   1      50.532  26.365  24.129  1.00  0.00    -0.200 F 
ENDBRANCH  48  62
BRANCH  49  73
ATOM     73  C   UNL A   1      38.924  30.592  30.962  1.00  0.00     0.064 A 
ATOM     74  C   UNL A   1      38.823  30.563  32.360  1.00  0.00     0.173 A 
ATOM     75  C   UNL A   1      37.819  31.058  30.235  1.00  0.00     0.173 A 
ATOM     76  F   UNL A   1      39.849  30.111  33.097  1.00  0.00    -0.203 F 
ATOM     77  C   UNL A   1      37.661  30.979  33.005  1.00  0.00     0.198 A 
ATOM     78  C   UNL A   1      36.667  31.496  30.883  1.00  0.00     0.198 A 
ATOM     79  F   UNL A   1      37.871  31.111  28.897  1.00  0.00    -0.203 F 
ATOM     80  F   UNL A   1      37.580  30.913  34.342  1.00  0.00    -0.200 F 
ATOM     81  C   UNL A   1      36.587  31.452  32.267  1.00  0.00     0.200 A 
ATOM     82  F   UNL A   1      35.636  31.967  30.168  1.00  0.00    -0.200 F 
ATOM     83  F   UNL A   1      35.473  31.863  32.889  1.00  0.00    -0.200 F 
ENDBRANCH  49  73
BRANCH  61  84
ATOM     84  C   UNL A   1      44.764  33.952  29.132  1.00  0.00     0.064 A 
ATOM     85  C   UNL A   1      44.413  34.967  28.230  1.00  0.00     0.173 A 
ATOM     86  C   UNL A   1      45.495  34.308  30.275  1.00  0.00     0.173 A 
ATOM     87  F   UNL A   1      43.725  34.673  27.117  1.00  0.00    -0.203 F 
ATOM     88  C   UNL A   1      44.783  36.288  28.464  1.00  0.00     0.198 A 
ATOM     89  C   UNL A   1      45.840  35.635  30.519  1.00  0.00     0.198 A 
ATOM     90  F   UNL A   1      45.847  33.374  31.171  1.00  0.00    -0.203 F 
ATOM     91  F   UNL A   1      44.457  37.240  27.579  1.00  0.00    -0.200 F 
ATOM     92  C   UNL A   1      45.485  36.622  29.613  1.00  0.00     0.200 A 
ATOM     93  F   UNL A   1      46.506  35.958  31.636  1.00  0.00    -0.200 F 
ATOM     94  F   UNL A   1      45.822  37.899  29.847  1.00  0.00    -0.200 F 
ENDBRANCH  61  84
ENDBRANCH  35  36
ENDBRANCH  28  30
ENDBRANCH  27  28
ENDBRANCH  26  27
ENDBRANCH  25  26
ENDBRANCH   1  25
TORSDOF 16
ENDMDL
MODEL 3
REMARK VINA RESULT:     -11.5      2.043      4.367
REMARK SMILES COC[C@@H](C)Nc1cnn(-c2ccccc2C(=O)OCCOC(=O)c2ccc(-c3c4nc(c(-c5c(F)c(F)c(F)c(F)c5F)c5ccc([nH]5)c(-c5c(F)c(F)c(F)c(F)c5F)c5nc(c(-c6c(F)c(F)c(F)c(F)c6F)c6ccc3[nH]6)C=C5)C=C4)cc2)c(=O)c1Cl
REMARK SMILES IDX 19 1 17 2 18 3 16 4 11 5 12 6 13 7 15 8 14 9 10 10 7 11 8 12
REMARK SMILES IDX 90 13 9 14 88 15 91 16 89 17 6 18 4 20 5 21 3 22 2 23 1 24
REMARK SMILES IDX 20 25 21 26 22 27 23 28 24 29 25 30 26 31 87 32 27 33 86 34
REMARK SMILES IDX 28 35 29 36 30 37 80 38 31 39 85 40 79 41 81 42 32 43 84 44
REMARK SMILES IDX 78 45 77 46 33 48 65 49 45 50 64 51 46 52 49 53 63 54 82 55
REMARK SMILES IDX 47 56 48 57 62 59 83 60 50 61 34 62 35 63 43 64 36 65 37 66
REMARK SMILES IDX 41 67 44 68 38 69 39 70 42 71 40 72 66 73 67 74 75 75 68 76
REMARK SMILES IDX 69 77 73 78 76 79 70 80 71 81 74 82 72 83 51 84 52 85 60 86
REMARK SMILES IDX 53 87 54 88 58 89 61 90 55 91 56 92 59 93 57 94
REMARK H PARENT 6 19 81 47 49 58
REMARK Flexibility Score: inf
ROOT
ATOM      1  O   UNL A   1      32.423  27.635  26.437  1.00  0.00    -0.458 OA
ENDROOT
BRANCH   1   2
ATOM      2  C   UNL A   1      31.670  26.553  26.107  1.00  0.00     0.340 C 
ATOM      3  O   UNL A   1      31.009  25.873  26.876  1.00  0.00    -0.246 OA
BRANCH   2   4
ATOM      4  C   UNL A   1      31.610  26.393  24.628  1.00  0.00     0.085 A 
ATOM      5  C   UNL A   1      32.458  25.536  23.896  1.00  0.00     0.083 A 
ATOM      6  C   UNL A   1      32.439  25.635  22.492  1.00  0.00     0.029 A 
ATOM      7  C   UNL A   1      31.590  26.529  21.834  1.00  0.00     0.002 A 
ATOM      8  C   UNL A   1      30.720  27.253  23.955  1.00  0.00     0.018 A 
ATOM      9  C   UNL A   1      30.721  27.330  22.565  1.00  0.00     0.001 A 
BRANCH   5  10
ATOM     10  N   UNL A   1      33.281  24.556  24.531  1.00  0.00    -0.195 N 
ATOM     11  C   UNL A   1      35.145  22.691  25.561  1.00  0.00     0.079 A 
ATOM     12  C   UNL A   1      35.387  24.130  25.264  1.00  0.00     0.161 A 
ATOM     13  C   UNL A   1      33.855  22.343  25.409  1.00  0.00     0.132 A 
ATOM     14  N   UNL A   1      34.558  24.988  24.779  1.00  0.00    -0.171 NA
ATOM     15  C   UNL A   1      32.811  23.295  24.903  1.00  0.00     0.292 A 
ATOM     16  Cl  UNL A   1      33.252  20.756  25.779  1.00  0.00    -0.076 Cl
ATOM     17  O   UNL A   1      31.644  22.917  24.787  1.00  0.00    -0.266 OA
BRANCH  11  18
ATOM     18  N   UNL A   1      36.271  21.974  25.949  1.00  0.00    -0.378 N 
ATOM     19  H   UNL A   1      36.347  21.791  26.913  1.00  0.00     0.161 HD
BRANCH  18  20
ATOM     20  C   UNL A   1      37.358  21.454  25.117  1.00  0.00     0.102 C 
ATOM     21  C   UNL A   1      37.188  19.939  24.999  1.00  0.00     0.033 C 
BRANCH  20  22
ATOM     22  C   UNL A   1      38.720  21.841  25.751  1.00  0.00     0.184 C 
BRANCH  22  23
ATOM     23  O   UNL A   1      38.647  22.873  26.735  1.00  0.00    -0.383 OA
ATOM     24  C   UNL A   1      38.817  24.186  26.224  1.00  0.00     0.194 C 
ENDBRANCH  22  23
ENDBRANCH  20  22
ENDBRANCH  18  20
ENDBRANCH  11  18
ENDBRANCH   5  10
ENDBRANCH   2   4
ENDBRANCH   1   2
BRANCH   1  25
ATOM     25  C   UNL A   1      31.799  28.652  27.243  1.00  0.00     0.275 C 
BRANCH  25  26
ATOM     26  C   UNL A   1      31.923  30.014  26.558  1.00  0.00     0.275 C 
BRANCH  26  27
ATOM     27  O   UNL A   1      33.309  30.388  26.468  1.00  0.00    -0.458 OA
BRANCH  27  28
ATOM     28  C   UNL A   1      33.669  31.435  27.242  1.00  0.00     0.338 C 
ATOM     29  O   UNL A   1      33.016  32.433  27.510  1.00  0.00    -0.246 OA
BRANCH  28  30
ATOM     30  C   UNL A   1      34.939  31.102  27.896  1.00  0.00     0.060 A 
ATOM     31  C   UNL A   1      35.943  32.049  28.075  1.00  0.00     0.016 A 
ATOM     32  C   UNL A   1      35.101  29.795  28.359  1.00  0.00     0.016 A 
ATOM     33  C   UNL A   1      37.129  31.669  28.712  1.00  0.00     0.010 A 
ATOM     34  C   UNL A   1      36.278  29.416  28.998  1.00  0.00     0.010 A 
ATOM     35  C   UNL A   1      37.305  30.350  29.178  1.00  0.00    -0.014 A 
BRANCH  35  36
ATOM     36  C   UNL A   1      38.534  29.975  29.920  1.00  0.00     0.031 A 
ATOM     37  C   UNL A   1      38.785  30.471  31.315  1.00  0.00     0.074 A 
ATOM     38  C   UNL A   1      39.442  29.190  29.311  1.00  0.00     0.049 A 
ATOM     39  N   UNL A   1      39.750  30.149  32.142  1.00  0.00    -0.248 NA
ATOM     40  C   UNL A   1      37.850  31.476  31.847  1.00  0.00     0.031 C 
ATOM     41  C   UNL A   1      39.352  28.725  27.928  1.00  0.00     0.029 A 
ATOM     42  N   UNL A   1      40.608  28.635  29.776  1.00  0.00    -0.354 N 
ATOM     43  C   UNL A   1      39.529  30.895  33.291  1.00  0.00     0.074 A 
ATOM     44  C   UNL A   1      38.379  31.735  33.036  1.00  0.00     0.031 C 
ATOM     45  C   UNL A   1      40.384  27.906  27.673  1.00  0.00     0.029 A 
ATOM     46  C   UNL A   1      41.217  27.804  28.868  1.00  0.00     0.049 A 
ATOM     47  H   UNL A   1      40.973  28.816  30.672  1.00  0.00     0.167 HD
ATOM     48  C   UNL A   1      40.208  30.854  34.463  1.00  0.00     0.037 A 
ATOM     49  C   UNL A   1      42.307  27.024  28.995  1.00  0.00     0.037 A 
ATOM     50  C   UNL A   1      41.345  30.005  34.712  1.00  0.00     0.049 A 
ATOM     51  C   UNL A   1      43.030  26.980  30.312  1.00  0.00     0.074 A 
ATOM     52  C   UNL A   1      42.059  29.844  35.887  1.00  0.00     0.029 A 
ATOM     53  N   UNL A   1      41.934  29.177  33.768  1.00  0.00    -0.354 N 
ATOM     54  N   UNL A   1      42.750  27.608  31.428  1.00  0.00    -0.248 NA
ATOM     55  C   UNL A   1      44.215  26.114  30.392  1.00  0.00     0.031 C 
ATOM     56  C   UNL A   1      43.105  28.949  35.644  1.00  0.00     0.029 A 
ATOM     57  C   UNL A   1      43.016  28.518  34.330  1.00  0.00     0.049 A 
ATOM     58  H   UNL A   1      41.629  29.074  32.838  1.00  0.00     0.167 HD
ATOM     59  C   UNL A   1      43.708  27.199  32.346  1.00  0.00     0.074 A 
ATOM     60  C   UNL A   1      44.568  26.256  31.662  1.00  0.00     0.031 C 
ATOM     61  C   UNL A   1      43.859  27.576  33.639  1.00  0.00     0.037 A 
BRANCH  48  62
ATOM     62  C   UNL A   1      39.723  31.721  35.588  1.00  0.00     0.064 A 
ATOM     63  C   UNL A   1      40.236  33.013  35.780  1.00  0.00     0.173 A 
ATOM     64  C   UNL A   1      38.676  31.302  36.423  1.00  0.00     0.173 A 
ATOM     65  F   UNL A   1      41.239  33.462  35.009  1.00  0.00    -0.203 F 
ATOM     66  C   UNL A   1      39.731  33.846  36.775  1.00  0.00     0.198 A 
ATOM     67  C   UNL A   1      38.154  32.148  37.399  1.00  0.00     0.198 A 
ATOM     68  F   UNL A   1      38.139  30.081  36.275  1.00  0.00    -0.203 F 
ATOM     69  F   UNL A   1      40.255  35.066  36.954  1.00  0.00    -0.200 F 
ATOM     70  C   UNL A   1      38.684  33.417  37.575  1.00  0.00     0.200 A 
ATOM     71  F   UNL A   1      37.130  31.740  38.161  1.00  0.00    -0.200 F 
ATOM     72  F   UNL A   1      38.184  34.230  38.518  1.00  0.00    -0.200 F 
ENDBRANCH  48  62
BRANCH  49  73
ATOM     73  C   UNL A   1      42.721  26.158  27.862  1.00  0.00     0.064 A 
ATOM     74  C   UNL A   1      42.132  24.900  27.672  1.00  0.00     0.173 A 
ATOM     75  C   UNL A   1      43.679  26.580  26.928  1.00  0.00     0.173 A 
ATOM     76  F   UNL A   1      41.222  24.448  28.548  1.00  0.00    -0.203 F 
ATOM     77  C   UNL A   1      42.490  24.094  26.594  1.00  0.00     0.198 A 
ATOM     78  C   UNL A   1      44.018  25.783  25.837  1.00  0.00     0.198 A 
ATOM     79  F   UNL A   1      44.265  27.778  27.063  1.00  0.00    -0.203 F 
ATOM     80  F   UNL A   1      41.932  22.883  26.452  1.00  0.00    -0.200 F 
ATOM     81  C   UNL A   1      43.426  24.539  25.674  1.00  0.00     0.200 A 
ATOM     82  F   UNL A   1      44.912  26.221  24.941  1.00  0.00    -0.200 F 
ATOM     83  F   UNL A   1      43.762  23.767  24.630  1.00  0.00    -0.200 F 
ENDBRANCH  49  73
BRANCH  61  84
ATOM     84  C   UNL A   1      44.990  26.970  34.414  1.00  0.00     0.064 A 
ATOM     85  C   UNL A   1      44.843  25.743  35.077  1.00  0.00     0.173 A 
ATOM     86  C   UNL A   1      46.257  27.573  34.414  1.00  0.00     0.173 A 
ATOM     87  F   UNL A   1      43.648  25.135  35.115  1.00  0.00    -0.203 F 
ATOM     88  C   UNL A   1      45.924  25.145  35.719  1.00  0.00     0.198 A 
ATOM     89  C   UNL A   1      47.341  26.959  35.035  1.00  0.00     0.198 A 
ATOM     90  F   UNL A   1      46.449  28.743  33.787  1.00  0.00    -0.203 F 
ATOM     91  F   UNL A   1      45.757  23.984  36.367  1.00  0.00    -0.200 F 
ATOM     92  C   UNL A   1      47.174  25.747  35.687  1.00  0.00     0.200 A 
ATOM     93  F   UNL A   1      48.551  27.535  34.991  1.00  0.00    -0.200 F 
ATOM     94  F   UNL A   1      48.218  25.159  36.288  1.00  0.00    -0.200 F 
ENDBRANCH  61  84
ENDBRANCH  35  36
ENDBRANCH  28  30
ENDBRANCH  27  28
ENDBRANCH  26  27
ENDBRANCH  25  26
ENDBRANCH   1  25
TORSDOF 16
ENDMDL
