MODEL 1
REMARK VINA RESULT:     -11.2      0.000      0.000
REMARK SMILES C#CC[N@@H+](CC(=O)Nc1c(Cl)cccc1Cl)CC(=O)OCCOC(=O)c1ccc(-c2c3nc(c(-c4c(F)c(F)c(F)c(F)c4F)c4ccc([nH]4)c(-c4c(F)c(F)c(F)c(F)c4F)c4nc(c(-c5c(F)c(F)c(F)c(F)c5F)c5ccc2[nH]5)C=C4)C=C3)cc1
REMARK SMILES IDX 21 1 20 2 18 3 19 4 17 5 4 6 3 8 2 9 1 10 5 11 6 12 7 13
REMARK SMILES IDX 8 14 9 16 10 17 15 18 11 19 12 20 14 21 16 22 13 23 22 24
REMARK SMILES IDX 23 25 24 26 25 27 26 28 27 29 88 30 28 31 87 32 29 33 30 34
REMARK SMILES IDX 31 35 81 36 32 37 86 38 80 39 82 40 33 41 85 42 79 43 78 44
REMARK SMILES IDX 34 46 66 47 46 48 65 49 47 50 50 51 64 52 83 53 48 54 49 55
REMARK SMILES IDX 63 57 84 58 51 59 35 60 36 61 44 62 37 63 38 64 42 65 45 66
REMARK SMILES IDX 39 67 40 68 43 69 41 70 67 71 68 72 76 73 69 74 70 75 74 76
REMARK SMILES IDX 77 77 71 78 72 79 75 80 73 81 52 82 53 83 61 84 54 85 55 86
REMARK SMILES IDX 59 87 62 88 56 89 57 90 60 91 58 92
REMARK H PARENT 4 7 8 15 82 45 50 56
REMARK Flexibility Score: inf
ROOT
ATOM      1  C   UNL A   1      31.298  28.827  25.040  1.00  0.00     0.274 C 
ENDROOT
BRANCH   1   2
ATOM      2  O   UNL A   1      30.387  28.920  23.923  1.00  0.00    -0.458 OA
BRANCH   2   3
ATOM      3  C   UNL A   1      30.138  27.798  23.220  1.00  0.00     0.361 C 
ATOM      4  O   UNL A   1      30.426  27.666  22.031  1.00  0.00    -0.245 OA
BRANCH   3   5
ATOM      5  C   UNL A   1      29.310  26.754  23.957  1.00  0.00     0.387 C 
BRANCH   5   6
ATOM      6  N   UNL A   1      29.896  25.507  24.444  1.00  0.00    -0.308 N 
ATOM      7  H   UNL A   1      28.977  25.112  24.646  1.00  0.00     0.349 HD
BRANCH   6   8
ATOM      8  C   UNL A   1      30.483  24.564  23.535  1.00  0.00     0.354 C 
BRANCH   8   9
ATOM      9  C   UNL A   1      31.759  24.605  22.711  1.00  0.00    -0.047 C 
ATOM     10  C   UNL A   1      32.854  24.639  22.004  1.00  0.00     0.010 C 
ENDBRANCH   8   9
ENDBRANCH   6   8
BRANCH   6  11
ATOM     11  C   UNL A   1      30.685  25.554  25.723  1.00  0.00     0.365 C 
BRANCH  11  12
ATOM     12  C   UNL A   1      30.851  24.226  26.537  1.00  0.00     0.279 C 
ATOM     13  O   UNL A   1      29.882  23.733  27.129  1.00  0.00    -0.268 OA
ATOM     14  N   UNL A   1      32.068  23.598  26.687  1.00  0.00    -0.319 N 
ATOM     15  H   UNL A   1      32.188  23.156  27.558  1.00  0.00     0.170 HD
BRANCH  14  16
ATOM     16  C   UNL A   1      33.179  23.471  25.814  1.00  0.00     0.079 A 
ATOM     17  C   UNL A   1      33.338  22.277  25.072  1.00  0.00     0.066 A 
ATOM     18  C   UNL A   1      34.118  24.491  25.593  1.00  0.00     0.066 A 
ATOM     19  Cl  UNL A   1      32.154  21.021  25.043  1.00  0.00    -0.082 Cl
ATOM     20  C   UNL A   1      34.485  22.043  24.305  1.00  0.00     0.023 A 
ATOM     21  C   UNL A   1      35.248  24.264  24.793  1.00  0.00     0.023 A 
ATOM     22  Cl  UNL A   1      33.856  26.126  26.100  1.00  0.00    -0.082 Cl
ATOM     23  C   UNL A   1      35.452  23.029  24.183  1.00  0.00     0.003 A 
ENDBRANCH  14  16
ENDBRANCH  11  12
ENDBRANCH   6  11
ENDBRANCH   5   6
ENDBRANCH   3   5
ENDBRANCH   2   3
ENDBRANCH   1   2
BRANCH   1  24
ATOM     24  C   UNL A   1      31.622  30.191  25.652  1.00  0.00     0.275 C 
BRANCH  24  25
ATOM     25  O   UNL A   1      33.030  30.316  25.932  1.00  0.00    -0.458 OA
BRANCH  25  26
ATOM     26  C   UNL A   1      33.306  31.229  26.884  1.00  0.00     0.338 C 
ATOM     27  O   UNL A   1      32.590  32.160  27.225  1.00  0.00    -0.246 OA
BRANCH  26  28
ATOM     28  C   UNL A   1      34.589  30.950  27.536  1.00  0.00     0.060 A 
ATOM     29  C   UNL A   1      34.867  29.649  27.949  1.00  0.00     0.016 A 
ATOM     30  C   UNL A   1      35.444  31.998  27.881  1.00  0.00     0.016 A 
ATOM     31  C   UNL A   1      35.987  29.393  28.734  1.00  0.00     0.010 A 
ATOM     32  C   UNL A   1      36.596  31.731  28.631  1.00  0.00     0.010 A 
ATOM     33  C   UNL A   1      36.870  30.428  29.075  1.00  0.00    -0.014 A 
BRANCH  33  34
ATOM     34  C   UNL A   1      38.104  30.111  29.835  1.00  0.00     0.031 A 
ATOM     35  C   UNL A   1      39.164  29.207  29.276  1.00  0.00     0.074 A 
ATOM     36  C   UNL A   1      38.270  30.673  31.047  1.00  0.00     0.049 A 
ATOM     37  N   UNL A   1      40.249  28.754  29.855  1.00  0.00    -0.248 NA
ATOM     38  C   UNL A   1      38.996  28.759  27.886  1.00  0.00     0.031 C 
ATOM     39  C   UNL A   1      37.331  31.604  31.676  1.00  0.00     0.029 A 
ATOM     40  N   UNL A   1      39.281  30.547  31.965  1.00  0.00    -0.354 N 
ATOM     41  C   UNL A   1      40.882  27.956  28.914  1.00  0.00     0.074 A 
ATOM     42  C   UNL A   1      40.062  27.984  27.720  1.00  0.00     0.031 C 
ATOM     43  C   UNL A   1      37.814  31.975  32.869  1.00  0.00     0.029 A 
ATOM     44  C   UNL A   1      39.055  31.251  33.120  1.00  0.00     0.049 A 
ATOM     45  H   UNL A   1      40.088  30.005  31.810  1.00  0.00     0.167 HD
ATOM     46  C   UNL A   1      42.041  27.264  29.042  1.00  0.00     0.037 A 
ATOM     47  C   UNL A   1      39.740  31.278  34.276  1.00  0.00     0.037 A 
ATOM     48  C   UNL A   1      42.858  27.246  30.230  1.00  0.00     0.049 A 
ATOM     49  C   UNL A   1      40.977  30.444  34.417  1.00  0.00     0.074 A 
ATOM     50  C   UNL A   1      44.053  26.582  30.448  1.00  0.00     0.029 A 
ATOM     51  N   UNL A   1      42.562  27.926  31.403  1.00  0.00    -0.354 N 
ATOM     52  N   UNL A   1      41.544  29.660  33.535  1.00  0.00    -0.248 NA
ATOM     53  C   UNL A   1      41.655  30.484  35.719  1.00  0.00     0.031 C 
ATOM     54  C   UNL A   1      44.461  26.829  31.764  1.00  0.00     0.029 A 
ATOM     55  C   UNL A   1      43.539  27.677  32.355  1.00  0.00     0.049 A 
ATOM     56  H   UNL A   1      41.774  28.499  31.540  1.00  0.00     0.167 HD
ATOM     57  C   UNL A   1      42.645  29.109  34.171  1.00  0.00     0.074 A 
ATOM     58  C   UNL A   1      42.678  29.666  35.508  1.00  0.00     0.031 C 
ATOM     59  C   UNL A   1      43.544  28.218  33.689  1.00  0.00     0.037 A 
BRANCH  46  60
ATOM     60  C   UNL A   1      42.495  26.435  27.877  1.00  0.00     0.064 A 
ATOM     61  C   UNL A   1      42.031  25.127  27.679  1.00  0.00     0.173 A 
ATOM     62  C   UNL A   1      43.341  26.988  26.903  1.00  0.00     0.173 A 
ATOM     63  F   UNL A   1      41.228  24.552  28.587  1.00  0.00    -0.203 F 
ATOM     64  C   UNL A   1      42.402  24.400  26.551  1.00  0.00     0.198 A 
ATOM     65  C   UNL A   1      43.695  26.265  25.767  1.00  0.00     0.198 A 
ATOM     66  F   UNL A   1      43.806  28.238  27.044  1.00  0.00    -0.203 F 
ATOM     67  F   UNL A   1      41.962  23.144  26.390  1.00  0.00    -0.200 F 
ATOM     68  C   UNL A   1      43.226  24.971  25.592  1.00  0.00     0.200 A 
ATOM     69  F   UNL A   1      44.484  26.822  24.838  1.00  0.00    -0.200 F 
ATOM     70  F   UNL A   1      43.571  24.274  24.501  1.00  0.00    -0.200 F 
ENDBRANCH  46  60
BRANCH  47  71
ATOM     71  C   UNL A   1      39.221  32.093  35.401  1.00  0.00     0.064 A 
ATOM     72  C   UNL A   1      38.401  31.528  36.384  1.00  0.00     0.173 A 
ATOM     73  C   UNL A   1      39.589  33.440  35.543  1.00  0.00     0.173 A 
ATOM     74  F   UNL A   1      38.008  30.251  36.275  1.00  0.00    -0.203 F 
ATOM     75  C   UNL A   1      37.972  32.281  37.475  1.00  0.00     0.198 A 
ATOM     76  C   UNL A   1      39.181  34.182  36.647  1.00  0.00     0.198 A 
ATOM     77  F   UNL A   1      40.377  34.020  34.626  1.00  0.00    -0.203 F 
ATOM     78  F   UNL A   1      37.172  31.725  38.396  1.00  0.00    -0.200 F 
ATOM     79  C   UNL A   1      38.371  33.602  37.611  1.00  0.00     0.200 A 
ATOM     80  F   UNL A   1      39.582  35.454  36.782  1.00  0.00    -0.200 F 
ATOM     81  F   UNL A   1      37.976  34.318  38.673  1.00  0.00    -0.200 F 
ENDBRANCH  47  71
BRANCH  59  82
ATOM     82  C   UNL A   1      44.636  27.793  34.622  1.00  0.00     0.064 A 
ATOM     83  C   UNL A   1      44.492  26.666  35.442  1.00  0.00     0.173 A 
ATOM     84  C   UNL A   1      45.835  28.517  34.694  1.00  0.00     0.173 A 
ATOM     85  F   UNL A   1      43.353  25.956  35.420  1.00  0.00    -0.203 F 
ATOM     86  C   UNL A   1      45.503  26.289  36.321  1.00  0.00     0.198 A 
ATOM     87  C   UNL A   1      46.852  28.126  35.560  1.00  0.00     0.198 A 
ATOM     88  F   UNL A   1      46.017  29.602  33.929  1.00  0.00    -0.203 F 
ATOM     89  F   UNL A   1      45.329  25.234  37.129  1.00  0.00    -0.200 F 
ATOM     90  C   UNL A   1      46.683  27.017  36.378  1.00  0.00     0.200 A 
ATOM     91  F   UNL A   1      47.993  28.827  35.612  1.00  0.00    -0.200 F 
ATOM     92  F   UNL A   1      47.653  26.657  37.228  1.00  0.00    -0.200 F 
ENDBRANCH  59  82
ENDBRANCH  33  34
ENDBRANCH  26  28
ENDBRANCH  25  26
ENDBRANCH  24  25
ENDBRANCH   1  24
TORSDOF 17
ENDMDL
MODEL 2
REMARK VINA RESULT:     -11.0      0.910      2.432
REMARK SMILES C#CC[N@@H+](CC(=O)Nc1c(Cl)cccc1Cl)CC(=O)OCCOC(=O)c1ccc(-c2c3nc(c(-c4c(F)c(F)c(F)c(F)c4F)c4ccc([nH]4)c(-c4c(F)c(F)c(F)c(F)c4F)c4nc(c(-c5c(F)c(F)c(F)c(F)c5F)c5ccc2[nH]5)C=C4)C=C3)cc1
REMARK SMILES IDX 21 1 20 2 18 3 19 4 17 5 4 6 3 8 2 9 1 10 5 11 6 12 7 13
REMARK SMILES IDX 8 14 9 16 10 17 15 18 11 19 12 20 14 21 16 22 13 23 22 24
REMARK SMILES IDX 23 25 24 26 25 27 26 28 27 29 88 30 28 31 87 32 29 33 30 34
REMARK SMILES IDX 31 35 81 36 32 37 86 38 80 39 82 40 33 41 85 42 79 43 78 44
REMARK SMILES IDX 34 46 66 47 46 48 65 49 47 50 50 51 64 52 83 53 48 54 49 55
REMARK SMILES IDX 63 57 84 58 51 59 35 60 36 61 44 62 37 63 38 64 42 65 45 66
REMARK SMILES IDX 39 67 40 68 43 69 41 70 67 71 68 72 76 73 69 74 70 75 74 76
REMARK SMILES IDX 77 77 71 78 72 79 75 80 73 81 52 82 53 83 61 84 54 85 55 86
REMARK SMILES IDX 59 87 62 88 56 89 57 90 60 91 58 92
REMARK H PARENT 4 7 8 15 82 45 50 56
REMARK Flexibility Score: inf
ROOT
ATOM      1  C   UNL A   1      31.346  29.244  25.054  1.00  0.00     0.274 C 
ENDROOT
BRANCH   1   2
ATOM      2  O   UNL A   1      30.550  29.594  23.900  1.00  0.00    -0.458 OA
BRANCH   2   3
ATOM      3  C   UNL A   1      30.718  28.868  22.777  1.00  0.00     0.361 C 
ATOM      4  O   UNL A   1      29.985  28.961  21.795  1.00  0.00    -0.245 OA
BRANCH   3   5
ATOM      5  C   UNL A   1      31.786  27.787  22.872  1.00  0.00     0.387 C 
BRANCH   5   6
ATOM      6  N   UNL A   1      31.573  26.442  22.340  1.00  0.00    -0.308 N 
ATOM      7  H   UNL A   1      31.104  26.805  21.510  1.00  0.00     0.349 HD
BRANCH   6   8
ATOM      8  C   UNL A   1      32.666  25.677  21.811  1.00  0.00     0.354 C 
BRANCH   8   9
ATOM      9  C   UNL A   1      33.196  24.293  22.146  1.00  0.00    -0.047 C 
ATOM     10  C   UNL A   1      33.650  23.105  22.433  1.00  0.00     0.010 C 
ENDBRANCH   8   9
ENDBRANCH   6   8
BRANCH   6  11
ATOM     11  C   UNL A   1      30.617  25.542  23.072  1.00  0.00     0.365 C 
BRANCH  11  12
ATOM     12  C   UNL A   1      30.284  25.877  24.566  1.00  0.00     0.279 C 
ATOM     13  O   UNL A   1      29.173  26.331  24.869  1.00  0.00    -0.268 OA
ATOM     14  N   UNL A   1      31.212  25.750  25.576  1.00  0.00    -0.319 N 
ATOM     15  H   UNL A   1      31.127  26.425  26.287  1.00  0.00     0.170 HD
BRANCH  14  16
ATOM     16  C   UNL A   1      32.266  24.823  25.779  1.00  0.00     0.079 A 
ATOM     17  C   UNL A   1      33.604  25.278  25.719  1.00  0.00     0.066 A 
ATOM     18  C   UNL A   1      32.064  23.470  26.094  1.00  0.00     0.066 A 
ATOM     19  Cl  UNL A   1      34.026  26.947  25.578  1.00  0.00    -0.082 Cl
ATOM     20  C   UNL A   1      34.681  24.386  25.773  1.00  0.00     0.023 A 
ATOM     21  C   UNL A   1      33.151  22.586  26.184  1.00  0.00     0.023 A 
ATOM     22  Cl  UNL A   1      30.528  22.846  26.593  1.00  0.00    -0.082 Cl
ATOM     23  C   UNL A   1      34.453  23.034  25.984  1.00  0.00     0.003 A 
ENDBRANCH  14  16
ENDBRANCH  11  12
ENDBRANCH   6  11
ENDBRANCH   5   6
ENDBRANCH   3   5
ENDBRANCH   2   3
ENDBRANCH   1   2
BRANCH   1  24
ATOM     24  C   UNL A   1      31.781  30.467  25.863  1.00  0.00     0.275 C 
BRANCH  24  25
ATOM     25  O   UNL A   1      33.183  30.407  26.187  1.00  0.00    -0.458 OA
BRANCH  25  26
ATOM     26  C   UNL A   1      33.564  31.336  27.086  1.00  0.00     0.338 C 
ATOM     27  O   UNL A   1      32.935  32.334  27.407  1.00  0.00    -0.246 OA
BRANCH  26  28
ATOM     28  C   UNL A   1      34.845  30.986  27.708  1.00  0.00     0.060 A 
ATOM     29  C   UNL A   1      35.046  29.679  28.147  1.00  0.00     0.016 A 
ATOM     30  C   UNL A   1      35.779  31.980  28.001  1.00  0.00     0.016 A 
ATOM     31  C   UNL A   1      36.169  29.366  28.906  1.00  0.00     0.010 A 
ATOM     32  C   UNL A   1      36.933  31.653  28.723  1.00  0.00     0.010 A 
ATOM     33  C   UNL A   1      37.131  30.345  29.194  1.00  0.00    -0.014 A 
BRANCH  33  34
ATOM     34  C   UNL A   1      38.363  29.963  29.925  1.00  0.00     0.031 A 
ATOM     35  C   UNL A   1      39.374  29.025  29.332  1.00  0.00     0.074 A 
ATOM     36  C   UNL A   1      38.573  30.494  31.144  1.00  0.00     0.049 A 
ATOM     37  N   UNL A   1      40.448  28.516  29.884  1.00  0.00    -0.248 NA
ATOM     38  C   UNL A   1      39.163  28.609  27.937  1.00  0.00     0.031 C 
ATOM     39  C   UNL A   1      37.686  31.453  31.806  1.00  0.00     0.029 A 
ATOM     40  N   UNL A   1      39.594  30.309  32.041  1.00  0.00    -0.354 N 
ATOM     41  C   UNL A   1      41.031  27.709  28.917  1.00  0.00     0.074 A 
ATOM     42  C   UNL A   1      40.192  27.794  27.738  1.00  0.00     0.031 C 
ATOM     43  C   UNL A   1      38.205  31.781  32.997  1.00  0.00     0.029 A 
ATOM     44  C   UNL A   1      39.418  31.001  33.212  1.00  0.00     0.049 A 
ATOM     45  H   UNL A   1      40.375  29.736  31.863  1.00  0.00     0.167 HD
ATOM     46  C   UNL A   1      42.161  26.966  29.012  1.00  0.00     0.037 A 
ATOM     47  C   UNL A   1      40.123  30.978  34.357  1.00  0.00     0.037 A 
ATOM     48  C   UNL A   1      42.997  26.892  30.185  1.00  0.00     0.049 A 
ATOM     49  C   UNL A   1      41.325  30.090  34.460  1.00  0.00     0.074 A 
ATOM     50  C   UNL A   1      44.166  26.174  30.369  1.00  0.00     0.029 A 
ATOM     51  N   UNL A   1      42.750  27.562  31.375  1.00  0.00    -0.354 N 
ATOM     52  N   UNL A   1      41.843  29.299  33.555  1.00  0.00    -0.248 NA
ATOM     53  C   UNL A   1      42.027  30.077  35.750  1.00  0.00     0.031 C 
ATOM     54  C   UNL A   1      44.607  26.380  31.683  1.00  0.00     0.029 A 
ATOM     55  C   UNL A   1      43.732  27.255  32.305  1.00  0.00     0.049 A 
ATOM     56  H   UNL A   1      41.989  28.166  31.536  1.00  0.00     0.167 HD
ATOM     57  C   UNL A   1      42.931  28.690  34.161  1.00  0.00     0.074 A 
ATOM     58  C   UNL A   1      43.011  29.221  35.507  1.00  0.00     0.031 C 
ATOM     59  C   UNL A   1      43.783  27.771  33.647  1.00  0.00     0.037 A 
BRANCH  46  60
ATOM     60  C   UNL A   1      42.559  26.141  27.825  1.00  0.00     0.064 A 
ATOM     61  C   UNL A   1      43.513  26.594  26.901  1.00  0.00     0.173 A 
ATOM     62  C   UNL A   1      42.042  24.848  27.657  1.00  0.00     0.173 A 
ATOM     63  F   UNL A   1      44.029  27.826  27.014  1.00  0.00    -0.203 F 
ATOM     64  C   UNL A   1      43.929  25.783  25.848  1.00  0.00     0.198 A 
ATOM     65  C   UNL A   1      42.474  24.033  26.613  1.00  0.00     0.198 A 
ATOM     66  F   UNL A   1      41.133  24.367  28.518  1.00  0.00    -0.203 F 
ATOM     67  F   UNL A   1      44.827  26.241  24.965  1.00  0.00    -0.200 F 
ATOM     68  C   UNL A   1      43.416  24.501  25.709  1.00  0.00     0.200 A 
ATOM     69  F   UNL A   1      41.983  22.792  26.487  1.00  0.00    -0.200 F 
ATOM     70  F   UNL A   1      43.828  23.718  24.703  1.00  0.00    -0.200 F 
ENDBRANCH  46  60
BRANCH  47  71
ATOM     71  C   UNL A   1      39.658  31.793  35.505  1.00  0.00     0.064 A 
ATOM     72  C   UNL A   1      40.154  33.083  35.723  1.00  0.00     0.173 A 
ATOM     73  C   UNL A   1      38.660  31.314  36.368  1.00  0.00     0.173 A 
ATOM     74  F   UNL A   1      41.123  33.570  34.935  1.00  0.00    -0.203 F 
ATOM     75  C   UNL A   1      39.663  33.870  36.763  1.00  0.00     0.198 A 
ATOM     76  C   UNL A   1      38.153  32.112  37.389  1.00  0.00     0.198 A 
ATOM     77  F   UNL A   1      38.154  30.085  36.192  1.00  0.00    -0.203 F 
ATOM     78  F   UNL A   1      40.164  35.096  36.965  1.00  0.00    -0.200 F 
ATOM     79  C   UNL A   1      38.656  33.388  37.587  1.00  0.00     0.200 A 
ATOM     80  F   UNL A   1      37.170  31.647  38.173  1.00  0.00    -0.200 F 
ATOM     81  F   UNL A   1      38.170  34.155  38.572  1.00  0.00    -0.200 F 
ENDBRANCH  47  71
BRANCH  59  82
ATOM     82  C   UNL A   1      44.871  27.284  34.553  1.00  0.00     0.064 A 
ATOM     83  C   UNL A   1      46.102  27.950  34.635  1.00  0.00     0.173 A 
ATOM     84  C   UNL A   1      44.681  26.144  35.349  1.00  0.00     0.173 A 
ATOM     85  F   UNL A   1      46.333  29.033  33.877  1.00  0.00    -0.203 F 
ATOM     86  C   UNL A   1      47.114  27.479  35.465  1.00  0.00     0.198 A 
ATOM     87  C   UNL A   1      45.690  25.687  36.192  1.00  0.00     0.198 A 
ATOM     88  F   UNL A   1      43.521  25.474  35.304  1.00  0.00    -0.203 F 
ATOM     89  F   UNL A   1      48.299  28.106  35.495  1.00  0.00    -0.200 F 
ATOM     90  C   UNL A   1      46.907  26.350  36.245  1.00  0.00     0.200 A 
ATOM     91  F   UNL A   1      45.488  24.599  36.948  1.00  0.00    -0.200 F 
ATOM     92  F   UNL A   1      47.885  25.895  37.039  1.00  0.00    -0.200 F 
ENDBRANCH  59  82
ENDBRANCH  33  34
ENDBRANCH  26  28
ENDBRANCH  25  26
ENDBRANCH  24  25
ENDBRANCH   1  24
TORSDOF 17
ENDMDL
MODEL 3
REMARK VINA RESULT:     -10.9      4.278      9.441
REMARK SMILES C#CC[N@@H+](CC(=O)Nc1c(Cl)cccc1Cl)CC(=O)OCCOC(=O)c1ccc(-c2c3nc(c(-c4c(F)c(F)c(F)c(F)c4F)c4ccc([nH]4)c(-c4c(F)c(F)c(F)c(F)c4F)c4nc(c(-c5c(F)c(F)c(F)c(F)c5F)c5ccc2[nH]5)C=C4)C=C3)cc1
REMARK SMILES IDX 21 1 20 2 18 3 19 4 17 5 4 6 3 8 2 9 1 10 5 11 6 12 7 13
REMARK SMILES IDX 8 14 9 16 10 17 15 18 11 19 12 20 14 21 16 22 13 23 22 24
REMARK SMILES IDX 23 25 24 26 25 27 26 28 27 29 88 30 28 31 87 32 29 33 30 34
REMARK SMILES IDX 31 35 81 36 32 37 86 38 80 39 82 40 33 41 85 42 79 43 78 44
REMARK SMILES IDX 34 46 66 47 46 48 65 49 47 50 50 51 64 52 83 53 48 54 49 55
REMARK SMILES IDX 63 57 84 58 51 59 35 60 36 61 44 62 37 63 38 64 42 65 45 66
REMARK SMILES IDX 39 67 40 68 43 69 41 70 67 71 68 72 76 73 69 74 70 75 74 76
REMARK SMILES IDX 77 77 71 78 72 79 75 80 73 81 52 82 53 83 61 84 54 85 55 86
REMARK SMILES IDX 59 87 62 88 56 89 57 90 60 91 58 92
REMARK H PARENT 4 7 8 15 82 45 50 56
REMARK Flexibility Score: inf
ROOT
ATOM      1  C   UNL A   1      34.740  21.155  25.242  1.00  0.00     0.274 C 
ENDROOT
BRANCH   1   2
ATOM      2  O   UNL A   1      33.948  20.319  24.370  1.00  0.00    -0.458 OA
BRANCH   2   3
ATOM      3  C   UNL A   1      32.638  20.610  24.240  1.00  0.00     0.361 C 
ATOM      4  O   UNL A   1      31.780  20.243  25.041  1.00  0.00    -0.245 OA
BRANCH   3   5
ATOM      5  C   UNL A   1      32.263  21.285  22.928  1.00  0.00     0.387 C 
BRANCH   5   6
ATOM      6  N   UNL A   1      32.095  22.734  22.825  1.00  0.00    -0.308 N 
ATOM      7  H   UNL A   1      31.752  22.662  21.867  1.00  0.00     0.349 HD
BRANCH   6   8
ATOM      8  C   UNL A   1      31.034  23.403  23.521  1.00  0.00     0.354 C 
BRANCH   8   9
ATOM      9  C   UNL A   1      30.820  23.717  24.993  1.00  0.00    -0.047 C 
ATOM     10  C   UNL A   1      30.637  23.986  26.255  1.00  0.00     0.010 C 
ENDBRANCH   8   9
ENDBRANCH   6   8
BRANCH   6  11
ATOM     11  C   UNL A   1      33.334  23.585  22.825  1.00  0.00     0.365 C 
BRANCH  11  12
ATOM     12  C   UNL A   1      33.289  24.953  22.060  1.00  0.00     0.279 C 
ATOM     13  O   UNL A   1      33.274  24.973  20.823  1.00  0.00    -0.268 OA
ATOM     14  N   UNL A   1      33.334  26.165  22.711  1.00  0.00    -0.319 N 
ATOM     15  H   UNL A   1      33.815  26.869  22.219  1.00  0.00     0.170 HD
BRANCH  14  16
ATOM     16  C   UNL A   1      32.812  26.586  23.962  1.00  0.00     0.079 A 
ATOM     17  C   UNL A   1      31.548  27.221  24.001  1.00  0.00     0.066 A 
ATOM     18  C   UNL A   1      33.453  26.361  25.190  1.00  0.00     0.066 A 
ATOM     19  Cl  UNL A   1      30.522  27.363  22.620  1.00  0.00    -0.082 Cl
ATOM     20  C   UNL A   1      31.049  27.779  25.184  1.00  0.00     0.023 A 
ATOM     21  C   UNL A   1      32.929  26.891  26.379  1.00  0.00     0.023 A 
ATOM     22  Cl  UNL A   1      34.783  25.267  25.362  1.00  0.00    -0.082 Cl
ATOM     23  C   UNL A   1      31.751  27.633  26.371  1.00  0.00     0.003 A 
ENDBRANCH  14  16
ENDBRANCH  11  12
ENDBRANCH   6  11
ENDBRANCH   5   6
ENDBRANCH   3   5
ENDBRANCH   2   3
ENDBRANCH   1   2
BRANCH   1  24
ATOM     24  C   UNL A   1      36.221  20.774  25.239  1.00  0.00     0.275 C 
BRANCH  24  25
ATOM     25  O   UNL A   1      37.058  21.930  25.438  1.00  0.00    -0.458 OA
BRANCH  25  26
ATOM     26  C   UNL A   1      38.308  21.622  25.839  1.00  0.00     0.338 C 
ATOM     27  O   UNL A   1      38.856  20.534  25.730  1.00  0.00    -0.246 OA
BRANCH  26  28
ATOM     28  C   UNL A   1      38.994  22.791  26.396  1.00  0.00     0.060 A 
ATOM     29  C   UNL A   1      38.626  24.061  25.958  1.00  0.00     0.016 A 
ATOM     30  C   UNL A   1      40.104  22.625  27.227  1.00  0.00     0.016 A 
ATOM     31  C   UNL A   1      39.382  25.170  26.325  1.00  0.00     0.010 A 
ATOM     32  C   UNL A   1      40.835  23.747  27.634  1.00  0.00     0.010 A 
ATOM     33  C   UNL A   1      40.489  25.028  27.176  1.00  0.00    -0.014 A 
BRANCH  33  34
ATOM     34  C   UNL A   1      41.221  26.237  27.625  1.00  0.00     0.031 A 
ATOM     35  C   UNL A   1      40.562  27.292  28.464  1.00  0.00     0.074 A 
ATOM     36  C   UNL A   1      42.516  26.365  27.277  1.00  0.00     0.049 A 
ATOM     37  N   UNL A   1      41.036  28.451  28.852  1.00  0.00    -0.248 NA
ATOM     38  C   UNL A   1      39.200  27.013  28.943  1.00  0.00     0.031 C 
ATOM     39  C   UNL A   1      43.278  25.384  26.504  1.00  0.00     0.029 A 
ATOM     40  N   UNL A   1      43.418  27.367  27.529  1.00  0.00    -0.354 N 
ATOM     41  C   UNL A   1      40.031  29.046  29.600  1.00  0.00     0.074 A 
ATOM     42  C   UNL A   1      38.915  28.122  29.615  1.00  0.00     0.031 C 
ATOM     43  C   UNL A   1      44.534  25.824  26.353  1.00  0.00     0.029 A 
ATOM     44  C   UNL A   1      44.644  27.149  26.953  1.00  0.00     0.049 A 
ATOM     45  H   UNL A   1      43.207  28.163  28.068  1.00  0.00     0.167 HD
ATOM     46  C   UNL A   1      40.043  30.256  30.212  1.00  0.00     0.037 A 
ATOM     47  C   UNL A   1      45.725  27.943  26.870  1.00  0.00     0.037 A 
ATOM     48  C   UNL A   1      41.159  31.169  30.200  1.00  0.00     0.049 A 
ATOM     49  C   UNL A   1      45.685  29.306  27.490  1.00  0.00     0.074 A 
ATOM     50  C   UNL A   1      41.266  32.412  30.802  1.00  0.00     0.029 A 
ATOM     51  N   UNL A   1      42.364  30.937  29.552  1.00  0.00    -0.354 N 
ATOM     52  N   UNL A   1      44.714  29.876  28.159  1.00  0.00    -0.248 NA
ATOM     53  C   UNL A   1      46.882  30.141  27.328  1.00  0.00     0.031 C 
ATOM     54  C   UNL A   1      42.521  32.948  30.486  1.00  0.00     0.029 A 
ATOM     55  C   UNL A   1      43.210  32.023  29.719  1.00  0.00     0.049 A 
ATOM     56  H   UNL A   1      42.585  30.122  29.047  1.00  0.00     0.167 HD
ATOM     57  C   UNL A   1      45.177  31.137  28.497  1.00  0.00     0.074 A 
ATOM     58  C   UNL A   1      46.526  31.241  27.978  1.00  0.00     0.031 C 
ATOM     59  C   UNL A   1      44.539  32.121  29.174  1.00  0.00     0.037 A 
BRANCH  46  60
ATOM     60  C   UNL A   1      38.801  30.690  30.932  1.00  0.00     0.064 A 
ATOM     61  C   UNL A   1      38.659  30.529  32.317  1.00  0.00     0.173 A 
ATOM     62  C   UNL A   1      37.776  31.352  30.238  1.00  0.00     0.173 A 
ATOM     63  F   UNL A   1      39.607  29.895  33.023  1.00  0.00    -0.203 F 
ATOM     64  C   UNL A   1      37.533  31.008  32.981  1.00  0.00     0.198 A 
ATOM     65  C   UNL A   1      36.660  31.846  30.907  1.00  0.00     0.198 A 
ATOM     66  F   UNL A   1      37.869  31.537  28.913  1.00  0.00    -0.203 F 
ATOM     67  F   UNL A   1      37.407  30.827  34.304  1.00  0.00    -0.200 F 
ATOM     68  C   UNL A   1      36.538  31.673  32.278  1.00  0.00     0.200 A 
ATOM     69  F   UNL A   1      35.705  32.496  30.227  1.00  0.00    -0.200 F 
ATOM     70  F   UNL A   1      35.462  32.145  32.922  1.00  0.00    -0.200 F 
ENDBRANCH  46  60
BRANCH  47  71
ATOM     71  C   UNL A   1      46.910  27.467  26.116  1.00  0.00     0.064 A 
ATOM     72  C   UNL A   1      47.937  26.762  26.754  1.00  0.00     0.173 A 
ATOM     73  C   UNL A   1      47.004  27.658  24.729  1.00  0.00     0.173 A 
ATOM     74  F   UNL A   1      47.897  26.576  28.082  1.00  0.00    -0.203 F 
ATOM     75  C   UNL A   1      49.014  26.258  26.029  1.00  0.00     0.198 A 
ATOM     76  C   UNL A   1      48.068  27.131  24.003  1.00  0.00     0.198 A 
ATOM     77  F   UNL A   1      46.041  28.325  24.077  1.00  0.00    -0.203 F 
ATOM     78  F   UNL A   1      49.995  25.600  26.663  1.00  0.00    -0.200 F 
ATOM     79  C   UNL A   1      49.073  26.433  24.654  1.00  0.00     0.200 A 
ATOM     80  F   UNL A   1      48.112  27.290  22.673  1.00  0.00    -0.200 F 
ATOM     81  F   UNL A   1      50.099  25.928  23.956  1.00  0.00    -0.200 F 
ENDBRANCH  47  71
BRANCH  59  82
ATOM     82  C   UNL A   1      45.298  33.395  29.384  1.00  0.00     0.064 A 
ATOM     83  C   UNL A   1      45.201  34.457  28.475  1.00  0.00     0.173 A 
ATOM     84  C   UNL A   1      46.126  33.556  30.505  1.00  0.00     0.173 A 
ATOM     85  F   UNL A   1      44.437  34.338  27.378  1.00  0.00    -0.203 F 
ATOM     86  C   UNL A   1      45.926  35.629  28.667  1.00  0.00     0.198 A 
ATOM     87  C   UNL A   1      46.834  34.737  30.704  1.00  0.00     0.198 A 
ATOM     88  F   UNL A   1      46.250  32.567  31.402  1.00  0.00    -0.203 F 
ATOM     89  F   UNL A   1      45.853  36.616  27.762  1.00  0.00    -0.200 F 
ATOM     90  C   UNL A   1      46.739  35.770  29.782  1.00  0.00     0.200 A 
ATOM     91  F   UNL A   1      47.616  34.875  31.784  1.00  0.00    -0.200 F 
ATOM     92  F   UNL A   1      47.440  36.897  29.963  1.00  0.00    -0.200 F 
ENDBRANCH  59  82
ENDBRANCH  33  34
ENDBRANCH  26  28
ENDBRANCH  25  26
ENDBRANCH  24  25
ENDBRANCH   1  24
TORSDOF 17
ENDMDL
