MODEL 1
REMARK VINA RESULT:     -10.7      0.000      0.000
REMARK SMILES O=C(C[C@@H]1C=CS(=O)(=O)C1)OCCOC(=O)c1ccc(-c2c3nc(c(-c4c(F)c(F)c(F)c(F)c4F)c4ccc([nH]4)c(-c4c(F)c(F)c(F)c(F)c4F)c4nc(c(-c5c(F)c(F)c(F)c(F)c5F)c5ccc2[nH]5)C=C4)C=C3)cc1
REMARK SMILES IDX 13 1 12 2 11 3 2 4 1 5 3 6 4 7 5 8 10 9 6 10 7 11 8 12 9 13
REMARK SMILES IDX 14 14 15 15 16 16 17 17 18 18 79 19 19 20 78 21 20 22 21 23
REMARK SMILES IDX 22 24 72 25 23 26 77 27 71 28 73 29 24 30 76 31 70 32 69 33
REMARK SMILES IDX 25 35 57 36 37 37 56 38 38 39 41 40 55 41 74 42 39 43 40 44
REMARK SMILES IDX 54 46 75 47 42 48 26 49 27 50 35 51 28 52 29 53 33 54 36 55
REMARK SMILES IDX 30 56 31 57 34 58 32 59 58 60 59 61 67 62 60 63 61 64 65 65
REMARK SMILES IDX 68 66 62 67 63 68 66 69 64 70 43 71 44 72 52 73 45 74 46 75
REMARK SMILES IDX 50 76 53 77 47 78 48 79 51 80 49 81
REMARK H PARENT 73 34 41 45
REMARK Flexibility Score: inf
ROOT
ATOM      1  C   UNL A   1      40.330  19.611  25.825  1.00  0.00     0.275 C 
ENDROOT
BRANCH   1   2
ATOM      2  C   UNL A   1      41.794  19.465  26.253  1.00  0.00     0.274 C 
BRANCH   2   3
ATOM      3  O   UNL A   1      42.666  19.157  25.144  1.00  0.00    -0.462 OA
BRANCH   3   4
ATOM      4  C   UNL A   1      43.948  18.743  25.253  1.00  0.00     0.306 C 
ATOM      5  O   UNL A   1      44.259  17.848  26.036  1.00  0.00    -0.252 OA
BRANCH   4   6
ATOM      6  C   UNL A   1      44.996  19.409  24.400  1.00  0.00     0.131 C 
BRANCH   6   7
ATOM      7  C   UNL A   1      45.838  20.435  25.160  1.00  0.00     0.039 C 
ATOM      8  C   UNL A   1      44.940  21.260  26.055  1.00  0.00    -0.010 C 
ATOM      9  C   UNL A   1      46.490  21.445  24.198  1.00  0.00     0.150 C 
ATOM     10  C   UNL A   1      44.571  22.458  25.579  1.00  0.00     0.102 C 
ATOM     11  S   UNL A   1      45.301  22.771  24.040  1.00  0.00     0.171 S 
ATOM     12  O   UNL A   1      45.993  24.038  24.064  1.00  0.00    -0.224 OA
ATOM     13  O   UNL A   1      44.382  22.412  22.979  1.00  0.00    -0.224 OA
ENDBRANCH   6   7
ENDBRANCH   4   6
ENDBRANCH   3   4
ENDBRANCH   2   3
ENDBRANCH   1   2
BRANCH   1  14
ATOM     14  O   UNL A   1      39.606  20.471  26.725  1.00  0.00    -0.458 OA
BRANCH  14  15
ATOM     15  C   UNL A   1      39.020  21.564  26.169  1.00  0.00     0.338 C 
ATOM     16  O   UNL A   1      37.997  21.582  25.510  1.00  0.00    -0.246 OA
BRANCH  15  17
ATOM     17  C   UNL A   1      39.698  22.784  26.673  1.00  0.00     0.060 A 
ATOM     18  C   UNL A   1      39.266  24.031  26.195  1.00  0.00     0.016 A 
ATOM     19  C   UNL A   1      40.696  22.718  27.647  1.00  0.00     0.016 A 
ATOM     20  C   UNL A   1      39.832  25.213  26.687  1.00  0.00     0.010 A 
ATOM     21  C   UNL A   1      41.269  23.899  28.130  1.00  0.00     0.010 A 
ATOM     22  C   UNL A   1      40.854  25.153  27.642  1.00  0.00    -0.014 A 
BRANCH  22  23
ATOM     23  C   UNL A   1      41.630  26.361  28.027  1.00  0.00     0.031 A 
ATOM     24  C   UNL A   1      40.906  27.471  28.731  1.00  0.00     0.074 A 
ATOM     25  C   UNL A   1      42.926  26.516  27.704  1.00  0.00     0.049 A 
ATOM     26  N   UNL A   1      41.311  28.679  29.028  1.00  0.00    -0.248 NA
ATOM     27  C   UNL A   1      39.526  27.174  29.148  1.00  0.00     0.031 C 
ATOM     28  C   UNL A   1      43.763  25.508  27.064  1.00  0.00     0.029 A 
ATOM     29  N   UNL A   1      43.753  27.607  27.836  1.00  0.00    -0.354 N 
ATOM     30  C   UNL A   1      40.234  29.289  29.657  1.00  0.00     0.074 A 
ATOM     31  C   UNL A   1      39.148  28.333  29.663  1.00  0.00     0.031 C 
ATOM     32  C   UNL A   1      44.967  26.043  26.798  1.00  0.00     0.029 A 
ATOM     33  C   UNL A   1      44.977  27.439  27.235  1.00  0.00     0.049 A 
ATOM     34  H   UNL A   1      43.494  28.427  28.314  1.00  0.00     0.167 HD
ATOM     35  C   UNL A   1      40.161  30.532  30.189  1.00  0.00     0.037 A 
ATOM     36  C   UNL A   1      45.977  28.320  27.031  1.00  0.00     0.037 A 
ATOM     37  C   UNL A   1      41.236  31.487  30.166  1.00  0.00     0.049 A 
ATOM     38  C   UNL A   1      45.850  29.729  27.549  1.00  0.00     0.074 A 
ATOM     39  C   UNL A   1      41.269  32.761  30.705  1.00  0.00     0.029 A 
ATOM     40  N   UNL A   1      42.463  31.281  29.551  1.00  0.00    -0.354 N 
ATOM     41  N   UNL A   1      44.849  30.290  28.184  1.00  0.00    -0.248 NA
ATOM     42  C   UNL A   1      46.997  30.625  27.335  1.00  0.00     0.031 C 
ATOM     43  C   UNL A   1      42.489  33.351  30.358  1.00  0.00     0.029 A 
ATOM     44  C   UNL A   1      43.247  32.418  29.668  1.00  0.00     0.049 A 
ATOM     45  H   UNL A   1      42.736  30.450  29.099  1.00  0.00     0.167 HD
ATOM     46  C   UNL A   1      45.259  31.583  28.483  1.00  0.00     0.074 A 
ATOM     47  C   UNL A   1      46.598  31.730  27.954  1.00  0.00     0.031 C 
ATOM     48  C   UNL A   1      44.586  32.554  29.150  1.00  0.00     0.037 A 
BRANCH  35  49
ATOM     49  C   UNL A   1      38.849  30.935  30.796  1.00  0.00     0.064 A 
ATOM     50  C   UNL A   1      37.792  31.432  30.018  1.00  0.00     0.173 A 
ATOM     51  C   UNL A   1      38.653  30.838  32.182  1.00  0.00     0.173 A 
ATOM     52  F   UNL A   1      37.932  31.557  28.689  1.00  0.00    -0.203 F 
ATOM     53  C   UNL A   1      36.609  31.865  30.610  1.00  0.00     0.198 A 
ATOM     54  C   UNL A   1      37.454  31.237  32.767  1.00  0.00     0.198 A 
ATOM     55  F   UNL A   1      39.627  30.365  32.973  1.00  0.00    -0.203 F 
ATOM     56  F   UNL A   1      35.644  32.408  29.855  1.00  0.00    -0.200 F 
ATOM     57  C   UNL A   1      36.439  31.764  31.982  1.00  0.00     0.200 A 
ATOM     58  F   UNL A   1      37.286  31.125  34.091  1.00  0.00    -0.200 F 
ATOM     59  F   UNL A   1      35.303  32.187  32.552  1.00  0.00    -0.200 F 
ENDBRANCH  35  49
BRANCH  36  60
ATOM     60  C   UNL A   1      47.195  27.887  26.293  1.00  0.00     0.064 A 
ATOM     61  C   UNL A   1      48.354  27.498  26.978  1.00  0.00     0.173 A 
ATOM     62  C   UNL A   1      47.218  27.843  24.891  1.00  0.00     0.173 A 
ATOM     63  F   UNL A   1      48.390  27.552  28.317  1.00  0.00    -0.203 F 
ATOM     64  C   UNL A   1      49.493  27.087  26.287  1.00  0.00     0.198 A 
ATOM     65  C   UNL A   1      48.348  27.407  24.203  1.00  0.00     0.198 A 
ATOM     66  F   UNL A   1      46.136  28.213  24.190  1.00  0.00    -0.203 F 
ATOM     67  F   UNL A   1      50.599  26.754  26.965  1.00  0.00    -0.200 F 
ATOM     68  C   UNL A   1      49.487  27.033  24.902  1.00  0.00     0.200 A 
ATOM     69  F   UNL A   1      48.336  27.348  22.865  1.00  0.00    -0.200 F 
ATOM     70  F   UNL A   1      50.578  26.626  24.240  1.00  0.00    -0.200 F 
ENDBRANCH  36  60
BRANCH  48  71
ATOM     71  C   UNL A   1      45.297  33.853  29.410  1.00  0.00     0.064 A 
ATOM     72  C   UNL A   1      46.112  34.046  30.534  1.00  0.00     0.173 A 
ATOM     73  C   UNL A   1      45.223  34.894  28.469  1.00  0.00     0.173 A 
ATOM     74  F   UNL A   1      46.208  33.091  31.471  1.00  0.00    -0.203 F 
ATOM     75  C   UNL A   1      46.816  35.236  30.714  1.00  0.00     0.198 A 
ATOM     76  C   UNL A   1      45.951  36.068  28.635  1.00  0.00     0.198 A 
ATOM     77  F   UNL A   1      44.463  34.760  27.372  1.00  0.00    -0.203 F 
ATOM     78  F   UNL A   1      47.563  35.412  31.812  1.00  0.00    -0.200 F 
ATOM     79  C   UNL A   1      46.745  36.240  29.759  1.00  0.00     0.200 A 
ATOM     80  F   UNL A   1      45.895  37.028  27.702  1.00  0.00    -0.200 F 
ATOM     81  F   UNL A   1      47.439  37.375  29.923  1.00  0.00    -0.200 F 
ENDBRANCH  48  71
ENDBRANCH  22  23
ENDBRANCH  15  17
ENDBRANCH  14  15
ENDBRANCH   1  14
TORSDOF 12
ENDMDL
MODEL 2
REMARK VINA RESULT:     -10.6      6.398     12.341
REMARK SMILES O=C(C[C@@H]1C=CS(=O)(=O)C1)OCCOC(=O)c1ccc(-c2c3nc(c(-c4c(F)c(F)c(F)c(F)c4F)c4ccc([nH]4)c(-c4c(F)c(F)c(F)c(F)c4F)c4nc(c(-c5c(F)c(F)c(F)c(F)c5F)c5ccc2[nH]5)C=C4)C=C3)cc1
REMARK SMILES IDX 13 1 12 2 11 3 2 4 1 5 3 6 4 7 5 8 10 9 6 10 7 11 8 12 9 13
REMARK SMILES IDX 14 14 15 15 16 16 17 17 18 18 79 19 19 20 78 21 20 22 21 23
REMARK SMILES IDX 22 24 72 25 23 26 77 27 71 28 73 29 24 30 76 31 70 32 69 33
REMARK SMILES IDX 25 35 57 36 37 37 56 38 38 39 41 40 55 41 74 42 39 43 40 44
REMARK SMILES IDX 54 46 75 47 42 48 26 49 27 50 35 51 28 52 29 53 33 54 36 55
REMARK SMILES IDX 30 56 31 57 34 58 32 59 58 60 59 61 67 62 60 63 61 64 65 65
REMARK SMILES IDX 68 66 62 67 63 68 66 69 64 70 43 71 44 72 52 73 45 74 46 75
REMARK SMILES IDX 50 76 53 77 47 78 48 79 51 80 49 81
REMARK H PARENT 73 34 41 45
REMARK Flexibility Score: inf
ROOT
ATOM      1  C   UNL A   1      33.005  34.137  28.232  1.00  0.00     0.275 C 
ENDROOT
BRANCH   1   2
ATOM      2  C   UNL A   1      33.437  35.598  28.393  1.00  0.00     0.274 C 
BRANCH   2   3
ATOM      3  O   UNL A   1      32.556  36.341  29.262  1.00  0.00    -0.462 OA
BRANCH   3   4
ATOM      4  C   UNL A   1      32.840  36.704  30.533  1.00  0.00     0.306 C 
ATOM      5  O   UNL A   1      32.926  37.889  30.848  1.00  0.00    -0.252 OA
BRANCH   4   6
ATOM      6  C   UNL A   1      33.060  35.624  31.560  1.00  0.00     0.131 C 
BRANCH   6   7
ATOM      7  C   UNL A   1      34.526  35.453  31.961  1.00  0.00     0.039 C 
ATOM      8  C   UNL A   1      35.125  34.293  31.198  1.00  0.00    -0.010 C 
ATOM      9  C   UNL A   1      34.657  35.074  33.447  1.00  0.00     0.150 C 
ATOM     10  C   UNL A   1      35.189  33.126  31.854  1.00  0.00     0.102 C 
ATOM     11  S   UNL A   1      34.605  33.287  33.476  1.00  0.00     0.171 S 
ATOM     12  O   UNL A   1      35.589  32.795  34.413  1.00  0.00    -0.224 OA
ATOM     13  O   UNL A   1      33.213  32.890  33.538  1.00  0.00    -0.224 OA
ENDBRANCH   6   7
ENDBRANCH   4   6
ENDBRANCH   3   4
ENDBRANCH   2   3
ENDBRANCH   1   2
BRANCH   1  14
ATOM     14  O   UNL A   1      33.912  33.416  27.376  1.00  0.00    -0.458 OA
BRANCH  14  15
ATOM     15  C   UNL A   1      33.924  32.064  27.518  1.00  0.00     0.338 C 
ATOM     16  O   UNL A   1      33.122  31.279  27.047  1.00  0.00    -0.246 OA
BRANCH  15  17
ATOM     17  C   UNL A   1      35.199  31.656  28.158  1.00  0.00     0.060 A 
ATOM     18  C   UNL A   1      35.301  30.353  28.668  1.00  0.00     0.016 A 
ATOM     19  C   UNL A   1      36.303  32.510  28.201  1.00  0.00     0.016 A 
ATOM     20  C   UNL A   1      36.503  29.902  29.225  1.00  0.00     0.010 A 
ATOM     21  C   UNL A   1      37.500  32.063  28.767  1.00  0.00     0.010 A 
ATOM     22  C   UNL A   1      37.605  30.763  29.298  1.00  0.00    -0.014 A 
BRANCH  22  23
ATOM     23  C   UNL A   1      38.821  30.403  30.073  1.00  0.00     0.031 A 
ATOM     24  C   UNL A   1      39.737  29.359  29.505  1.00  0.00     0.074 A 
ATOM     25  C   UNL A   1      39.084  30.928  31.283  1.00  0.00     0.049 A 
ATOM     26  N   UNL A   1      40.766  28.762  30.050  1.00  0.00    -0.248 NA
ATOM     27  C   UNL A   1      39.442  28.924  28.131  1.00  0.00     0.031 C 
ATOM     28  C   UNL A   1      38.311  31.978  31.934  1.00  0.00     0.029 A 
ATOM     29  N   UNL A   1      40.059  30.610  32.200  1.00  0.00    -0.354 N 
ATOM     30  C   UNL A   1      41.233  27.873  29.091  1.00  0.00     0.074 A 
ATOM     31  C   UNL A   1      40.353  27.983  27.947  1.00  0.00     0.031 C 
ATOM     32  C   UNL A   1      38.796  32.178  33.171  1.00  0.00     0.029 A 
ATOM     33  C   UNL A   1      39.907  31.254  33.404  1.00  0.00     0.049 A 
ATOM     34  H   UNL A   1      40.794  29.983  32.011  1.00  0.00     0.167 HD
ATOM     35  C   UNL A   1      42.303  27.047  29.155  1.00  0.00     0.037 A 
ATOM     36  C   UNL A   1      40.564  31.092  34.569  1.00  0.00     0.037 A 
ATOM     37  C   UNL A   1      43.166  26.927  30.300  1.00  0.00     0.049 A 
ATOM     38  C   UNL A   1      41.698  30.104  34.657  1.00  0.00     0.074 A 
ATOM     39  C   UNL A   1      44.294  26.141  30.451  1.00  0.00     0.029 A 
ATOM     40  N   UNL A   1      42.982  27.597  31.501  1.00  0.00    -0.354 N 
ATOM     41  N   UNL A   1      42.167  29.299  33.735  1.00  0.00    -0.248 NA
ATOM     42  C   UNL A   1      42.405  30.012  35.944  1.00  0.00     0.031 C 
ATOM     43  C   UNL A   1      44.753  26.283  31.764  1.00  0.00     0.029 A 
ATOM     44  C   UNL A   1      43.957  27.215  32.410  1.00  0.00     0.049 A 
ATOM     45  H   UNL A   1      42.266  28.249  31.681  1.00  0.00     0.167 HD
ATOM     46  C   UNL A   1      43.246  28.639  34.311  1.00  0.00     0.074 A 
ATOM     47  C   UNL A   1      43.360  29.132  35.667  1.00  0.00     0.031 C 
ATOM     48  C   UNL A   1      44.074  27.719  33.756  1.00  0.00     0.037 A 
BRANCH  35  49
ATOM     49  C   UNL A   1      42.562  26.176  27.961  1.00  0.00     0.064 A 
ATOM     50  C   UNL A   1      43.493  26.530  26.971  1.00  0.00     0.173 A 
ATOM     51  C   UNL A   1      41.853  24.977  27.794  1.00  0.00     0.173 A 
ATOM     52  F   UNL A   1      44.187  27.673  27.075  1.00  0.00    -0.203 F 
ATOM     53  C   UNL A   1      43.666  25.743  25.837  1.00  0.00     0.198 A 
ATOM     54  C   UNL A   1      42.057  24.172  26.676  1.00  0.00     0.198 A 
ATOM     55  F   UNL A   1      40.956  24.587  28.711  1.00  0.00    -0.203 F 
ATOM     56  F   UNL A   1      44.504  26.141  24.869  1.00  0.00    -0.200 F 
ATOM     57  C   UNL A   1      42.952  24.564  25.691  1.00  0.00     0.200 A 
ATOM     58  F   UNL A   1      41.376  23.026  26.545  1.00  0.00    -0.200 F 
ATOM     59  F   UNL A   1      43.114  23.810  24.596  1.00  0.00    -0.200 F 
ENDBRANCH  35  49
BRANCH  36  60
ATOM     60  C   UNL A   1      40.158  31.892  35.756  1.00  0.00     0.064 A 
ATOM     61  C   UNL A   1      39.012  31.562  36.493  1.00  0.00     0.173 A 
ATOM     62  C   UNL A   1      40.914  32.994  36.183  1.00  0.00     0.173 A 
ATOM     63  F   UNL A   1      38.241  30.535  36.106  1.00  0.00    -0.203 F 
ATOM     64  C   UNL A   1      38.636  32.307  37.608  1.00  0.00     0.198 A 
ATOM     65  C   UNL A   1      40.551  33.722  37.314  1.00  0.00     0.198 A 
ATOM     66  F   UNL A   1      42.015  33.355  35.508  1.00  0.00    -0.203 F 
ATOM     67  F   UNL A   1      37.517  31.991  38.274  1.00  0.00    -0.200 F 
ATOM     68  C   UNL A   1      39.409  33.381  38.023  1.00  0.00     0.200 A 
ATOM     69  F   UNL A   1      41.304  34.754  37.717  1.00  0.00    -0.200 F 
ATOM     70  F   UNL A   1      39.052  34.088  39.103  1.00  0.00    -0.200 F 
ENDBRANCH  36  60
BRANCH  48  71
ATOM     71  C   UNL A   1      45.223  27.215  34.583  1.00  0.00     0.064 A 
ATOM     72  C   UNL A   1      46.456  27.881  34.631  1.00  0.00     0.173 A 
ATOM     73  C   UNL A   1      45.056  26.088  35.405  1.00  0.00     0.173 A 
ATOM     74  F   UNL A   1      46.676  28.954  33.857  1.00  0.00    -0.203 F 
ATOM     75  C   UNL A   1      47.482  27.431  35.462  1.00  0.00     0.198 A 
ATOM     76  C   UNL A   1      46.070  25.661  36.257  1.00  0.00     0.198 A 
ATOM     77  F   UNL A   1      43.894  25.418  35.403  1.00  0.00    -0.203 F 
ATOM     78  F   UNL A   1      48.663  28.064  35.467  1.00  0.00    -0.200 F 
ATOM     79  C   UNL A   1      47.284  26.331  36.282  1.00  0.00     0.200 A 
ATOM     80  F   UNL A   1      45.869  24.608  37.061  1.00  0.00    -0.200 F 
ATOM     81  F   UNL A   1      48.264  25.913  37.095  1.00  0.00    -0.200 F 
ENDBRANCH  48  71
ENDBRANCH  22  23
ENDBRANCH  15  17
ENDBRANCH  14  15
ENDBRANCH   1  14
TORSDOF 12
ENDMDL
MODEL 3
REMARK VINA RESULT:     -10.6      4.861      9.272
REMARK SMILES O=C(C[C@@H]1C=CS(=O)(=O)C1)OCCOC(=O)c1ccc(-c2c3nc(c(-c4c(F)c(F)c(F)c(F)c4F)c4ccc([nH]4)c(-c4c(F)c(F)c(F)c(F)c4F)c4nc(c(-c5c(F)c(F)c(F)c(F)c5F)c5ccc2[nH]5)C=C4)C=C3)cc1
REMARK SMILES IDX 13 1 12 2 11 3 2 4 1 5 3 6 4 7 5 8 10 9 6 10 7 11 8 12 9 13
REMARK SMILES IDX 14 14 15 15 16 16 17 17 18 18 79 19 19 20 78 21 20 22 21 23
REMARK SMILES IDX 22 24 72 25 23 26 77 27 71 28 73 29 24 30 76 31 70 32 69 33
REMARK SMILES IDX 25 35 57 36 37 37 56 38 38 39 41 40 55 41 74 42 39 43 40 44
REMARK SMILES IDX 54 46 75 47 42 48 26 49 27 50 35 51 28 52 29 53 33 54 36 55
REMARK SMILES IDX 30 56 31 57 34 58 32 59 58 60 59 61 67 62 60 63 61 64 65 65
REMARK SMILES IDX 68 66 62 67 63 68 66 69 64 70 43 71 44 72 52 73 45 74 46 75
REMARK SMILES IDX 50 76 53 77 47 78 48 79 51 80 49 81
REMARK H PARENT 73 34 41 45
REMARK Flexibility Score: inf
ROOT
ATOM      1  C   UNL A   1      43.084  21.376  25.617  1.00  0.00     0.275 C 
ENDROOT
BRANCH   1   2
ATOM      2  C   UNL A   1      41.875  20.543  26.054  1.00  0.00     0.274 C 
BRANCH   2   3
ATOM      3  O   UNL A   1      40.620  21.176  25.723  1.00  0.00    -0.462 OA
BRANCH   3   4
ATOM      4  C   UNL A   1      39.749  21.696  26.618  1.00  0.00     0.306 C 
ATOM      5  O   UNL A   1      40.021  21.731  27.816  1.00  0.00    -0.252 OA
BRANCH   4   6
ATOM      6  C   UNL A   1      38.431  22.225  26.117  1.00  0.00     0.131 C 
BRANCH   6   7
ATOM      7  C   UNL A   1      37.937  21.529  24.848  1.00  0.00     0.039 C 
ATOM      8  C   UNL A   1      37.060  22.477  24.062  1.00  0.00    -0.010 C 
ATOM      9  C   UNL A   1      37.036  20.327  25.187  1.00  0.00     0.150 C 
ATOM     10  C   UNL A   1      35.737  22.326  24.222  1.00  0.00     0.102 C 
ATOM     11  S   UNL A   1      35.381  20.998  25.274  1.00  0.00     0.171 S 
ATOM     12  O   UNL A   1      34.461  20.086  24.634  1.00  0.00    -0.224 OA
ATOM     13  O   UNL A   1      35.175  21.483  26.623  1.00  0.00    -0.224 OA
ENDBRANCH   6   7
ENDBRANCH   4   6
ENDBRANCH   3   4
ENDBRANCH   2   3
ENDBRANCH   1   2
BRANCH   1  14
ATOM     14  O   UNL A   1      42.672  22.618  25.015  1.00  0.00    -0.458 OA
BRANCH  14  15
ATOM     15  C   UNL A   1      43.554  23.648  25.100  1.00  0.00     0.338 C 
ATOM     16  O   UNL A   1      44.518  23.839  24.381  1.00  0.00    -0.246 OA
BRANCH  15  17
ATOM     17  C   UNL A   1      43.042  24.643  26.074  1.00  0.00     0.060 A 
ATOM     18  C   UNL A   1      43.537  25.955  26.007  1.00  0.00     0.016 A 
ATOM     19  C   UNL A   1      42.045  24.320  26.997  1.00  0.00     0.016 A 
ATOM     20  C   UNL A   1      43.039  26.944  26.864  1.00  0.00     0.010 A 
ATOM     21  C   UNL A   1      41.557  25.306  27.859  1.00  0.00     0.010 A 
ATOM     22  C   UNL A   1      42.061  26.620  27.811  1.00  0.00    -0.014 A 
BRANCH  22  23
ATOM     23  C   UNL A   1      41.666  27.576  28.879  1.00  0.00     0.031 A 
ATOM     24  C   UNL A   1      42.400  27.516  30.186  1.00  0.00     0.074 A 
ATOM     25  C   UNL A   1      40.640  28.432  28.734  1.00  0.00     0.049 A 
ATOM     26  N   UNL A   1      42.147  28.125  31.317  1.00  0.00    -0.248 NA
ATOM     27  C   UNL A   1      43.579  26.637  30.222  1.00  0.00     0.031 C 
ATOM     28  C   UNL A   1      39.871  28.629  27.511  1.00  0.00     0.029 A 
ATOM     29  N   UNL A   1      40.041  29.269  29.647  1.00  0.00    -0.354 N 
ATOM     30  C   UNL A   1      43.128  27.694  32.200  1.00  0.00     0.074 A 
ATOM     31  C   UNL A   1      43.955  26.745  31.485  1.00  0.00     0.031 C 
ATOM     32  C   UNL A   1      38.861  29.480  27.760  1.00  0.00     0.029 A 
ATOM     33  C   UNL A   1      38.903  29.873  29.169  1.00  0.00     0.049 A 
ATOM     34  H   UNL A   1      40.393  29.419  30.553  1.00  0.00     0.167 HD
ATOM     35  C   UNL A   1      43.326  28.063  33.487  1.00  0.00     0.037 A 
ATOM     36  C   UNL A   1      37.984  30.628  29.802  1.00  0.00     0.037 A 
ATOM     37  C   UNL A   1      42.493  28.993  34.200  1.00  0.00     0.049 A 
ATOM     38  C   UNL A   1      38.166  30.961  31.261  1.00  0.00     0.074 A 
ATOM     39  C   UNL A   1      42.629  29.455  35.497  1.00  0.00     0.029 A 
ATOM     40  N   UNL A   1      41.351  29.588  33.683  1.00  0.00    -0.354 N 
ATOM     41  N   UNL A   1      39.120  30.590  32.081  1.00  0.00    -0.248 NA
ATOM     42  C   UNL A   1      37.153  31.829  31.879  1.00  0.00     0.031 C 
ATOM     43  C   UNL A   1      41.534  30.274  35.788  1.00  0.00     0.029 A 
ATOM     44  C   UNL A   1      40.754  30.385  34.647  1.00  0.00     0.049 A 
ATOM     45  H   UNL A   1      41.014  29.463  32.766  1.00  0.00     0.167 HD
ATOM     46  C   UNL A   1      38.847  31.211  33.294  1.00  0.00     0.074 A 
ATOM     47  C   UNL A   1      37.634  31.978  33.107  1.00  0.00     0.031 C 
ATOM     48  C   UNL A   1      39.552  31.158  34.452  1.00  0.00     0.037 A 
BRANCH  35  49
ATOM     49  C   UNL A   1      44.469  27.413  34.212  1.00  0.00     0.064 A 
ATOM     50  C   UNL A   1      44.338  26.163  34.835  1.00  0.00     0.173 A 
ATOM     51  C   UNL A   1      45.710  28.062  34.300  1.00  0.00     0.173 A 
ATOM     52  F   UNL A   1      43.168  25.506  34.792  1.00  0.00    -0.203 F 
ATOM     53  C   UNL A   1      45.389  25.610  35.561  1.00  0.00     0.198 A 
ATOM     54  C   UNL A   1      46.771  27.489  34.995  1.00  0.00     0.198 A 
ATOM     55  F   UNL A   1      45.893  29.257  33.719  1.00  0.00    -0.203 F 
ATOM     56  F   UNL A   1      45.215  24.451  36.211  1.00  0.00    -0.200 F 
ATOM     57  C   UNL A   1      46.605  26.271  35.638  1.00  0.00     0.200 A 
ATOM     58  F   UNL A   1      47.950  28.123  35.056  1.00  0.00    -0.200 F 
ATOM     59  F   UNL A   1      47.614  25.742  36.342  1.00  0.00    -0.200 F 
ENDBRANCH  35  49
BRANCH  36  60
ATOM     60  C   UNL A   1      36.798  31.122  29.052  1.00  0.00     0.064 A 
ATOM     61  C   UNL A   1      35.732  30.268  28.741  1.00  0.00     0.173 A 
ATOM     62  C   UNL A   1      36.703  32.461  28.641  1.00  0.00     0.173 A 
ATOM     63  F   UNL A   1      35.790  28.973  29.087  1.00  0.00    -0.203 F 
ATOM     64  C   UNL A   1      34.619  30.732  28.044  1.00  0.00     0.198 A 
ATOM     65  C   UNL A   1      35.578  32.929  27.967  1.00  0.00     0.198 A 
ATOM     66  F   UNL A   1      37.701  33.317  28.907  1.00  0.00    -0.203 F 
ATOM     67  F   UNL A   1      33.628  29.885  27.729  1.00  0.00    -0.200 F 
ATOM     68  C   UNL A   1      34.538  32.063  27.664  1.00  0.00     0.200 A 
ATOM     69  F   UNL A   1      35.500  34.217  27.609  1.00  0.00    -0.200 F 
ATOM     70  F   UNL A   1      33.461  32.510  27.005  1.00  0.00    -0.200 F 
ENDBRANCH  36  60
BRANCH  48  71
ATOM     71  C   UNL A   1      39.076  31.996  35.605  1.00  0.00     0.064 A 
ATOM     72  C   UNL A   1      38.304  31.462  36.646  1.00  0.00     0.173 A 
ATOM     73  C   UNL A   1      39.473  33.340  35.707  1.00  0.00     0.173 A 
ATOM     74  F   UNL A   1      37.886  30.188  36.594  1.00  0.00    -0.203 F 
ATOM     75  C   UNL A   1      37.935  32.245  37.740  1.00  0.00     0.198 A 
ATOM     76  C   UNL A   1      39.130  34.110  36.815  1.00  0.00     0.198 A 
ATOM     77  F   UNL A   1      40.217  33.899  34.743  1.00  0.00    -0.203 F 
ATOM     78  F   UNL A   1      37.169  31.723  38.707  1.00  0.00    -0.200 F 
ATOM     79  C   UNL A   1      38.359  33.562  37.829  1.00  0.00     0.200 A 
ATOM     80  F   UNL A   1      39.556  35.377  36.907  1.00  0.00    -0.200 F 
ATOM     81  F   UNL A   1      38.021  34.307  38.891  1.00  0.00    -0.200 F 
ENDBRANCH  48  71
ENDBRANCH  22  23
ENDBRANCH  15  17
ENDBRANCH  14  15
ENDBRANCH   1  14
TORSDOF 12
ENDMDL
