MODEL 1
REMARK VINA RESULT:     -14.6      0.000      0.000
REMARK SMILES O=C(OCCOC(=O)[C@@H]1[C@H](C(=O)Nc2ccc(Cn3cncn3)cc2)[C@@H]2C=C[C@H]1CC2)c1ccc(-c2c3nc(c(-c4c(F)c(F)c(F)c(F)c4F)c4ccc([nH]4)c(-c4c(F)c(F)c(F)c(F)c4F)c4nc(c(-c5c(F)c(F)c(F)c(F)c5F)c5ccc2[nH]5)C=C4)C=C3)cc1
REMARK SMILES IDX 5 1 4 2 3 3 2 4 1 5 32 6 33 7 94 8 34 9 93 10 35 11 36 12
REMARK SMILES IDX 37 13 87 14 38 15 92 16 86 17 88 18 39 19 91 20 85 21 84 22
REMARK SMILES IDX 40 24 72 25 52 26 71 27 53 28 56 29 70 30 89 31 54 32 55 33
REMARK SMILES IDX 69 35 90 36 57 37 41 38 42 39 50 40 43 41 44 42 48 43 51 44
REMARK SMILES IDX 45 45 46 46 49 47 47 48 73 49 74 50 82 51 75 52 76 53 80 54
REMARK SMILES IDX 83 55 77 56 78 57 81 58 79 59 58 60 59 61 67 62 60 63 61 64
REMARK SMILES IDX 65 65 68 66 62 67 63 68 66 69 64 70 6 71 7 72 8 73 9 74
REMARK SMILES IDX 10 75 29 76 26 77 28 78 30 79 27 80 31 81 11 82 12 83 13 84
REMARK SMILES IDX 14 86 15 87 25 88 16 89 24 90 17 91 18 92 19 93 20 94 23 95
REMARK SMILES IDX 21 96 22 97
REMARK H PARENT 88 23 56 34 13 85
REMARK Flexibility Score: inf
ROOT
ATOM      1  C   UNL A   1      33.397  27.999  26.045  1.00  0.00     0.274 C 
ENDROOT
BRANCH   1   2
ATOM      2  C   UNL A   1      34.044  28.900  27.120  1.00  0.00     0.275 C 
BRANCH   2   3
ATOM      3  O   UNL A   1      35.591  28.947  27.143  1.00  0.00    -0.458 OA
BRANCH   3   4
ATOM      4  C   UNL A   1      36.609  29.721  27.679  1.00  0.00     0.338 C 
ATOM      5  O   UNL A   1      36.520  30.933  27.841  1.00  0.00    -0.246 OA
BRANCH   4   6
ATOM      6  C   UNL A   1      38.050  29.117  27.778  1.00  0.00     0.060 A 
ATOM      7  C   UNL A   1      38.404  28.018  28.540  1.00  0.00     0.016 A 
ATOM      8  C   UNL A   1      39.119  29.555  27.001  1.00  0.00     0.016 A 
ATOM      9  C   UNL A   1      39.652  27.458  28.750  1.00  0.00     0.010 A 
ATOM     10  C   UNL A   1      40.427  28.984  27.117  1.00  0.00     0.010 A 
ATOM     11  C   UNL A   1      40.691  27.953  28.027  1.00  0.00    -0.014 A 
BRANCH  11  12
ATOM     12  C   UNL A   1      41.915  27.178  28.205  1.00  0.00     0.031 A 
ATOM     13  C   UNL A   1      42.613  27.395  29.523  1.00  0.00     0.074 A 
ATOM     14  C   UNL A   1      42.366  26.364  27.242  1.00  0.00     0.049 A 
ATOM     15  N   UNL A   1      43.804  27.859  29.760  1.00  0.00    -0.248 NA
ATOM     16  C   UNL A   1      41.778  27.283  30.730  1.00  0.00     0.031 C 
ATOM     17  C   UNL A   1      41.711  26.024  25.988  1.00  0.00     0.029 A 
ATOM     18  N   UNL A   1      43.446  25.543  27.265  1.00  0.00    -0.354 N 
ATOM     19  C   UNL A   1      43.910  27.926  31.154  1.00  0.00     0.074 A 
ATOM     20  C   UNL A   1      42.573  27.806  31.661  1.00  0.00     0.031 C 
ATOM     21  C   UNL A   1      42.227  24.875  25.512  1.00  0.00     0.029 A 
ATOM     22  C   UNL A   1      43.322  24.484  26.374  1.00  0.00     0.049 A 
ATOM     23  H   UNL A   1      44.228  25.682  27.846  1.00  0.00     0.167 HD
ATOM     24  C   UNL A   1      45.096  27.777  31.811  1.00  0.00     0.037 A 
ATOM     25  C   UNL A   1      43.952  23.297  26.526  1.00  0.00     0.037 A 
ATOM     26  C   UNL A   1      46.211  28.049  30.948  1.00  0.00     0.049 A 
ATOM     27  C   UNL A   1      45.139  23.549  27.393  1.00  0.00     0.074 A 
ATOM     28  C   UNL A   1      46.698  29.160  30.290  1.00  0.00     0.029 A 
ATOM     29  N   UNL A   1      46.861  26.977  30.393  1.00  0.00    -0.354 N 
ATOM     30  N   UNL A   1      46.141  24.302  27.018  1.00  0.00    -0.248 NA
ATOM     31  C   UNL A   1      44.977  23.401  28.835  1.00  0.00     0.031 C 
ATOM     32  C   UNL A   1      47.213  28.659  29.058  1.00  0.00     0.029 A 
ATOM     33  C   UNL A   1      47.068  27.272  29.073  1.00  0.00     0.049 A 
ATOM     34  H   UNL A   1      47.129  26.150  30.856  1.00  0.00     0.167 HD
ATOM     35  C   UNL A   1      46.473  25.042  28.145  1.00  0.00     0.074 A 
ATOM     36  C   UNL A   1      45.764  24.399  29.250  1.00  0.00     0.031 C 
ATOM     37  C   UNL A   1      47.053  26.273  28.034  1.00  0.00     0.037 A 
BRANCH  24  38
ATOM     38  C   UNL A   1      45.255  26.965  33.090  1.00  0.00     0.064 A 
ATOM     39  C   UNL A   1      44.761  25.644  33.129  1.00  0.00     0.173 A 
ATOM     40  C   UNL A   1      45.567  27.520  34.352  1.00  0.00     0.173 A 
ATOM     41  F   UNL A   1      44.426  25.003  31.999  1.00  0.00    -0.203 F 
ATOM     42  C   UNL A   1      44.498  24.985  34.337  1.00  0.00     0.198 A 
ATOM     43  C   UNL A   1      45.353  26.842  35.549  1.00  0.00     0.198 A 
ATOM     44  F   UNL A   1      45.986  28.780  34.508  1.00  0.00    -0.203 F 
ATOM     45  F   UNL A   1      43.894  23.790  34.324  1.00  0.00    -0.200 F 
ATOM     46  C   UNL A   1      44.782  25.592  35.545  1.00  0.00     0.200 A 
ATOM     47  F   UNL A   1      45.625  27.459  36.708  1.00  0.00    -0.200 F 
ATOM     48  F   UNL A   1      44.463  24.998  36.702  1.00  0.00    -0.200 F 
ENDBRANCH  24  38
BRANCH  25  49
ATOM     49  C   UNL A   1      43.316  21.974  26.342  1.00  0.00     0.064 A 
ATOM     50  C   UNL A   1      43.863  21.030  25.466  1.00  0.00     0.173 A 
ATOM     51  C   UNL A   1      42.274  21.523  27.183  1.00  0.00     0.173 A 
ATOM     52  F   UNL A   1      44.891  21.368  24.675  1.00  0.00    -0.203 F 
ATOM     53  C   UNL A   1      43.395  19.713  25.429  1.00  0.00     0.198 A 
ATOM     54  C   UNL A   1      41.799  20.215  27.135  1.00  0.00     0.198 A 
ATOM     55  F   UNL A   1      41.748  22.319  28.126  1.00  0.00    -0.203 F 
ATOM     56  F   UNL A   1      43.972  18.823  24.610  1.00  0.00    -0.200 F 
ATOM     57  C   UNL A   1      42.365  19.306  26.266  1.00  0.00     0.200 A 
ATOM     58  F   UNL A   1      40.825  19.831  27.974  1.00  0.00    -0.200 F 
ATOM     59  F   UNL A   1      41.948  18.033  26.259  1.00  0.00    -0.200 F 
ENDBRANCH  25  49
BRANCH  37  60
ATOM     60  C   UNL A   1      47.497  26.720  26.673  1.00  0.00     0.064 A 
ATOM     61  C   UNL A   1      48.741  26.381  26.114  1.00  0.00     0.173 A 
ATOM     62  C   UNL A   1      46.568  27.362  25.846  1.00  0.00     0.173 A 
ATOM     63  F   UNL A   1      49.632  25.660  26.806  1.00  0.00    -0.203 F 
ATOM     64  C   UNL A   1      49.056  26.715  24.798  1.00  0.00     0.198 A 
ATOM     65  C   UNL A   1      46.872  27.661  24.521  1.00  0.00     0.198 A 
ATOM     66  F   UNL A   1      45.340  27.643  26.308  1.00  0.00    -0.203 F 
ATOM     67  F   UNL A   1      50.253  26.382  24.289  1.00  0.00    -0.200 F 
ATOM     68  C   UNL A   1      48.118  27.349  24.002  1.00  0.00     0.200 A 
ATOM     69  F   UNL A   1      45.940  28.219  23.737  1.00  0.00    -0.200 F 
ATOM     70  F   UNL A   1      48.402  27.628  22.721  1.00  0.00    -0.200 F 
ENDBRANCH  37  60
ENDBRANCH  11  12
ENDBRANCH   4   6
ENDBRANCH   3   4
ENDBRANCH   2   3
ENDBRANCH   1   2
BRANCH   1  71
ATOM     71  O   UNL A   1      34.316  27.004  25.662  1.00  0.00    -0.462 OA
BRANCH  71  72
ATOM     72  C   UNL A   1      33.651  25.818  25.576  1.00  0.00     0.310 C 
ATOM     73  O   UNL A   1      32.504  25.635  25.872  1.00  0.00    -0.252 OA
BRANCH  72  74
ATOM     74  C   UNL A   1      34.611  24.811  25.033  1.00  0.00     0.119 C 
ATOM     75  C   UNL A   1      34.458  24.263  23.553  1.00  0.00     0.100 C 
ATOM     76  C   UNL A   1      35.019  23.711  26.081  1.00  0.00     0.026 C 
ATOM     77  C   UNL A   1      35.481  22.977  23.602  1.00  0.00     0.025 C 
ATOM     78  C   UNL A   1      34.622  22.294  25.755  1.00  0.00    -0.027 C 
ATOM     79  C   UNL A   1      36.549  23.576  25.922  1.00  0.00     0.009 C 
ATOM     80  C   UNL A   1      34.991  21.892  24.532  1.00  0.00    -0.027 C 
ATOM     81  C   UNL A   1      36.829  23.320  24.390  1.00  0.00     0.009 C 
BRANCH  75  82
ATOM     82  C   UNL A   1      33.174  24.698  22.317  1.00  0.00     0.228 C 
ATOM     83  O   UNL A   1      33.352  24.085  21.234  1.00  0.00    -0.274 OA
ATOM     84  N   UNL A   1      31.915  25.427  22.225  1.00  0.00    -0.326 N 
ATOM     85  H   UNL A   1      31.463  25.115  21.409  1.00  0.00     0.169 HD
BRANCH  84  86
ATOM     86  C   UNL A   1      31.013  26.463  22.859  1.00  0.00     0.041 A 
ATOM     87  C   UNL A   1      31.221  27.830  22.617  1.00  0.00     0.026 A 
ATOM     88  C   UNL A   1      29.891  26.255  23.682  1.00  0.00     0.026 A 
ATOM     89  C   UNL A   1      30.139  28.773  22.722  1.00  0.00     0.008 A 
ATOM     90  C   UNL A   1      28.803  27.156  23.788  1.00  0.00     0.008 A 
ATOM     91  C   UNL A   1      28.862  28.385  23.160  1.00  0.00    -0.026 A 
BRANCH  91  92
ATOM     92  C   UNL A   1      27.577  29.087  22.755  1.00  0.00     0.181 C 
BRANCH  92  93
ATOM     93  N   UNL A   1      27.703  30.494  22.438  1.00  0.00    -0.249 N 
ATOM     94  C   UNL A   1      27.741  31.524  23.318  1.00  0.00     0.220 A 
ATOM     95  N   UNL A   1      28.027  30.903  21.194  1.00  0.00    -0.160 NA
ATOM     96  N   UNL A   1      27.998  32.638  22.672  1.00  0.00    -0.224 NA
ATOM     97  C   UNL A   1      28.159  32.218  21.381  1.00  0.00     0.246 A 
ENDBRANCH  92  93
ENDBRANCH  91  92
ENDBRANCH  84  86
ENDBRANCH  75  82
ENDBRANCH  72  74
ENDBRANCH  71  72
ENDBRANCH   1  71
TORSDOF 15
ENDMDL
MODEL 2
REMARK VINA RESULT:     -14.6      4.334      9.399
REMARK SMILES O=C(OCCOC(=O)[C@@H]1[C@H](C(=O)Nc2ccc(Cn3cncn3)cc2)[C@@H]2C=C[C@H]1CC2)c1ccc(-c2c3nc(c(-c4c(F)c(F)c(F)c(F)c4F)c4ccc([nH]4)c(-c4c(F)c(F)c(F)c(F)c4F)c4nc(c(-c5c(F)c(F)c(F)c(F)c5F)c5ccc2[nH]5)C=C4)C=C3)cc1
REMARK SMILES IDX 5 1 4 2 3 3 2 4 1 5 32 6 33 7 94 8 34 9 93 10 35 11 36 12
REMARK SMILES IDX 37 13 87 14 38 15 92 16 86 17 88 18 39 19 91 20 85 21 84 22
REMARK SMILES IDX 40 24 72 25 52 26 71 27 53 28 56 29 70 30 89 31 54 32 55 33
REMARK SMILES IDX 69 35 90 36 57 37 41 38 42 39 50 40 43 41 44 42 48 43 51 44
REMARK SMILES IDX 45 45 46 46 49 47 47 48 73 49 74 50 82 51 75 52 76 53 80 54
REMARK SMILES IDX 83 55 77 56 78 57 81 58 79 59 58 60 59 61 67 62 60 63 61 64
REMARK SMILES IDX 65 65 68 66 62 67 63 68 66 69 64 70 6 71 7 72 8 73 9 74
REMARK SMILES IDX 10 75 29 76 26 77 28 78 30 79 27 80 31 81 11 82 12 83 13 84
REMARK SMILES IDX 14 86 15 87 25 88 16 89 24 90 17 91 18 92 19 93 20 94 23 95
REMARK SMILES IDX 21 96 22 97
REMARK H PARENT 88 23 56 34 13 85
REMARK Flexibility Score: inf
ROOT
ATOM      1  C   UNL A   1      35.720  23.719  24.785  1.00  0.00     0.274 C 
ENDROOT
BRANCH   1   2
ATOM      2  C   UNL A   1      36.356  22.671  25.725  1.00  0.00     0.275 C 
BRANCH   2   3
ATOM      3  O   UNL A   1      37.782  22.190  25.361  1.00  0.00    -0.458 OA
BRANCH   3   4
ATOM      4  C   UNL A   1      39.029  22.063  25.953  1.00  0.00     0.338 C 
ATOM      5  O   UNL A   1      39.571  20.983  26.159  1.00  0.00    -0.246 OA
BRANCH   4   6
ATOM      6  C   UNL A   1      39.645  23.295  26.696  1.00  0.00     0.060 A 
ATOM      7  C   UNL A   1      39.167  24.592  26.626  1.00  0.00     0.016 A 
ATOM      8  C   UNL A   1      40.683  23.193  27.619  1.00  0.00     0.016 A 
ATOM      9  C   UNL A   1      39.679  25.751  27.181  1.00  0.00     0.010 A 
ATOM     10  C   UNL A   1      41.227  24.339  28.282  1.00  0.00     0.010 A 
ATOM     11  C   UNL A   1      40.738  25.626  28.025  1.00  0.00    -0.014 A 
BRANCH  11  12
ATOM     12  C   UNL A   1      41.083  26.885  28.678  1.00  0.00     0.031 A 
ATOM     13  C   UNL A   1      42.381  27.498  28.220  1.00  0.00     0.074 A 
ATOM     14  C   UNL A   1      40.295  27.414  29.623  1.00  0.00     0.049 A 
ATOM     15  N   UNL A   1      43.458  27.755  28.901  1.00  0.00    -0.248 NA
ATOM     16  C   UNL A   1      42.563  27.631  26.765  1.00  0.00     0.031 C 
ATOM     17  C   UNL A   1      38.988  26.944  30.054  1.00  0.00     0.029 A 
ATOM     18  N   UNL A   1      40.441  28.589  30.285  1.00  0.00    -0.354 N 
ATOM     19  C   UNL A   1      44.383  28.244  27.970  1.00  0.00     0.074 A 
ATOM     20  C   UNL A   1      43.864  27.903  26.676  1.00  0.00     0.031 C 
ATOM     21  C   UNL A   1      38.332  27.948  30.666  1.00  0.00     0.029 A 
ATOM     22  C   UNL A   1      39.231  29.078  30.765  1.00  0.00     0.049 A 
ATOM     23  H   UNL A   1      41.305  29.044  30.412  1.00  0.00     0.167 HD
ATOM     24  C   UNL A   1      45.352  29.146  28.297  1.00  0.00     0.037 A 
ATOM     25  C   UNL A   1      38.991  30.388  30.998  1.00  0.00     0.037 A 
ATOM     26  C   UNL A   1      45.624  29.135  29.708  1.00  0.00     0.049 A 
ATOM     27  C   UNL A   1      40.316  31.038  31.204  1.00  0.00     0.074 A 
ATOM     28  C   UNL A   1      46.149  28.224  30.601  1.00  0.00     0.029 A 
ATOM     29  N   UNL A   1      45.040  30.111  30.474  1.00  0.00    -0.354 N 
ATOM     30  N   UNL A   1      41.091  30.758  32.219  1.00  0.00    -0.248 NA
ATOM     31  C   UNL A   1      40.994  31.595  30.038  1.00  0.00     0.031 C 
ATOM     32  C   UNL A   1      45.418  28.434  31.808  1.00  0.00     0.029 A 
ATOM     33  C   UNL A   1      44.544  29.499  31.593  1.00  0.00     0.049 A 
ATOM     34  H   UNL A   1      44.988  31.070  30.261  1.00  0.00     0.167 HD
ATOM     35  C   UNL A   1      42.373  30.709  31.688  1.00  0.00     0.074 A 
ATOM     36  C   UNL A   1      42.258  31.294  30.354  1.00  0.00     0.031 C 
ATOM     37  C   UNL A   1      43.344  29.937  32.259  1.00  0.00     0.037 A 
BRANCH  24  38
ATOM     38  C   UNL A   1      45.731  30.332  27.419  1.00  0.00     0.064 A 
ATOM     39  C   UNL A   1      47.094  30.664  27.268  1.00  0.00     0.173 A 
ATOM     40  C   UNL A   1      44.825  31.331  26.996  1.00  0.00     0.173 A 
ATOM     41  F   UNL A   1      48.055  29.802  27.633  1.00  0.00    -0.203 F 
ATOM     42  C   UNL A   1      47.506  31.931  26.836  1.00  0.00     0.198 A 
ATOM     43  C   UNL A   1      45.239  32.572  26.517  1.00  0.00     0.198 A 
ATOM     44  F   UNL A   1      43.500  31.213  27.124  1.00  0.00    -0.203 F 
ATOM     45  F   UNL A   1      48.807  32.246  26.846  1.00  0.00    -0.200 F 
ATOM     46  C   UNL A   1      46.577  32.887  26.475  1.00  0.00     0.200 A 
ATOM     47  F   UNL A   1      44.317  33.486  26.186  1.00  0.00    -0.200 F 
ATOM     48  F   UNL A   1      46.962  34.123  26.133  1.00  0.00    -0.200 F 
ENDBRANCH  24  38
BRANCH  25  49
ATOM     49  C   UNL A   1      37.760  31.104  30.595  1.00  0.00     0.064 A 
ATOM     50  C   UNL A   1      37.415  31.236  29.245  1.00  0.00     0.173 A 
ATOM     51  C   UNL A   1      36.781  31.493  31.536  1.00  0.00     0.173 A 
ATOM     52  F   UNL A   1      38.271  30.838  28.294  1.00  0.00    -0.203 F 
ATOM     53  C   UNL A   1      36.166  31.730  28.857  1.00  0.00     0.198 A 
ATOM     54  C   UNL A   1      35.542  31.998  31.149  1.00  0.00     0.198 A 
ATOM     55  F   UNL A   1      36.972  31.315  32.852  1.00  0.00    -0.203 F 
ATOM     56  F   UNL A   1      35.852  31.801  27.557  1.00  0.00    -0.200 F 
ATOM     57  C   UNL A   1      35.230  32.108  29.809  1.00  0.00     0.200 A 
ATOM     58  F   UNL A   1      34.637  32.328  32.083  1.00  0.00    -0.200 F 
ATOM     59  F   UNL A   1      34.018  32.540  29.436  1.00  0.00    -0.200 F 
ENDBRANCH  25  49
BRANCH  37  60
ATOM     60  C   UNL A   1      43.044  29.297  33.582  1.00  0.00     0.064 A 
ATOM     61  C   UNL A   1      42.348  28.084  33.717  1.00  0.00     0.173 A 
ATOM     62  C   UNL A   1      43.630  29.839  34.732  1.00  0.00     0.173 A 
ATOM     63  F   UNL A   1      41.867  27.445  32.643  1.00  0.00    -0.203 F 
ATOM     64  C   UNL A   1      42.205  27.468  34.959  1.00  0.00     0.198 A 
ATOM     65  C   UNL A   1      43.516  29.203  35.965  1.00  0.00     0.198 A 
ATOM     66  F   UNL A   1      44.366  30.957  34.647  1.00  0.00    -0.203 F 
ATOM     67  F   UNL A   1      41.532  26.311  35.060  1.00  0.00    -0.200 F 
ATOM     68  C   UNL A   1      42.795  28.025  36.080  1.00  0.00     0.200 A 
ATOM     69  F   UNL A   1      44.141  29.713  37.035  1.00  0.00    -0.200 F 
ATOM     70  F   UNL A   1      42.699  27.409  37.267  1.00  0.00    -0.200 F 
ENDBRANCH  37  60
ENDBRANCH  11  12
ENDBRANCH   4   6
ENDBRANCH   3   4
ENDBRANCH   2   3
ENDBRANCH   1   2
BRANCH   1  71
ATOM     71  O   UNL A   1      35.078  24.705  25.559  1.00  0.00    -0.462 OA
BRANCH  71  72
ATOM     72  C   UNL A   1      34.154  25.328  24.775  1.00  0.00     0.310 C 
ATOM     73  O   UNL A   1      33.909  25.060  23.633  1.00  0.00    -0.252 OA
BRANCH  72  74
ATOM     74  C   UNL A   1      33.508  26.384  25.610  1.00  0.00     0.119 C 
ATOM     75  C   UNL A   1      32.111  26.117  26.312  1.00  0.00     0.100 C 
ATOM     76  C   UNL A   1      33.652  27.830  25.007  1.00  0.00     0.026 C 
ATOM     77  C   UNL A   1      31.703  27.646  26.758  1.00  0.00     0.025 C 
ATOM     78  C   UNL A   1      32.374  28.521  24.607  1.00  0.00    -0.027 C 
ATOM     79  C   UNL A   1      34.037  28.713  26.214  1.00  0.00     0.009 C 
ATOM     80  C   UNL A   1      31.439  28.537  25.566  1.00  0.00    -0.027 C 
ATOM     81  C   UNL A   1      32.957  28.451  27.335  1.00  0.00     0.009 C 
BRANCH  75  82
ATOM     82  C   UNL A   1      31.083  24.600  26.236  1.00  0.00     0.228 C 
ATOM     83  O   UNL A   1      29.941  24.794  26.724  1.00  0.00    -0.274 OA
ATOM     84  N   UNL A   1      31.110  23.261  25.661  1.00  0.00    -0.326 N 
ATOM     85  H   UNL A   1      30.183  22.931  25.660  1.00  0.00     0.169 HD
BRANCH  84  86
ATOM     86  C   UNL A   1      31.967  22.167  25.063  1.00  0.00     0.041 A 
ATOM     87  C   UNL A   1      32.675  21.285  25.895  1.00  0.00     0.026 A 
ATOM     88  C   UNL A   1      32.147  21.844  23.706  1.00  0.00     0.026 A 
ATOM     89  C   UNL A   1      33.032  19.967  25.443  1.00  0.00     0.008 A 
ATOM     90  C   UNL A   1      32.477  20.550  23.232  1.00  0.00     0.008 A 
ATOM     91  C   UNL A   1      32.774  19.542  24.129  1.00  0.00    -0.026 A 
BRANCH  91  92
ATOM     92  C   UNL A   1      32.549  18.092  23.735  1.00  0.00     0.181 C 
BRANCH  92  93
ATOM     93  N   UNL A   1      33.370  17.120  24.425  1.00  0.00    -0.249 N 
ATOM     94  C   UNL A   1      32.949  15.972  25.012  1.00  0.00     0.220 A 
ATOM     95  N   UNL A   1      34.716  17.164  24.350  1.00  0.00    -0.160 NA
ATOM     96  N   UNL A   1      33.991  15.284  25.416  1.00  0.00    -0.224 NA
ATOM     97  C   UNL A   1      35.047  16.046  25.001  1.00  0.00     0.246 A 
ENDBRANCH  92  93
ENDBRANCH  91  92
ENDBRANCH  84  86
ENDBRANCH  75  82
ENDBRANCH  72  74
ENDBRANCH  71  72
ENDBRANCH   1  71
TORSDOF 15
ENDMDL
MODEL 3
REMARK VINA RESULT:     -14.4      2.407      3.685
REMARK SMILES O=C(OCCOC(=O)[C@@H]1[C@H](C(=O)Nc2ccc(Cn3cncn3)cc2)[C@@H]2C=C[C@H]1CC2)c1ccc(-c2c3nc(c(-c4c(F)c(F)c(F)c(F)c4F)c4ccc([nH]4)c(-c4c(F)c(F)c(F)c(F)c4F)c4nc(c(-c5c(F)c(F)c(F)c(F)c5F)c5ccc2[nH]5)C=C4)C=C3)cc1
REMARK SMILES IDX 5 1 4 2 3 3 2 4 1 5 32 6 33 7 94 8 34 9 93 10 35 11 36 12
REMARK SMILES IDX 37 13 87 14 38 15 92 16 86 17 88 18 39 19 91 20 85 21 84 22
REMARK SMILES IDX 40 24 72 25 52 26 71 27 53 28 56 29 70 30 89 31 54 32 55 33
REMARK SMILES IDX 69 35 90 36 57 37 41 38 42 39 50 40 43 41 44 42 48 43 51 44
REMARK SMILES IDX 45 45 46 46 49 47 47 48 73 49 74 50 82 51 75 52 76 53 80 54
REMARK SMILES IDX 83 55 77 56 78 57 81 58 79 59 58 60 59 61 67 62 60 63 61 64
REMARK SMILES IDX 65 65 68 66 62 67 63 68 66 69 64 70 6 71 7 72 8 73 9 74
REMARK SMILES IDX 10 75 29 76 26 77 28 78 30 79 27 80 31 81 11 82 12 83 13 84
REMARK SMILES IDX 14 86 15 87 25 88 16 89 24 90 17 91 18 92 19 93 20 94 23 95
REMARK SMILES IDX 21 96 22 97
REMARK H PARENT 88 23 56 34 13 85
REMARK Flexibility Score: inf
ROOT
ATOM      1  C   UNL A   1      32.970  27.433  26.264  1.00  0.00     0.274 C 
ENDROOT
BRANCH   1   2
ATOM      2  C   UNL A   1      33.306  28.921  26.021  1.00  0.00     0.275 C 
BRANCH   2   3
ATOM      3  O   UNL A   1      33.504  29.800  27.280  1.00  0.00    -0.458 OA
BRANCH   3   4
ATOM      4  C   UNL A   1      34.287  30.861  27.707  1.00  0.00     0.338 C 
ATOM      5  O   UNL A   1      33.981  32.036  27.535  1.00  0.00    -0.246 OA
BRANCH   4   6
ATOM      6  C   UNL A   1      35.771  30.590  28.123  1.00  0.00     0.060 A 
ATOM      7  C   UNL A   1      36.434  29.385  27.975  1.00  0.00     0.016 A 
ATOM      8  C   UNL A   1      36.632  31.583  28.582  1.00  0.00     0.016 A 
ATOM      9  C   UNL A   1      37.709  29.026  28.376  1.00  0.00     0.010 A 
ATOM     10  C   UNL A   1      37.985  31.303  28.958  1.00  0.00     0.010 A 
ATOM     11  C   UNL A   1      38.505  30.005  28.885  1.00  0.00    -0.014 A 
BRANCH  11  12
ATOM     12  C   UNL A   1      39.873  29.550  29.112  1.00  0.00     0.031 A 
ATOM     13  C   UNL A   1      40.321  29.595  30.550  1.00  0.00     0.074 A 
ATOM     14  C   UNL A   1      40.649  29.153  28.096  1.00  0.00     0.049 A 
ATOM     15  N   UNL A   1      41.289  30.273  31.093  1.00  0.00    -0.248 NA
ATOM     16  C   UNL A   1      39.423  28.969  31.534  1.00  0.00     0.031 C 
ATOM     17  C   UNL A   1      40.270  28.988  26.702  1.00  0.00     0.029 A 
ATOM     18  N   UNL A   1      41.912  28.659  28.140  1.00  0.00    -0.354 N 
ATOM     19  C   UNL A   1      41.210  30.007  32.465  1.00  0.00     0.074 A 
ATOM     20  C   UNL A   1      39.918  29.423  32.684  1.00  0.00     0.031 C 
ATOM     21  C   UNL A   1      41.150  28.171  26.094  1.00  0.00     0.029 A 
ATOM     22  C   UNL A   1      42.206  27.867  27.036  1.00  0.00     0.049 A 
ATOM     23  H   UNL A   1      42.547  28.841  28.869  1.00  0.00     0.167 HD
ATOM     24  C   UNL A   1      42.304  30.003  33.279  1.00  0.00     0.037 A 
ATOM     25  C   UNL A   1      43.134  26.884  27.044  1.00  0.00     0.037 A 
ATOM     26  C   UNL A   1      43.383  30.764  32.711  1.00  0.00     0.049 A 
ATOM     27  C   UNL A   1      44.088  27.201  28.145  1.00  0.00     0.074 A 
ATOM     28  C   UNL A   1      43.595  32.092  32.405  1.00  0.00     0.029 A 
ATOM     29  N   UNL A   1      44.377  30.072  32.067  1.00  0.00    -0.354 N 
ATOM     30  N   UNL A   1      44.862  28.255  28.128  1.00  0.00    -0.248 NA
ATOM     31  C   UNL A   1      43.812  26.653  29.469  1.00  0.00     0.031 C 
ATOM     32  C   UNL A   1      44.372  32.072  31.208  1.00  0.00     0.029 A 
ATOM     33  C   UNL A   1      44.638  30.737  30.901  1.00  0.00     0.049 A 
ATOM     34  H   UNL A   1      44.820  29.252  32.385  1.00  0.00     0.167 HD
ATOM     35  C   UNL A   1      44.832  28.742  29.428  1.00  0.00     0.074 A 
ATOM     36  C   UNL A   1      44.220  27.680  30.222  1.00  0.00     0.031 C 
ATOM     37  C   UNL A   1      45.035  30.067  29.688  1.00  0.00     0.037 A 
BRANCH  24  38
ATOM     38  C   UNL A   1      42.546  28.961  34.364  1.00  0.00     0.064 A 
ATOM     39  C   UNL A   1      42.996  29.385  35.633  1.00  0.00     0.173 A 
ATOM     40  C   UNL A   1      42.668  27.574  34.122  1.00  0.00     0.173 A 
ATOM     41  F   UNL A   1      42.935  30.678  35.986  1.00  0.00    -0.203 F 
ATOM     42  C   UNL A   1      43.617  28.508  36.531  1.00  0.00     0.198 A 
ATOM     43  C   UNL A   1      43.239  26.696  35.040  1.00  0.00     0.198 A 
ATOM     44  F   UNL A   1      42.351  27.009  32.953  1.00  0.00    -0.203 F 
ATOM     45  F   UNL A   1      44.156  28.985  37.660  1.00  0.00    -0.200 F 
ATOM     46  C   UNL A   1      43.750  27.167  36.226  1.00  0.00     0.200 A 
ATOM     47  F   UNL A   1      43.368  25.402  34.713  1.00  0.00    -0.200 F 
ATOM     48  F   UNL A   1      44.410  26.340  37.046  1.00  0.00    -0.200 F 
ENDBRANCH  24  38
BRANCH  25  49
ATOM     49  C   UNL A   1      42.938  25.533  26.470  1.00  0.00     0.064 A 
ATOM     50  C   UNL A   1      43.744  25.075  25.422  1.00  0.00     0.173 A 
ATOM     51  C   UNL A   1      42.094  24.579  27.080  1.00  0.00     0.173 A 
ATOM     52  F   UNL A   1      44.610  25.909  24.829  1.00  0.00    -0.203 F 
ATOM     53  C   UNL A   1      43.707  23.741  25.004  1.00  0.00     0.198 A 
ATOM     54  C   UNL A   1      42.048  23.253  26.653  1.00  0.00     0.198 A 
ATOM     55  F   UNL A   1      41.355  24.889  28.155  1.00  0.00    -0.203 F 
ATOM     56  F   UNL A   1      44.525  23.326  24.027  1.00  0.00    -0.200 F 
ATOM     57  C   UNL A   1      42.861  22.831  25.622  1.00  0.00     0.200 A 
ATOM     58  F   UNL A   1      41.248  22.380  27.284  1.00  0.00    -0.200 F 
ATOM     59  F   UNL A   1      42.859  21.545  25.249  1.00  0.00    -0.200 F 
ENDBRANCH  25  49
BRANCH  37  60
ATOM     60  C   UNL A   1      45.482  30.945  28.557  1.00  0.00     0.064 A 
ATOM     61  C   UNL A   1      44.597  31.545  27.645  1.00  0.00     0.173 A 
ATOM     62  C   UNL A   1      46.827  31.328  28.502  1.00  0.00     0.173 A 
ATOM     63  F   UNL A   1      43.279  31.320  27.717  1.00  0.00    -0.203 F 
ATOM     64  C   UNL A   1      45.051  32.452  26.690  1.00  0.00     0.198 A 
ATOM     65  C   UNL A   1      47.271  32.262  27.570  1.00  0.00     0.198 A 
ATOM     66  F   UNL A   1      47.700  30.841  29.396  1.00  0.00    -0.203 F 
ATOM     67  F   UNL A   1      44.185  33.009  25.828  1.00  0.00    -0.200 F 
ATOM     68  C   UNL A   1      46.386  32.814  26.658  1.00  0.00     0.200 A 
ATOM     69  F   UNL A   1      48.552  32.655  27.584  1.00  0.00    -0.200 F 
ATOM     70  F   UNL A   1      46.816  33.722  25.770  1.00  0.00    -0.200 F 
ENDBRANCH  37  60
ENDBRANCH  11  12
ENDBRANCH   4   6
ENDBRANCH   3   4
ENDBRANCH   2   3
ENDBRANCH   1   2
BRANCH   1  71
ATOM     71  O   UNL A   1      33.973  26.632  25.686  1.00  0.00    -0.462 OA
BRANCH  71  72
ATOM     72  C   UNL A   1      33.564  25.333  25.735  1.00  0.00     0.310 C 
ATOM     73  O   UNL A   1      32.518  24.945  26.171  1.00  0.00    -0.252 OA
BRANCH  72  74
ATOM     74  C   UNL A   1      34.652  24.505  25.134  1.00  0.00     0.119 C 
ATOM     75  C   UNL A   1      34.572  24.043  23.619  1.00  0.00     0.100 C 
ATOM     76  C   UNL A   1      35.206  23.401  26.108  1.00  0.00     0.026 C 
ATOM     77  C   UNL A   1      35.760  22.907  23.589  1.00  0.00     0.025 C 
ATOM     78  C   UNL A   1      35.004  21.970  25.684  1.00  0.00    -0.027 C 
ATOM     79  C   UNL A   1      36.740  23.486  25.953  1.00  0.00     0.009 C 
ATOM     80  C   UNL A   1      35.423  21.705  24.440  1.00  0.00    -0.027 C 
ATOM     81  C   UNL A   1      37.050  23.375  24.410  1.00  0.00     0.009 C 
BRANCH  75  82
ATOM     82  C   UNL A   1      33.240  24.383  22.404  1.00  0.00     0.228 C 
ATOM     83  O   UNL A   1      33.374  23.684  21.368  1.00  0.00    -0.274 OA
ATOM     84  N   UNL A   1      31.980  25.108  22.304  1.00  0.00    -0.326 N 
ATOM     85  H   UNL A   1      31.494  24.733  21.535  1.00  0.00     0.169 HD
BRANCH  84  86
ATOM     86  C   UNL A   1      31.105  26.195  22.889  1.00  0.00     0.041 A 
ATOM     87  C   UNL A   1      31.289  27.535  22.513  1.00  0.00     0.026 A 
ATOM     88  C   UNL A   1      30.030  26.060  23.787  1.00  0.00     0.026 A 
ATOM     89  C   UNL A   1      30.208  28.481  22.590  1.00  0.00     0.008 A 
ATOM     90  C   UNL A   1      28.942  26.964  23.868  1.00  0.00     0.008 A 
ATOM     91  C   UNL A   1      28.959  28.131  23.129  1.00  0.00    -0.026 A 
BRANCH  91  92
ATOM     92  C   UNL A   1      27.649  28.791  22.731  1.00  0.00     0.181 C 
BRANCH  92  93
ATOM     93  N   UNL A   1      27.702  30.224  22.534  1.00  0.00    -0.249 N 
ATOM     94  C   UNL A   1      27.706  31.176  23.499  1.00  0.00     0.220 A 
ATOM     95  N   UNL A   1      27.984  30.752  21.326  1.00  0.00    -0.160 NA
ATOM     96  N   UNL A   1      27.897  32.352  22.948  1.00  0.00    -0.224 NA
ATOM     97  C   UNL A   1      28.055  32.052  21.624  1.00  0.00     0.246 A 
ENDBRANCH  92  93
ENDBRANCH  91  92
ENDBRANCH  84  86
ENDBRANCH  75  82
ENDBRANCH  72  74
ENDBRANCH  71  72
ENDBRANCH   1  71
TORSDOF 15
ENDMDL
