MODEL 1
REMARK VINA RESULT:     -11.0      0.000      0.000
REMARK SMILES C[C@@H](CC[NH+](C)C)NC(=O)Cn1cccc1C(=O)OCCOC(=O)c1ccc(-c2c3nc(c(-c4c(F)c(F)c(F)c(F)c4F)c4ccc([nH]4)c(-c4c(F)c(F)c(F)c(F)c4F)c4nc(c(-c5c(F)c(F)c(F)c(F)c5F)c5ccc2[nH]5)C=C4)C=C3)cc1
REMARK SMILES IDX 17 1 18 2 16 3 12 4 13 5 14 6 15 7 11 8 9 9 8 10 10 12 2 13
REMARK SMILES IDX 1 14 3 15 4 16 5 17 6 18 7 19 19 21 20 22 21 23 22 24 23 25
REMARK SMILES IDX 24 26 25 27 26 28 87 29 27 30 86 31 28 32 29 33 30 34 80 35
REMARK SMILES IDX 31 36 85 37 79 38 81 39 32 40 84 41 78 42 77 43 33 45 65 46
REMARK SMILES IDX 45 47 64 48 46 49 49 50 63 51 82 52 47 53 48 54 62 56 83 57
REMARK SMILES IDX 50 58 34 59 35 60 43 61 36 62 37 63 41 64 44 65 38 66 39 67
REMARK SMILES IDX 42 68 40 69 66 70 67 71 75 72 68 73 69 74 73 75 76 76 70 77
REMARK SMILES IDX 71 78 74 79 72 80 51 81 52 82 60 83 53 84 54 85 58 86 61 87
REMARK SMILES IDX 55 88 56 89 59 90 57 91
REMARK H PARENT 8 11 5 20 81 44 49 55
REMARK Flexibility Score: inf
ROOT
ATOM      1  C   UNL A   1      34.595  24.035  23.709  1.00  0.00     0.355 C 
ATOM      2  O   UNL A   1      34.798  23.367  22.718  1.00  0.00    -0.244 OA
ENDROOT
BRANCH   1   3
ATOM      3  C   UNL A   1      33.319  24.672  24.010  1.00  0.00     0.128 A 
ATOM      4  N   UNL A   1      32.187  24.204  24.656  1.00  0.00    -0.333 N 
ATOM      5  C   UNL A   1      31.354  25.278  24.902  1.00  0.00     0.087 A 
ATOM      6  C   UNL A   1      31.791  26.354  24.174  1.00  0.00     0.020 A 
ATOM      7  C   UNL A   1      33.029  25.982  23.628  1.00  0.00     0.035 A 
BRANCH   4   8
ATOM      8  C   UNL A   1      31.905  22.870  25.180  1.00  0.00     0.222 C 
BRANCH   8   9
ATOM      9  C   UNL A   1      32.858  22.411  26.277  1.00  0.00     0.240 C 
ATOM     10  N   UNL A   1      33.619  21.280  26.134  1.00  0.00    -0.352 N 
ATOM     11  H   UNL A   1      34.143  21.033  26.930  1.00  0.00     0.163 HD
ATOM     12  O   UNL A   1      32.912  22.994  27.364  1.00  0.00    -0.273 OA
BRANCH  10  13
ATOM     13  C   UNL A   1      33.782  20.379  24.996  1.00  0.00     0.084 C 
ATOM     14  C   UNL A   1      35.215  19.859  24.874  1.00  0.00     0.031 C 
BRANCH  13  15
ATOM     15  C   UNL A   1      32.716  19.270  24.967  1.00  0.00     0.086 C 
BRANCH  15  16
ATOM     16  C   UNL A   1      32.494  18.452  23.682  1.00  0.00     0.263 C 
BRANCH  16  17
ATOM     17  N   UNL A   1      32.760  17.012  23.814  1.00  0.00    -0.340 N 
ATOM     18  C   UNL A   1      34.051  16.686  23.186  1.00  0.00     0.332 C 
ATOM     19  C   UNL A   1      32.819  16.566  25.209  1.00  0.00     0.332 C 
ATOM     20  H   UNL A   1      31.985  16.533  23.356  1.00  0.00     0.347 HD
ENDBRANCH  16  17
ENDBRANCH  15  16
ENDBRANCH  13  15
ENDBRANCH  10  13
ENDBRANCH   8   9
ENDBRANCH   4   8
ENDBRANCH   1   3
BRANCH   1  21
ATOM     21  O   UNL A   1      35.512  24.235  24.700  1.00  0.00    -0.457 OA
BRANCH  21  22
ATOM     22  C   UNL A   1      36.635  23.338  24.664  1.00  0.00     0.275 C 
BRANCH  22  23
ATOM     23  C   UNL A   1      37.364  23.257  26.007  1.00  0.00     0.275 C 
BRANCH  23  24
ATOM     24  O   UNL A   1      37.988  24.483  26.417  1.00  0.00    -0.458 OA
BRANCH  24  25
ATOM     25  C   UNL A   1      39.084  24.311  27.191  1.00  0.00     0.338 C 
ATOM     26  O   UNL A   1      39.628  23.256  27.472  1.00  0.00    -0.246 OA
BRANCH  25  27
ATOM     27  C   UNL A   1      39.525  25.575  27.794  1.00  0.00     0.060 A 
ATOM     28  C   UNL A   1      39.206  25.789  29.140  1.00  0.00     0.016 A 
ATOM     29  C   UNL A   1      40.050  26.603  27.002  1.00  0.00     0.016 A 
ATOM     30  C   UNL A   1      39.353  27.054  29.682  1.00  0.00     0.010 A 
ATOM     31  C   UNL A   1      40.179  27.877  27.539  1.00  0.00     0.010 A 
ATOM     32  C   UNL A   1      39.811  28.102  28.873  1.00  0.00    -0.014 A 
BRANCH  32  33
ATOM     33  C   UNL A   1      39.989  29.425  29.501  1.00  0.00     0.031 A 
ATOM     34  C   UNL A   1      38.741  30.291  29.379  1.00  0.00     0.074 A 
ATOM     35  C   UNL A   1      41.223  29.706  30.018  1.00  0.00     0.049 A 
ATOM     36  N   UNL A   1      38.641  31.583  29.321  1.00  0.00    -0.248 NA
ATOM     37  C   UNL A   1      37.415  29.636  29.220  1.00  0.00     0.031 C 
ATOM     38  C   UNL A   1      42.343  28.746  30.051  1.00  0.00     0.029 A 
ATOM     39  N   UNL A   1      41.796  30.823  30.602  1.00  0.00    -0.354 N 
ATOM     40  C   UNL A   1      37.268  31.895  29.315  1.00  0.00     0.074 A 
ATOM     41  C   UNL A   1      36.568  30.662  29.123  1.00  0.00     0.031 C 
ATOM     42  C   UNL A   1      43.455  29.323  30.549  1.00  0.00     0.029 A 
ATOM     43  C   UNL A   1      43.179  30.703  30.899  1.00  0.00     0.049 A 
ATOM     44  H   UNL A   1      41.282  31.640  30.795  1.00  0.00     0.167 HD
ATOM     45  C   UNL A   1      36.788  33.132  29.626  1.00  0.00     0.037 A 
ATOM     46  C   UNL A   1      44.054  31.649  31.367  1.00  0.00     0.037 A 
ATOM     47  C   UNL A   1      37.859  34.021  29.924  1.00  0.00     0.049 A 
ATOM     48  C   UNL A   1      43.236  32.822  31.713  1.00  0.00     0.074 A 
ATOM     49  C   UNL A   1      38.814  34.615  29.144  1.00  0.00     0.029 A 
ATOM     50  N   UNL A   1      38.226  34.122  31.244  1.00  0.00    -0.354 N 
ATOM     51  N   UNL A   1      42.429  32.882  32.728  1.00  0.00    -0.248 NA
ATOM     52  C   UNL A   1      43.302  34.015  30.860  1.00  0.00     0.031 C 
ATOM     53  C   UNL A   1      39.941  34.686  29.988  1.00  0.00     0.029 A 
ATOM     54  C   UNL A   1      39.588  34.277  31.281  1.00  0.00     0.049 A 
ATOM     55  H   UNL A   1      37.623  34.090  32.021  1.00  0.00     0.167 HD
ATOM     56  C   UNL A   1      41.650  33.971  32.420  1.00  0.00     0.074 A 
ATOM     57  C   UNL A   1      42.407  34.776  31.487  1.00  0.00     0.031 C 
ATOM     58  C   UNL A   1      40.301  33.826  32.455  1.00  0.00     0.037 A 
BRANCH  45  59
ATOM     59  C   UNL A   1      35.406  33.610  29.961  1.00  0.00     0.064 A 
ATOM     60  C   UNL A   1      34.727  34.399  29.001  1.00  0.00     0.173 A 
ATOM     61  C   UNL A   1      34.904  33.646  31.268  1.00  0.00     0.173 A 
ATOM     62  F   UNL A   1      35.119  34.405  27.717  1.00  0.00    -0.203 F 
ATOM     63  C   UNL A   1      33.698  35.267  29.357  1.00  0.00     0.198 A 
ATOM     64  C   UNL A   1      33.837  34.482  31.610  1.00  0.00     0.198 A 
ATOM     65  F   UNL A   1      35.497  32.968  32.258  1.00  0.00    -0.203 F 
ATOM     66  F   UNL A   1      33.182  36.101  28.443  1.00  0.00    -0.200 F 
ATOM     67  C   UNL A   1      33.264  35.320  30.667  1.00  0.00     0.200 A 
ATOM     68  F   UNL A   1      33.419  34.533  32.882  1.00  0.00    -0.200 F 
ATOM     69  F   UNL A   1      32.325  36.204  31.030  1.00  0.00    -0.200 F 
ENDBRANCH  45  59
BRANCH  46  70
ATOM     70  C   UNL A   1      45.551  31.819  31.558  1.00  0.00     0.064 A 
ATOM     71  C   UNL A   1      46.513  31.866  30.544  1.00  0.00     0.173 A 
ATOM     72  C   UNL A   1      46.069  32.101  32.859  1.00  0.00     0.173 A 
ATOM     73  F   UNL A   1      46.214  31.545  29.282  1.00  0.00    -0.203 F 
ATOM     74  C   UNL A   1      47.841  32.267  30.788  1.00  0.00     0.198 A 
ATOM     75  C   UNL A   1      47.365  32.560  33.092  1.00  0.00     0.198 A 
ATOM     76  F   UNL A   1      45.319  31.961  33.961  1.00  0.00    -0.203 F 
ATOM     77  F   UNL A   1      48.719  32.302  29.776  1.00  0.00    -0.200 F 
ATOM     78  C   UNL A   1      48.253  32.658  32.049  1.00  0.00     0.200 A 
ATOM     79  F   UNL A   1      47.727  32.933  34.328  1.00  0.00    -0.200 F 
ATOM     80  F   UNL A   1      49.492  33.121  32.257  1.00  0.00    -0.200 F 
ENDBRANCH  46  70
BRANCH  58  81
ATOM     81  C   UNL A   1      39.838  32.789  33.464  1.00  0.00     0.064 A 
ATOM     82  C   UNL A   1      39.191  31.620  33.027  1.00  0.00     0.173 A 
ATOM     83  C   UNL A   1      39.880  32.978  34.854  1.00  0.00     0.173 A 
ATOM     84  F   UNL A   1      39.127  31.341  31.716  1.00  0.00    -0.203 F 
ATOM     85  C   UNL A   1      38.593  30.727  33.924  1.00  0.00     0.198 A 
ATOM     86  C   UNL A   1      39.291  32.088  35.755  1.00  0.00     0.198 A 
ATOM     87  F   UNL A   1      40.497  34.035  35.374  1.00  0.00    -0.203 F 
ATOM     88  F   UNL A   1      37.973  29.632  33.462  1.00  0.00    -0.200 F 
ATOM     89  C   UNL A   1      38.636  30.966  35.286  1.00  0.00     0.200 A 
ATOM     90  F   UNL A   1      39.361  32.324  37.074  1.00  0.00    -0.200 F 
ATOM     91  F   UNL A   1      38.067  30.109  36.147  1.00  0.00    -0.200 F 
ENDBRANCH  58  81
ENDBRANCH  32  33
ENDBRANCH  25  27
ENDBRANCH  24  25
ENDBRANCH  23  24
ENDBRANCH  22  23
ENDBRANCH  21  22
ENDBRANCH   1  21
TORSDOF 17
ENDMDL
MODEL 2
REMARK VINA RESULT:     -11.0      1.162      3.136
REMARK SMILES C[C@@H](CC[NH+](C)C)NC(=O)Cn1cccc1C(=O)OCCOC(=O)c1ccc(-c2c3nc(c(-c4c(F)c(F)c(F)c(F)c4F)c4ccc([nH]4)c(-c4c(F)c(F)c(F)c(F)c4F)c4nc(c(-c5c(F)c(F)c(F)c(F)c5F)c5ccc2[nH]5)C=C4)C=C3)cc1
REMARK SMILES IDX 17 1 18 2 16 3 12 4 13 5 14 6 15 7 11 8 9 9 8 10 10 12 2 13
REMARK SMILES IDX 1 14 3 15 4 16 5 17 6 18 7 19 19 21 20 22 21 23 22 24 23 25
REMARK SMILES IDX 24 26 25 27 26 28 87 29 27 30 86 31 28 32 29 33 30 34 80 35
REMARK SMILES IDX 31 36 85 37 79 38 81 39 32 40 84 41 78 42 77 43 33 45 65 46
REMARK SMILES IDX 45 47 64 48 46 49 49 50 63 51 82 52 47 53 48 54 62 56 83 57
REMARK SMILES IDX 50 58 34 59 35 60 43 61 36 62 37 63 41 64 44 65 38 66 39 67
REMARK SMILES IDX 42 68 40 69 66 70 67 71 75 72 68 73 69 74 73 75 76 76 70 77
REMARK SMILES IDX 71 78 74 79 72 80 51 81 52 82 60 83 53 84 54 85 58 86 61 87
REMARK SMILES IDX 55 88 56 89 59 90 57 91
REMARK H PARENT 8 11 5 20 81 44 49 55
REMARK Flexibility Score: inf
ROOT
ATOM      1  C   UNL A   1      34.559  23.303  24.123  1.00  0.00     0.355 C 
ATOM      2  O   UNL A   1      34.810  23.514  22.956  1.00  0.00    -0.244 OA
ENDROOT
BRANCH   1   3
ATOM      3  C   UNL A   1      33.570  22.334  24.576  1.00  0.00     0.128 A 
ATOM      4  N   UNL A   1      32.585  22.409  25.547  1.00  0.00    -0.333 N 
ATOM      5  C   UNL A   1      31.758  21.311  25.410  1.00  0.00     0.087 A 
ATOM      6  C   UNL A   1      32.360  20.402  24.580  1.00  0.00     0.020 A 
ATOM      7  C   UNL A   1      33.486  21.047  24.044  1.00  0.00     0.035 A 
BRANCH   4   8
ATOM      8  C   UNL A   1      32.285  23.493  26.479  1.00  0.00     0.222 C 
BRANCH   8   9
ATOM      9  C   UNL A   1      30.798  23.724  26.717  1.00  0.00     0.240 C 
ATOM     10  N   UNL A   1      30.134  24.768  26.125  1.00  0.00    -0.352 N 
ATOM     11  H   UNL A   1      29.196  24.870  26.405  1.00  0.00     0.163 HD
ATOM     12  O   UNL A   1      30.162  23.031  27.516  1.00  0.00    -0.273 OA
BRANCH  10  13
ATOM     13  C   UNL A   1      30.588  25.755  25.150  1.00  0.00     0.084 C 
ATOM     14  C   UNL A   1      29.554  25.994  24.049  1.00  0.00     0.031 C 
BRANCH  13  15
ATOM     15  C   UNL A   1      31.097  27.046  25.813  1.00  0.00     0.086 C 
BRANCH  15  16
ATOM     16  C   UNL A   1      32.589  27.416  25.729  1.00  0.00     0.263 C 
BRANCH  16  17
ATOM     17  N   UNL A   1      33.075  28.268  26.826  1.00  0.00    -0.340 N 
ATOM     18  C   UNL A   1      34.257  29.023  26.382  1.00  0.00     0.332 C 
ATOM     19  C   UNL A   1      32.075  29.236  27.285  1.00  0.00     0.332 C 
ATOM     20  H   UNL A   1      33.294  27.641  27.600  1.00  0.00     0.347 HD
ENDBRANCH  16  17
ENDBRANCH  15  16
ENDBRANCH  13  15
ENDBRANCH  10  13
ENDBRANCH   8   9
ENDBRANCH   4   8
ENDBRANCH   1   3
BRANCH   1  21
ATOM     21  O   UNL A   1      35.206  23.899  25.166  1.00  0.00    -0.457 OA
BRANCH  21  22
ATOM     22  C   UNL A   1      36.049  23.019  25.929  1.00  0.00     0.275 C 
BRANCH  22  23
ATOM     23  C   UNL A   1      37.535  23.350  25.775  1.00  0.00     0.275 C 
BRANCH  23  24
ATOM     24  O   UNL A   1      37.952  24.533  26.472  1.00  0.00    -0.458 OA
BRANCH  24  25
ATOM     25  C   UNL A   1      39.101  24.385  27.172  1.00  0.00     0.338 C 
ATOM     26  O   UNL A   1      39.699  23.345  27.392  1.00  0.00    -0.246 OA
BRANCH  25  27
ATOM     27  C   UNL A   1      39.534  25.650  27.777  1.00  0.00     0.060 A 
ATOM     28  C   UNL A   1      39.193  25.869  29.117  1.00  0.00     0.016 A 
ATOM     29  C   UNL A   1      40.073  26.675  26.990  1.00  0.00     0.016 A 
ATOM     30  C   UNL A   1      39.334  27.136  29.657  1.00  0.00     0.010 A 
ATOM     31  C   UNL A   1      40.195  27.951  27.525  1.00  0.00     0.010 A 
ATOM     32  C   UNL A   1      39.807  28.180  28.852  1.00  0.00    -0.014 A 
BRANCH  32  33
ATOM     33  C   UNL A   1      39.977  29.505  29.479  1.00  0.00     0.031 A 
ATOM     34  C   UNL A   1      38.724  30.364  29.355  1.00  0.00     0.074 A 
ATOM     35  C   UNL A   1      41.208  29.794  29.996  1.00  0.00     0.049 A 
ATOM     36  N   UNL A   1      38.617  31.656  29.295  1.00  0.00    -0.248 NA
ATOM     37  C   UNL A   1      37.402  29.701  29.196  1.00  0.00     0.031 C 
ATOM     38  C   UNL A   1      42.334  28.840  30.031  1.00  0.00     0.029 A 
ATOM     39  N   UNL A   1      41.775  30.915  30.579  1.00  0.00    -0.354 N 
ATOM     40  C   UNL A   1      37.242  31.959  29.287  1.00  0.00     0.074 A 
ATOM     41  C   UNL A   1      36.549  30.722  29.097  1.00  0.00     0.031 C 
ATOM     42  C   UNL A   1      43.442  29.424  30.528  1.00  0.00     0.029 A 
ATOM     43  C   UNL A   1      43.159  30.803  30.877  1.00  0.00     0.049 A 
ATOM     44  H   UNL A   1      41.256  31.729  30.770  1.00  0.00     0.167 HD
ATOM     45  C   UNL A   1      36.754  33.194  29.597  1.00  0.00     0.037 A 
ATOM     46  C   UNL A   1      44.028  31.755  31.344  1.00  0.00     0.037 A 
ATOM     47  C   UNL A   1      37.820  34.089  29.894  1.00  0.00     0.049 A 
ATOM     48  C   UNL A   1      43.203  32.923  31.688  1.00  0.00     0.074 A 
ATOM     49  C   UNL A   1      38.772  34.688  29.114  1.00  0.00     0.029 A 
ATOM     50  N   UNL A   1      38.186  34.195  31.214  1.00  0.00    -0.354 N 
ATOM     51  N   UNL A   1      42.395  32.980  32.703  1.00  0.00    -0.248 NA
ATOM     52  C   UNL A   1      43.262  34.115  30.833  1.00  0.00     0.031 C 
ATOM     53  C   UNL A   1      39.898  34.767  29.958  1.00  0.00     0.029 A 
ATOM     54  C   UNL A   1      39.547  34.357  31.251  1.00  0.00     0.049 A 
ATOM     55  H   UNL A   1      37.582  34.160  31.990  1.00  0.00     0.167 HD
ATOM     56  C   UNL A   1      41.610  34.065  32.392  1.00  0.00     0.074 A 
ATOM     57  C   UNL A   1      42.363  34.872  31.458  1.00  0.00     0.031 C 
ATOM     58  C   UNL A   1      40.261  33.911  32.426  1.00  0.00     0.037 A 
BRANCH  45  59
ATOM     59  C   UNL A   1      35.370  33.664  29.930  1.00  0.00     0.064 A 
ATOM     60  C   UNL A   1      34.686  34.447  28.968  1.00  0.00     0.173 A 
ATOM     61  C   UNL A   1      34.867  33.701  31.236  1.00  0.00     0.173 A 
ATOM     62  F   UNL A   1      35.079  34.453  27.684  1.00  0.00    -0.203 F 
ATOM     63  C   UNL A   1      33.651  35.310  29.322  1.00  0.00     0.198 A 
ATOM     64  C   UNL A   1      33.795  34.531  31.576  1.00  0.00     0.198 A 
ATOM     65  F   UNL A   1      35.464  33.028  32.229  1.00  0.00    -0.203 F 
ATOM     66  F   UNL A   1      33.131  36.139  28.405  1.00  0.00    -0.200 F 
ATOM     67  C   UNL A   1      33.217  35.364  30.632  1.00  0.00     0.200 A 
ATOM     68  F   UNL A   1      33.376  34.583  32.848  1.00  0.00    -0.200 F 
ATOM     69  F   UNL A   1      32.273  36.243  30.992  1.00  0.00    -0.200 F 
ENDBRANCH  45  59
BRANCH  46  70
ATOM     70  C   UNL A   1      45.523  31.933  31.536  1.00  0.00     0.064 A 
ATOM     71  C   UNL A   1      46.441  32.331  30.557  1.00  0.00     0.173 A 
ATOM     72  C   UNL A   1      46.084  31.837  32.846  1.00  0.00     0.173 A 
ATOM     73  F   UNL A   1      46.103  32.389  29.266  1.00  0.00    -0.203 F 
ATOM     74  C   UNL A   1      47.760  32.705  30.874  1.00  0.00     0.198 A 
ATOM     75  C   UNL A   1      47.369  32.269  33.171  1.00  0.00     0.198 A 
ATOM     76  F   UNL A   1      45.386  31.335  33.875  1.00  0.00    -0.203 F 
ATOM     77  F   UNL A   1      48.593  33.086  29.895  1.00  0.00    -0.200 F 
ATOM     78  C   UNL A   1      48.209  32.719  32.182  1.00  0.00     0.200 A 
ATOM     79  F   UNL A   1      47.767  32.271  34.452  1.00  0.00    -0.200 F 
ATOM     80  F   UNL A   1      49.437  33.160  32.486  1.00  0.00    -0.200 F 
ENDBRANCH  46  70
BRANCH  58  81
ATOM     81  C   UNL A   1      39.804  32.873  33.437  1.00  0.00     0.064 A 
ATOM     82  C   UNL A   1      39.194  31.684  32.999  1.00  0.00     0.173 A 
ATOM     83  C   UNL A   1      39.813  33.077  34.826  1.00  0.00     0.173 A 
ATOM     84  F   UNL A   1      39.164  31.392  31.690  1.00  0.00    -0.203 F 
ATOM     85  C   UNL A   1      38.601  30.786  33.893  1.00  0.00     0.198 A 
ATOM     86  C   UNL A   1      39.228  32.181  35.723  1.00  0.00     0.198 A 
ATOM     87  F   UNL A   1      40.394  34.154  35.347  1.00  0.00    -0.203 F 
ATOM     88  F   UNL A   1      38.017  29.672  33.430  1.00  0.00    -0.200 F 
ATOM     89  C   UNL A   1      38.611  31.039  35.254  1.00  0.00     0.200 A 
ATOM     90  F   UNL A   1      39.266  32.432  37.042  1.00  0.00    -0.200 F 
ATOM     91  F   UNL A   1      38.046  30.177  36.112  1.00  0.00    -0.200 F 
ENDBRANCH  58  81
ENDBRANCH  32  33
ENDBRANCH  25  27
ENDBRANCH  24  25
ENDBRANCH  23  24
ENDBRANCH  22  23
ENDBRANCH  21  22
ENDBRANCH   1  21
TORSDOF 17
ENDMDL
MODEL 3
REMARK VINA RESULT:     -11.0      4.724      9.250
REMARK SMILES C[C@@H](CC[NH+](C)C)NC(=O)Cn1cccc1C(=O)OCCOC(=O)c1ccc(-c2c3nc(c(-c4c(F)c(F)c(F)c(F)c4F)c4ccc([nH]4)c(-c4c(F)c(F)c(F)c(F)c4F)c4nc(c(-c5c(F)c(F)c(F)c(F)c5F)c5ccc2[nH]5)C=C4)C=C3)cc1
REMARK SMILES IDX 17 1 18 2 16 3 12 4 13 5 14 6 15 7 11 8 9 9 8 10 10 12 2 13
REMARK SMILES IDX 1 14 3 15 4 16 5 17 6 18 7 19 19 21 20 22 21 23 22 24 23 25
REMARK SMILES IDX 24 26 25 27 26 28 87 29 27 30 86 31 28 32 29 33 30 34 80 35
REMARK SMILES IDX 31 36 85 37 79 38 81 39 32 40 84 41 78 42 77 43 33 45 65 46
REMARK SMILES IDX 45 47 64 48 46 49 49 50 63 51 82 52 47 53 48 54 62 56 83 57
REMARK SMILES IDX 50 58 34 59 35 60 43 61 36 62 37 63 41 64 44 65 38 66 39 67
REMARK SMILES IDX 42 68 40 69 66 70 67 71 75 72 68 73 69 74 73 75 76 76 70 77
REMARK SMILES IDX 71 78 74 79 72 80 51 81 52 82 60 83 53 84 54 85 58 86 61 87
REMARK SMILES IDX 55 88 56 89 59 90 57 91
REMARK H PARENT 8 11 5 20 81 44 49 55
REMARK Flexibility Score: inf
ROOT
ATOM      1  C   UNL A   1      32.221  28.493  24.204  1.00  0.00     0.355 C 
ATOM      2  O   UNL A   1      32.883  28.936  23.290  1.00  0.00    -0.244 OA
ENDROOT
BRANCH   1   3
ATOM      3  C   UNL A   1      31.493  27.233  24.141  1.00  0.00     0.128 A 
ATOM      4  N   UNL A   1      31.883  25.930  24.407  1.00  0.00    -0.333 N 
ATOM      5  C   UNL A   1      30.752  25.139  24.439  1.00  0.00     0.087 A 
ATOM      6  C   UNL A   1      29.700  25.844  23.915  1.00  0.00     0.020 A 
ATOM      7  C   UNL A   1      30.159  27.160  23.743  1.00  0.00     0.035 A 
BRANCH   4   8
ATOM      8  C   UNL A   1      33.200  25.415  24.772  1.00  0.00     0.222 C 
BRANCH   8   9
ATOM      9  C   UNL A   1      33.784  24.420  23.777  1.00  0.00     0.240 C 
ATOM     10  N   UNL A   1      33.933  23.094  24.096  1.00  0.00    -0.352 N 
ATOM     11  H   UNL A   1      34.387  22.555  23.410  1.00  0.00     0.163 HD
ATOM     12  O   UNL A   1      34.221  24.789  22.683  1.00  0.00    -0.273 OA
BRANCH  10  13
ATOM     13  C   UNL A   1      33.528  22.351  25.285  1.00  0.00     0.084 C 
ATOM     14  C   UNL A   1      32.249  21.545  25.053  1.00  0.00     0.031 C 
BRANCH  13  15
ATOM     15  C   UNL A   1      34.680  21.524  25.882  1.00  0.00     0.086 C 
BRANCH  15  16
ATOM     16  C   UNL A   1      36.080  21.586  25.246  1.00  0.00     0.263 C 
BRANCH  16  17
ATOM     17  N   UNL A   1      37.094  22.281  26.054  1.00  0.00    -0.340 N 
ATOM     18  C   UNL A   1      38.432  21.768  25.720  1.00  0.00     0.332 C 
ATOM     19  C   UNL A   1      37.105  23.731  25.835  1.00  0.00     0.332 C 
ATOM     20  H   UNL A   1      36.854  22.106  27.029  1.00  0.00     0.347 HD
ENDBRANCH  16  17
ENDBRANCH  15  16
ENDBRANCH  13  15
ENDBRANCH  10  13
ENDBRANCH   8   9
ENDBRANCH   4   8
ENDBRANCH   1   3
BRANCH   1  21
ATOM     21  O   UNL A   1      32.115  29.085  25.430  1.00  0.00    -0.457 OA
BRANCH  21  22
ATOM     22  C   UNL A   1      33.089  28.646  26.391  1.00  0.00     0.275 C 
BRANCH  22  23
ATOM     23  C   UNL A   1      34.362  29.497  26.367  1.00  0.00     0.275 C 
BRANCH  23  24
ATOM     24  O   UNL A   1      35.392  29.045  27.258  1.00  0.00    -0.458 OA
BRANCH  24  25
ATOM     25  C   UNL A   1      36.121  30.043  27.809  1.00  0.00     0.338 C 
ATOM     26  O   UNL A   1      35.830  31.226  27.855  1.00  0.00    -0.246 OA
BRANCH  25  27
ATOM     27  C   UNL A   1      37.427  29.565  28.278  1.00  0.00     0.060 A 
ATOM     28  C   UNL A   1      38.505  29.670  27.390  1.00  0.00     0.016 A 
ATOM     29  C   UNL A   1      37.541  28.844  29.473  1.00  0.00     0.016 A 
ATOM     30  C   UNL A   1      39.683  29.000  27.668  1.00  0.00     0.010 A 
ATOM     31  C   UNL A   1      38.717  28.156  29.742  1.00  0.00     0.010 A 
ATOM     32  C   UNL A   1      39.777  28.221  28.828  1.00  0.00    -0.014 A 
BRANCH  32  33
ATOM     33  C   UNL A   1      41.064  27.554  29.103  1.00  0.00     0.031 A 
ATOM     34  C   UNL A   1      41.135  26.163  28.485  1.00  0.00     0.074 A 
ATOM     35  C   UNL A   1      41.949  28.220  29.905  1.00  0.00     0.049 A 
ATOM     36  N   UNL A   1      41.796  25.120  28.883  1.00  0.00    -0.248 NA
ATOM     37  C   UNL A   1      40.294  25.853  27.297  1.00  0.00     0.031 C 
ATOM     38  C   UNL A   1      41.722  29.578  30.436  1.00  0.00     0.029 A 
ATOM     39  N   UNL A   1      43.187  27.914  30.443  1.00  0.00    -0.354 N 
ATOM     40  C   UNL A   1      41.610  24.115  27.915  1.00  0.00     0.074 A 
ATOM     41  C   UNL A   1      40.578  24.576  27.036  1.00  0.00     0.031 C 
ATOM     42  C   UNL A   1      42.728  29.947  31.255  1.00  0.00     0.029 A 
ATOM     43  C   UNL A   1      43.712  28.884  31.336  1.00  0.00     0.049 A 
ATOM     44  H   UNL A   1      43.667  27.083  30.222  1.00  0.00     0.167 HD
ATOM     45  C   UNL A   1      42.429  23.031  27.805  1.00  0.00     0.037 A 
ATOM     46  C   UNL A   1      44.841  28.834  32.111  1.00  0.00     0.037 A 
ATOM     47  C   UNL A   1      43.445  23.073  28.802  1.00  0.00     0.049 A 
ATOM     48  C   UNL A   1      45.563  27.621  31.697  1.00  0.00     0.074 A 
ATOM     49  C   UNL A   1      43.420  22.887  30.158  1.00  0.00     0.029 A 
ATOM     50  N   UNL A   1      44.629  23.672  28.449  1.00  0.00    -0.354 N 
ATOM     51  N   UNL A   1      46.181  27.484  30.562  1.00  0.00    -0.248 NA
ATOM     52  C   UNL A   1      45.589  26.463  32.598  1.00  0.00     0.031 C 
ATOM     53  C   UNL A   1      44.414  23.766  30.635  1.00  0.00     0.029 A 
ATOM     54  C   UNL A   1      45.100  24.333  29.554  1.00  0.00     0.049 A 
ATOM     55  H   UNL A   1      45.061  23.634  27.566  1.00  0.00     0.167 HD
ATOM     56  C   UNL A   1      46.354  26.123  30.485  1.00  0.00     0.074 A 
ATOM     57  C   UNL A   1      46.278  25.615  31.837  1.00  0.00     0.031 C 
ATOM     58  C   UNL A   1      45.948  25.488  29.356  1.00  0.00     0.037 A 
BRANCH  45  59
ATOM     59  C   UNL A   1      42.602  22.019  26.713  1.00  0.00     0.064 A 
ATOM     60  C   UNL A   1      42.078  20.719  26.924  1.00  0.00     0.173 A 
ATOM     61  C   UNL A   1      43.545  22.151  25.687  1.00  0.00     0.173 A 
ATOM     62  F   UNL A   1      41.148  20.501  27.868  1.00  0.00    -0.203 F 
ATOM     63  C   UNL A   1      42.567  19.608  26.242  1.00  0.00     0.198 A 
ATOM     64  C   UNL A   1      43.995  21.040  24.969  1.00  0.00     0.198 A 
ATOM     65  F   UNL A   1      44.131  23.328  25.431  1.00  0.00    -0.203 F 
ATOM     66  F   UNL A   1      42.145  18.380  26.577  1.00  0.00    -0.200 F 
ATOM     67  C   UNL A   1      43.539  19.768  25.275  1.00  0.00     0.200 A 
ATOM     68  F   UNL A   1      44.941  21.196  24.032  1.00  0.00    -0.200 F 
ATOM     69  F   UNL A   1      44.065  18.696  24.666  1.00  0.00    -0.200 F 
ENDBRANCH  45  59
BRANCH  46  70
ATOM     70  C   UNL A   1      45.477  29.615  33.248  1.00  0.00     0.064 A 
ATOM     71  C   UNL A   1      46.673  30.338  33.186  1.00  0.00     0.173 A 
ATOM     72  C   UNL A   1      44.766  29.780  34.475  1.00  0.00     0.173 A 
ATOM     73  F   UNL A   1      47.501  30.230  32.143  1.00  0.00    -0.203 F 
ATOM     74  C   UNL A   1      47.065  31.228  34.204  1.00  0.00     0.198 A 
ATOM     75  C   UNL A   1      45.119  30.707  35.455  1.00  0.00     0.198 A 
ATOM     76  F   UNL A   1      43.677  29.053  34.761  1.00  0.00    -0.203 F 
ATOM     77  F   UNL A   1      48.218  31.901  34.088  1.00  0.00    -0.200 F 
ATOM     78  C   UNL A   1      46.267  31.447  35.313  1.00  0.00     0.200 A 
ATOM     79  F   UNL A   1      44.319  30.894  36.514  1.00  0.00    -0.200 F 
ATOM     80  F   UNL A   1      46.603  32.358  36.235  1.00  0.00    -0.200 F 
ENDBRANCH  46  70
BRANCH  58  81
ATOM     81  C   UNL A   1      46.029  26.362  28.116  1.00  0.00     0.064 A 
ATOM     82  C   UNL A   1      47.280  26.779  27.629  1.00  0.00     0.173 A 
ATOM     83  C   UNL A   1      44.910  26.923  27.481  1.00  0.00     0.173 A 
ATOM     84  F   UNL A   1      48.405  26.274  28.158  1.00  0.00    -0.203 F 
ATOM     85  C   UNL A   1      47.395  27.723  26.603  1.00  0.00     0.198 A 
ATOM     86  C   UNL A   1      45.019  27.861  26.452  1.00  0.00     0.198 A 
ATOM     87  F   UNL A   1      43.680  26.571  27.843  1.00  0.00    -0.203 F 
ATOM     88  F   UNL A   1      48.609  28.103  26.179  1.00  0.00    -0.200 F 
ATOM     89  C   UNL A   1      46.265  28.270  26.020  1.00  0.00     0.200 A 
ATOM     90  F   UNL A   1      43.912  28.364  25.884  1.00  0.00    -0.200 F 
ATOM     91  F   UNL A   1      46.374  29.172  25.034  1.00  0.00    -0.200 F 
ENDBRANCH  58  81
ENDBRANCH  32  33
ENDBRANCH  25  27
ENDBRANCH  24  25
ENDBRANCH  23  24
ENDBRANCH  22  23
ENDBRANCH  21  22
ENDBRANCH   1  21
TORSDOF 17
ENDMDL
