MODEL 1
REMARK VINA RESULT:     -12.4      0.000      0.000
REMARK SMILES CC(C)[NH2+][C@]1(C(=O)OCCOC(=O)c2ccc(-c3c4nc(c(-c5c(F)c(F)c(F)c(F)c5F)c5ccc([nH]5)c(-c5c(F)c(F)c(F)c(F)c5F)c5nc(c(-c6c(F)c(F)c(F)c(F)c6F)c6ccc3[nH]6)C=C5)C=C4)cc2)CC[C@H]([NH+]2CCC(C)(C)CC2)C1
REMARK SMILES IDX 9 1 8 2 6 3 7 4 5 5 77 6 88 7 78 8 79 9 4 10 2 13 1 14 3 15
REMARK SMILES IDX 80 16 81 17 87 18 82 20 86 21 83 22 84 23 85 24 10 25 11 26
REMARK SMILES IDX 12 27 13 28 14 29 15 30 76 31 16 32 75 33 17 34 18 35 19 36
REMARK SMILES IDX 69 37 20 38 74 39 68 40 70 41 21 42 73 43 67 44 66 45 22 47
REMARK SMILES IDX 54 48 34 49 53 50 35 51 38 52 52 53 71 54 36 55 37 56 51 58
REMARK SMILES IDX 72 59 39 60 23 61 24 62 32 63 25 64 26 65 30 66 33 67 27 68
REMARK SMILES IDX 28 69 31 70 29 71 55 72 56 73 64 74 57 75 58 76 62 77 65 78
REMARK SMILES IDX 59 79 60 80 63 81 61 82 40 83 41 84 49 85 42 86 43 87 47 88
REMARK SMILES IDX 50 89 44 90 45 91 48 92 46 93
REMARK H PARENT 4 11 4 12 80 19 70 46 38 57
REMARK Flexibility Score: inf
ROOT
ATOM      1  C   UNL A   1      31.831  28.140  27.166  1.00  0.00     0.274 C 
ENDROOT
BRANCH   1   2
ATOM      2  O   UNL A   1      32.174  27.350  26.009  1.00  0.00    -0.457 OA
BRANCH   2   3
ATOM      3  C   UNL A   1      31.859  26.030  26.088  1.00  0.00     0.368 C 
ATOM      4  O   UNL A   1      30.946  25.587  26.787  1.00  0.00    -0.245 OA
BRANCH   3   5
ATOM      5  C   UNL A   1      32.826  25.094  25.303  1.00  0.00     0.200 C 
ATOM      6  C   UNL A   1      34.314  25.450  25.386  1.00  0.00     0.087 C 
ATOM      7  C   UNL A   1      32.849  23.749  26.084  1.00  0.00     0.146 C 
ATOM      8  C   UNL A   1      35.052  24.132  25.117  1.00  0.00     0.072 C 
ATOM      9  C   UNL A   1      34.148  23.012  25.688  1.00  0.00     0.191 C 
BRANCH   5  10
ATOM     10  N   UNL A   1      32.220  24.897  23.952  1.00  0.00    -0.330 N 
ATOM     11  H   UNL A   1      31.974  23.908  23.904  1.00  0.00     0.347 HD
ATOM     12  H   UNL A   1      31.504  25.624  23.960  1.00  0.00     0.347 HD
BRANCH  10  13
ATOM     13  C   UNL A   1      32.891  25.195  22.690  1.00  0.00     0.176 C 
ATOM     14  C   UNL A   1      33.142  23.840  21.998  1.00  0.00     0.075 C 
ATOM     15  C   UNL A   1      32.167  26.086  21.688  1.00  0.00     0.075 C 
ENDBRANCH  10  13
ENDBRANCH   5  10
BRANCH   9  16
ATOM     16  N   UNL A   1      33.991  21.754  24.919  1.00  0.00    -0.332 N 
ATOM     17  C   UNL A   1      32.585  21.374  24.708  1.00  0.00     0.263 C 
ATOM     18  C   UNL A   1      34.789  20.637  25.425  1.00  0.00     0.263 C 
ATOM     19  H   UNL A   1      34.377  21.974  24.002  1.00  0.00     0.348 HD
ATOM     20  C   UNL A   1      32.424  20.086  23.880  1.00  0.00     0.068 C 
ATOM     21  C   UNL A   1      34.693  19.376  24.576  1.00  0.00     0.068 C 
ATOM     22  C   UNL A   1      33.242  18.900  24.434  1.00  0.00    -0.025 C 
ATOM     23  C   UNL A   1      33.209  17.716  23.457  1.00  0.00     0.011 C 
ATOM     24  C   UNL A   1      32.682  18.413  25.789  1.00  0.00     0.011 C 
ENDBRANCH   9  16
ENDBRANCH   3   5
ENDBRANCH   2   3
ENDBRANCH   1   2
BRANCH   1  25
ATOM     25  C   UNL A   1      31.738  29.635  26.857  1.00  0.00     0.275 C 
BRANCH  25  26
ATOM     26  O   UNL A   1      33.001  30.181  26.438  1.00  0.00    -0.458 OA
BRANCH  26  27
ATOM     27  C   UNL A   1      33.437  31.227  27.169  1.00  0.00     0.338 C 
ATOM     28  O   UNL A   1      32.804  32.217  27.511  1.00  0.00    -0.246 OA
BRANCH  27  29
ATOM     29  C   UNL A   1      34.809  30.982  27.621  1.00  0.00     0.060 A 
ATOM     30  C   UNL A   1      35.169  29.674  27.927  1.00  0.00     0.016 A 
ATOM     31  C   UNL A   1      35.682  32.035  27.892  1.00  0.00     0.016 A 
ATOM     32  C   UNL A   1      36.374  29.412  28.567  1.00  0.00     0.010 A 
ATOM     33  C   UNL A   1      36.911  31.765  28.507  1.00  0.00     0.010 A 
ATOM     34  C   UNL A   1      37.251  30.452  28.883  1.00  0.00    -0.014 A 
BRANCH  34  35
ATOM     35  C   UNL A   1      38.455  30.168  29.702  1.00  0.00     0.031 A 
ATOM     36  C   UNL A   1      39.553  29.320  29.126  1.00  0.00     0.074 A 
ATOM     37  C   UNL A   1      38.614  30.715  30.923  1.00  0.00     0.049 A 
ATOM     38  N   UNL A   1      40.561  28.745  29.727  1.00  0.00    -0.248 NA
ATOM     39  C   UNL A   1      39.507  29.089  27.672  1.00  0.00     0.031 C 
ATOM     40  C   UNL A   1      37.700  31.667  31.554  1.00  0.00     0.029 A 
ATOM     41  N   UNL A   1      39.614  30.550  31.850  1.00  0.00    -0.354 N 
ATOM     42  C   UNL A   1      41.225  28.025  28.743  1.00  0.00     0.074 A 
ATOM     43  C   UNL A   1      40.524  28.256  27.498  1.00  0.00     0.031 C 
ATOM     44  C   UNL A   1      38.187  32.013  32.756  1.00  0.00     0.029 A 
ATOM     45  C   UNL A   1      39.392  31.233  33.020  1.00  0.00     0.049 A 
ATOM     46  H   UNL A   1      40.410  29.993  31.692  1.00  0.00     0.167 HD
ATOM     47  C   UNL A   1      42.312  27.228  28.879  1.00  0.00     0.037 A 
ATOM     48  C   UNL A   1      40.051  31.189  34.194  1.00  0.00     0.037 A 
ATOM     49  C   UNL A   1      43.034  27.053  30.110  1.00  0.00     0.049 A 
ATOM     50  C   UNL A   1      41.218  30.253  34.342  1.00  0.00     0.074 A 
ATOM     51  C   UNL A   1      44.123  26.239  30.369  1.00  0.00     0.029 A 
ATOM     52  N   UNL A   1      42.751  27.731  31.287  1.00  0.00    -0.354 N 
ATOM     53  N   UNL A   1      41.763  29.463  33.449  1.00  0.00    -0.248 NA
ATOM     54  C   UNL A   1      41.842  30.178  35.670  1.00  0.00     0.031 C 
ATOM     55  C   UNL A   1      44.485  26.409  31.710  1.00  0.00     0.029 A 
ATOM     56  C   UNL A   1      43.644  27.354  32.276  1.00  0.00     0.049 A 
ATOM     57  H   UNL A   1      42.022  28.383  31.403  1.00  0.00     0.167 HD
ATOM     58  C   UNL A   1      42.798  28.808  34.101  1.00  0.00     0.074 A 
ATOM     59  C   UNL A   1      42.816  29.303  35.462  1.00  0.00     0.031 C 
ATOM     60  C   UNL A   1      43.653  27.874  33.618  1.00  0.00     0.037 A 
BRANCH  47  61
ATOM     61  C   UNL A   1      42.746  26.438  27.681  1.00  0.00     0.064 A 
ATOM     62  C   UNL A   1      43.721  26.907  26.791  1.00  0.00     0.173 A 
ATOM     63  C   UNL A   1      42.190  25.171  27.442  1.00  0.00     0.173 A 
ATOM     64  F   UNL A   1      44.266  28.119  26.965  1.00  0.00    -0.203 F 
ATOM     65  C   UNL A   1      44.112  26.143  25.694  1.00  0.00     0.198 A 
ATOM     66  C   UNL A   1      42.601  24.400  26.359  1.00  0.00     0.198 A 
ATOM     67  F   UNL A   1      41.254  24.677  28.266  1.00  0.00    -0.203 F 
ATOM     68  F   UNL A   1      45.017  26.626  24.831  1.00  0.00    -0.200 F 
ATOM     69  C   UNL A   1      43.557  24.888  25.482  1.00  0.00     0.200 A 
ATOM     70  F   UNL A   1      42.069  23.185  26.162  1.00  0.00    -0.200 F 
ATOM     71  F   UNL A   1      43.939  24.153  24.429  1.00  0.00    -0.200 F 
ENDBRANCH  47  61
BRANCH  48  72
ATOM     72  C   UNL A   1      39.573  32.004  35.340  1.00  0.00     0.064 A 
ATOM     73  C   UNL A   1      38.629  31.498  36.242  1.00  0.00     0.173 A 
ATOM     74  C   UNL A   1      40.053  33.306  35.558  1.00  0.00     0.173 A 
ATOM     75  F   UNL A   1      38.118  30.272  36.060  1.00  0.00    -0.203 F 
ATOM     76  C   UNL A   1      38.178  32.265  37.316  1.00  0.00     0.198 A 
ATOM     77  C   UNL A   1      39.625  34.058  36.647  1.00  0.00     0.198 A 
ATOM     78  F   UNL A   1      40.953  33.839  34.718  1.00  0.00    -0.203 F 
ATOM     79  F   UNL A   1      37.246  31.772  38.144  1.00  0.00    -0.200 F 
ATOM     80  C   UNL A   1      38.683  33.540  37.523  1.00  0.00     0.200 A 
ATOM     81  F   UNL A   1      40.124  35.286  36.850  1.00  0.00    -0.200 F 
ATOM     82  F   UNL A   1      38.256  34.272  38.561  1.00  0.00    -0.200 F 
ENDBRANCH  48  72
BRANCH  60  83
ATOM     83  C   UNL A   1      44.705  27.360  34.552  1.00  0.00     0.064 A 
ATOM     84  C   UNL A   1      44.511  26.191  35.301  1.00  0.00     0.173 A 
ATOM     85  C   UNL A   1      45.938  28.020  34.660  1.00  0.00     0.173 A 
ATOM     86  F   UNL A   1      43.342  25.537  35.241  1.00  0.00    -0.203 F 
ATOM     87  C   UNL A   1      45.512  25.709  36.138  1.00  0.00     0.198 A 
ATOM     88  C   UNL A   1      46.944  27.522  35.482  1.00  0.00     0.198 A 
ATOM     89  F   UNL A   1      46.169  29.139  33.958  1.00  0.00    -0.203 F 
ATOM     90  F   UNL A   1      45.297  24.608  36.871  1.00  0.00    -0.200 F 
ATOM     91  C   UNL A   1      46.729  26.370  36.223  1.00  0.00     0.200 A 
ATOM     92  F   UNL A   1      48.122  28.157  35.556  1.00  0.00    -0.200 F 
ATOM     93  F   UNL A   1      47.694  25.899  37.025  1.00  0.00    -0.200 F 
ENDBRANCH  60  83
ENDBRANCH  34  35
ENDBRANCH  27  29
ENDBRANCH  26  27
ENDBRANCH  25  26
ENDBRANCH   1  25
TORSDOF 14
ENDMDL
MODEL 2
REMARK VINA RESULT:     -12.3      1.243      2.220
REMARK SMILES CC(C)[NH2+][C@]1(C(=O)OCCOC(=O)c2ccc(-c3c4nc(c(-c5c(F)c(F)c(F)c(F)c5F)c5ccc([nH]5)c(-c5c(F)c(F)c(F)c(F)c5F)c5nc(c(-c6c(F)c(F)c(F)c(F)c6F)c6ccc3[nH]6)C=C5)C=C4)cc2)CC[C@H]([NH+]2CCC(C)(C)CC2)C1
REMARK SMILES IDX 9 1 8 2 6 3 7 4 5 5 77 6 88 7 78 8 79 9 4 10 2 13 1 14 3 15
REMARK SMILES IDX 80 16 81 17 87 18 82 20 86 21 83 22 84 23 85 24 10 25 11 26
REMARK SMILES IDX 12 27 13 28 14 29 15 30 76 31 16 32 75 33 17 34 18 35 19 36
REMARK SMILES IDX 69 37 20 38 74 39 68 40 70 41 21 42 73 43 67 44 66 45 22 47
REMARK SMILES IDX 54 48 34 49 53 50 35 51 38 52 52 53 71 54 36 55 37 56 51 58
REMARK SMILES IDX 72 59 39 60 23 61 24 62 32 63 25 64 26 65 30 66 33 67 27 68
REMARK SMILES IDX 28 69 31 70 29 71 55 72 56 73 64 74 57 75 58 76 62 77 65 78
REMARK SMILES IDX 59 79 60 80 63 81 61 82 40 83 41 84 49 85 42 86 43 87 47 88
REMARK SMILES IDX 50 89 44 90 45 91 48 92 46 93
REMARK H PARENT 4 11 4 12 80 19 70 46 38 57
REMARK Flexibility Score: inf
ROOT
ATOM      1  C   UNL A   1      31.184  29.265  25.131  1.00  0.00     0.274 C 
ENDROOT
BRANCH   1   2
ATOM      2  O   UNL A   1      31.114  27.919  24.617  1.00  0.00    -0.457 OA
BRANCH   2   3
ATOM      3  C   UNL A   1      31.246  26.932  25.543  1.00  0.00     0.368 C 
ATOM      4  O   UNL A   1      30.869  27.038  26.711  1.00  0.00    -0.245 OA
BRANCH   3   5
ATOM      5  C   UNL A   1      32.022  25.680  25.036  1.00  0.00     0.200 C 
ATOM      6  C   UNL A   1      31.489  25.038  23.751  1.00  0.00     0.087 C 
ATOM      7  C   UNL A   1      33.385  26.208  24.503  1.00  0.00     0.146 C 
ATOM      8  C   UNL A   1      32.693  24.307  23.144  1.00  0.00     0.072 C 
ATOM      9  C   UNL A   1      33.939  25.142  23.529  1.00  0.00     0.191 C 
BRANCH   5  10
ATOM     10  N   UNL A   1      32.238  24.805  26.228  1.00  0.00    -0.330 N 
ATOM     11  H   UNL A   1      33.250  24.739  26.339  1.00  0.00     0.347 HD
ATOM     12  H   UNL A   1      31.656  25.281  26.917  1.00  0.00     0.347 HD
BRANCH  10  13
ATOM     13  C   UNL A   1      31.741  23.438  26.354  1.00  0.00     0.176 C 
ATOM     14  C   UNL A   1      32.649  22.737  27.386  1.00  0.00     0.075 C 
ATOM     15  C   UNL A   1      30.301  23.241  26.812  1.00  0.00     0.075 C 
ENDBRANCH  10  13
ENDBRANCH   5  10
BRANCH   9  16
ATOM     16  N   UNL A   1      35.175  24.438  23.949  1.00  0.00    -0.332 N 
ATOM     17  C   UNL A   1      35.350  23.132  23.293  1.00  0.00     0.263 C 
ATOM     18  C   UNL A   1      35.354  24.350  25.398  1.00  0.00     0.263 C 
ATOM     19  H   UNL A   1      35.927  25.038  23.614  1.00  0.00     0.348 HD
ATOM     20  C   UNL A   1      36.651  22.419  23.704  1.00  0.00     0.068 C 
ATOM     21  C   UNL A   1      36.668  23.708  25.819  1.00  0.00     0.068 C 
ATOM     22  C   UNL A   1      36.822  22.299  25.234  1.00  0.00    -0.025 C 
ATOM     23  C   UNL A   1      38.223  21.774  25.582  1.00  0.00     0.011 C 
ATOM     24  C   UNL A   1      35.787  21.328  25.842  1.00  0.00     0.011 C 
ENDBRANCH   9  16
ENDBRANCH   3   5
ENDBRANCH   2   3
ENDBRANCH   1   2
BRANCH   1  25
ATOM     25  C   UNL A   1      32.605  29.676  25.522  1.00  0.00     0.275 C 
BRANCH  25  26
ATOM     26  O   UNL A   1      32.708  30.006  26.918  1.00  0.00    -0.458 OA
BRANCH  26  27
ATOM     27  C   UNL A   1      33.313  31.183  27.179  1.00  0.00     0.338 C 
ATOM     28  O   UNL A   1      32.817  32.302  27.152  1.00  0.00    -0.246 OA
BRANCH  27  29
ATOM     29  C   UNL A   1      34.689  30.949  27.624  1.00  0.00     0.060 A 
ATOM     30  C   UNL A   1      35.056  29.646  27.946  1.00  0.00     0.016 A 
ATOM     31  C   UNL A   1      35.560  32.008  27.875  1.00  0.00     0.016 A 
ATOM     32  C   UNL A   1      36.265  29.397  28.580  1.00  0.00     0.010 A 
ATOM     33  C   UNL A   1      36.794  31.750  28.485  1.00  0.00     0.010 A 
ATOM     34  C   UNL A   1      37.141  30.443  28.876  1.00  0.00    -0.014 A 
BRANCH  34  35
ATOM     35  C   UNL A   1      38.353  30.175  29.691  1.00  0.00     0.031 A 
ATOM     36  C   UNL A   1      39.455  29.334  29.112  1.00  0.00     0.074 A 
ATOM     37  C   UNL A   1      38.512  30.728  30.908  1.00  0.00     0.049 A 
ATOM     38  N   UNL A   1      40.472  28.771  29.710  1.00  0.00    -0.248 NA
ATOM     39  C   UNL A   1      39.404  29.097  27.660  1.00  0.00     0.031 C 
ATOM     40  C   UNL A   1      37.592  31.674  31.540  1.00  0.00     0.029 A 
ATOM     41  N   UNL A   1      39.518  30.576  31.831  1.00  0.00    -0.354 N 
ATOM     42  C   UNL A   1      41.138  28.054  28.726  1.00  0.00     0.074 A 
ATOM     43  C   UNL A   1      40.428  28.273  27.484  1.00  0.00     0.031 C 
ATOM     44  C   UNL A   1      38.082  32.030  32.738  1.00  0.00     0.029 A 
ATOM     45  C   UNL A   1      39.296  31.263  32.999  1.00  0.00     0.049 A 
ATOM     46  H   UNL A   1      40.319  30.027  31.671  1.00  0.00     0.167 HD
ATOM     47  C   UNL A   1      42.232  27.268  28.860  1.00  0.00     0.037 A 
ATOM     48  C   UNL A   1      39.961  31.230  34.170  1.00  0.00     0.037 A 
ATOM     49  C   UNL A   1      42.963  27.105  30.088  1.00  0.00     0.049 A 
ATOM     50  C   UNL A   1      41.137  30.306  34.316  1.00  0.00     0.074 A 
ATOM     51  C   UNL A   1      44.060  26.303  30.346  1.00  0.00     0.029 A 
ATOM     52  N   UNL A   1      42.679  27.785  31.264  1.00  0.00    -0.354 N 
ATOM     53  N   UNL A   1      41.686  29.517  33.424  1.00  0.00    -0.248 NA
ATOM     54  C   UNL A   1      41.769  30.242  35.642  1.00  0.00     0.031 C 
ATOM     55  C   UNL A   1      44.428  26.481  31.684  1.00  0.00     0.029 A 
ATOM     56  C   UNL A   1      43.580  27.421  32.250  1.00  0.00     0.049 A 
ATOM     57  H   UNL A   1      41.945  28.431  31.381  1.00  0.00     0.167 HD
ATOM     58  C   UNL A   1      42.730  28.874  34.073  1.00  0.00     0.074 A 
ATOM     59  C   UNL A   1      42.750  29.375  35.432  1.00  0.00     0.031 C 
ATOM     60  C   UNL A   1      43.591  27.947  33.590  1.00  0.00     0.037 A 
BRANCH  47  61
ATOM     61  C   UNL A   1      42.669  26.477  27.663  1.00  0.00     0.064 A 
ATOM     62  C   UNL A   1      43.665  26.932  26.790  1.00  0.00     0.173 A 
ATOM     63  C   UNL A   1      42.091  25.223  27.408  1.00  0.00     0.173 A 
ATOM     64  F   UNL A   1      44.232  28.132  26.981  1.00  0.00    -0.203 F 
ATOM     65  C   UNL A   1      44.056  26.167  25.694  1.00  0.00     0.198 A 
ATOM     66  C   UNL A   1      42.502  24.451  26.326  1.00  0.00     0.198 A 
ATOM     67  F   UNL A   1      41.133  24.743  28.215  1.00  0.00    -0.203 F 
ATOM     68  F   UNL A   1      44.984  26.638  24.848  1.00  0.00    -0.200 F 
ATOM     69  C   UNL A   1      43.480  24.925  25.466  1.00  0.00     0.200 A 
ATOM     70  F   UNL A   1      41.949  23.248  26.114  1.00  0.00    -0.200 F 
ATOM     71  F   UNL A   1      43.863  24.189  24.413  1.00  0.00    -0.200 F 
ENDBRANCH  47  61
BRANCH  48  72
ATOM     72  C   UNL A   1      39.481  32.045  35.315  1.00  0.00     0.064 A 
ATOM     73  C   UNL A   1      38.585  31.516  36.253  1.00  0.00     0.173 A 
ATOM     74  C   UNL A   1      39.910  33.369  35.496  1.00  0.00     0.173 A 
ATOM     75  F   UNL A   1      38.123  30.266  36.107  1.00  0.00    -0.203 F 
ATOM     76  C   UNL A   1      38.132  32.283  37.326  1.00  0.00     0.198 A 
ATOM     77  C   UNL A   1      39.481  34.124  36.584  1.00  0.00     0.198 A 
ATOM     78  F   UNL A   1      40.762  33.925  34.622  1.00  0.00    -0.203 F 
ATOM     79  F   UNL A   1      37.246  31.767  38.189  1.00  0.00    -0.200 F 
ATOM     80  C   UNL A   1      38.588  33.582  37.496  1.00  0.00     0.200 A 
ATOM     81  F   UNL A   1      39.933  35.375  36.751  1.00  0.00    -0.200 F 
ATOM     82  F   UNL A   1      38.159  34.314  38.533  1.00  0.00    -0.200 F 
ENDBRANCH  48  72
BRANCH  60  83
ATOM     83  C   UNL A   1      44.652  27.447  34.521  1.00  0.00     0.064 A 
ATOM     84  C   UNL A   1      45.854  28.145  34.704  1.00  0.00     0.173 A 
ATOM     85  C   UNL A   1      44.441  26.282  35.274  1.00  0.00     0.173 A 
ATOM     86  F   UNL A   1      46.104  29.255  33.994  1.00  0.00    -0.203 F 
ATOM     87  C   UNL A   1      46.814  27.686  35.599  1.00  0.00     0.198 A 
ATOM     88  C   UNL A   1      45.396  25.838  36.183  1.00  0.00     0.198 A 
ATOM     89  F   UNL A   1      43.305  25.584  35.135  1.00  0.00    -0.203 F 
ATOM     90  F   UNL A   1      47.971  28.349  35.738  1.00  0.00    -0.200 F 
ATOM     91  C   UNL A   1      46.583  26.537  36.343  1.00  0.00     0.200 A 
ATOM     92  F   UNL A   1      45.166  24.734  36.907  1.00  0.00    -0.200 F 
ATOM     93  F   UNL A   1      47.507  26.100  37.209  1.00  0.00    -0.200 F 
ENDBRANCH  60  83
ENDBRANCH  34  35
ENDBRANCH  27  29
ENDBRANCH  26  27
ENDBRANCH  25  26
ENDBRANCH   1  25
TORSDOF 14
ENDMDL
MODEL 3
REMARK VINA RESULT:     -12.3      0.336      1.631
REMARK SMILES CC(C)[NH2+][C@]1(C(=O)OCCOC(=O)c2ccc(-c3c4nc(c(-c5c(F)c(F)c(F)c(F)c5F)c5ccc([nH]5)c(-c5c(F)c(F)c(F)c(F)c5F)c5nc(c(-c6c(F)c(F)c(F)c(F)c6F)c6ccc3[nH]6)C=C5)C=C4)cc2)CC[C@H]([NH+]2CCC(C)(C)CC2)C1
REMARK SMILES IDX 9 1 8 2 6 3 7 4 5 5 77 6 88 7 78 8 79 9 4 10 2 13 1 14 3 15
REMARK SMILES IDX 80 16 81 17 87 18 82 20 86 21 83 22 84 23 85 24 10 25 11 26
REMARK SMILES IDX 12 27 13 28 14 29 15 30 76 31 16 32 75 33 17 34 18 35 19 36
REMARK SMILES IDX 69 37 20 38 74 39 68 40 70 41 21 42 73 43 67 44 66 45 22 47
REMARK SMILES IDX 54 48 34 49 53 50 35 51 38 52 52 53 71 54 36 55 37 56 51 58
REMARK SMILES IDX 72 59 39 60 23 61 24 62 32 63 25 64 26 65 30 66 33 67 27 68
REMARK SMILES IDX 28 69 31 70 29 71 55 72 56 73 64 74 57 75 58 76 62 77 65 78
REMARK SMILES IDX 59 79 60 80 63 81 61 82 40 83 41 84 49 85 42 86 43 87 47 88
REMARK SMILES IDX 50 89 44 90 45 91 48 92 46 93
REMARK H PARENT 4 11 4 12 80 19 70 46 38 57
REMARK Flexibility Score: inf
ROOT
ATOM      1  C   UNL A   1      31.406  28.152  26.828  1.00  0.00     0.274 C 
ENDROOT
BRANCH   1   2
ATOM      2  O   UNL A   1      32.332  27.062  26.645  1.00  0.00    -0.457 OA
BRANCH   2   3
ATOM      3  C   UNL A   1      31.788  25.905  26.183  1.00  0.00     0.368 C 
ATOM      4  O   UNL A   1      30.639  25.542  26.437  1.00  0.00    -0.245 OA
BRANCH   3   5
ATOM      5  C   UNL A   1      32.781  25.005  25.388  1.00  0.00     0.200 C 
ATOM      6  C   UNL A   1      34.258  25.404  25.471  1.00  0.00     0.087 C 
ATOM      7  C   UNL A   1      32.847  23.655  26.158  1.00  0.00     0.146 C 
ATOM      8  C   UNL A   1      35.035  24.112  25.189  1.00  0.00     0.072 C 
ATOM      9  C   UNL A   1      34.167  22.961  25.753  1.00  0.00     0.191 C 
BRANCH   5  10
ATOM     10  N   UNL A   1      32.178  24.800  24.037  1.00  0.00    -0.330 N 
ATOM     11  H   UNL A   1      31.983  23.800  23.973  1.00  0.00     0.347 HD
ATOM     12  H   UNL A   1      31.425  25.488  24.062  1.00  0.00     0.347 HD
BRANCH  10  13
ATOM     13  C   UNL A   1      32.824  25.154  22.777  1.00  0.00     0.176 C 
ATOM     14  C   UNL A   1      33.151  23.825  22.065  1.00  0.00     0.075 C 
ATOM     15  C   UNL A   1      32.044  26.015  21.791  1.00  0.00     0.075 C 
ENDBRANCH  10  13
ENDBRANCH   5  10
BRANCH   9  16
ATOM     16  N   UNL A   1      34.046  21.704  24.975  1.00  0.00    -0.332 N 
ATOM     17  C   UNL A   1      32.651  21.296  24.745  1.00  0.00     0.263 C 
ATOM     18  C   UNL A   1      34.863  20.602  25.483  1.00  0.00     0.263 C 
ATOM     19  H   UNL A   1      34.438  21.939  24.064  1.00  0.00     0.348 HD
ATOM     20  C   UNL A   1      32.528  20.009  23.908  1.00  0.00     0.068 C 
ATOM     21  C   UNL A   1      34.804  19.345  24.626  1.00  0.00     0.068 C 
ATOM     22  C   UNL A   1      33.365  18.838  24.465  1.00  0.00    -0.025 C 
ATOM     23  C   UNL A   1      33.369  17.660  23.479  1.00  0.00     0.011 C 
ATOM     24  C   UNL A   1      32.801  18.331  25.810  1.00  0.00     0.011 C 
ENDBRANCH   9  16
ENDBRANCH   3   5
ENDBRANCH   2   3
ENDBRANCH   1   2
BRANCH   1  25
ATOM     25  C   UNL A   1      31.695  29.336  25.902  1.00  0.00     0.275 C 
BRANCH  25  26
ATOM     26  O   UNL A   1      33.070  29.753  25.971  1.00  0.00    -0.458 OA
BRANCH  26  27
ATOM     27  C   UNL A   1      33.319  30.742  26.854  1.00  0.00     0.338 C 
ATOM     28  O   UNL A   1      32.535  31.582  27.277  1.00  0.00    -0.246 OA
BRANCH  27  29
ATOM     29  C   UNL A   1      34.690  30.628  27.356  1.00  0.00     0.060 A 
ATOM     30  C   UNL A   1      35.238  29.354  27.467  1.00  0.00     0.016 A 
ATOM     31  C   UNL A   1      35.372  31.735  27.860  1.00  0.00     0.016 A 
ATOM     32  C   UNL A   1      36.439  29.167  28.140  1.00  0.00     0.010 A 
ATOM     33  C   UNL A   1      36.599  31.546  28.509  1.00  0.00     0.010 A 
ATOM     34  C   UNL A   1      37.125  30.253  28.686  1.00  0.00    -0.014 A 
BRANCH  34  35
ATOM     35  C   UNL A   1      38.320  30.013  29.532  1.00  0.00     0.031 A 
ATOM     36  C   UNL A   1      39.454  29.192  28.985  1.00  0.00     0.074 A 
ATOM     37  C   UNL A   1      38.438  30.575  30.750  1.00  0.00     0.049 A 
ATOM     38  N   UNL A   1      40.466  28.652  29.612  1.00  0.00    -0.248 NA
ATOM     39  C   UNL A   1      39.443  28.946  27.533  1.00  0.00     0.031 C 
ATOM     40  C   UNL A   1      37.485  31.505  31.354  1.00  0.00     0.029 A 
ATOM     41  N   UNL A   1      39.424  30.448  31.698  1.00  0.00    -0.354 N 
ATOM     42  C   UNL A   1      41.170  27.943  28.648  1.00  0.00     0.074 A 
ATOM     43  C   UNL A   1      40.488  28.142  27.388  1.00  0.00     0.031 C 
ATOM     44  C   UNL A   1      37.937  31.877  32.561  1.00  0.00     0.029 A 
ATOM     45  C   UNL A   1      39.159  31.136  32.857  1.00  0.00     0.049 A 
ATOM     46  H   UNL A   1      40.239  29.914  31.561  1.00  0.00     0.167 HD
ATOM     47  C   UNL A   1      42.277  27.179  28.814  1.00  0.00     0.037 A 
ATOM     48  C   UNL A   1      39.795  31.122  34.044  1.00  0.00     0.037 A 
ATOM     49  C   UNL A   1      42.979  27.038  30.061  1.00  0.00     0.049 A 
ATOM     50  C   UNL A   1      40.985  30.222  34.224  1.00  0.00     0.074 A 
ATOM     51  C   UNL A   1      44.086  26.259  30.349  1.00  0.00     0.029 A 
ATOM     52  N   UNL A   1      42.653  27.717  31.225  1.00  0.00    -0.354 N 
ATOM     53  N   UNL A   1      41.571  29.440  33.350  1.00  0.00    -0.248 NA
ATOM     54  C   UNL A   1      41.585  30.177  35.565  1.00  0.00     0.031 C 
ATOM     55  C   UNL A   1      44.416  26.451  31.696  1.00  0.00     0.029 A 
ATOM     56  C   UNL A   1      43.536  27.376  32.235  1.00  0.00     0.049 A 
ATOM     57  H   UNL A   1      41.903  28.349  31.320  1.00  0.00     0.167 HD
ATOM     58  C   UNL A   1      42.611  28.821  34.029  1.00  0.00     0.074 A 
ATOM     59  C   UNL A   1      42.588  29.329  35.385  1.00  0.00     0.031 C 
ATOM     60  C   UNL A   1      43.503  27.909  33.572  1.00  0.00     0.037 A 
BRANCH  47  61
ATOM     61  C   UNL A   1      42.758  26.392  27.633  1.00  0.00     0.064 A 
ATOM     62  C   UNL A   1      43.758  26.868  26.774  1.00  0.00     0.173 A 
ATOM     63  C   UNL A   1      42.222  25.119  27.378  1.00  0.00     0.173 A 
ATOM     64  F   UNL A   1      44.286  28.086  26.965  1.00  0.00    -0.203 F 
ATOM     65  C   UNL A   1      44.192  26.106  25.692  1.00  0.00     0.198 A 
ATOM     66  C   UNL A   1      42.676  24.351  26.310  1.00  0.00     0.198 A 
ATOM     67  F   UNL A   1      41.263  24.619  28.171  1.00  0.00    -0.203 F 
ATOM     68  F   UNL A   1      45.121  26.596  24.860  1.00  0.00    -0.200 F 
ATOM     69  C   UNL A   1      43.656  24.846  25.465  1.00  0.00     0.200 A 
ATOM     70  F   UNL A   1      42.162  23.131  26.099  1.00  0.00    -0.200 F 
ATOM     71  F   UNL A   1      44.079  24.113  24.426  1.00  0.00    -0.200 F 
ENDBRANCH  47  61
BRANCH  48  72
ATOM     72  C   UNL A   1      39.271  31.933  35.173  1.00  0.00     0.064 A 
ATOM     73  C   UNL A   1      39.564  33.299  35.277  1.00  0.00     0.173 A 
ATOM     74  C   UNL A   1      38.464  31.360  36.168  1.00  0.00     0.173 A 
ATOM     75  F   UNL A   1      40.355  33.886  34.367  1.00  0.00    -0.203 F 
ATOM     76  C   UNL A   1      39.076  34.059  36.338  1.00  0.00     0.198 A 
ATOM     77  C   UNL A   1      37.952  32.127  37.211  1.00  0.00     0.198 A 
ATOM     78  F   UNL A   1      38.160  30.054  36.118  1.00  0.00    -0.203 F 
ATOM     79  F   UNL A   1      39.401  35.356  36.437  1.00  0.00    -0.200 F 
ATOM     80  C   UNL A   1      38.262  33.475  37.299  1.00  0.00     0.200 A 
ATOM     81  F   UNL A   1      37.158  31.561  38.130  1.00  0.00    -0.200 F 
ATOM     82  F   UNL A   1      37.785  34.210  38.313  1.00  0.00    -0.200 F 
ENDBRANCH  48  72
BRANCH  60  83
ATOM     83  C   UNL A   1      44.550  27.435  34.532  1.00  0.00     0.064 A 
ATOM     84  C   UNL A   1      45.759  28.126  34.697  1.00  0.00     0.173 A 
ATOM     85  C   UNL A   1      44.318  26.304  35.330  1.00  0.00     0.173 A 
ATOM     86  F   UNL A   1      46.029  29.202  33.944  1.00  0.00    -0.203 F 
ATOM     87  C   UNL A   1      46.706  27.691  35.619  1.00  0.00     0.198 A 
ATOM     88  C   UNL A   1      45.260  25.886  36.265  1.00  0.00     0.198 A 
ATOM     89  F   UNL A   1      43.174  25.615  35.210  1.00  0.00    -0.203 F 
ATOM     90  F   UNL A   1      47.870  28.346  35.740  1.00  0.00    -0.200 F 
ATOM     91  C   UNL A   1      46.454  26.577  36.406  1.00  0.00     0.200 A 
ATOM     92  F   UNL A   1      45.011  24.815  37.031  1.00  0.00    -0.200 F 
ATOM     93  F   UNL A   1      47.366  26.165  37.297  1.00  0.00    -0.200 F 
ENDBRANCH  60  83
ENDBRANCH  34  35
ENDBRANCH  27  29
ENDBRANCH  26  27
ENDBRANCH  25  26
ENDBRANCH   1  25
TORSDOF 14
ENDMDL
