MODEL 1
REMARK VINA RESULT:     -11.4      0.000      0.000
REMARK SMILES CCN(Cc1ccccn1)C(=O)NC(=O)CCCC(=O)OCCOC(=O)c1ccc(-c2c3nc(c(-c4c(F)c(F)c(F)c(F)c4F)c4ccc([nH]4)c(-c4c(F)c(F)c(F)c(F)c4F)c4nc(c(-c5c(F)c(F)c(F)c(F)c5F)c5ccc2[nH]5)C=C4)C=C3)cc1
REMARK SMILES IDX 19 1 20 2 18 3 17 4 16 5 14 6 11 7 12 8 13 9 15 11 3 12 2 13
REMARK SMILES IDX 1 14 4 15 5 16 6 17 10 18 7 19 9 20 8 21 21 22 22 23 23 24
REMARK SMILES IDX 24 25 25 26 26 27 27 28 28 29 89 30 29 31 88 32 30 33 31 34
REMARK SMILES IDX 32 35 82 36 33 37 87 38 81 39 83 40 34 41 86 42 80 43 79 44
REMARK SMILES IDX 35 46 67 47 47 48 66 49 48 50 51 51 65 52 84 53 49 54 50 55
REMARK SMILES IDX 64 57 85 58 52 59 36 60 37 61 45 62 38 63 39 64 43 65 46 66
REMARK SMILES IDX 40 67 41 68 44 69 42 70 68 71 69 72 77 73 70 74 71 75 75 76
REMARK SMILES IDX 78 77 72 78 73 79 76 80 74 81 53 82 54 83 62 84 55 85 56 86
REMARK SMILES IDX 60 87 63 88 57 89 58 90 61 91 59 92
REMARK H PARENT 13 10 83 45 51 56
REMARK Flexibility Score: inf
ROOT
ATOM      1  C   UNL A   1      32.197  27.324  26.434  1.00  0.00     0.305 C 
ATOM      2  O   UNL A   1      31.530  27.367  27.464  1.00  0.00    -0.252 OA
ENDROOT
BRANCH   1   3
ATOM      3  C   UNL A   1      32.522  25.986  25.762  1.00  0.00     0.123 C 
BRANCH   3   4
ATOM      4  C   UNL A   1      33.953  25.567  25.459  1.00  0.00     0.022 C 
BRANCH   4   5
ATOM      5  C   UNL A   1      34.262  24.272  24.697  1.00  0.00     0.101 C 
BRANCH   5   6
ATOM      6  C   UNL A   1      35.572  23.501  24.808  1.00  0.00     0.228 C 
ATOM      7  C   UNL A   1      35.115  20.967  25.401  1.00  0.00     0.324 C 
ATOM      8  O   UNL A   1      35.739  19.971  25.025  1.00  0.00    -0.248 OA
ATOM      9  N   UNL A   1      35.734  22.180  25.183  1.00  0.00    -0.278 N 
ATOM     10  H   UNL A   1      36.692  22.052  25.377  1.00  0.00     0.174 HD
ATOM     11  O   UNL A   1      36.631  24.117  24.607  1.00  0.00    -0.275 OA
BRANCH   7  12
ATOM     12  N   UNL A   1      33.869  20.872  25.938  1.00  0.00    -0.319 N 
BRANCH  12  13
ATOM     13  C   UNL A   1      33.638  21.467  27.273  1.00  0.00     0.118 C 
ATOM     14  C   UNL A   1      32.541  22.539  27.343  1.00  0.00     0.027 C 
ENDBRANCH  12  13
BRANCH  12  15
ATOM     15  C   UNL A   1      32.701  20.328  25.266  1.00  0.00     0.177 C 
BRANCH  15  16
ATOM     16  C   UNL A   1      32.567  18.891  24.829  1.00  0.00     0.060 A 
ATOM     17  C   UNL A   1      32.860  18.518  23.518  1.00  0.00     0.026 A 
ATOM     18  N   UNL A   1      32.559  17.989  25.848  1.00  0.00    -0.259 NA
ATOM     19  C   UNL A   1      33.246  17.201  23.267  1.00  0.00     0.004 A 
ATOM     20  C   UNL A   1      32.930  16.721  25.573  1.00  0.00     0.111 A 
ATOM     21  C   UNL A   1      33.306  16.291  24.314  1.00  0.00     0.020 A 
ENDBRANCH  15  16
ENDBRANCH  12  15
ENDBRANCH   7  12
ENDBRANCH   5   6
ENDBRANCH   4   5
ENDBRANCH   3   4
ENDBRANCH   1   3
BRANCH   1  22
ATOM     22  O   UNL A   1      32.753  28.421  25.858  1.00  0.00    -0.462 OA
BRANCH  22  23
ATOM     23  C   UNL A   1      31.835  29.440  25.358  1.00  0.00     0.274 C 
BRANCH  23  24
ATOM     24  C   UNL A   1      31.845  30.692  26.239  1.00  0.00     0.275 C 
BRANCH  24  25
ATOM     25  O   UNL A   1      32.943  30.605  27.152  1.00  0.00    -0.458 OA
BRANCH  25  26
ATOM     26  C   UNL A   1      33.512  31.806  27.425  1.00  0.00     0.338 C 
ATOM     27  O   UNL A   1      32.971  32.890  27.432  1.00  0.00    -0.246 OA
BRANCH  26  28
ATOM     28  C   UNL A   1      34.809  31.513  28.070  1.00  0.00     0.060 A 
ATOM     29  C   UNL A   1      35.018  30.201  28.511  1.00  0.00     0.016 A 
ATOM     30  C   UNL A   1      35.839  32.456  28.119  1.00  0.00     0.016 A 
ATOM     31  C   UNL A   1      36.274  29.805  28.951  1.00  0.00     0.010 A 
ATOM     32  C   UNL A   1      37.078  32.081  28.622  1.00  0.00     0.010 A 
ATOM     33  C   UNL A   1      37.292  30.759  29.046  1.00  0.00    -0.014 A 
BRANCH  33  34
ATOM     34  C   UNL A   1      38.482  30.464  29.860  1.00  0.00     0.031 A 
ATOM     35  C   UNL A   1      39.464  29.494  29.279  1.00  0.00     0.074 A 
ATOM     36  C   UNL A   1      38.649  31.004  31.076  1.00  0.00     0.049 A 
ATOM     37  N   UNL A   1      40.488  28.910  29.839  1.00  0.00    -0.248 NA
ATOM     38  C   UNL A   1      39.257  29.127  27.867  1.00  0.00     0.031 C 
ATOM     39  C   UNL A   1      37.790  32.021  31.678  1.00  0.00     0.029 A 
ATOM     40  N   UNL A   1      39.596  30.745  32.032  1.00  0.00    -0.354 N 
ATOM     41  C   UNL A   1      41.035  28.104  28.851  1.00  0.00     0.074 A 
ATOM     42  C   UNL A   1      40.233  28.261  27.662  1.00  0.00     0.031 C 
ATOM     43  C   UNL A   1      38.232  32.277  32.923  1.00  0.00     0.029 A 
ATOM     44  C   UNL A   1      39.367  31.404  33.214  1.00  0.00     0.049 A 
ATOM     45  H   UNL A   1      40.364  30.147  31.885  1.00  0.00     0.167 HD
ATOM     46  C   UNL A   1      42.109  27.289  28.942  1.00  0.00     0.037 A 
ATOM     47  C   UNL A   1      39.986  31.262  34.403  1.00  0.00     0.037 A 
ATOM     48  C   UNL A   1      42.859  27.110  30.153  1.00  0.00     0.049 A 
ATOM     49  C   UNL A   1      41.103  30.252  34.516  1.00  0.00     0.074 A 
ATOM     50  C   UNL A   1      43.942  26.287  30.386  1.00  0.00     0.029 A 
ATOM     51  N   UNL A   1      42.580  27.765  31.345  1.00  0.00    -0.354 N 
ATOM     52  N   UNL A   1      41.619  29.477  33.590  1.00  0.00    -0.248 NA
ATOM     53  C   UNL A   1      41.713  30.084  35.842  1.00  0.00     0.031 C 
ATOM     54  C   UNL A   1      44.283  26.400  31.738  1.00  0.00     0.029 A 
ATOM     55  C   UNL A   1      43.453  27.342  32.329  1.00  0.00     0.049 A 
ATOM     56  H   UNL A   1      41.865  28.430  31.471  1.00  0.00     0.167 HD
ATOM     57  C   UNL A   1      42.629  28.754  34.210  1.00  0.00     0.074 A 
ATOM     58  C   UNL A   1      42.660  29.190  35.592  1.00  0.00     0.031 C 
ATOM     59  C   UNL A   1      43.460  27.814  33.692  1.00  0.00     0.037 A 
BRANCH  46  60
ATOM     60  C   UNL A   1      42.468  26.495  27.723  1.00  0.00     0.064 A 
ATOM     61  C   UNL A   1      41.864  25.260  27.440  1.00  0.00     0.173 A 
ATOM     62  C   UNL A   1      43.454  26.959  26.841  1.00  0.00     0.173 A 
ATOM     63  F   UNL A   1      40.939  24.755  28.270  1.00  0.00    -0.203 F 
ATOM     64  C   UNL A   1      42.257  24.506  26.338  1.00  0.00     0.198 A 
ATOM     65  C   UNL A   1      43.823  26.218  25.722  1.00  0.00     0.198 A 
ATOM     66  F   UNL A   1      44.073  28.128  27.072  1.00  0.00    -0.203 F 
ATOM     67  F   UNL A   1      41.714  23.299  26.125  1.00  0.00    -0.200 F 
ATOM     68  C   UNL A   1      43.231  24.988  25.476  1.00  0.00     0.200 A 
ATOM     69  F   UNL A   1      44.762  26.687  24.889  1.00  0.00    -0.200 F 
ATOM     70  F   UNL A   1      43.612  24.261  24.417  1.00  0.00    -0.200 F 
ENDBRANCH  46  60
BRANCH  47  71
ATOM     71  C   UNL A   1      39.545  32.054  35.583  1.00  0.00     0.064 A 
ATOM     72  C   UNL A   1      38.555  31.569  36.449  1.00  0.00     0.173 A 
ATOM     73  C   UNL A   1      40.078  33.324  35.855  1.00  0.00     0.173 A 
ATOM     74  F   UNL A   1      37.992  30.374  36.218  1.00  0.00    -0.203 F 
ATOM     75  C   UNL A   1      38.103  32.328  37.528  1.00  0.00     0.198 A 
ATOM     76  C   UNL A   1      39.647  34.070  36.951  1.00  0.00     0.198 A 
ATOM     77  F   UNL A   1      41.021  33.844  35.055  1.00  0.00    -0.203 F 
ATOM     78  F   UNL A   1      37.118  31.860  38.307  1.00  0.00    -0.200 F 
ATOM     79  C   UNL A   1      38.653  33.575  37.782  1.00  0.00     0.200 A 
ATOM     80  F   UNL A   1      40.188  35.271  37.197  1.00  0.00    -0.200 F 
ATOM     81  F   UNL A   1      38.217  34.304  38.817  1.00  0.00    -0.200 F 
ENDBRANCH  47  71
BRANCH  59  82
ATOM     82  C   UNL A   1      44.496  27.228  34.606  1.00  0.00     0.064 A 
ATOM     83  C   UNL A   1      44.274  26.033  35.302  1.00  0.00     0.173 A 
ATOM     84  C   UNL A   1      45.757  27.834  34.719  1.00  0.00     0.173 A 
ATOM     85  F   UNL A   1      43.080  25.423  35.235  1.00  0.00    -0.203 F 
ATOM     86  C   UNL A   1      45.273  25.473  36.094  1.00  0.00     0.198 A 
ATOM     87  C   UNL A   1      46.763  27.254  35.483  1.00  0.00     0.198 A 
ATOM     88  F   UNL A   1      46.021  28.974  34.061  1.00  0.00    -0.203 F 
ATOM     89  F   UNL A   1      45.029  24.350  36.782  1.00  0.00    -0.200 F 
ATOM     90  C   UNL A   1      46.520  26.077  36.174  1.00  0.00     0.200 A 
ATOM     91  F   UNL A   1      47.973  27.828  35.542  1.00  0.00    -0.200 F 
ATOM     92  F   UNL A   1      47.486  25.525  36.920  1.00  0.00    -0.200 F 
ENDBRANCH  59  82
ENDBRANCH  33  34
ENDBRANCH  26  28
ENDBRANCH  25  26
ENDBRANCH  24  25
ENDBRANCH  23  24
ENDBRANCH  22  23
ENDBRANCH   1  22
TORSDOF 18
ENDMDL
MODEL 2
REMARK VINA RESULT:     -11.3      4.285      9.688
REMARK SMILES CCN(Cc1ccccn1)C(=O)NC(=O)CCCC(=O)OCCOC(=O)c1ccc(-c2c3nc(c(-c4c(F)c(F)c(F)c(F)c4F)c4ccc([nH]4)c(-c4c(F)c(F)c(F)c(F)c4F)c4nc(c(-c5c(F)c(F)c(F)c(F)c5F)c5ccc2[nH]5)C=C4)C=C3)cc1
REMARK SMILES IDX 19 1 20 2 18 3 17 4 16 5 14 6 11 7 12 8 13 9 15 11 3 12 2 13
REMARK SMILES IDX 1 14 4 15 5 16 6 17 10 18 7 19 9 20 8 21 21 22 22 23 23 24
REMARK SMILES IDX 24 25 25 26 26 27 27 28 28 29 89 30 29 31 88 32 30 33 31 34
REMARK SMILES IDX 32 35 82 36 33 37 87 38 81 39 83 40 34 41 86 42 80 43 79 44
REMARK SMILES IDX 35 46 67 47 47 48 66 49 48 50 51 51 65 52 84 53 49 54 50 55
REMARK SMILES IDX 64 57 85 58 52 59 36 60 37 61 45 62 38 63 39 64 43 65 46 66
REMARK SMILES IDX 40 67 41 68 44 69 42 70 68 71 69 72 77 73 70 74 71 75 75 76
REMARK SMILES IDX 78 77 72 78 73 79 76 80 74 81 53 82 54 83 62 84 55 85 56 86
REMARK SMILES IDX 60 87 63 88 57 89 58 90 61 91 59 92
REMARK H PARENT 13 10 83 45 51 56
REMARK Flexibility Score: inf
ROOT
ATOM      1  C   UNL A   1      35.741  22.954  23.481  1.00  0.00     0.305 C 
ATOM      2  O   UNL A   1      36.513  22.983  22.528  1.00  0.00    -0.252 OA
ENDROOT
BRANCH   1   3
ATOM      3  C   UNL A   1      34.334  23.551  23.373  1.00  0.00     0.123 C 
BRANCH   3   4
ATOM      4  C   UNL A   1      33.780  24.496  24.429  1.00  0.00     0.022 C 
BRANCH   4   5
ATOM      5  C   UNL A   1      32.428  25.197  24.244  1.00  0.00     0.101 C 
BRANCH   5   6
ATOM      6  C   UNL A   1      31.098  24.469  24.082  1.00  0.00     0.228 C 
ATOM      7  C   UNL A   1      30.896  22.499  25.833  1.00  0.00     0.324 C 
ATOM      8  O   UNL A   1      29.884  22.097  26.414  1.00  0.00    -0.248 OA
ATOM      9  N   UNL A   1      30.677  23.340  24.762  1.00  0.00    -0.278 N 
ATOM     10  H   UNL A   1      29.893  22.991  24.278  1.00  0.00     0.174 HD
ATOM     11  O   UNL A   1      30.314  24.872  23.209  1.00  0.00    -0.275 OA
BRANCH   7  12
ATOM     12  N   UNL A   1      32.146  22.181  26.264  1.00  0.00    -0.319 N 
BRANCH  12  13
ATOM     13  C   UNL A   1      32.702  22.940  27.407  1.00  0.00     0.118 C 
ATOM     14  C   UNL A   1      34.138  22.577  27.809  1.00  0.00     0.027 C 
ENDBRANCH  12  13
BRANCH  12  15
ATOM     15  C   UNL A   1      32.953  21.079  25.770  1.00  0.00     0.177 C 
BRANCH  15  16
ATOM     16  C   UNL A   1      32.435  19.985  24.871  1.00  0.00     0.060 A 
ATOM     17  C   UNL A   1      32.380  20.167  23.490  1.00  0.00     0.026 A 
ATOM     18  N   UNL A   1      32.435  18.746  25.433  1.00  0.00    -0.259 NA
ATOM     19  C   UNL A   1      32.423  19.043  22.665  1.00  0.00     0.004 A 
ATOM     20  C   UNL A   1      32.469  17.678  24.609  1.00  0.00     0.111 A 
ATOM     21  C   UNL A   1      32.492  17.777  23.230  1.00  0.00     0.020 A 
ENDBRANCH  15  16
ENDBRANCH  12  15
ENDBRANCH   7  12
ENDBRANCH   5   6
ENDBRANCH   4   5
ENDBRANCH   3   4
ENDBRANCH   1   3
BRANCH   1  22
ATOM     22  O   UNL A   1      36.082  22.472  24.704  1.00  0.00    -0.462 OA
BRANCH  22  23
ATOM     23  C   UNL A   1      36.292  21.031  24.810  1.00  0.00     0.274 C 
BRANCH  23  24
ATOM     24  C   UNL A   1      37.773  20.687  24.987  1.00  0.00     0.275 C 
BRANCH  24  25
ATOM     25  O   UNL A   1      38.402  21.728  25.741  1.00  0.00    -0.458 OA
BRANCH  25  26
ATOM     26  C   UNL A   1      39.555  21.337  26.340  1.00  0.00     0.338 C 
ATOM     27  O   UNL A   1      40.096  20.257  26.255  1.00  0.00    -0.246 OA
BRANCH  26  28
ATOM     28  C   UNL A   1      40.218  22.571  26.810  1.00  0.00     0.060 A 
ATOM     29  C   UNL A   1      39.813  23.774  26.221  1.00  0.00     0.016 A 
ATOM     30  C   UNL A   1      41.107  22.567  27.887  1.00  0.00     0.016 A 
ATOM     31  C   UNL A   1      40.248  24.987  26.739  1.00  0.00     0.010 A 
ATOM     32  C   UNL A   1      41.598  23.776  28.365  1.00  0.00     0.010 A 
ATOM     33  C   UNL A   1      41.176  24.983  27.784  1.00  0.00    -0.014 A 
BRANCH  33  34
ATOM     34  C   UNL A   1      41.934  26.209  28.079  1.00  0.00     0.031 A 
ATOM     35  C   UNL A   1      41.205  27.282  28.828  1.00  0.00     0.074 A 
ATOM     36  C   UNL A   1      43.197  26.369  27.657  1.00  0.00     0.049 A 
ATOM     37  N   UNL A   1      41.549  28.520  29.057  1.00  0.00    -0.248 NA
ATOM     38  C   UNL A   1      39.897  26.904  29.395  1.00  0.00     0.031 C 
ATOM     39  C   UNL A   1      44.008  25.347  27.000  1.00  0.00     0.029 A 
ATOM     40  N   UNL A   1      44.006  27.474  27.700  1.00  0.00    -0.354 N 
ATOM     41  C   UNL A   1      40.499  29.064  29.782  1.00  0.00     0.074 A 
ATOM     42  C   UNL A   1      39.502  28.035  29.950  1.00  0.00     0.031 C 
ATOM     43  C   UNL A   1      45.196  25.885  26.669  1.00  0.00     0.029 A 
ATOM     44  C   UNL A   1      45.200  27.298  27.045  1.00  0.00     0.049 A 
ATOM     45  H   UNL A   1      43.757  28.310  28.155  1.00  0.00     0.167 HD
ATOM     46  C   UNL A   1      40.377  30.326  30.250  1.00  0.00     0.037 A 
ATOM     47  C   UNL A   1      46.152  28.205  26.747  1.00  0.00     0.037 A 
ATOM     48  C   UNL A   1      41.361  31.346  30.023  1.00  0.00     0.049 A 
ATOM     49  C   UNL A   1      45.936  29.638  27.169  1.00  0.00     0.074 A 
ATOM     50  C   UNL A   1      41.338  32.670  30.410  1.00  0.00     0.029 A 
ATOM     51  N   UNL A   1      42.543  31.145  29.324  1.00  0.00    -0.354 N 
ATOM     52  N   UNL A   1      44.940  30.165  27.845  1.00  0.00    -0.248 NA
ATOM     53  C   UNL A   1      46.967  30.608  26.775  1.00  0.00     0.031 C 
ATOM     54  C   UNL A   1      42.483  33.287  29.895  1.00  0.00     0.029 A 
ATOM     55  C   UNL A   1      43.249  32.331  29.243  1.00  0.00     0.049 A 
ATOM     56  H   UNL A   1      42.836  30.286  28.942  1.00  0.00     0.167 HD
ATOM     57  C   UNL A   1      45.237  31.514  27.982  1.00  0.00     0.074 A 
ATOM     58  C   UNL A   1      46.512  31.725  27.327  1.00  0.00     0.031 C 
ATOM     59  C   UNL A   1      44.526  32.495  28.593  1.00  0.00     0.037 A 
BRANCH  46  60
ATOM     60  C   UNL A   1      39.111  30.663  30.978  1.00  0.00     0.064 A 
ATOM     61  C   UNL A   1      37.975  31.138  30.305  1.00  0.00     0.173 A 
ATOM     62  C   UNL A   1      39.044  30.542  32.373  1.00  0.00     0.173 A 
ATOM     63  F   UNL A   1      37.999  31.304  28.974  1.00  0.00    -0.203 F 
ATOM     64  C   UNL A   1      36.830  31.509  31.005  1.00  0.00     0.198 A 
ATOM     65  C   UNL A   1      37.887  30.883  33.068  1.00  0.00     0.198 A 
ATOM     66  F   UNL A   1      40.107  30.106  33.067  1.00  0.00    -0.203 F 
ATOM     67  F   UNL A   1      35.781  32.022  30.348  1.00  0.00    -0.200 F 
ATOM     68  C   UNL A   1      36.785  31.375  32.385  1.00  0.00     0.200 A 
ATOM     69  F   UNL A   1      37.844  30.750  34.400  1.00  0.00    -0.200 F 
ATOM     70  F   UNL A   1      35.684  31.735  33.059  1.00  0.00    -0.200 F 
ENDBRANCH  46  60
BRANCH  47  71
ATOM     71  C   UNL A   1      47.363  27.804  25.981  1.00  0.00     0.064 A 
ATOM     72  C   UNL A   1      47.338  27.725  24.581  1.00  0.00     0.173 A 
ATOM     73  C   UNL A   1      48.560  27.462  26.629  1.00  0.00     0.173 A 
ATOM     74  F   UNL A   1      46.211  28.013  23.915  1.00  0.00    -0.203 F 
ATOM     75  C   UNL A   1      48.456  27.302  23.862  1.00  0.00     0.198 A 
ATOM     76  C   UNL A   1      49.686  27.068  25.907  1.00  0.00     0.198 A 
ATOM     77  F   UNL A   1      48.639  27.509  27.967  1.00  0.00    -0.203 F 
ATOM     78  F   UNL A   1      48.386  27.186  22.528  1.00  0.00    -0.200 F 
ATOM     79  C   UNL A   1      49.631  26.981  24.524  1.00  0.00     0.200 A 
ATOM     80  F   UNL A   1      50.821  26.766  26.551  1.00  0.00    -0.200 F 
ATOM     81  F   UNL A   1      50.703  26.573  23.832  1.00  0.00    -0.200 F 
ENDBRANCH  47  71
BRANCH  59  82
ATOM     82  C   UNL A   1      45.126  33.870  28.619  1.00  0.00     0.064 A 
ATOM     83  C   UNL A   1      46.073  34.243  29.582  1.00  0.00     0.173 A 
ATOM     84  C   UNL A   1      44.805  34.797  27.615  1.00  0.00     0.173 A 
ATOM     85  F   UNL A   1      46.403  33.395  30.569  1.00  0.00    -0.203 F 
ATOM     86  C   UNL A   1      46.665  35.502  29.550  1.00  0.00     0.198 A 
ATOM     87  C   UNL A   1      45.424  36.041  27.566  1.00  0.00     0.198 A 
ATOM     88  F   UNL A   1      43.912  34.481  26.664  1.00  0.00    -0.203 F 
ATOM     89  F   UNL A   1      47.540  35.854  30.501  1.00  0.00    -0.200 F 
ATOM     90  C   UNL A   1      46.349  36.395  28.535  1.00  0.00     0.200 A 
ATOM     91  F   UNL A   1      45.133  36.893  26.573  1.00  0.00    -0.200 F 
ATOM     92  F   UNL A   1      46.936  37.599  28.494  1.00  0.00    -0.200 F 
ENDBRANCH  59  82
ENDBRANCH  33  34
ENDBRANCH  26  28
ENDBRANCH  25  26
ENDBRANCH  24  25
ENDBRANCH  23  24
ENDBRANCH  22  23
ENDBRANCH   1  22
TORSDOF 18
ENDMDL
MODEL 3
REMARK VINA RESULT:     -11.3      1.067      2.474
REMARK SMILES CCN(Cc1ccccn1)C(=O)NC(=O)CCCC(=O)OCCOC(=O)c1ccc(-c2c3nc(c(-c4c(F)c(F)c(F)c(F)c4F)c4ccc([nH]4)c(-c4c(F)c(F)c(F)c(F)c4F)c4nc(c(-c5c(F)c(F)c(F)c(F)c5F)c5ccc2[nH]5)C=C4)C=C3)cc1
REMARK SMILES IDX 19 1 20 2 18 3 17 4 16 5 14 6 11 7 12 8 13 9 15 11 3 12 2 13
REMARK SMILES IDX 1 14 4 15 5 16 6 17 10 18 7 19 9 20 8 21 21 22 22 23 23 24
REMARK SMILES IDX 24 25 25 26 26 27 27 28 28 29 89 30 29 31 88 32 30 33 31 34
REMARK SMILES IDX 32 35 82 36 33 37 87 38 81 39 83 40 34 41 86 42 80 43 79 44
REMARK SMILES IDX 35 46 67 47 47 48 66 49 48 50 51 51 65 52 84 53 49 54 50 55
REMARK SMILES IDX 64 57 85 58 52 59 36 60 37 61 45 62 38 63 39 64 43 65 46 66
REMARK SMILES IDX 40 67 41 68 44 69 42 70 68 71 69 72 77 73 70 74 71 75 75 76
REMARK SMILES IDX 78 77 72 78 73 79 76 80 74 81 53 82 54 83 62 84 55 85 56 86
REMARK SMILES IDX 60 87 63 88 57 89 58 90 61 91 59 92
REMARK H PARENT 13 10 83 45 51 56
REMARK Flexibility Score: inf
ROOT
ATOM      1  C   UNL A   1      30.993  27.852  23.414  1.00  0.00     0.305 C 
ATOM      2  O   UNL A   1      30.071  27.747  22.609  1.00  0.00    -0.252 OA
ENDROOT
BRANCH   1   3
ATOM      3  C   UNL A   1      31.538  26.624  24.150  1.00  0.00     0.123 C 
BRANCH   3   4
ATOM      4  C   UNL A   1      30.619  25.644  24.866  1.00  0.00     0.022 C 
BRANCH   4   5
ATOM      5  C   UNL A   1      30.962  24.151  24.961  1.00  0.00     0.101 C 
BRANCH   5   6
ATOM      6  C   UNL A   1      31.065  23.375  26.269  1.00  0.00     0.228 C 
ATOM      7  C   UNL A   1      32.868  21.453  26.072  1.00  0.00     0.324 C 
ATOM      8  O   UNL A   1      33.634  21.035  26.945  1.00  0.00    -0.248 OA
ATOM      9  N   UNL A   1      31.836  22.254  26.516  1.00  0.00    -0.278 N 
ATOM     10  H   UNL A   1      31.513  21.864  27.361  1.00  0.00     0.174 HD
ATOM     11  O   UNL A   1      30.342  23.726  27.215  1.00  0.00    -0.275 OA
BRANCH   7  12
ATOM     12  N   UNL A   1      33.069  21.190  24.754  1.00  0.00    -0.319 N 
BRANCH  12  13
ATOM     13  C   UNL A   1      34.213  21.844  24.079  1.00  0.00     0.118 C 
ATOM     14  C   UNL A   1      34.757  23.104  24.766  1.00  0.00     0.027 C 
ENDBRANCH  12  13
BRANCH  12  15
ATOM     15  C   UNL A   1      32.320  20.230  23.962  1.00  0.00     0.177 C 
BRANCH  15  16
ATOM     16  C   UNL A   1      32.493  18.735  24.054  1.00  0.00     0.060 A 
ATOM     17  C   UNL A   1      33.235  18.045  23.097  1.00  0.00     0.026 A 
ATOM     18  N   UNL A   1      32.251  18.214  25.289  1.00  0.00    -0.259 NA
ATOM     19  C   UNL A   1      33.823  16.831  23.453  1.00  0.00     0.004 A 
ATOM     20  C   UNL A   1      32.827  17.035  25.601  1.00  0.00     0.111 A 
ATOM     21  C   UNL A   1      33.637  16.327  24.733  1.00  0.00     0.020 A 
ENDBRANCH  15  16
ENDBRANCH  12  15
ENDBRANCH   7  12
ENDBRANCH   5   6
ENDBRANCH   4   5
ENDBRANCH   3   4
ENDBRANCH   1   3
BRANCH   1  22
ATOM     22  O   UNL A   1      31.544  29.041  23.768  1.00  0.00    -0.462 OA
BRANCH  22  23
ATOM     23  C   UNL A   1      32.410  29.043  24.943  1.00  0.00     0.274 C 
BRANCH  23  24
ATOM     24  C   UNL A   1      31.895  29.995  26.025  1.00  0.00     0.275 C 
BRANCH  24  25
ATOM     25  O   UNL A   1      32.853  30.052  27.086  1.00  0.00    -0.458 OA
BRANCH  25  26
ATOM     26  C   UNL A   1      33.386  31.287  27.264  1.00  0.00     0.338 C 
ATOM     27  O   UNL A   1      32.814  32.352  27.182  1.00  0.00    -0.246 OA
BRANCH  26  28
ATOM     28  C   UNL A   1      34.687  31.085  27.936  1.00  0.00     0.060 A 
ATOM     29  C   UNL A   1      35.001  29.780  28.333  1.00  0.00     0.016 A 
ATOM     30  C   UNL A   1      35.626  32.113  28.051  1.00  0.00     0.016 A 
ATOM     31  C   UNL A   1      36.275  29.479  28.795  1.00  0.00     0.010 A 
ATOM     32  C   UNL A   1      36.880  31.828  28.576  1.00  0.00     0.010 A 
ATOM     33  C   UNL A   1      37.200  30.514  28.956  1.00  0.00    -0.014 A 
BRANCH  33  34
ATOM     34  C   UNL A   1      38.390  30.294  29.793  1.00  0.00     0.031 A 
ATOM     35  C   UNL A   1      39.425  29.357  29.250  1.00  0.00     0.074 A 
ATOM     36  C   UNL A   1      38.514  30.870  30.998  1.00  0.00     0.049 A 
ATOM     37  N   UNL A   1      40.466  28.833  29.838  1.00  0.00    -0.248 NA
ATOM     38  C   UNL A   1      39.255  28.947  27.844  1.00  0.00     0.031 C 
ATOM     39  C   UNL A   1      37.601  31.859  31.564  1.00  0.00     0.029 A 
ATOM     40  N   UNL A   1      39.458  30.677  31.973  1.00  0.00    -0.354 N 
ATOM     41  C   UNL A   1      41.064  28.031  28.878  1.00  0.00     0.074 A 
ATOM     42  C   UNL A   1      40.273  28.123  27.674  1.00  0.00     0.031 C 
ATOM     43  C   UNL A   1      38.011  32.165  32.808  1.00  0.00     0.029 A 
ATOM     44  C   UNL A   1      39.181  31.352  33.137  1.00  0.00     0.049 A 
ATOM     45  H   UNL A   1      40.254  30.111  31.851  1.00  0.00     0.167 HD
ATOM     46  C   UNL A   1      42.172  27.268  29.003  1.00  0.00     0.037 A 
ATOM     47  C   UNL A   1      39.788  31.266  34.337  1.00  0.00     0.037 A 
ATOM     48  C   UNL A   1      42.911  27.152  30.228  1.00  0.00     0.049 A 
ATOM     49  C   UNL A   1      40.948  30.311  34.490  1.00  0.00     0.074 A 
ATOM     50  C   UNL A   1      44.026  26.386  30.497  1.00  0.00     0.029 A 
ATOM     51  N   UNL A   1      42.584  27.821  31.401  1.00  0.00    -0.354 N 
ATOM     52  N   UNL A   1      41.513  29.539  33.590  1.00  0.00    -0.248 NA
ATOM     53  C   UNL A   1      41.544  30.202  35.828  1.00  0.00     0.031 C 
ATOM     54  C   UNL A   1      44.341  26.545  31.849  1.00  0.00     0.029 A 
ATOM     55  C   UNL A   1      43.461  27.462  32.407  1.00  0.00     0.049 A 
ATOM     56  H   UNL A   1      41.838  28.456  31.501  1.00  0.00     0.167 HD
ATOM     57  C   UNL A   1      42.545  28.878  34.241  1.00  0.00     0.074 A 
ATOM     58  C   UNL A   1      42.535  29.348  35.613  1.00  0.00     0.031 C 
ATOM     59  C   UNL A   1      43.425  27.966  33.758  1.00  0.00     0.037 A 
BRANCH  46  60
ATOM     60  C   UNL A   1      42.585  26.464  27.808  1.00  0.00     0.064 A 
ATOM     61  C   UNL A   1      43.538  26.935  26.892  1.00  0.00     0.173 A 
ATOM     62  C   UNL A   1      41.994  25.217  27.556  1.00  0.00     0.173 A 
ATOM     63  F   UNL A   1      44.108  28.136  27.069  1.00  0.00    -0.203 F 
ATOM     64  C   UNL A   1      43.860  26.202  25.752  1.00  0.00     0.198 A 
ATOM     65  C   UNL A   1      42.341  24.472  26.433  1.00  0.00     0.198 A 
ATOM     66  F   UNL A   1      41.066  24.726  28.393  1.00  0.00    -0.203 F 
ATOM     67  F   UNL A   1      44.723  26.702  24.858  1.00  0.00    -0.200 F 
ATOM     68  C   UNL A   1      43.267  24.969  25.527  1.00  0.00     0.200 A 
ATOM     69  F   UNL A   1      41.769  23.280  26.219  1.00  0.00    -0.200 F 
ATOM     70  F   UNL A   1      43.574  24.266  24.429  1.00  0.00    -0.200 F 
ENDBRANCH  46  60
BRANCH  47  71
ATOM     71  C   UNL A   1      39.293  32.065  35.491  1.00  0.00     0.064 A 
ATOM     72  C   UNL A   1      39.707  33.390  35.682  1.00  0.00     0.173 A 
ATOM     73  C   UNL A   1      38.422  31.514  36.445  1.00  0.00     0.173 A 
ATOM     74  F   UNL A   1      40.561  33.955  34.816  1.00  0.00    -0.203 F 
ATOM     75  C   UNL A   1      39.285  34.127  36.789  1.00  0.00     0.198 A 
ATOM     76  C   UNL A   1      37.977  32.260  37.535  1.00  0.00     0.198 A 
ATOM     77  F   UNL A   1      38.001  30.246  36.318  1.00  0.00    -0.203 F 
ATOM     78  F   UNL A   1      39.739  35.375  36.973  1.00  0.00    -0.200 F 
ATOM     79  C   UNL A   1      38.416  33.564  37.710  1.00  0.00     0.200 A 
ATOM     80  F   UNL A   1      37.131  31.714  38.418  1.00  0.00    -0.200 F 
ATOM     81  F   UNL A   1      38.013  34.271  38.774  1.00  0.00    -0.200 F 
ENDBRANCH  47  71
BRANCH  59  82
ATOM     82  C   UNL A   1      44.473  27.449  34.699  1.00  0.00     0.064 A 
ATOM     83  C   UNL A   1      45.659  28.155  34.942  1.00  0.00     0.173 A 
ATOM     84  C   UNL A   1      44.245  26.270  35.426  1.00  0.00     0.173 A 
ATOM     85  F   UNL A   1      45.927  29.281  34.263  1.00  0.00    -0.203 F 
ATOM     86  C   UNL A   1      46.588  27.690  35.869  1.00  0.00     0.198 A 
ATOM     87  C   UNL A   1      45.159  25.827  36.375  1.00  0.00     0.198 A 
ATOM     88  F   UNL A   1      43.118  25.566  35.237  1.00  0.00    -0.203 F 
ATOM     89  F   UNL A   1      47.733  28.358  36.060  1.00  0.00    -0.200 F 
ATOM     90  C   UNL A   1      46.332  26.533  36.593  1.00  0.00     0.200 A 
ATOM     91  F   UNL A   1      44.900  24.722  37.088  1.00  0.00    -0.200 F 
ATOM     92  F   UNL A   1      47.219  26.099  37.498  1.00  0.00    -0.200 F 
ENDBRANCH  59  82
ENDBRANCH  33  34
ENDBRANCH  26  28
ENDBRANCH  25  26
ENDBRANCH  24  25
ENDBRANCH  23  24
ENDBRANCH  22  23
ENDBRANCH   1  22
TORSDOF 18
ENDMDL
