MODEL 1
REMARK VINA RESULT:     -11.3      0.000      0.000
REMARK SMILES CC(C)C[C@H](NC(=O)[C@H](C)NC(=O)[C@@H](NC(=O)CNC(=O)OCc1ccccc1)C(C)C)C(=O)OCCOC(=O)c1ccc(-c2c3nc(c(-c4c(F)c(F)c(F)c(F)c4F)c4ccc([nH]4)c(-c4c(F)c(F)c(F)c(F)c4F)c4nc(c(-c5c(F)c(F)c(F)c(F)c5F)c5ccc2[nH]5)C=C4)C=C3)cc1
REMARK SMILES IDX 6 1 7 2 8 3 5 5 4 6 2 7 1 8 3 9 33 10 34 11 35 12 36 13
REMARK SMILES IDX 37 14 38 15 39 16 40 17 41 18 42 19 103 20 43 21 102 22
REMARK SMILES IDX 44 23 45 24 46 25 96 26 47 27 101 28 95 29 97 30 48 31
REMARK SMILES IDX 100 32 94 33 93 34 49 36 81 37 61 38 80 39 62 40 65 41 79 42
REMARK SMILES IDX 98 43 63 44 64 45 78 47 99 48 66 49 50 50 51 51 59 52 52 53
REMARK SMILES IDX 53 54 57 55 60 56 54 57 55 58 58 59 56 60 82 61 83 62 91 63
REMARK SMILES IDX 84 64 85 65 89 66 92 67 86 68 87 69 90 70 88 71 67 72 68 73
REMARK SMILES IDX 76 74 69 75 70 76 74 77 77 78 71 79 72 80 75 81 73 82 9 83
REMARK SMILES IDX 10 84 11 85 12 86 13 88 14 89 15 90 16 91 17 93 18 94 19 95
REMARK SMILES IDX 20 96 21 98 22 99 23 100 24 101 25 102 29 103 26 104 28 105
REMARK SMILES IDX 27 106 30 107 31 108 32 109
REMARK H PARENT 6 4 97 35 65 46 11 87 15 92 19 97
REMARK Flexibility Score: inf
ROOT
ATOM      1  N   UNL A   1      35.258  22.570  26.531  1.00  0.00    -0.341 N 
ATOM      2  C   UNL A   1      34.299  23.468  26.105  1.00  0.00     0.242 C 
ATOM      3  O   UNL A   1      33.157  23.361  26.556  1.00  0.00    -0.273 OA
ATOM      4  H   UNL A   1      35.645  22.689  27.428  1.00  0.00     0.164 HD
ENDROOT
BRANCH   1   5
ATOM      5  C   UNL A   1      35.733  21.436  25.703  1.00  0.00     0.192 C 
BRANCH   5   6
ATOM      6  C   UNL A   1      34.667  20.825  24.781  1.00  0.00     0.040 C 
BRANCH   6   7
ATOM      7  C   UNL A   1      33.472  20.036  25.333  1.00  0.00    -0.015 C 
ATOM      8  C   UNL A   1      32.145  20.685  24.949  1.00  0.00     0.007 C 
ATOM      9  C   UNL A   1      33.474  18.601  24.778  1.00  0.00     0.007 C 
ENDBRANCH   6   7
ENDBRANCH   5   6
BRANCH   5  10
ATOM     10  C   UNL A   1      37.075  21.730  24.981  1.00  0.00     0.328 C 
ATOM     11  O   UNL A   1      37.137  22.191  23.847  1.00  0.00    -0.250 OA
BRANCH  10  12
ATOM     12  O   UNL A   1      38.180  21.418  25.714  1.00  0.00    -0.461 OA
BRANCH  12  13
ATOM     13  C   UNL A   1      38.960  20.320  25.183  1.00  0.00     0.274 C 
BRANCH  13  14
ATOM     14  C   UNL A   1      39.871  19.645  26.223  1.00  0.00     0.275 C 
BRANCH  14  15
ATOM     15  O   UNL A   1      40.975  18.927  25.633  1.00  0.00    -0.458 OA
BRANCH  15  16
ATOM     16  C   UNL A   1      42.119  18.981  26.354  1.00  0.00     0.338 C 
ATOM     17  O   UNL A   1      42.770  18.029  26.756  1.00  0.00    -0.246 OA
BRANCH  16  18
ATOM     18  C   UNL A   1      42.655  20.352  26.384  1.00  0.00     0.060 A 
ATOM     19  C   UNL A   1      42.628  20.977  27.627  1.00  0.00     0.016 A 
ATOM     20  C   UNL A   1      43.054  21.072  25.267  1.00  0.00     0.016 A 
ATOM     21  C   UNL A   1      43.012  22.289  27.807  1.00  0.00     0.010 A 
ATOM     22  C   UNL A   1      43.437  22.415  25.429  1.00  0.00     0.010 A 
ATOM     23  C   UNL A   1      43.418  23.026  26.702  1.00  0.00    -0.014 A 
BRANCH  23  24
ATOM     24  C   UNL A   1      43.696  24.464  26.902  1.00  0.00     0.031 A 
ATOM     25  C   UNL A   1      45.056  24.991  26.566  1.00  0.00     0.074 A 
ATOM     26  C   UNL A   1      42.707  25.298  27.276  1.00  0.00     0.049 A 
ATOM     27  N   UNL A   1      45.575  26.163  26.814  1.00  0.00    -0.248 NA
ATOM     28  C   UNL A   1      45.955  24.070  25.852  1.00  0.00     0.031 C 
ATOM     29  C   UNL A   1      41.310  24.912  27.487  1.00  0.00     0.029 A 
ATOM     30  N   UNL A   1      42.722  26.645  27.534  1.00  0.00    -0.354 N 
ATOM     31  C   UNL A   1      46.879  26.101  26.345  1.00  0.00     0.074 A 
ATOM     32  C   UNL A   1      47.071  24.781  25.785  1.00  0.00     0.031 C 
ATOM     33  C   UNL A   1      40.605  25.997  27.845  1.00  0.00     0.029 A 
ATOM     34  C   UNL A   1      41.514  27.129  27.972  1.00  0.00     0.049 A 
ATOM     35  H   UNL A   1      43.521  27.208  27.417  1.00  0.00     0.167 HD
ATOM     36  C   UNL A   1      47.828  27.065  26.397  1.00  0.00     0.037 A 
ATOM     37  C   UNL A   1      41.199  28.334  28.479  1.00  0.00     0.037 A 
ATOM     38  C   UNL A   1      47.592  28.383  26.925  1.00  0.00     0.049 A 
ATOM     39  C   UNL A   1      42.289  29.364  28.600  1.00  0.00     0.074 A 
ATOM     40  C   UNL A   1      48.477  29.438  27.048  1.00  0.00     0.029 A 
ATOM     41  N   UNL A   1      46.368  28.825  27.411  1.00  0.00    -0.354 N 
ATOM     42  N   UNL A   1      43.547  29.281  28.239  1.00  0.00    -0.248 NA
ATOM     43  C   UNL A   1      41.922  30.647  29.212  1.00  0.00     0.031 C 
ATOM     44  C   UNL A   1      47.800  30.503  27.652  1.00  0.00     0.029 A 
ATOM     45  C   UNL A   1      46.478  30.132  27.852  1.00  0.00     0.049 A 
ATOM     46  H   UNL A   1      45.543  28.288  27.436  1.00  0.00     0.167 HD
ATOM     47  C   UNL A   1      44.120  30.503  28.561  1.00  0.00     0.074 A 
ATOM     48  C   UNL A   1      43.063  31.317  29.131  1.00  0.00     0.031 C 
ATOM     49  C   UNL A   1      45.402  30.917  28.406  1.00  0.00     0.037 A 
BRANCH  36  50
ATOM     50  C   UNL A   1      49.211  26.701  25.942  1.00  0.00     0.064 A 
ATOM     51  C   UNL A   1      50.134  26.062  26.782  1.00  0.00     0.173 A 
ATOM     52  C   UNL A   1      49.617  27.002  24.632  1.00  0.00     0.173 A 
ATOM     53  F   UNL A   1      49.805  25.772  28.050  1.00  0.00    -0.203 F 
ATOM     54  C   UNL A   1      51.420  25.763  26.337  1.00  0.00     0.198 A 
ATOM     55  C   UNL A   1      50.892  26.674  24.181  1.00  0.00     0.198 A 
ATOM     56  F   UNL A   1      48.775  27.616  23.787  1.00  0.00    -0.203 F 
ATOM     57  F   UNL A   1      52.303  25.202  27.174  1.00  0.00    -0.200 F 
ATOM     58  C   UNL A   1      51.796  26.063  25.036  1.00  0.00     0.200 A 
ATOM     59  F   UNL A   1      51.249  26.958  22.921  1.00  0.00    -0.200 F 
ATOM     60  F   UNL A   1      53.033  25.772  24.608  1.00  0.00    -0.200 F 
ENDBRANCH  36  50
BRANCH  37  61
ATOM     61  C   UNL A   1      39.820  28.601  28.970  1.00  0.00     0.064 A 
ATOM     62  C   UNL A   1      38.836  29.127  28.122  1.00  0.00     0.173 A 
ATOM     63  C   UNL A   1      39.457  28.336  30.300  1.00  0.00     0.173 A 
ATOM     64  F   UNL A   1      39.137  29.423  26.849  1.00  0.00    -0.203 F 
ATOM     65  C   UNL A   1      37.549  29.391  28.589  1.00  0.00     0.198 A 
ATOM     66  C   UNL A   1      38.162  28.568  30.757  1.00  0.00     0.198 A 
ATOM     67  F   UNL A   1      40.359  27.835  31.156  1.00  0.00    -0.203 F 
ATOM     68  F   UNL A   1      36.640  29.937  27.769  1.00  0.00    -0.200 F 
ATOM     69  C   UNL A   1      37.210  29.103  29.903  1.00  0.00     0.200 A 
ATOM     70  F   UNL A   1      37.836  28.273  32.022  1.00  0.00    -0.200 F 
ATOM     71  F   UNL A   1      35.970  29.348  30.348  1.00  0.00    -0.200 F 
ENDBRANCH  37  61
BRANCH  49  72
ATOM     72  C   UNL A   1      45.718  32.324  28.818  1.00  0.00     0.064 A 
ATOM     73  C   UNL A   1      46.153  32.631  30.115  1.00  0.00     0.173 A 
ATOM     74  C   UNL A   1      45.622  33.370  27.888  1.00  0.00     0.173 A 
ATOM     75  F   UNL A   1      46.244  31.668  31.044  1.00  0.00    -0.203 F 
ATOM     76  C   UNL A   1      46.458  33.942  30.472  1.00  0.00     0.198 A 
ATOM     77  C   UNL A   1      45.960  34.672  28.240  1.00  0.00     0.198 A 
ATOM     78  F   UNL A   1      45.217  33.124  26.633  1.00  0.00    -0.203 F 
ATOM     79  F   UNL A   1      46.825  34.222  31.730  1.00  0.00    -0.200 F 
ATOM     80  C   UNL A   1      46.369  34.958  29.532  1.00  0.00     0.200 A 
ATOM     81  F   UNL A   1      45.889  35.650  27.327  1.00  0.00    -0.200 F 
ATOM     82  F   UNL A   1      46.674  36.217  29.877  1.00  0.00    -0.200 F 
ENDBRANCH  49  72
ENDBRANCH  23  24
ENDBRANCH  16  18
ENDBRANCH  15  16
ENDBRANCH  14  15
ENDBRANCH  13  14
ENDBRANCH  12  13
ENDBRANCH  10  12
ENDBRANCH   5  10
ENDBRANCH   1   5
BRANCH   2  83
ATOM     83  C   UNL A   1      34.773  24.759  25.395  1.00  0.00     0.168 C 
ATOM     84  C   UNL A   1      34.099  25.998  25.984  1.00  0.00     0.041 C 
BRANCH  83  85
ATOM     85  N   UNL A   1      34.624  24.763  23.954  1.00  0.00    -0.343 N 
ATOM     86  C   UNL A   1      33.628  25.232  23.158  1.00  0.00     0.243 C 
ATOM     87  H   UNL A   1      35.376  24.354  23.468  1.00  0.00     0.164 HD
ATOM     88  O   UNL A   1      33.830  25.137  21.940  1.00  0.00    -0.273 OA
BRANCH  86  89
ATOM     89  C   UNL A   1      32.293  25.848  23.671  1.00  0.00     0.174 C 
BRANCH  89  90
ATOM     90  N   UNL A   1      32.195  27.203  23.064  1.00  0.00    -0.343 N 
ATOM     91  C   UNL A   1      31.953  28.470  23.496  1.00  0.00     0.240 C 
ATOM     92  H   UNL A   1      32.346  27.175  22.091  1.00  0.00     0.164 HD
ATOM     93  O   UNL A   1      31.600  29.270  22.620  1.00  0.00    -0.273 OA
BRANCH  91  94
ATOM     94  C   UNL A   1      32.010  28.942  24.971  1.00  0.00     0.219 C 
BRANCH  94  95
ATOM     95  N   UNL A   1      31.590  30.326  25.134  1.00  0.00    -0.312 N 
ATOM     96  C   UNL A   1      31.689  31.153  26.221  1.00  0.00     0.407 C 
ATOM     97  H   UNL A   1      31.171  30.730  24.340  1.00  0.00     0.167 HD
ATOM     98  O   UNL A   1      31.028  32.168  26.257  1.00  0.00    -0.225 OA
BRANCH  96  99
ATOM     99  O   UNL A   1      32.488  30.695  27.222  1.00  0.00    -0.445 OA
BRANCH  99 100
ATOM    100  C   UNL A   1      33.779  31.332  27.358  1.00  0.00     0.270 C 
BRANCH 100 101
ATOM    101  C   UNL A   1      33.958  32.455  28.360  1.00  0.00    -0.011 A 
ATOM    102  C   UNL A   1      33.380  33.715  28.157  1.00  0.00     0.007 A 
ATOM    103  C   UNL A   1      34.805  32.287  29.468  1.00  0.00     0.007 A 
ATOM    104  C   UNL A   1      33.646  34.770  29.040  1.00  0.00     0.000 A 
ATOM    105  C   UNL A   1      35.057  33.332  30.357  1.00  0.00     0.000 A 
ATOM    106  C   UNL A   1      34.480  34.578  30.140  1.00  0.00     0.000 A 
ENDBRANCH 100 101
ENDBRANCH  99 100
ENDBRANCH  96  99
ENDBRANCH  94  95
ENDBRANCH  91  94
ENDBRANCH  89  90
BRANCH  89 107
ATOM    107  C   UNL A   1      30.938  25.110  23.784  1.00  0.00     0.015 C 
ATOM    108  C   UNL A   1      30.658  23.698  23.284  1.00  0.00     0.010 C 
ATOM    109  C   UNL A   1      30.526  25.109  25.268  1.00  0.00     0.010 C 
ENDBRANCH  89 107
ENDBRANCH  86  89
ENDBRANCH  83  85
ENDBRANCH   2  83
TORSDOF 24
ENDMDL
MODEL 2
REMARK VINA RESULT:     -11.0      4.264      6.703
REMARK SMILES CC(C)C[C@H](NC(=O)[C@H](C)NC(=O)[C@@H](NC(=O)CNC(=O)OCc1ccccc1)C(C)C)C(=O)OCCOC(=O)c1ccc(-c2c3nc(c(-c4c(F)c(F)c(F)c(F)c4F)c4ccc([nH]4)c(-c4c(F)c(F)c(F)c(F)c4F)c4nc(c(-c5c(F)c(F)c(F)c(F)c5F)c5ccc2[nH]5)C=C4)C=C3)cc1
REMARK SMILES IDX 6 1 7 2 8 3 5 5 4 6 2 7 1 8 3 9 33 10 34 11 35 12 36 13
REMARK SMILES IDX 37 14 38 15 39 16 40 17 41 18 42 19 103 20 43 21 102 22
REMARK SMILES IDX 44 23 45 24 46 25 96 26 47 27 101 28 95 29 97 30 48 31
REMARK SMILES IDX 100 32 94 33 93 34 49 36 81 37 61 38 80 39 62 40 65 41 79 42
REMARK SMILES IDX 98 43 63 44 64 45 78 47 99 48 66 49 50 50 51 51 59 52 52 53
REMARK SMILES IDX 53 54 57 55 60 56 54 57 55 58 58 59 56 60 82 61 83 62 91 63
REMARK SMILES IDX 84 64 85 65 89 66 92 67 86 68 87 69 90 70 88 71 67 72 68 73
REMARK SMILES IDX 76 74 69 75 70 76 74 77 77 78 71 79 72 80 75 81 73 82 9 83
REMARK SMILES IDX 10 84 11 85 12 86 13 88 14 89 15 90 16 91 17 93 18 94 19 95
REMARK SMILES IDX 20 96 21 98 22 99 23 100 24 101 25 102 29 103 26 104 28 105
REMARK SMILES IDX 27 106 30 107 31 108 32 109
REMARK H PARENT 6 4 97 35 65 46 11 87 15 92 19 97
REMARK Flexibility Score: inf
ROOT
ATOM      1  N   UNL A   1      33.427  21.046  25.422  1.00  0.00    -0.341 N 
ATOM      2  C   UNL A   1      32.246  21.154  24.715  1.00  0.00     0.242 C 
ATOM      3  O   UNL A   1      31.190  20.916  25.303  1.00  0.00    -0.273 OA
ATOM      4  H   UNL A   1      33.665  21.764  26.052  1.00  0.00     0.164 HD
ENDROOT
BRANCH   1   5
ATOM      5  C   UNL A   1      34.358  19.900  25.278  1.00  0.00     0.192 C 
BRANCH   5   6
ATOM      6  C   UNL A   1      33.868  18.792  24.333  1.00  0.00     0.040 C 
BRANCH   6   7
ATOM      7  C   UNL A   1      33.933  17.308  24.720  1.00  0.00    -0.015 C 
ATOM      8  C   UNL A   1      32.760  16.909  25.612  1.00  0.00     0.007 C 
ATOM      9  C   UNL A   1      33.892  16.423  23.462  1.00  0.00     0.007 C 
ENDBRANCH   6   7
ENDBRANCH   5   6
BRANCH   5  10
ATOM     10  C   UNL A   1      35.822  20.336  25.007  1.00  0.00     0.328 C 
ATOM     11  O   UNL A   1      36.748  19.540  24.899  1.00  0.00    -0.250 OA
BRANCH  10  12
ATOM     12  O   UNL A   1      35.992  21.685  24.914  1.00  0.00    -0.461 OA
BRANCH  12  13
ATOM     13  C   UNL A   1      37.327  22.143  25.233  1.00  0.00     0.274 C 
BRANCH  13  14
ATOM     14  C   UNL A   1      37.370  23.548  25.858  1.00  0.00     0.275 C 
BRANCH  14  15
ATOM     15  O   UNL A   1      38.602  24.252  25.595  1.00  0.00    -0.458 OA
BRANCH  15  16
ATOM     16  C   UNL A   1      39.543  24.099  26.556  1.00  0.00     0.338 C 
ATOM     17  O   UNL A   1      40.409  23.238  26.593  1.00  0.00    -0.246 OA
BRANCH  16  18
ATOM     18  C   UNL A   1      39.579  25.271  27.447  1.00  0.00     0.060 A 
ATOM     19  C   UNL A   1      40.296  26.362  26.969  1.00  0.00     0.016 A 
ATOM     20  C   UNL A   1      39.065  25.302  28.736  1.00  0.00     0.016 A 
ATOM     21  C   UNL A   1      40.499  27.503  27.717  1.00  0.00     0.010 A 
ATOM     22  C   UNL A   1      39.273  26.452  29.518  1.00  0.00     0.010 A 
ATOM     23  C   UNL A   1      39.989  27.556  29.008  1.00  0.00    -0.014 A 
BRANCH  23  24
ATOM     24  C   UNL A   1      40.335  28.734  29.832  1.00  0.00     0.031 A 
ATOM     25  C   UNL A   1      41.719  28.843  30.393  1.00  0.00     0.074 A 
ATOM     26  C   UNL A   1      39.452  29.739  29.980  1.00  0.00     0.049 A 
ATOM     27  N   UNL A   1      42.194  29.686  31.269  1.00  0.00    -0.248 NA
ATOM     28  C   UNL A   1      42.703  27.866  29.898  1.00  0.00     0.031 C 
ATOM     29  C   UNL A   1      38.128  29.801  29.354  1.00  0.00     0.029 A 
ATOM     30  N   UNL A   1      39.536  30.907  30.694  1.00  0.00    -0.354 N 
ATOM     31  C   UNL A   1      43.512  29.305  31.478  1.00  0.00     0.074 A 
ATOM     32  C   UNL A   1      43.767  28.162  30.629  1.00  0.00     0.031 C 
ATOM     33  C   UNL A   1      37.526  30.945  29.715  1.00  0.00     0.029 A 
ATOM     34  C   UNL A   1      38.381  31.650  30.661  1.00  0.00     0.049 A 
ATOM     35  H   UNL A   1      40.345  31.184  31.182  1.00  0.00     0.167 HD
ATOM     36  C   UNL A   1      44.414  29.860  32.320  1.00  0.00     0.037 A 
ATOM     37  C   UNL A   1      38.035  32.741  31.369  1.00  0.00     0.037 A 
ATOM     38  C   UNL A   1      44.139  31.023  33.123  1.00  0.00     0.049 A 
ATOM     39  C   UNL A   1      39.026  33.294  32.356  1.00  0.00     0.074 A 
ATOM     40  C   UNL A   1      44.965  31.667  34.025  1.00  0.00     0.029 A 
ATOM     41  N   UNL A   1      42.939  31.722  33.105  1.00  0.00    -0.354 N 
ATOM     42  N   UNL A   1      40.244  32.884  32.623  1.00  0.00    -0.248 NA
ATOM     43  C   UNL A   1      38.593  34.449  33.152  1.00  0.00     0.031 C 
ATOM     44  C   UNL A   1      44.247  32.727  34.590  1.00  0.00     0.029 A 
ATOM     45  C   UNL A   1      42.994  32.780  33.996  1.00  0.00     0.049 A 
ATOM     46  H   UNL A   1      42.163  31.498  32.541  1.00  0.00     0.167 HD
ATOM     47  C   UNL A   1      40.730  33.738  33.602  1.00  0.00     0.074 A 
ATOM     48  C   UNL A   1      39.679  34.702  33.868  1.00  0.00     0.031 C 
ATOM     49  C   UNL A   1      41.932  33.727  34.229  1.00  0.00     0.037 A 
BRANCH  36  50
ATOM     50  C   UNL A   1      45.740  29.173  32.466  1.00  0.00     0.064 A 
ATOM     51  C   UNL A   1      46.851  29.510  31.679  1.00  0.00     0.173 A 
ATOM     52  C   UNL A   1      45.898  28.155  33.420  1.00  0.00     0.173 A 
ATOM     53  F   UNL A   1      46.748  30.461  30.739  1.00  0.00    -0.203 F 
ATOM     54  C   UNL A   1      48.061  28.834  31.822  1.00  0.00     0.198 A 
ATOM     55  C   UNL A   1      47.117  27.502  33.580  1.00  0.00     0.198 A 
ATOM     56  F   UNL A   1      44.867  27.791  34.197  1.00  0.00    -0.203 F 
ATOM     57  F   UNL A   1      49.093  29.135  31.022  1.00  0.00    -0.200 F 
ATOM     58  C   UNL A   1      48.195  27.836  32.776  1.00  0.00     0.200 A 
ATOM     59  F   UNL A   1      47.245  26.545  34.509  1.00  0.00    -0.200 F 
ATOM     60  F   UNL A   1      49.361  27.188  32.914  1.00  0.00    -0.200 F 
ENDBRANCH  36  50
BRANCH  37  61
ATOM     61  C   UNL A   1      36.678  33.329  31.217  1.00  0.00     0.064 A 
ATOM     62  C   UNL A   1      35.708  33.189  32.220  1.00  0.00     0.173 A 
ATOM     63  C   UNL A   1      36.318  34.043  30.063  1.00  0.00     0.173 A 
ATOM     64  F   UNL A   1      35.991  32.494  33.332  1.00  0.00    -0.203 F 
ATOM     65  C   UNL A   1      34.431  33.727  32.068  1.00  0.00     0.198 A 
ATOM     66  C   UNL A   1      35.053  34.610  29.926  1.00  0.00     0.198 A 
ATOM     67  F   UNL A   1      37.204  34.205  29.070  1.00  0.00    -0.203 F 
ATOM     68  F   UNL A   1      33.509  33.540  33.023  1.00  0.00    -0.200 F 
ATOM     69  C   UNL A   1      34.107  34.445  30.926  1.00  0.00     0.200 A 
ATOM     70  F   UNL A   1      34.751  35.315  28.828  1.00  0.00    -0.200 F 
ATOM     71  F   UNL A   1      32.883  34.970  30.785  1.00  0.00    -0.200 F 
ENDBRANCH  37  61
BRANCH  49  72
ATOM     72  C   UNL A   1      42.187  34.815  35.229  1.00  0.00     0.064 A 
ATOM     73  C   UNL A   1      41.921  34.638  36.594  1.00  0.00     0.173 A 
ATOM     74  C   UNL A   1      42.746  36.035  34.818  1.00  0.00     0.173 A 
ATOM     75  F   UNL A   1      41.372  33.496  37.034  1.00  0.00    -0.203 F 
ATOM     76  C   UNL A   1      42.183  35.655  37.508  1.00  0.00     0.198 A 
ATOM     77  C   UNL A   1      43.036  37.035  35.739  1.00  0.00     0.198 A 
ATOM     78  F   UNL A   1      43.024  36.248  33.523  1.00  0.00    -0.203 F 
ATOM     79  F   UNL A   1      41.875  35.484  38.802  1.00  0.00    -0.200 F 
ATOM     80  C   UNL A   1      42.747  36.847  37.081  1.00  0.00     0.200 A 
ATOM     81  F   UNL A   1      43.596  38.181  35.327  1.00  0.00    -0.200 F 
ATOM     82  F   UNL A   1      43.007  37.820  37.966  1.00  0.00    -0.200 F 
ENDBRANCH  49  72
ENDBRANCH  23  24
ENDBRANCH  16  18
ENDBRANCH  15  16
ENDBRANCH  14  15
ENDBRANCH  13  14
ENDBRANCH  12  13
ENDBRANCH  10  12
ENDBRANCH   5  10
ENDBRANCH   1   5
BRANCH   2  83
ATOM     83  C   UNL A   1      32.270  21.911  23.366  1.00  0.00     0.168 C 
ATOM     84  C   UNL A   1      32.000  20.967  22.194  1.00  0.00     0.041 C 
BRANCH  83  85
ATOM     85  N   UNL A   1      33.471  22.677  23.107  1.00  0.00    -0.343 N 
ATOM     86  C   UNL A   1      33.767  23.984  23.335  1.00  0.00     0.243 C 
ATOM     87  H   UNL A   1      34.200  22.161  22.693  1.00  0.00     0.164 HD
ATOM     88  O   UNL A   1      34.923  24.326  23.050  1.00  0.00    -0.273 OA
BRANCH  86  89
ATOM     89  C   UNL A   1      32.769  25.037  23.901  1.00  0.00     0.174 C 
BRANCH  89  90
ATOM     90  N   UNL A   1      32.289  24.503  25.204  1.00  0.00    -0.343 N 
ATOM     91  C   UNL A   1      31.482  24.926  26.214  1.00  0.00     0.240 C 
ATOM     92  H   UNL A   1      32.653  23.605  25.383  1.00  0.00     0.164 HD
ATOM     93  O   UNL A   1      31.629  24.334  27.291  1.00  0.00    -0.273 OA
BRANCH  91  94
ATOM     94  C   UNL A   1      30.486  26.109  26.132  1.00  0.00     0.219 C 
BRANCH  94  95
ATOM     95  N   UNL A   1      29.409  25.872  25.184  1.00  0.00    -0.312 N 
ATOM     96  C   UNL A   1      28.911  26.681  24.197  1.00  0.00     0.407 C 
ATOM     97  H   UNL A   1      28.970  24.994  25.264  1.00  0.00     0.167 HD
ATOM     98  O   UNL A   1      27.832  26.424  23.707  1.00  0.00    -0.225 OA
BRANCH  96  99
ATOM     99  O   UNL A   1      29.668  27.774  23.912  1.00  0.00    -0.445 OA
BRANCH  99 100
ATOM    100  C   UNL A   1      29.470  28.371  22.610  1.00  0.00     0.270 C 
BRANCH 100 101
ATOM    101  C   UNL A   1      29.147  29.848  22.505  1.00  0.00    -0.011 A 
ATOM    102  C   UNL A   1      29.271  30.703  23.609  1.00  0.00     0.007 A 
ATOM    103  C   UNL A   1      28.605  30.373  21.321  1.00  0.00     0.007 A 
ATOM    104  C   UNL A   1      28.865  32.041  23.521  1.00  0.00     0.000 A 
ATOM    105  C   UNL A   1      28.216  31.710  21.228  1.00  0.00     0.000 A 
ATOM    106  C   UNL A   1      28.342  32.545  22.331  1.00  0.00     0.000 A 
ENDBRANCH 100 101
ENDBRANCH  99 100
ENDBRANCH  96  99
ENDBRANCH  94  95
ENDBRANCH  91  94
ENDBRANCH  89  90
BRANCH  89 107
ATOM    107  C   UNL A   1      32.964  26.572  23.883  1.00  0.00     0.015 C 
ATOM    108  C   UNL A   1      33.945  27.347  24.754  1.00  0.00     0.010 C 
ATOM    109  C   UNL A   1      33.284  26.987  22.435  1.00  0.00     0.010 C 
ENDBRANCH  89 107
ENDBRANCH  86  89
ENDBRANCH  83  85
ENDBRANCH   2  83
TORSDOF 24
ENDMDL
MODEL 3
REMARK VINA RESULT:     -10.0      4.770      9.220
REMARK SMILES CC(C)C[C@H](NC(=O)[C@H](C)NC(=O)[C@@H](NC(=O)CNC(=O)OCc1ccccc1)C(C)C)C(=O)OCCOC(=O)c1ccc(-c2c3nc(c(-c4c(F)c(F)c(F)c(F)c4F)c4ccc([nH]4)c(-c4c(F)c(F)c(F)c(F)c4F)c4nc(c(-c5c(F)c(F)c(F)c(F)c5F)c5ccc2[nH]5)C=C4)C=C3)cc1
REMARK SMILES IDX 6 1 7 2 8 3 5 5 4 6 2 7 1 8 3 9 33 10 34 11 35 12 36 13
REMARK SMILES IDX 37 14 38 15 39 16 40 17 41 18 42 19 103 20 43 21 102 22
REMARK SMILES IDX 44 23 45 24 46 25 96 26 47 27 101 28 95 29 97 30 48 31
REMARK SMILES IDX 100 32 94 33 93 34 49 36 81 37 61 38 80 39 62 40 65 41 79 42
REMARK SMILES IDX 98 43 63 44 64 45 78 47 99 48 66 49 50 50 51 51 59 52 52 53
REMARK SMILES IDX 53 54 57 55 60 56 54 57 55 58 58 59 56 60 82 61 83 62 91 63
REMARK SMILES IDX 84 64 85 65 89 66 92 67 86 68 87 69 90 70 88 71 67 72 68 73
REMARK SMILES IDX 76 74 69 75 70 76 74 77 77 78 71 79 72 80 75 81 73 82 9 83
REMARK SMILES IDX 10 84 11 85 12 86 13 88 14 89 15 90 16 91 17 93 18 94 19 95
REMARK SMILES IDX 20 96 21 98 22 99 23 100 24 101 25 102 29 103 26 104 28 105
REMARK SMILES IDX 27 106 30 107 31 108 32 109
REMARK H PARENT 6 4 97 35 65 46 11 87 15 92 19 97
REMARK Flexibility Score: inf
ROOT
ATOM      1  N   UNL A   1      38.280  22.119  24.779  1.00  0.00    -0.341 N 
ATOM      2  C   UNL A   1      37.083  22.803  24.709  1.00  0.00     0.242 C 
ATOM      3  O   UNL A   1      36.946  23.652  23.827  1.00  0.00    -0.273 OA
ATOM      4  H   UNL A   1      38.451  21.405  24.124  1.00  0.00     0.164 HD
ENDROOT
BRANCH   1   5
ATOM      5  C   UNL A   1      39.322  22.407  25.796  1.00  0.00     0.192 C 
BRANCH   5   6
ATOM      6  C   UNL A   1      38.828  23.206  27.010  1.00  0.00     0.040 C 
BRANCH   6   7
ATOM      7  C   UNL A   1      39.630  24.380  27.590  1.00  0.00    -0.015 C 
ATOM      8  C   UNL A   1      40.314  25.189  26.491  1.00  0.00     0.007 C 
ATOM      9  C   UNL A   1      38.703  25.331  28.368  1.00  0.00     0.007 C 
ENDBRANCH   6   7
ENDBRANCH   5   6
BRANCH   5  10
ATOM     10  C   UNL A   1      40.157  21.157  26.180  1.00  0.00     0.328 C 
ATOM     11  O   UNL A   1      39.714  20.015  26.128  1.00  0.00    -0.250 OA
BRANCH  10  12
ATOM     12  O   UNL A   1      41.424  21.441  26.595  1.00  0.00    -0.461 OA
BRANCH  12  13
ATOM     13  C   UNL A   1      42.210  22.194  25.641  1.00  0.00     0.274 C 
BRANCH  13  14
ATOM     14  C   UNL A   1      43.729  22.072  25.854  1.00  0.00     0.275 C 
BRANCH  14  15
ATOM     15  O   UNL A   1      44.250  23.025  26.804  1.00  0.00    -0.458 OA
BRANCH  15  16
ATOM     16  C   UNL A   1      44.314  24.294  26.338  1.00  0.00     0.338 C 
ATOM     17  O   UNL A   1      44.366  24.635  25.166  1.00  0.00    -0.246 OA
BRANCH  16  18
ATOM     18  C   UNL A   1      44.045  25.262  27.414  1.00  0.00     0.060 A 
ATOM     19  C   UNL A   1      43.386  24.750  28.526  1.00  0.00     0.016 A 
ATOM     20  C   UNL A   1      44.290  26.626  27.333  1.00  0.00     0.016 A 
ATOM     21  C   UNL A   1      42.984  25.542  29.581  1.00  0.00     0.010 A 
ATOM     22  C   UNL A   1      43.875  27.451  28.394  1.00  0.00     0.010 A 
ATOM     23  C   UNL A   1      43.223  26.909  29.522  1.00  0.00    -0.014 A 
BRANCH  23  24
ATOM     24  C   UNL A   1      42.664  27.749  30.602  1.00  0.00     0.031 A 
ATOM     25  C   UNL A   1      41.352  28.435  30.379  1.00  0.00     0.074 A 
ATOM     26  C   UNL A   1      43.273  27.804  31.801  1.00  0.00     0.049 A 
ATOM     27  N   UNL A   1      40.757  29.343  31.104  1.00  0.00    -0.248 NA
ATOM     28  C   UNL A   1      40.608  28.044  29.169  1.00  0.00     0.031 C 
ATOM     29  C   UNL A   1      44.478  27.057  32.172  1.00  0.00     0.029 A 
ATOM     30  N   UNL A   1      42.959  28.510  32.934  1.00  0.00    -0.354 N 
ATOM     31  C   UNL A   1      39.602  29.678  30.411  1.00  0.00     0.074 A 
ATOM     32  C   UNL A   1      39.571  28.868  29.214  1.00  0.00     0.031 C 
ATOM     33  C   UNL A   1      44.801  27.348  33.442  1.00  0.00     0.029 A 
ATOM     34  C   UNL A   1      43.881  28.362  33.941  1.00  0.00     0.049 A 
ATOM     35  H   UNL A   1      42.152  29.068  33.015  1.00  0.00     0.167 HD
ATOM     36  C   UNL A   1      38.666  30.594  30.750  1.00  0.00     0.037 A 
ATOM     37  C   UNL A   1      43.999  29.023  35.107  1.00  0.00     0.037 A 
ATOM     38  C   UNL A   1      38.707  31.356  31.971  1.00  0.00     0.049 A 
ATOM     39  C   UNL A   1      42.991  30.093  35.426  1.00  0.00     0.074 A 
ATOM     40  C   UNL A   1      37.827  32.325  32.417  1.00  0.00     0.029 A 
ATOM     41  N   UNL A   1      39.685  31.219  32.948  1.00  0.00    -0.354 N 
ATOM     42  N   UNL A   1      41.945  30.476  34.733  1.00  0.00    -0.248 NA
ATOM     43  C   UNL A   1      43.186  30.833  36.679  1.00  0.00     0.031 C 
ATOM     44  C   UNL A   1      38.300  32.809  33.642  1.00  0.00     0.029 A 
ATOM     45  C   UNL A   1      39.442  32.101  33.987  1.00  0.00     0.049 A 
ATOM     46  H   UNL A   1      40.440  30.588  32.908  1.00  0.00     0.167 HD
ATOM     47  C   UNL A   1      41.347  31.487  35.470  1.00  0.00     0.074 A 
ATOM     48  C   UNL A   1      42.138  31.644  36.675  1.00  0.00     0.031 C 
ATOM     49  C   UNL A   1      40.246  32.223  35.179  1.00  0.00     0.037 A 
BRANCH  36  50
ATOM     50  C   UNL A   1      37.575  30.870  29.758  1.00  0.00     0.064 A 
ATOM     51  C   UNL A   1      37.504  32.069  29.034  1.00  0.00     0.173 A 
ATOM     52  C   UNL A   1      36.579  29.907  29.529  1.00  0.00     0.173 A 
ATOM     53  F   UNL A   1      38.418  33.031  29.230  1.00  0.00    -0.203 F 
ATOM     54  C   UNL A   1      36.462  32.304  28.139  1.00  0.00     0.198 A 
ATOM     55  C   UNL A   1      35.556  30.133  28.613  1.00  0.00     0.198 A 
ATOM     56  F   UNL A   1      36.597  28.744  30.197  1.00  0.00    -0.203 F 
ATOM     57  F   UNL A   1      36.383  33.479  27.499  1.00  0.00    -0.200 F 
ATOM     58  C   UNL A   1      35.493  31.335  27.925  1.00  0.00     0.200 A 
ATOM     59  F   UNL A   1      34.628  29.191  28.402  1.00  0.00    -0.200 F 
ATOM     60  F   UNL A   1      34.493  31.562  27.062  1.00  0.00    -0.200 F 
ENDBRANCH  36  50
BRANCH  37  61
ATOM     61  C   UNL A   1      45.145  28.740  36.012  1.00  0.00     0.064 A 
ATOM     62  C   UNL A   1      46.373  29.400  35.860  1.00  0.00     0.173 A 
ATOM     63  C   UNL A   1      45.039  27.799  37.049  1.00  0.00     0.173 A 
ATOM     64  F   UNL A   1      46.536  30.289  34.869  1.00  0.00    -0.203 F 
ATOM     65  C   UNL A   1      47.450  29.120  36.699  1.00  0.00     0.198 A 
ATOM     66  C   UNL A   1      46.105  27.545  37.909  1.00  0.00     0.198 A 
ATOM     67  F   UNL A   1      43.890  27.135  37.239  1.00  0.00    -0.203 F 
ATOM     68  F   UNL A   1      48.626  29.733  36.504  1.00  0.00    -0.200 F 
ATOM     69  C   UNL A   1      47.313  28.200  37.728  1.00  0.00     0.200 A 
ATOM     70  F   UNL A   1      45.962  26.667  38.910  1.00  0.00    -0.200 F 
ATOM     71  F   UNL A   1      48.346  27.939  38.540  1.00  0.00    -0.200 F 
ENDBRANCH  37  61
BRANCH  49  72
ATOM     72  C   UNL A   1      39.812  33.232  36.201  1.00  0.00     0.064 A 
ATOM     73  C   UNL A   1      38.903  32.907  37.217  1.00  0.00     0.173 A 
ATOM     74  C   UNL A   1      40.348  34.529  36.183  1.00  0.00     0.173 A 
ATOM     75  F   UNL A   1      38.351  31.685  37.265  1.00  0.00    -0.203 F 
ATOM     76  C   UNL A   1      38.527  33.854  38.166  1.00  0.00     0.198 A 
ATOM     77  C   UNL A   1      39.995  35.461  37.152  1.00  0.00     0.198 A 
ATOM     78  F   UNL A   1      41.226  34.884  35.234  1.00  0.00    -0.203 F 
ATOM     79  F   UNL A   1      37.619  33.538  39.100  1.00  0.00    -0.200 F 
ATOM     80  C   UNL A   1      39.079  35.126  38.138  1.00  0.00     0.200 A 
ATOM     81  F   UNL A   1      40.541  36.684  37.133  1.00  0.00    -0.200 F 
ATOM     82  F   UNL A   1      38.723  36.031  39.059  1.00  0.00    -0.200 F 
ENDBRANCH  49  72
ENDBRANCH  23  24
ENDBRANCH  16  18
ENDBRANCH  15  16
ENDBRANCH  14  15
ENDBRANCH  13  14
ENDBRANCH  12  13
ENDBRANCH  10  12
ENDBRANCH   5  10
ENDBRANCH   1   5
BRANCH   2  83
ATOM     83  C   UNL A   1      35.868  22.229  25.477  1.00  0.00     0.168 C 
ATOM     84  C   UNL A   1      35.958  22.536  26.971  1.00  0.00     0.041 C 
BRANCH  83  85
ATOM     85  N   UNL A   1      35.627  20.814  25.284  1.00  0.00    -0.343 N 
ATOM     86  C   UNL A   1      34.492  20.132  24.978  1.00  0.00     0.243 C 
ATOM     87  H   UNL A   1      36.425  20.247  25.395  1.00  0.00     0.164 HD
ATOM     88  O   UNL A   1      34.630  18.911  24.821  1.00  0.00    -0.273 OA
BRANCH  86  89
ATOM     89  C   UNL A   1      33.080  20.773  24.831  1.00  0.00     0.174 C 
BRANCH  89  90
ATOM     90  N   UNL A   1      32.681  21.225  26.191  1.00  0.00    -0.343 N 
ATOM     91  C   UNL A   1      32.533  22.412  26.839  1.00  0.00     0.240 C 
ATOM     92  H   UNL A   1      32.467  20.463  26.778  1.00  0.00     0.164 HD
ATOM     93  O   UNL A   1      32.532  22.344  28.075  1.00  0.00    -0.273 OA
BRANCH  91  94
ATOM     94  C   UNL A   1      32.448  23.802  26.159  1.00  0.00     0.219 C 
BRANCH  94  95
ATOM     95  N   UNL A   1      31.080  24.276  26.019  1.00  0.00    -0.312 N 
ATOM     96  C   UNL A   1      30.531  25.489  26.343  1.00  0.00     0.407 C 
ATOM     97  H   UNL A   1      30.451  23.625  25.632  1.00  0.00     0.167 HD
ATOM     98  O   UNL A   1      29.326  25.594  26.421  1.00  0.00    -0.225 OA
BRANCH  96  99
ATOM     99  O   UNL A   1      31.429  26.468  26.633  1.00  0.00    -0.445 OA
BRANCH  99 100
ATOM    100  C   UNL A   1      31.395  27.643  25.790  1.00  0.00     0.270 C 
BRANCH 100 101
ATOM    101  C   UNL A   1      32.326  27.736  24.598  1.00  0.00    -0.011 A 
ATOM    102  C   UNL A   1      32.889  28.958  24.204  1.00  0.00     0.007 A 
ATOM    103  C   UNL A   1      32.559  26.611  23.790  1.00  0.00     0.007 A 
ATOM    104  C   UNL A   1      33.660  29.043  23.038  1.00  0.00     0.000 A 
ATOM    105  C   UNL A   1      33.341  26.692  22.638  1.00  0.00     0.000 A 
ATOM    106  C   UNL A   1      33.889  27.911  22.258  1.00  0.00     0.000 A 
ENDBRANCH 100 101
ENDBRANCH  99 100
ENDBRANCH  96  99
ENDBRANCH  94  95
ENDBRANCH  91  94
ENDBRANCH  89  90
BRANCH  89 107
ATOM    107  C   UNL A   1      32.629  21.720  23.695  1.00  0.00     0.015 C 
ATOM    108  C   UNL A   1      33.513  22.748  22.999  1.00  0.00     0.010 C 
ATOM    109  C   UNL A   1      32.043  20.852  22.565  1.00  0.00     0.010 C 
ENDBRANCH  89 107
ENDBRANCH  86  89
ENDBRANCH  83  85
ENDBRANCH   2  83
TORSDOF 24
ENDMDL
