MODEL 1
REMARK VINA RESULT:     -10.8      0.000      0.000
REMARK SMILES Cn1ncc2c(NCCC3=CCCCC3)c(C(=O)OCCOC(=O)c3ccc(-c4c5nc(c(-c6c(F)c(F)c(F)c(F)c6F)c6ccc([nH]6)c(-c6c(F)c(F)c(F)c(F)c6F)c6nc(c(-c7c(F)c(F)c(F)c(F)c7F)c7ccc4[nH]7)C=C6)C=C5)cc3)cnc21
REMARK SMILES IDX 20 1 19 2 17 3 18 4 16 5 1 6 2 7 3 8 90 9 4 10 5 11 89 12
REMARK SMILES IDX 6 13 88 14 7 15 8 17 9 18 10 19 11 20 15 21 12 22 14 23
REMARK SMILES IDX 13 24 21 25 22 26 23 27 24 28 25 29 26 30 87 31 27 32 86 33
REMARK SMILES IDX 28 34 29 35 30 36 80 37 31 38 85 39 79 40 81 41 32 42 84 43
REMARK SMILES IDX 78 44 77 45 33 47 65 48 45 49 64 50 46 51 49 52 63 53 82 54
REMARK SMILES IDX 47 55 48 56 62 58 83 59 50 60 34 61 35 62 43 63 36 64 37 65
REMARK SMILES IDX 41 66 44 67 38 68 39 69 42 70 40 71 66 72 67 73 75 74 68 75
REMARK SMILES IDX 69 76 73 77 76 78 70 79 71 80 74 81 72 82 51 83 52 84 60 85
REMARK SMILES IDX 53 86 54 87 58 88 61 89 55 90 56 91 59 92 57 93
REMARK H PARENT 7 16 81 46 49 57
REMARK Flexibility Score: inf
ROOT
ATOM      1  C   UNL A   1      42.044  20.662  26.414  1.00  0.00     0.275 C 
ENDROOT
BRANCH   1   2
ATOM      2  O   UNL A   1      42.681  21.598  25.515  1.00  0.00    -0.458 OA
BRANCH   2   3
ATOM      3  C   UNL A   1      44.049  21.625  25.533  1.00  0.00     0.341 C 
ATOM      4  O   UNL A   1      44.758  20.665  25.340  1.00  0.00    -0.246 OA
BRANCH   3   5
ATOM      5  C   UNL A   1      44.572  23.018  25.730  1.00  0.00     0.102 A 
ATOM      6  C   UNL A   1      46.060  27.904  25.145  1.00  0.00     0.176 C 
ATOM      7  N   UNL A   1      45.734  26.872  26.096  1.00  0.00    -0.250 N 
ATOM      8  N   UNL A   1      45.677  27.176  27.406  1.00  0.00    -0.179 NA
ATOM      9  C   UNL A   1      45.417  25.570  25.819  1.00  0.00     0.159 A 
ATOM     10  C   UNL A   1      45.274  26.028  27.961  1.00  0.00     0.147 A 
ATOM     11  C   UNL A   1      45.054  24.980  27.028  1.00  0.00     0.063 A 
ATOM     12  N   UNL A   1      45.440  25.003  24.599  1.00  0.00    -0.236 NA
ATOM     13  C   UNL A   1      44.598  23.631  27.027  1.00  0.00     0.063 A 
ATOM     14  C   UNL A   1      45.023  23.721  24.614  1.00  0.00     0.131 A 
BRANCH  13  15
ATOM     15  N   UNL A   1      44.176  22.924  28.147  1.00  0.00    -0.383 N 
ATOM     16  H   UNL A   1      43.393  22.346  28.000  1.00  0.00     0.160 HD
BRANCH  15  17
ATOM     17  C   UNL A   1      44.707  22.904  29.501  1.00  0.00     0.117 C 
BRANCH  17  18
ATOM     18  C   UNL A   1      43.631  23.307  30.531  1.00  0.00     0.052 C 
BRANCH  18  19
ATOM     19  C   UNL A   1      44.162  24.076  31.722  1.00  0.00    -0.072 C 
ATOM     20  C   UNL A   1      44.459  23.456  32.877  1.00  0.00    -0.028 C 
ATOM     21  C   UNL A   1      44.306  25.570  31.564  1.00  0.00     0.031 C 
ATOM     22  C   UNL A   1      45.031  24.143  34.075  1.00  0.00     0.027 C 
ATOM     23  C   UNL A   1      45.105  26.242  32.686  1.00  0.00     0.005 C 
ATOM     24  C   UNL A   1      44.782  25.648  34.054  1.00  0.00     0.004 C 
ENDBRANCH  18  19
ENDBRANCH  17  18
ENDBRANCH  15  17
ENDBRANCH  13  15
ENDBRANCH   3   5
ENDBRANCH   2   3
ENDBRANCH   1   2
BRANCH   1  25
ATOM     25  C   UNL A   1      40.565  20.975  26.639  1.00  0.00     0.275 C 
BRANCH  25  26
ATOM     26  O   UNL A   1      40.409  22.089  27.516  1.00  0.00    -0.458 OA
BRANCH  26  27
ATOM     27  C   UNL A   1      39.780  23.143  26.954  1.00  0.00     0.338 C 
ATOM     28  O   UNL A   1      38.710  23.133  26.364  1.00  0.00    -0.246 OA
BRANCH  27  29
ATOM     29  C   UNL A   1      40.621  24.337  27.044  1.00  0.00     0.060 A 
ATOM     30  C   UNL A   1      41.314  24.511  28.246  1.00  0.00     0.016 A 
ATOM     31  C   UNL A   1      40.441  25.379  26.125  1.00  0.00     0.016 A 
ATOM     32  C   UNL A   1      41.600  25.792  28.648  1.00  0.00     0.010 A 
ATOM     33  C   UNL A   1      40.715  26.662  26.532  1.00  0.00     0.010 A 
ATOM     34  C   UNL A   1      41.188  26.847  27.828  1.00  0.00    -0.014 A 
BRANCH  34  35
ATOM     35  C   UNL A   1      41.132  28.153  28.437  1.00  0.00     0.031 A 
ATOM     36  C   UNL A   1      42.244  29.059  28.096  1.00  0.00     0.074 A 
ATOM     37  C   UNL A   1      40.107  28.487  29.239  1.00  0.00     0.049 A 
ATOM     38  N   UNL A   1      43.163  29.511  28.882  1.00  0.00    -0.248 NA
ATOM     39  C   UNL A   1      42.417  29.415  26.683  1.00  0.00     0.031 C 
ATOM     40  C   UNL A   1      38.828  27.801  29.446  1.00  0.00     0.029 A 
ATOM     41  N   UNL A   1      39.984  29.601  30.002  1.00  0.00    -0.354 N 
ATOM     42  C   UNL A   1      43.966  30.325  28.093  1.00  0.00     0.074 A 
ATOM     43  C   UNL A   1      43.541  30.130  26.730  1.00  0.00     0.031 C 
ATOM     44  C   UNL A   1      37.982  28.632  30.099  1.00  0.00     0.029 A 
ATOM     45  C   UNL A   1      38.700  29.842  30.458  1.00  0.00     0.049 A 
ATOM     46  H   UNL A   1      40.743  30.189  30.213  1.00  0.00     0.167 HD
ATOM     47  C   UNL A   1      44.811  31.242  28.636  1.00  0.00     0.037 A 
ATOM     48  C   UNL A   1      38.273  31.020  30.973  1.00  0.00     0.037 A 
ATOM     49  C   UNL A   1      45.049  30.998  30.032  1.00  0.00     0.049 A 
ATOM     50  C   UNL A   1      39.481  31.770  31.425  1.00  0.00     0.074 A 
ATOM     51  C   UNL A   1      45.633  29.963  30.736  1.00  0.00     0.029 A 
ATOM     52  N   UNL A   1      44.335  31.720  30.956  1.00  0.00    -0.354 N 
ATOM     53  N   UNL A   1      40.224  31.400  32.435  1.00  0.00    -0.248 NA
ATOM     54  C   UNL A   1      40.138  32.645  30.460  1.00  0.00     0.031 C 
ATOM     55  C   UNL A   1      44.849  29.833  31.919  1.00  0.00     0.029 A 
ATOM     56  C   UNL A   1      43.866  30.821  31.882  1.00  0.00     0.049 A 
ATOM     57  H   UNL A   1      44.189  32.694  30.956  1.00  0.00     0.167 HD
ATOM     58  C   UNL A   1      41.530  31.656  32.035  1.00  0.00     0.074 A 
ATOM     59  C   UNL A   1      41.410  32.486  30.839  1.00  0.00     0.031 C 
ATOM     60  C   UNL A   1      42.581  30.937  32.529  1.00  0.00     0.037 A 
BRANCH  47  61
ATOM     61  C   UNL A   1      45.190  32.523  27.959  1.00  0.00     0.064 A 
ATOM     62  C   UNL A   1      46.523  32.743  27.571  1.00  0.00     0.173 A 
ATOM     63  C   UNL A   1      44.338  33.647  27.917  1.00  0.00     0.173 A 
ATOM     64  F   UNL A   1      47.419  31.746  27.608  1.00  0.00    -0.203 F 
ATOM     65  C   UNL A   1      46.978  34.013  27.209  1.00  0.00     0.198 A 
ATOM     66  C   UNL A   1      44.782  34.899  27.501  1.00  0.00     0.198 A 
ATOM     67  F   UNL A   1      43.082  33.598  28.379  1.00  0.00    -0.203 F 
ATOM     68  F   UNL A   1      48.279  34.204  26.948  1.00  0.00    -0.200 F 
ATOM     69  C   UNL A   1      46.108  35.089  27.173  1.00  0.00     0.200 A 
ATOM     70  F   UNL A   1      43.928  35.932  27.493  1.00  0.00    -0.200 F 
ATOM     71  F   UNL A   1      46.553  36.315  26.871  1.00  0.00    -0.200 F 
ENDBRANCH  47  61
BRANCH  48  72
ATOM     72  C   UNL A   1      36.962  31.661  30.716  1.00  0.00     0.064 A 
ATOM     73  C   UNL A   1      36.037  31.868  31.748  1.00  0.00     0.173 A 
ATOM     74  C   UNL A   1      36.689  32.309  29.492  1.00  0.00     0.173 A 
ATOM     75  F   UNL A   1      36.248  31.333  32.960  1.00  0.00    -0.203 F 
ATOM     76  C   UNL A   1      34.909  32.680  31.570  1.00  0.00     0.198 A 
ATOM     77  C   UNL A   1      35.560  33.109  29.312  1.00  0.00     0.198 A 
ATOM     78  F   UNL A   1      37.556  32.258  28.471  1.00  0.00    -0.203 F 
ATOM     79  F   UNL A   1      34.073  32.898  32.595  1.00  0.00    -0.200 F 
ATOM     80  C   UNL A   1      34.675  33.303  30.354  1.00  0.00     0.200 A 
ATOM     81  F   UNL A   1      35.369  33.734  28.141  1.00  0.00    -0.200 F 
ATOM     82  F   UNL A   1      33.625  34.120  30.200  1.00  0.00    -0.200 F 
ENDBRANCH  48  72
BRANCH  60  83
ATOM     83  C   UNL A   1      42.309  29.987  33.660  1.00  0.00     0.064 A 
ATOM     84  C   UNL A   1      41.956  28.640  33.463  1.00  0.00     0.173 A 
ATOM     85  C   UNL A   1      42.582  30.396  34.971  1.00  0.00     0.173 A 
ATOM     86  F   UNL A   1      41.794  28.147  32.230  1.00  0.00    -0.203 F 
ATOM     87  C   UNL A   1      41.833  27.758  34.535  1.00  0.00     0.198 A 
ATOM     88  C   UNL A   1      42.494  29.503  36.038  1.00  0.00     0.198 A 
ATOM     89  F   UNL A   1      42.990  31.651  35.213  1.00  0.00    -0.203 F 
ATOM     90  F   UNL A   1      41.487  26.480  34.318  1.00  0.00    -0.200 F 
ATOM     91  C   UNL A   1      42.109  28.190  35.821  1.00  0.00     0.200 A 
ATOM     92  F   UNL A   1      42.814  29.910  37.274  1.00  0.00    -0.200 F 
ATOM     93  F   UNL A   1      42.036  27.331  36.848  1.00  0.00    -0.200 F 
ENDBRANCH  60  83
ENDBRANCH  34  35
ENDBRANCH  27  29
ENDBRANCH  26  27
ENDBRANCH  25  26
ENDBRANCH   1  25
TORSDOF 15
ENDMDL
MODEL 2
REMARK VINA RESULT:     -10.7      4.032      6.709
REMARK SMILES Cn1ncc2c(NCCC3=CCCCC3)c(C(=O)OCCOC(=O)c3ccc(-c4c5nc(c(-c6c(F)c(F)c(F)c(F)c6F)c6ccc([nH]6)c(-c6c(F)c(F)c(F)c(F)c6F)c6nc(c(-c7c(F)c(F)c(F)c(F)c7F)c7ccc4[nH]7)C=C6)C=C5)cc3)cnc21
REMARK SMILES IDX 20 1 19 2 17 3 18 4 16 5 1 6 2 7 3 8 90 9 4 10 5 11 89 12
REMARK SMILES IDX 6 13 88 14 7 15 8 17 9 18 10 19 11 20 15 21 12 22 14 23
REMARK SMILES IDX 13 24 21 25 22 26 23 27 24 28 25 29 26 30 87 31 27 32 86 33
REMARK SMILES IDX 28 34 29 35 30 36 80 37 31 38 85 39 79 40 81 41 32 42 84 43
REMARK SMILES IDX 78 44 77 45 33 47 65 48 45 49 64 50 46 51 49 52 63 53 82 54
REMARK SMILES IDX 47 55 48 56 62 58 83 59 50 60 34 61 35 62 43 63 36 64 37 65
REMARK SMILES IDX 41 66 44 67 38 68 39 69 42 70 40 71 66 72 67 73 75 74 68 75
REMARK SMILES IDX 69 76 73 77 76 78 70 79 71 80 74 81 72 82 51 83 52 84 60 85
REMARK SMILES IDX 53 86 54 87 58 88 61 89 55 90 56 91 59 92 57 93
REMARK H PARENT 7 16 81 46 49 57
REMARK Flexibility Score: inf
ROOT
ATOM      1  C   UNL A   1      37.286  22.374  24.815  1.00  0.00     0.275 C 
ENDROOT
BRANCH   1   2
ATOM      2  O   UNL A   1      36.610  23.590  25.208  1.00  0.00    -0.458 OA
BRANCH   2   3
ATOM      3  C   UNL A   1      35.309  23.459  25.616  1.00  0.00     0.341 C 
ATOM      4  O   UNL A   1      34.930  22.686  26.464  1.00  0.00    -0.246 OA
BRANCH   3   5
ATOM      5  C   UNL A   1      34.416  24.462  24.946  1.00  0.00     0.102 A 
ATOM      6  C   UNL A   1      32.154  28.748  23.232  1.00  0.00     0.176 C 
ATOM      7  N   UNL A   1      32.269  27.322  23.062  1.00  0.00    -0.250 N 
ATOM      8  N   UNL A   1      31.651  26.727  22.025  1.00  0.00    -0.179 NA
ATOM      9  C   UNL A   1      32.999  26.459  23.834  1.00  0.00     0.159 A 
ATOM     10  C   UNL A   1      32.040  25.453  22.136  1.00  0.00     0.147 A 
ATOM     11  C   UNL A   1      32.917  25.208  23.226  1.00  0.00     0.063 A 
ATOM     12  N   UNL A   1      33.674  26.790  24.950  1.00  0.00    -0.236 NA
ATOM     13  C   UNL A   1      33.653  24.123  23.779  1.00  0.00     0.063 A 
ATOM     14  C   UNL A   1      34.353  25.750  25.475  1.00  0.00     0.131 A 
BRANCH  13  15
ATOM     15  N   UNL A   1      33.691  22.832  23.265  1.00  0.00    -0.383 N 
ATOM     16  H   UNL A   1      34.578  22.534  22.961  1.00  0.00     0.160 HD
BRANCH  15  17
ATOM     17  C   UNL A   1      32.628  21.852  23.105  1.00  0.00     0.117 C 
BRANCH  17  18
ATOM     18  C   UNL A   1      32.568  20.888  24.308  1.00  0.00     0.052 C 
BRANCH  18  19
ATOM     19  C   UNL A   1      33.064  19.489  24.014  1.00  0.00    -0.072 C 
ATOM     20  C   UNL A   1      32.439  18.699  23.124  1.00  0.00    -0.028 C 
ATOM     21  C   UNL A   1      34.267  19.012  24.791  1.00  0.00     0.031 C 
ATOM     22  C   UNL A   1      32.901  17.327  22.750  1.00  0.00     0.027 C 
ATOM     23  C   UNL A   1      34.885  17.717  24.252  1.00  0.00     0.005 C 
ATOM     24  C   UNL A   1      33.822  16.718  23.803  1.00  0.00     0.004 C 
ENDBRANCH  18  19
ENDBRANCH  17  18
ENDBRANCH  15  17
ENDBRANCH  13  15
ENDBRANCH   3   5
ENDBRANCH   2   3
ENDBRANCH   1   2
BRANCH   1  25
ATOM     25  C   UNL A   1      38.442  22.015  25.749  1.00  0.00     0.275 C 
BRANCH  25  26
ATOM     26  O   UNL A   1      38.799  23.128  26.566  1.00  0.00    -0.458 OA
BRANCH  26  27
ATOM     27  C   UNL A   1      39.971  22.972  27.218  1.00  0.00     0.338 C 
ATOM     28  O   UNL A   1      40.345  21.986  27.835  1.00  0.00    -0.246 OA
BRANCH  27  29
ATOM     29  C   UNL A   1      40.732  24.222  27.189  1.00  0.00     0.060 A 
ATOM     30  C   UNL A   1      41.545  24.471  28.299  1.00  0.00     0.016 A 
ATOM     31  C   UNL A   1      40.375  25.226  26.280  1.00  0.00     0.016 A 
ATOM     32  C   UNL A   1      41.787  25.778  28.642  1.00  0.00     0.010 A 
ATOM     33  C   UNL A   1      40.605  26.535  26.630  1.00  0.00     0.010 A 
ATOM     34  C   UNL A   1      41.211  26.782  27.859  1.00  0.00    -0.014 A 
BRANCH  34  35
ATOM     35  C   UNL A   1      41.136  28.096  28.448  1.00  0.00     0.031 A 
ATOM     36  C   UNL A   1      42.254  29.001  28.123  1.00  0.00     0.074 A 
ATOM     37  C   UNL A   1      40.089  28.439  29.219  1.00  0.00     0.049 A 
ATOM     38  N   UNL A   1      43.150  29.467  28.926  1.00  0.00    -0.248 NA
ATOM     39  C   UNL A   1      42.462  29.338  26.710  1.00  0.00     0.031 C 
ATOM     40  C   UNL A   1      38.808  27.751  29.401  1.00  0.00     0.029 A 
ATOM     41  N   UNL A   1      39.944  29.563  29.962  1.00  0.00    -0.354 N 
ATOM     42  C   UNL A   1      43.972  30.272  28.147  1.00  0.00     0.074 A 
ATOM     43  C   UNL A   1      43.583  30.057  26.776  1.00  0.00     0.031 C 
ATOM     44  C   UNL A   1      37.943  28.589  30.020  1.00  0.00     0.029 A 
ATOM     45  C   UNL A   1      38.648  29.806  30.381  1.00  0.00     0.049 A 
ATOM     46  H   UNL A   1      40.696  30.156  30.185  1.00  0.00     0.167 HD
ATOM     47  C   UNL A   1      44.800  31.199  28.699  1.00  0.00     0.037 A 
ATOM     48  C   UNL A   1      38.205  30.990  30.869  1.00  0.00     0.037 A 
ATOM     49  C   UNL A   1      45.003  30.975  30.103  1.00  0.00     0.049 A 
ATOM     50  C   UNL A   1      39.399  31.750  31.341  1.00  0.00     0.074 A 
ATOM     51  C   UNL A   1      45.571  29.951  30.837  1.00  0.00     0.029 A 
ATOM     52  N   UNL A   1      44.263  31.708  30.999  1.00  0.00    -0.354 N 
ATOM     53  N   UNL A   1      40.116  31.396  32.375  1.00  0.00    -0.248 NA
ATOM     54  C   UNL A   1      40.078  32.613  30.382  1.00  0.00     0.031 C 
ATOM     55  C   UNL A   1      44.757  29.836  32.001  1.00  0.00     0.029 A 
ATOM     56  C   UNL A   1      43.772  30.821  31.925  1.00  0.00     0.049 A 
ATOM     57  H   UNL A   1      44.114  32.681  30.981  1.00  0.00     0.167 HD
ATOM     58  C   UNL A   1      41.431  31.650  32.006  1.00  0.00     0.074 A 
ATOM     59  C   UNL A   1      41.340  32.463  30.796  1.00  0.00     0.031 C 
ATOM     60  C   UNL A   1      42.471  30.942  32.537  1.00  0.00     0.037 A 
BRANCH  47  61
ATOM     61  C   UNL A   1      45.194  32.472  28.014  1.00  0.00     0.064 A 
ATOM     62  C   UNL A   1      44.236  33.478  27.799  1.00  0.00     0.173 A 
ATOM     63  C   UNL A   1      46.418  32.624  27.329  1.00  0.00     0.173 A 
ATOM     64  F   UNL A   1      43.028  33.407  28.379  1.00  0.00    -0.203 F 
ATOM     65  C   UNL A   1      44.476  34.540  26.923  1.00  0.00     0.198 A 
ATOM     66  C   UNL A   1      46.674  33.713  26.501  1.00  0.00     0.198 A 
ATOM     67  F   UNL A   1      47.361  31.674  27.351  1.00  0.00    -0.203 F 
ATOM     68  F   UNL A   1      43.499  35.421  26.664  1.00  0.00    -0.200 F 
ATOM     69  C   UNL A   1      45.693  34.657  26.276  1.00  0.00     0.200 A 
ATOM     70  F   UNL A   1      47.853  33.798  25.868  1.00  0.00    -0.200 F 
ATOM     71  F   UNL A   1      45.907  35.648  25.402  1.00  0.00    -0.200 F 
ENDBRANCH  47  61
BRANCH  48  72
ATOM     72  C   UNL A   1      36.899  31.624  30.569  1.00  0.00     0.064 A 
ATOM     73  C   UNL A   1      35.979  31.913  31.586  1.00  0.00     0.173 A 
ATOM     74  C   UNL A   1      36.628  32.184  29.303  1.00  0.00     0.173 A 
ATOM     75  F   UNL A   1      36.189  31.466  32.832  1.00  0.00    -0.203 F 
ATOM     76  C   UNL A   1      34.858  32.721  31.352  1.00  0.00     0.198 A 
ATOM     77  C   UNL A   1      35.507  32.979  29.068  1.00  0.00     0.198 A 
ATOM     78  F   UNL A   1      37.491  32.050  28.286  1.00  0.00    -0.203 F 
ATOM     79  F   UNL A   1      34.028  33.021  32.360  1.00  0.00    -0.200 F 
ATOM     80  C   UNL A   1      34.627  33.257  30.095  1.00  0.00     0.200 A 
ATOM     81  F   UNL A   1      35.318  33.520  27.855  1.00  0.00    -0.200 F 
ATOM     82  F   UNL A   1      33.584  34.071  29.884  1.00  0.00    -0.200 F 
ENDBRANCH  48  72
BRANCH  60  83
ATOM     83  C   UNL A   1      42.172  30.006  33.674  1.00  0.00     0.064 A 
ATOM     84  C   UNL A   1      41.762  28.675  33.485  1.00  0.00     0.173 A 
ATOM     85  C   UNL A   1      42.475  30.407  34.980  1.00  0.00     0.173 A 
ATOM     86  F   UNL A   1      41.567  28.185  32.255  1.00  0.00    -0.203 F 
ATOM     87  C   UNL A   1      41.615  27.801  34.561  1.00  0.00     0.198 A 
ATOM     88  C   UNL A   1      42.362  29.522  36.051  1.00  0.00     0.198 A 
ATOM     89  F   UNL A   1      42.937  31.645  35.214  1.00  0.00    -0.203 F 
ATOM     90  F   UNL A   1      41.214  26.538  34.351  1.00  0.00    -0.200 F 
ATOM     91  C   UNL A   1      41.921  28.225  35.842  1.00  0.00     0.200 A 
ATOM     92  F   UNL A   1      42.711  29.918  37.283  1.00  0.00    -0.200 F 
ATOM     93  F   UNL A   1      41.824  27.372  36.872  1.00  0.00    -0.200 F 
ENDBRANCH  60  83
ENDBRANCH  34  35
ENDBRANCH  27  29
ENDBRANCH  26  27
ENDBRANCH  25  26
ENDBRANCH   1  25
TORSDOF 15
ENDMDL
MODEL 3
REMARK VINA RESULT:     -10.5      5.352     11.105
REMARK SMILES Cn1ncc2c(NCCC3=CCCCC3)c(C(=O)OCCOC(=O)c3ccc(-c4c5nc(c(-c6c(F)c(F)c(F)c(F)c6F)c6ccc([nH]6)c(-c6c(F)c(F)c(F)c(F)c6F)c6nc(c(-c7c(F)c(F)c(F)c(F)c7F)c7ccc4[nH]7)C=C6)C=C5)cc3)cnc21
REMARK SMILES IDX 20 1 19 2 17 3 18 4 16 5 1 6 2 7 3 8 90 9 4 10 5 11 89 12
REMARK SMILES IDX 6 13 88 14 7 15 8 17 9 18 10 19 11 20 15 21 12 22 14 23
REMARK SMILES IDX 13 24 21 25 22 26 23 27 24 28 25 29 26 30 87 31 27 32 86 33
REMARK SMILES IDX 28 34 29 35 30 36 80 37 31 38 85 39 79 40 81 41 32 42 84 43
REMARK SMILES IDX 78 44 77 45 33 47 65 48 45 49 64 50 46 51 49 52 63 53 82 54
REMARK SMILES IDX 47 55 48 56 62 58 83 59 50 60 34 61 35 62 43 63 36 64 37 65
REMARK SMILES IDX 41 66 44 67 38 68 39 69 42 70 40 71 66 72 67 73 75 74 68 75
REMARK SMILES IDX 69 76 73 77 76 78 70 79 71 80 74 81 72 82 51 83 52 84 60 85
REMARK SMILES IDX 53 86 54 87 58 88 61 89 55 90 56 91 59 92 57 93
REMARK H PARENT 7 16 81 46 49 57
REMARK Flexibility Score: inf
ROOT
ATOM      1  C   UNL A   1      32.698  29.939  26.552  1.00  0.00     0.275 C 
ENDROOT
BRANCH   1   2
ATOM      2  O   UNL A   1      33.105  28.623  26.991  1.00  0.00    -0.458 OA
BRANCH   2   3
ATOM      3  C   UNL A   1      32.214  27.606  26.778  1.00  0.00     0.341 C 
ATOM      4  O   UNL A   1      31.118  27.537  27.284  1.00  0.00    -0.246 OA
BRANCH   3   5
ATOM      5  C   UNL A   1      32.725  26.626  25.763  1.00  0.00     0.102 A 
ATOM      6  C   UNL A   1      35.296  22.952  23.250  1.00  0.00     0.176 C 
ATOM      7  N   UNL A   1      34.112  23.773  23.259  1.00  0.00    -0.250 N 
ATOM      8  N   UNL A   1      33.152  23.559  22.340  1.00  0.00    -0.179 NA
ATOM      9  C   UNL A   1      33.806  24.763  24.153  1.00  0.00     0.159 A 
ATOM     10  C   UNL A   1      32.198  24.423  22.698  1.00  0.00     0.147 A 
ATOM     11  C   UNL A   1      32.515  25.192  23.849  1.00  0.00     0.063 A 
ATOM     12  N   UNL A   1      34.609  25.200  25.139  1.00  0.00    -0.236 NA
ATOM     13  C   UNL A   1      31.904  26.176  24.677  1.00  0.00     0.063 A 
ATOM     14  C   UNL A   1      34.025  26.144  25.905  1.00  0.00     0.131 A 
BRANCH  13  15
ATOM     15  N   UNL A   1      30.617  26.676  24.515  1.00  0.00    -0.383 N 
ATOM     16  H   UNL A   1      29.971  26.383  25.197  1.00  0.00     0.160 HD
BRANCH  15  17
ATOM     17  C   UNL A   1      30.074  27.562  23.497  1.00  0.00     0.117 C 
BRANCH  17  18
ATOM     18  C   UNL A   1      30.360  29.041  23.830  1.00  0.00     0.052 C 
BRANCH  18  19
ATOM     19  C   UNL A   1      29.467  30.029  23.112  1.00  0.00    -0.072 C 
ATOM     20  C   UNL A   1      29.016  29.787  21.869  1.00  0.00    -0.028 C 
ATOM     21  C   UNL A   1      29.138  31.310  23.840  1.00  0.00     0.031 C 
ATOM     22  C   UNL A   1      28.093  30.693  21.121  1.00  0.00     0.027 C 
ATOM     23  C   UNL A   1      28.016  32.126  23.190  1.00  0.00     0.005 C 
ATOM     24  C   UNL A   1      28.110  32.118  21.667  1.00  0.00     0.004 C 
ENDBRANCH  18  19
ENDBRANCH  17  18
ENDBRANCH  15  17
ENDBRANCH  13  15
ENDBRANCH   3   5
ENDBRANCH   2   3
ENDBRANCH   1   2
BRANCH   1  25
ATOM     25  C   UNL A   1      33.455  31.058  27.267  1.00  0.00     0.275 C 
BRANCH  25  26
ATOM     26  O   UNL A   1      34.715  30.595  27.745  1.00  0.00    -0.458 OA
BRANCH  26  27
ATOM     27  C   UNL A   1      35.571  31.585  28.077  1.00  0.00     0.338 C 
ATOM     28  O   UNL A   1      35.641  32.696  27.574  1.00  0.00    -0.246 OA
BRANCH  27  29
ATOM     29  C   UNL A   1      36.521  31.111  29.084  1.00  0.00     0.060 A 
ATOM     30  C   UNL A   1      37.729  31.811  29.166  1.00  0.00     0.016 A 
ATOM     31  C   UNL A   1      36.350  29.842  29.652  1.00  0.00     0.016 A 
ATOM     32  C   UNL A   1      38.843  31.129  29.589  1.00  0.00     0.010 A 
ATOM     33  C   UNL A   1      37.467  29.155  30.062  1.00  0.00     0.010 A 
ATOM     34  C   UNL A   1      38.703  29.778  29.919  1.00  0.00    -0.014 A 
BRANCH  34  35
ATOM     35  C   UNL A   1      39.914  28.997  29.966  1.00  0.00     0.031 A 
ATOM     36  C   UNL A   1      40.532  28.865  31.298  1.00  0.00     0.074 A 
ATOM     37  C   UNL A   1      40.402  28.429  28.850  1.00  0.00     0.049 A 
ATOM     38  N   UNL A   1      41.665  29.341  31.694  1.00  0.00    -0.248 NA
ATOM     39  C   UNL A   1      39.739  28.217  32.349  1.00  0.00     0.031 C 
ATOM     40  C   UNL A   1      39.764  28.256  27.542  1.00  0.00     0.029 A 
ATOM     41  N   UNL A   1      41.594  27.802  28.695  1.00  0.00    -0.354 N 
ATOM     42  C   UNL A   1      41.799  28.941  33.017  1.00  0.00     0.074 A 
ATOM     43  C   UNL A   1      40.536  28.365  33.407  1.00  0.00     0.031 C 
ATOM     44  C   UNL A   1      40.488  27.376  26.810  1.00  0.00     0.029 A 
ATOM     45  C   UNL A   1      41.690  27.032  27.550  1.00  0.00     0.049 A 
ATOM     46  H   UNL A   1      42.330  27.887  29.343  1.00  0.00     0.167 HD
ATOM     47  C   UNL A   1      43.002  28.949  33.650  1.00  0.00     0.037 A 
ATOM     48  C   UNL A   1      42.643  26.095  27.328  1.00  0.00     0.037 A 
ATOM     49  C   UNL A   1      43.973  29.750  32.956  1.00  0.00     0.049 A 
ATOM     50  C   UNL A   1      43.790  26.407  28.231  1.00  0.00     0.074 A 
ATOM     51  C   UNL A   1      44.063  31.094  32.651  1.00  0.00     0.029 A 
ATOM     52  N   UNL A   1      44.876  29.120  32.134  1.00  0.00    -0.354 N 
ATOM     53  N   UNL A   1      44.550  27.461  28.093  1.00  0.00    -0.248 NA
ATOM     54  C   UNL A   1      43.785  25.816  29.564  1.00  0.00     0.031 C 
ATOM     55  C   UNL A   1      44.634  31.139  31.346  1.00  0.00     0.029 A 
ATOM     56  C   UNL A   1      44.894  29.826  30.955  1.00  0.00     0.049 A 
ATOM     57  H   UNL A   1      45.407  28.320  32.348  1.00  0.00     0.167 HD
ATOM     58  C   UNL A   1      44.796  27.900  29.388  1.00  0.00     0.074 A 
ATOM     59  C   UNL A   1      44.358  26.807  30.253  1.00  0.00     0.031 C 
ATOM     60  C   UNL A   1      45.058  29.212  29.659  1.00  0.00     0.037 A 
BRANCH  47  61
ATOM     61  C   UNL A   1      43.369  27.997  34.747  1.00  0.00     0.064 A 
ATOM     62  C   UNL A   1      43.710  28.490  36.019  1.00  0.00     0.173 A 
ATOM     63  C   UNL A   1      43.651  26.634  34.514  1.00  0.00     0.173 A 
ATOM     64  F   UNL A   1      43.514  29.781  36.327  1.00  0.00    -0.203 F 
ATOM     65  C   UNL A   1      44.331  27.680  36.973  1.00  0.00     0.198 A 
ATOM     66  C   UNL A   1      44.217  25.817  35.487  1.00  0.00     0.198 A 
ATOM     67  F   UNL A   1      43.489  26.077  33.307  1.00  0.00    -0.203 F 
ATOM     68  F   UNL A   1      44.737  28.214  38.134  1.00  0.00    -0.200 F 
ATOM     69  C   UNL A   1      44.583  26.346  36.708  1.00  0.00     0.200 A 
ATOM     70  F   UNL A   1      44.471  24.531  35.203  1.00  0.00    -0.200 F 
ATOM     71  F   UNL A   1      45.219  25.581  37.604  1.00  0.00    -0.200 F 
ENDBRANCH  47  61
BRANCH  48  72
ATOM     72  C   UNL A   1      42.435  24.769  26.701  1.00  0.00     0.064 A 
ATOM     73  C   UNL A   1      43.223  24.340  25.624  1.00  0.00     0.173 A 
ATOM     74  C   UNL A   1      41.616  23.790  27.305  1.00  0.00     0.173 A 
ATOM     75  F   UNL A   1      44.069  25.191  25.027  1.00  0.00    -0.203 F 
ATOM     76  C   UNL A   1      43.199  23.010  25.183  1.00  0.00     0.198 A 
ATOM     77  C   UNL A   1      41.585  22.470  26.858  1.00  0.00     0.198 A 
ATOM     78  F   UNL A   1      40.896  24.069  28.401  1.00  0.00    -0.203 F 
ATOM     79  F   UNL A   1      44.006  22.623  24.184  1.00  0.00    -0.200 F 
ATOM     80  C   UNL A   1      42.385  22.076  25.804  1.00  0.00     0.200 A 
ATOM     81  F   UNL A   1      40.819  21.571  27.494  1.00  0.00    -0.200 F 
ATOM     82  F   UNL A   1      42.401  20.795  25.415  1.00  0.00    -0.200 F 
ENDBRANCH  48  72
BRANCH  60  83
ATOM     83  C   UNL A   1      45.259  30.141  28.496  1.00  0.00     0.064 A 
ATOM     84  C   UNL A   1      44.198  30.793  27.843  1.00  0.00     0.173 A 
ATOM     85  C   UNL A   1      46.560  30.518  28.145  1.00  0.00     0.173 A 
ATOM     86  F   UNL A   1      42.929  30.571  28.205  1.00  0.00    -0.203 F 
ATOM     87  C   UNL A   1      44.432  31.742  26.849  1.00  0.00     0.198 A 
ATOM     88  C   UNL A   1      46.792  31.494  27.177  1.00  0.00     0.198 A 
ATOM     89  F   UNL A   1      47.612  29.980  28.783  1.00  0.00    -0.203 F 
ATOM     90  F   UNL A   1      43.400  32.343  26.237  1.00  0.00    -0.200 F 
ATOM     91  C   UNL A   1      45.730  32.096  26.523  1.00  0.00     0.200 A 
ATOM     92  F   UNL A   1      48.048  31.873  26.902  1.00  0.00    -0.200 F 
ATOM     93  F   UNL A   1      45.956  33.042  25.600  1.00  0.00    -0.200 F 
ENDBRANCH  60  83
ENDBRANCH  34  35
ENDBRANCH  27  29
ENDBRANCH  26  27
ENDBRANCH  25  26
ENDBRANCH   1  25
TORSDOF 15
ENDMDL
