MODEL 1
REMARK VINA RESULT:     -12.6      0.000      0.000
REMARK SMILES CC(C)(C)c1cc2c(cc1Cl)C=C(C(=O)OCCOC(=O)c1ccc(-c3c4nc(c(-c5c(F)c(F)c(F)c(F)c5F)c5ccc([nH]5)c(-c5c(F)c(F)c(F)c(F)c5F)c5nc(c(-c6c(F)c(F)c(F)c(F)c6F)c6ccc3[nH]6)C=C5)C=C4)cc1)[C@H](C(F)(F)F)O2
REMARK SMILES IDX 18 1 17 2 16 3 14 4 15 5 13 6 5 7 6 8 10 9 7 10 9 11 11 12
REMARK SMILES IDX 8 13 90 14 12 15 85 16 2 17 1 18 3 19 4 20 86 21 87 22 88 23
REMARK SMILES IDX 89 24 19 25 20 26 21 27 22 28 23 29 84 30 24 31 83 32 25 33
REMARK SMILES IDX 26 34 27 35 77 36 28 37 82 38 76 39 78 40 29 41 81 42 75 43
REMARK SMILES IDX 74 44 30 46 62 47 42 48 61 49 43 50 46 51 60 52 79 53 44 54
REMARK SMILES IDX 45 55 59 57 80 58 47 59 31 60 32 61 40 62 33 63 34 64 38 65
REMARK SMILES IDX 41 66 35 67 36 68 39 69 37 70 63 71 64 72 72 73 65 74 66 75
REMARK SMILES IDX 70 76 73 77 67 78 68 79 71 80 69 81 48 82 49 83 57 84 50 85
REMARK SMILES IDX 51 86 55 87 58 88 52 89 53 90 56 91 54 92
REMARK H PARENT 78 45 46 56
REMARK Flexibility Score: inf
ROOT
ATOM      1  C   UNL A   1      31.439  31.181  26.184  1.00  0.00     0.275 C 
ENDROOT
BRANCH   1   2
ATOM      2  C   UNL A   1      31.119  30.186  25.069  1.00  0.00     0.275 C 
BRANCH   2   3
ATOM      3  O   UNL A   1      31.556  28.860  25.443  1.00  0.00    -0.459 OA
BRANCH   3   4
ATOM      4  C   UNL A   1      31.021  27.836  24.744  1.00  0.00     0.338 C 
ATOM      5  O   UNL A   1      29.894  27.793  24.278  1.00  0.00    -0.246 OA
BRANCH   4   6
ATOM      6  C   UNL A   1      32.038  26.791  24.501  1.00  0.00     0.087 C 
ATOM      7  C   UNL A   1      35.324  22.966  25.106  1.00  0.00    -0.020 A 
ATOM      8  C   UNL A   1      35.053  23.932  24.092  1.00  0.00     0.053 A 
ATOM      9  C   UNL A   1      34.469  22.993  26.227  1.00  0.00     0.045 A 
ATOM     10  C   UNL A   1      34.053  24.901  24.213  1.00  0.00     0.128 A 
ATOM     11  C   UNL A   1      33.487  23.991  26.358  1.00  0.00     0.032 A 
ATOM     12  Cl  UNL A   1      34.479  21.867  27.536  1.00  0.00    -0.084 Cl
ATOM     13  C   UNL A   1      33.305  24.959  25.374  1.00  0.00     0.019 A 
ATOM     14  O   UNL A   1      33.907  25.793  23.188  1.00  0.00    -0.475 OA
ATOM     15  C   UNL A   1      32.370  26.047  25.565  1.00  0.00     0.027 C 
ATOM     16  C   UNL A   1      32.690  26.608  23.153  1.00  0.00     0.316 C 
BRANCH   7  17
ATOM     17  C   UNL A   1      36.536  22.029  24.872  1.00  0.00    -0.012 C 
ATOM     18  C   UNL A   1      36.323  20.511  25.048  1.00  0.00     0.016 C 
ATOM     19  C   UNL A   1      37.656  22.400  25.881  1.00  0.00     0.016 C 
ATOM     20  C   UNL A   1      37.063  22.229  23.432  1.00  0.00     0.016 C 
ENDBRANCH   7  17
BRANCH  16  21
ATOM     21  C   UNL A   1      31.754  26.107  22.035  1.00  0.00     0.430 C 
ATOM     22  F   UNL A   1      30.961  27.099  21.562  1.00  0.00    -0.167 F 
ATOM     23  F   UNL A   1      32.430  25.600  20.980  1.00  0.00    -0.167 F 
ATOM     24  F   UNL A   1      30.917  25.142  22.493  1.00  0.00    -0.167 F 
ENDBRANCH  16  21
ENDBRANCH   4   6
ENDBRANCH   3   4
ENDBRANCH   2   3
ENDBRANCH   1   2
BRANCH   1  25
ATOM     25  O   UNL A   1      32.788  30.965  26.640  1.00  0.00    -0.458 OA
BRANCH  25  26
ATOM     26  C   UNL A   1      33.359  31.985  27.314  1.00  0.00     0.338 C 
ATOM     27  O   UNL A   1      32.909  33.109  27.494  1.00  0.00    -0.246 OA
BRANCH  26  28
ATOM     28  C   UNL A   1      34.661  31.548  27.841  1.00  0.00     0.060 A 
ATOM     29  C   UNL A   1      35.683  32.467  28.051  1.00  0.00     0.016 A 
ATOM     30  C   UNL A   1      34.832  30.220  28.229  1.00  0.00     0.016 A 
ATOM     31  C   UNL A   1      36.884  32.039  28.628  1.00  0.00     0.010 A 
ATOM     32  C   UNL A   1      35.989  29.815  28.895  1.00  0.00     0.010 A 
ATOM     33  C   UNL A   1      37.044  30.716  29.090  1.00  0.00    -0.014 A 
BRANCH  33  34
ATOM     34  C   UNL A   1      38.287  30.304  29.805  1.00  0.00     0.031 A 
ATOM     35  C   UNL A   1      38.568  30.736  31.223  1.00  0.00     0.074 A 
ATOM     36  C   UNL A   1      39.197  29.543  29.161  1.00  0.00     0.049 A 
ATOM     37  N   UNL A   1      39.567  30.401  32.006  1.00  0.00    -0.248 NA
ATOM     38  C   UNL A   1      37.636  31.695  31.834  1.00  0.00     0.031 C 
ATOM     39  C   UNL A   1      39.117  29.145  27.754  1.00  0.00     0.029 A 
ATOM     40  N   UNL A   1      40.353  28.949  29.606  1.00  0.00    -0.354 N 
ATOM     41  C   UNL A   1      39.390  31.119  33.182  1.00  0.00     0.074 A 
ATOM     42  C   UNL A   1      38.227  31.958  32.991  1.00  0.00     0.031 C 
ATOM     43  C   UNL A   1      40.125  28.305  27.477  1.00  0.00     0.029 A 
ATOM     44  C   UNL A   1      40.941  28.128  28.674  1.00  0.00     0.049 A 
ATOM     45  H   UNL A   1      40.724  29.096  30.506  1.00  0.00     0.167 HD
ATOM     46  C   UNL A   1      40.104  31.059  34.332  1.00  0.00     0.037 A 
ATOM     47  C   UNL A   1      41.998  27.299  28.776  1.00  0.00     0.037 A 
ATOM     48  C   UNL A   1      41.226  30.184  34.549  1.00  0.00     0.049 A 
ATOM     49  C   UNL A   1      42.727  27.184  30.086  1.00  0.00     0.074 A 
ATOM     50  C   UNL A   1      41.959  29.992  35.707  1.00  0.00     0.029 A 
ATOM     51  N   UNL A   1      41.768  29.344  33.587  1.00  0.00    -0.354 N 
ATOM     52  N   UNL A   1      42.490  27.798  31.217  1.00  0.00    -0.248 NA
ATOM     53  C   UNL A   1      43.865  26.254  30.134  1.00  0.00     0.031 C 
ATOM     54  C   UNL A   1      42.961  29.054  35.440  1.00  0.00     0.029 A 
ATOM     55  C   UNL A   1      42.829  28.635  34.126  1.00  0.00     0.049 A 
ATOM     56  H   UNL A   1      41.447  29.265  32.660  1.00  0.00     0.167 HD
ATOM     57  C   UNL A   1      43.432  27.319  32.117  1.00  0.00     0.074 A 
ATOM     58  C   UNL A   1      44.237  26.349  31.404  1.00  0.00     0.031 C 
ATOM     59  C   UNL A   1      43.612  27.660  33.414  1.00  0.00     0.037 A 
BRANCH  46  60
ATOM     60  C   UNL A   1      39.668  31.932  35.475  1.00  0.00     0.064 A 
ATOM     61  C   UNL A   1      40.193  33.223  35.645  1.00  0.00     0.173 A 
ATOM     62  C   UNL A   1      38.671  31.508  36.367  1.00  0.00     0.173 A 
ATOM     63  F   UNL A   1      41.150  33.675  34.822  1.00  0.00    -0.203 F 
ATOM     64  C   UNL A   1      39.756  34.044  36.681  1.00  0.00     0.198 A 
ATOM     65  C   UNL A   1      38.215  32.344  37.382  1.00  0.00     0.198 A 
ATOM     66  F   UNL A   1      38.124  30.289  36.241  1.00  0.00    -0.203 F 
ATOM     67  F   UNL A   1      40.302  35.256  36.846  1.00  0.00    -0.200 F 
ATOM     68  C   UNL A   1      38.762  33.608  37.543  1.00  0.00     0.200 A 
ATOM     69  F   UNL A   1      37.241  31.929  38.205  1.00  0.00    -0.200 F 
ATOM     70  F   UNL A   1      38.333  34.407  38.530  1.00  0.00    -0.200 F 
ENDBRANCH  46  60
BRANCH  47  71
ATOM     71  C   UNL A   1      42.364  26.437  27.623  1.00  0.00     0.064 A 
ATOM     72  C   UNL A   1      43.381  26.828  26.738  1.00  0.00     0.173 A 
ATOM     73  C   UNL A   1      41.747  25.198  27.402  1.00  0.00     0.173 A 
ATOM     74  F   UNL A   1      43.988  28.013  26.900  1.00  0.00    -0.203 F 
ATOM     75  C   UNL A   1      43.762  26.014  25.674  1.00  0.00     0.198 A 
ATOM     76  C   UNL A   1      42.146  24.375  26.351  1.00  0.00     0.198 A 
ATOM     77  F   UNL A   1      40.775  24.777  28.224  1.00  0.00    -0.203 F 
ATOM     78  F   UNL A   1      44.718  26.424  24.830  1.00  0.00    -0.200 F 
ATOM     79  C   UNL A   1      43.150  24.785  25.486  1.00  0.00     0.200 A 
ATOM     80  F   UNL A   1      41.561  23.181  26.179  1.00  0.00    -0.200 F 
ATOM     81  F   UNL A   1      43.526  23.996  24.470  1.00  0.00    -0.200 F 
ENDBRANCH  47  71
BRANCH  59  82
ATOM     82  C   UNL A   1      44.706  26.971  34.174  1.00  0.00     0.064 A 
ATOM     83  C   UNL A   1      45.981  27.539  34.293  1.00  0.00     0.173 A 
ATOM     84  C   UNL A   1      44.446  25.780  34.869  1.00  0.00     0.173 A 
ATOM     85  F   UNL A   1      46.280  28.671  33.637  1.00  0.00    -0.203 F 
ATOM     86  C   UNL A   1      46.960  26.937  35.077  1.00  0.00     0.198 A 
ATOM     87  C   UNL A   1      45.420  25.193  35.671  1.00  0.00     0.198 A 
ATOM     88  F   UNL A   1      43.237  25.203  34.792  1.00  0.00    -0.203 F 
ATOM     89  F   UNL A   1      48.180  27.486  35.163  1.00  0.00    -0.200 F 
ATOM     90  C   UNL A   1      46.676  25.772  35.774  1.00  0.00     0.200 A 
ATOM     91  F   UNL A   1      45.139  24.074  36.354  1.00  0.00    -0.200 F 
ATOM     92  F   UNL A   1      47.614  25.206  36.547  1.00  0.00    -0.200 F 
ENDBRANCH  59  82
ENDBRANCH  33  34
ENDBRANCH  26  28
ENDBRANCH  25  26
ENDBRANCH   1  25
TORSDOF 13
ENDMDL
MODEL 2
REMARK VINA RESULT:     -12.6      4.389      9.832
REMARK SMILES CC(C)(C)c1cc2c(cc1Cl)C=C(C(=O)OCCOC(=O)c1ccc(-c3c4nc(c(-c5c(F)c(F)c(F)c(F)c5F)c5ccc([nH]5)c(-c5c(F)c(F)c(F)c(F)c5F)c5nc(c(-c6c(F)c(F)c(F)c(F)c6F)c6ccc3[nH]6)C=C5)C=C4)cc1)[C@H](C(F)(F)F)O2
REMARK SMILES IDX 18 1 17 2 16 3 14 4 15 5 13 6 5 7 6 8 10 9 7 10 9 11 11 12
REMARK SMILES IDX 8 13 90 14 12 15 85 16 2 17 1 18 3 19 4 20 86 21 87 22 88 23
REMARK SMILES IDX 89 24 19 25 20 26 21 27 22 28 23 29 84 30 24 31 83 32 25 33
REMARK SMILES IDX 26 34 27 35 77 36 28 37 82 38 76 39 78 40 29 41 81 42 75 43
REMARK SMILES IDX 74 44 30 46 62 47 42 48 61 49 43 50 46 51 60 52 79 53 44 54
REMARK SMILES IDX 45 55 59 57 80 58 47 59 31 60 32 61 40 62 33 63 34 64 38 65
REMARK SMILES IDX 41 66 35 67 36 68 39 69 37 70 63 71 64 72 72 73 65 74 66 75
REMARK SMILES IDX 70 76 73 77 67 78 68 79 71 80 69 81 48 82 49 83 57 84 50 85
REMARK SMILES IDX 51 86 55 87 58 88 52 89 53 90 56 91 54 92
REMARK H PARENT 78 45 46 56
REMARK Flexibility Score: inf
ROOT
ATOM      1  C   UNL A   1      37.293  20.326  25.001  1.00  0.00     0.275 C 
ENDROOT
BRANCH   1   2
ATOM      2  C   UNL A   1      35.775  20.494  25.054  1.00  0.00     0.275 C 
BRANCH   2   3
ATOM      3  O   UNL A   1      35.422  21.566  25.957  1.00  0.00    -0.459 OA
BRANCH   3   4
ATOM      4  C   UNL A   1      34.140  21.593  26.379  1.00  0.00     0.338 C 
ATOM      5  O   UNL A   1      33.653  20.892  27.251  1.00  0.00    -0.246 OA
BRANCH   4   6
ATOM      6  C   UNL A   1      33.403  22.691  25.719  1.00  0.00     0.087 C 
ATOM      7  C   UNL A   1      31.791  27.283  24.263  1.00  0.00    -0.020 A 
ATOM      8  C   UNL A   1      31.313  25.944  24.143  1.00  0.00     0.053 A 
ATOM      9  C   UNL A   1      33.045  27.435  24.890  1.00  0.00     0.045 A 
ATOM     10  C   UNL A   1      31.995  24.843  24.669  1.00  0.00     0.128 A 
ATOM     11  C   UNL A   1      33.709  26.328  25.447  1.00  0.00     0.032 A 
ATOM     12  Cl  UNL A   1      33.922  28.913  25.055  1.00  0.00    -0.084 Cl
ATOM     13  C   UNL A   1      33.170  25.046  25.367  1.00  0.00     0.019 A 
ATOM     14  O   UNL A   1      31.422  23.611  24.517  1.00  0.00    -0.475 OA
ATOM     15  C   UNL A   1      33.802  23.930  26.037  1.00  0.00     0.027 C 
ATOM     16  C   UNL A   1      32.249  22.431  24.783  1.00  0.00     0.316 C 
BRANCH   7  17
ATOM     17  C   UNL A   1      30.868  28.405  23.724  1.00  0.00    -0.012 C 
ATOM     18  C   UNL A   1      30.653  29.652  24.607  1.00  0.00     0.016 C 
ATOM     19  C   UNL A   1      29.448  27.819  23.501  1.00  0.00     0.016 C 
ATOM     20  C   UNL A   1      31.424  28.917  22.376  1.00  0.00     0.016 C 
ENDBRANCH   7  17
BRANCH  16  21
ATOM     21  C   UNL A   1      32.624  21.742  23.456  1.00  0.00     0.430 C 
ATOM     22  F   UNL A   1      32.783  20.405  23.611  1.00  0.00    -0.167 F 
ATOM     23  F   UNL A   1      31.690  21.923  22.495  1.00  0.00    -0.167 F 
ATOM     24  F   UNL A   1      33.804  22.209  22.978  1.00  0.00    -0.167 F 
ENDBRANCH  16  21
ENDBRANCH   4   6
ENDBRANCH   3   4
ENDBRANCH   2   3
ENDBRANCH   1   2
BRANCH   1  25
ATOM     25  O   UNL A   1      37.916  21.453  25.645  1.00  0.00    -0.458 OA
BRANCH  25  26
ATOM     26  C   UNL A   1      39.161  21.251  26.126  1.00  0.00     0.338 C 
ATOM     27  O   UNL A   1      39.796  20.204  26.144  1.00  0.00    -0.246 OA
BRANCH  26  28
ATOM     28  C   UNL A   1      39.691  22.519  26.649  1.00  0.00     0.060 A 
ATOM     29  C   UNL A   1      40.753  22.525  27.547  1.00  0.00     0.016 A 
ATOM     30  C   UNL A   1      39.189  23.724  26.160  1.00  0.00     0.016 A 
ATOM     31  C   UNL A   1      41.290  23.747  27.967  1.00  0.00     0.010 A 
ATOM     32  C   UNL A   1      39.789  24.936  26.501  1.00  0.00     0.010 A 
ATOM     33  C   UNL A   1      40.840  24.969  27.426  1.00  0.00    -0.014 A 
BRANCH  33  34
ATOM     34  C   UNL A   1      41.498  26.256  27.800  1.00  0.00     0.031 A 
ATOM     35  C   UNL A   1      42.891  26.601  27.331  1.00  0.00     0.074 A 
ATOM     36  C   UNL A   1      40.843  27.125  28.597  1.00  0.00     0.049 A 
ATOM     37  N   UNL A   1      43.571  27.709  27.509  1.00  0.00    -0.248 NA
ATOM     38  C   UNL A   1      43.634  25.562  26.603  1.00  0.00     0.031 C 
ATOM     39  C   UNL A   1      39.541  26.878  29.220  1.00  0.00     0.029 A 
ATOM     40  N   UNL A   1      41.166  28.398  29.001  1.00  0.00    -0.354 N 
ATOM     41  C   UNL A   1      44.817  27.490  26.934  1.00  0.00     0.074 A 
ATOM     42  C   UNL A   1      44.826  26.125  26.460  1.00  0.00     0.031 C 
ATOM     43  C   UNL A   1      39.137  27.991  29.851  1.00  0.00     0.029 A 
ATOM     44  C   UNL A   1      40.163  29.020  29.706  1.00  0.00     0.049 A 
ATOM     45  H   UNL A   1      42.031  28.824  28.805  1.00  0.00     0.167 HD
ATOM     46  C   UNL A   1      45.846  28.358  26.779  1.00  0.00     0.037 A 
ATOM     47  C   UNL A   1      40.060  30.285  30.157  1.00  0.00     0.037 A 
ATOM     48  C   UNL A   1      45.821  29.735  27.197  1.00  0.00     0.049 A 
ATOM     49  C   UNL A   1      41.180  31.256  29.902  1.00  0.00     0.074 A 
ATOM     50  C   UNL A   1      46.783  30.712  27.008  1.00  0.00     0.029 A 
ATOM     51  N   UNL A   1      44.772  30.332  27.878  1.00  0.00    -0.354 N 
ATOM     52  N   UNL A   1      42.312  31.062  29.275  1.00  0.00    -0.248 NA
ATOM     53  C   UNL A   1      41.003  32.624  30.411  1.00  0.00     0.031 C 
ATOM     54  C   UNL A   1      46.327  31.895  27.596  1.00  0.00     0.029 A 
ATOM     55  C   UNL A   1      45.065  31.665  28.119  1.00  0.00     0.049 A 
ATOM     56  H   UNL A   1      43.942  29.878  28.151  1.00  0.00     0.167 HD
ATOM     57  C   UNL A   1      42.974  32.281  29.295  1.00  0.00     0.074 A 
ATOM     58  C   UNL A   1      42.110  33.216  29.984  1.00  0.00     0.031 C 
ATOM     59  C   UNL A   1      44.192  32.591  28.790  1.00  0.00     0.037 A 
BRANCH  46  60
ATOM     60  C   UNL A   1      47.083  27.862  26.083  1.00  0.00     0.064 A 
ATOM     61  C   UNL A   1      48.189  27.395  26.811  1.00  0.00     0.173 A 
ATOM     62  C   UNL A   1      47.140  27.785  24.683  1.00  0.00     0.173 A 
ATOM     63  F   UNL A   1      48.186  27.449  28.151  1.00  0.00    -0.203 F 
ATOM     64  C   UNL A   1      49.316  26.897  26.162  1.00  0.00     0.198 A 
ATOM     65  C   UNL A   1      48.256  27.258  24.040  1.00  0.00     0.198 A 
ATOM     66  F   UNL A   1      46.105  28.203  23.939  1.00  0.00    -0.203 F 
ATOM     67  F   UNL A   1      50.375  26.497  26.878  1.00  0.00    -0.200 F 
ATOM     68  C   UNL A   1      49.345  26.821  24.778  1.00  0.00     0.200 A 
ATOM     69  F   UNL A   1      48.278  27.168  22.702  1.00  0.00    -0.200 F 
ATOM     70  F   UNL A   1      50.426  26.328  24.157  1.00  0.00    -0.200 F 
ENDBRANCH  46  60
BRANCH  47  71
ATOM     71  C   UNL A   1      38.803  30.728  30.811  1.00  0.00     0.064 A 
ATOM     72  C   UNL A   1      38.679  30.697  32.208  1.00  0.00     0.173 A 
ATOM     73  C   UNL A   1      37.723  31.228  30.071  1.00  0.00     0.173 A 
ATOM     74  F   UNL A   1      39.680  30.211  32.957  1.00  0.00    -0.203 F 
ATOM     75  C   UNL A   1      37.521  31.144  32.839  1.00  0.00     0.198 A 
ATOM     76  C   UNL A   1      36.573  31.697  30.705  1.00  0.00     0.198 A 
ATOM     77  F   UNL A   1      37.795  31.285  28.733  1.00  0.00    -0.203 F 
ATOM     78  F   UNL A   1      37.420  31.079  34.174  1.00  0.00    -0.200 F 
ATOM     79  C   UNL A   1      36.472  31.651  32.087  1.00  0.00     0.200 A 
ATOM     80  F   UNL A   1      35.567  32.198  29.976  1.00  0.00    -0.200 F 
ATOM     81  F   UNL A   1      35.363  32.094  32.695  1.00  0.00    -0.200 F 
ENDBRANCH  47  71
BRANCH  59  82
ATOM     82  C   UNL A   1      44.671  34.005  28.934  1.00  0.00     0.064 A 
ATOM     83  C   UNL A   1      45.472  34.397  30.015  1.00  0.00     0.173 A 
ATOM     84  C   UNL A   1      44.405  34.949  27.932  1.00  0.00     0.173 A 
ATOM     85  F   UNL A   1      45.743  33.531  31.003  1.00  0.00    -0.203 F 
ATOM     86  C   UNL A   1      45.987  35.687  30.090  1.00  0.00     0.198 A 
ATOM     87  C   UNL A   1      44.941  36.232  27.998  1.00  0.00     0.198 A 
ATOM     88  F   UNL A   1      43.649  34.618  26.873  1.00  0.00    -0.203 F 
ATOM     89  F   UNL A   1      46.736  36.048  31.141  1.00  0.00    -0.200 F 
ATOM     90  C   UNL A   1      45.732  36.600  29.076  1.00  0.00     0.200 A 
ATOM     91  F   UNL A   1      44.704  37.108  27.012  1.00  0.00    -0.200 F 
ATOM     92  F   UNL A   1      46.247  37.836  29.140  1.00  0.00    -0.200 F 
ENDBRANCH  59  82
ENDBRANCH  33  34
ENDBRANCH  26  28
ENDBRANCH  25  26
ENDBRANCH   1  25
TORSDOF 13
ENDMDL
MODEL 3
REMARK VINA RESULT:     -12.6      4.364      9.840
REMARK SMILES CC(C)(C)c1cc2c(cc1Cl)C=C(C(=O)OCCOC(=O)c1ccc(-c3c4nc(c(-c5c(F)c(F)c(F)c(F)c5F)c5ccc([nH]5)c(-c5c(F)c(F)c(F)c(F)c5F)c5nc(c(-c6c(F)c(F)c(F)c(F)c6F)c6ccc3[nH]6)C=C5)C=C4)cc1)[C@H](C(F)(F)F)O2
REMARK SMILES IDX 18 1 17 2 16 3 14 4 15 5 13 6 5 7 6 8 10 9 7 10 9 11 11 12
REMARK SMILES IDX 8 13 90 14 12 15 85 16 2 17 1 18 3 19 4 20 86 21 87 22 88 23
REMARK SMILES IDX 89 24 19 25 20 26 21 27 22 28 23 29 84 30 24 31 83 32 25 33
REMARK SMILES IDX 26 34 27 35 77 36 28 37 82 38 76 39 78 40 29 41 81 42 75 43
REMARK SMILES IDX 74 44 30 46 62 47 42 48 61 49 43 50 46 51 60 52 79 53 44 54
REMARK SMILES IDX 45 55 59 57 80 58 47 59 31 60 32 61 40 62 33 63 34 64 38 65
REMARK SMILES IDX 41 66 35 67 36 68 39 69 37 70 63 71 64 72 72 73 65 74 66 75
REMARK SMILES IDX 70 76 73 77 67 78 68 79 71 80 69 81 48 82 49 83 57 84 50 85
REMARK SMILES IDX 51 86 55 87 58 88 52 89 53 90 56 91 54 92
REMARK H PARENT 78 45 46 56
REMARK Flexibility Score: inf
ROOT
ATOM      1  C   UNL A   1      37.347  20.384  24.722  1.00  0.00     0.275 C 
ENDROOT
BRANCH   1   2
ATOM      2  C   UNL A   1      35.881  20.051  25.000  1.00  0.00     0.275 C 
BRANCH   2   3
ATOM      3  O   UNL A   1      35.170  21.238  25.419  1.00  0.00    -0.459 OA
BRANCH   3   4
ATOM      4  C   UNL A   1      34.071  21.558  24.704  1.00  0.00     0.338 C 
ATOM      5  O   UNL A   1      33.513  20.849  23.882  1.00  0.00    -0.246 OA
BRANCH   4   6
ATOM      6  C   UNL A   1      33.536  22.865  25.139  1.00  0.00     0.087 C 
ATOM      7  C   UNL A   1      32.735  27.849  25.704  1.00  0.00    -0.020 A 
ATOM      8  C   UNL A   1      32.335  26.664  26.388  1.00  0.00     0.053 A 
ATOM      9  C   UNL A   1      33.508  27.657  24.540  1.00  0.00     0.045 A 
ATOM     10  C   UNL A   1      32.731  25.384  25.990  1.00  0.00     0.128 A 
ATOM     11  C   UNL A   1      33.932  26.371  24.163  1.00  0.00     0.032 A 
ATOM     12  Cl  UNL A   1      34.019  28.893  23.447  1.00  0.00    -0.084 Cl
ATOM     13  C   UNL A   1      33.575  25.246  24.904  1.00  0.00     0.019 A 
ATOM     14  O   UNL A   1      32.308  24.326  26.743  1.00  0.00    -0.475 OA
ATOM     15  C   UNL A   1      34.105  23.940  24.575  1.00  0.00     0.027 C 
ATOM     16  C   UNL A   1      32.452  22.980  26.181  1.00  0.00     0.316 C 
BRANCH   7  17
ATOM     17  C   UNL A   1      32.303  29.198  26.332  1.00  0.00    -0.012 C 
ATOM     18  C   UNL A   1      33.410  30.183  26.764  1.00  0.00     0.016 C 
ATOM     19  C   UNL A   1      31.493  28.910  27.624  1.00  0.00     0.016 C 
ATOM     20  C   UNL A   1      31.408  29.963  25.331  1.00  0.00     0.016 C 
ENDBRANCH   7  17
BRANCH  16  21
ATOM     21  C   UNL A   1      31.073  22.438  25.755  1.00  0.00     0.430 C 
ATOM     22  F   UNL A   1      30.117  22.720  26.674  1.00  0.00    -0.167 F 
ATOM     23  F   UNL A   1      30.656  22.951  24.576  1.00  0.00    -0.167 F 
ATOM     24  F   UNL A   1      31.094  21.087  25.636  1.00  0.00    -0.167 F 
ENDBRANCH  16  21
ENDBRANCH   4   6
ENDBRANCH   3   4
ENDBRANCH   2   3
ENDBRANCH   1   2
BRANCH   1  25
ATOM     25  O   UNL A   1      37.833  21.271  25.747  1.00  0.00    -0.458 OA
BRANCH  25  26
ATOM     26  C   UNL A   1      39.116  21.095  26.128  1.00  0.00     0.338 C 
ATOM     27  O   UNL A   1      39.780  20.067  26.070  1.00  0.00    -0.246 OA
BRANCH  26  28
ATOM     28  C   UNL A   1      39.648  22.365  26.644  1.00  0.00     0.060 A 
ATOM     29  C   UNL A   1      40.702  22.373  27.551  1.00  0.00     0.016 A 
ATOM     30  C   UNL A   1      39.158  23.568  26.139  1.00  0.00     0.016 A 
ATOM     31  C   UNL A   1      41.241  23.596  27.965  1.00  0.00     0.010 A 
ATOM     32  C   UNL A   1      39.761  24.780  26.474  1.00  0.00     0.010 A 
ATOM     33  C   UNL A   1      40.804  24.816  27.408  1.00  0.00    -0.014 A 
BRANCH  33  34
ATOM     34  C   UNL A   1      41.465  26.102  27.776  1.00  0.00     0.031 A 
ATOM     35  C   UNL A   1      42.854  26.446  27.297  1.00  0.00     0.074 A 
ATOM     36  C   UNL A   1      40.816  26.973  28.577  1.00  0.00     0.049 A 
ATOM     37  N   UNL A   1      43.537  27.554  27.469  1.00  0.00    -0.248 NA
ATOM     38  C   UNL A   1      43.592  25.406  26.565  1.00  0.00     0.031 C 
ATOM     39  C   UNL A   1      39.518  26.728  29.209  1.00  0.00     0.029 A 
ATOM     40  N   UNL A   1      41.143  28.246  28.977  1.00  0.00    -0.354 N 
ATOM     41  C   UNL A   1      44.779  27.333  26.887  1.00  0.00     0.074 A 
ATOM     42  C   UNL A   1      44.784  25.967  26.413  1.00  0.00     0.031 C 
ATOM     43  C   UNL A   1      39.120  27.842  29.841  1.00  0.00     0.029 A 
ATOM     44  C   UNL A   1      40.145  28.870  29.688  1.00  0.00     0.049 A 
ATOM     45  H   UNL A   1      42.007  28.671  28.775  1.00  0.00     0.167 HD
ATOM     46  C   UNL A   1      45.808  28.200  26.723  1.00  0.00     0.037 A 
ATOM     47  C   UNL A   1      40.047  30.136  30.139  1.00  0.00     0.037 A 
ATOM     48  C   UNL A   1      45.787  29.577  27.140  1.00  0.00     0.049 A 
ATOM     49  C   UNL A   1      41.165  31.105  29.875  1.00  0.00     0.074 A 
ATOM     50  C   UNL A   1      46.748  30.553  26.943  1.00  0.00     0.029 A 
ATOM     51  N   UNL A   1      44.742  30.177  27.827  1.00  0.00    -0.354 N 
ATOM     52  N   UNL A   1      42.293  30.909  29.240  1.00  0.00    -0.248 NA
ATOM     53  C   UNL A   1      40.992  32.474  30.383  1.00  0.00     0.031 C 
ATOM     54  C   UNL A   1      46.297  31.738  27.533  1.00  0.00     0.029 A 
ATOM     55  C   UNL A   1      45.038  31.509  28.065  1.00  0.00     0.049 A 
ATOM     56  H   UNL A   1      43.914  29.723  28.106  1.00  0.00     0.167 HD
ATOM     57  C   UNL A   1      42.956  32.128  29.254  1.00  0.00     0.074 A 
ATOM     58  C   UNL A   1      42.098  33.065  29.948  1.00  0.00     0.031 C 
ATOM     59  C   UNL A   1      44.170  32.437  28.741  1.00  0.00     0.037 A 
BRANCH  46  60
ATOM     60  C   UNL A   1      47.039  27.702  26.019  1.00  0.00     0.064 A 
ATOM     61  C   UNL A   1      47.151  27.762  24.621  1.00  0.00     0.173 A 
ATOM     62  C   UNL A   1      48.142  27.228  26.745  1.00  0.00     0.173 A 
ATOM     63  F   UNL A   1      46.124  28.203  23.881  1.00  0.00    -0.203 F 
ATOM     64  C   UNL A   1      48.310  27.339  23.976  1.00  0.00     0.198 A 
ATOM     65  C   UNL A   1      49.310  26.835  26.098  1.00  0.00     0.198 A 
ATOM     66  F   UNL A   1      48.094  27.164  28.084  1.00  0.00    -0.203 F 
ATOM     67  F   UNL A   1      48.377  27.366  22.638  1.00  0.00    -0.200 F 
ATOM     68  C   UNL A   1      49.391  26.884  24.715  1.00  0.00     0.200 A 
ATOM     69  F   UNL A   1      50.362  26.411  26.813  1.00  0.00    -0.200 F 
ATOM     70  F   UNL A   1      50.511  26.490  24.092  1.00  0.00    -0.200 F 
ENDBRANCH  46  60
BRANCH  47  71
ATOM     71  C   UNL A   1      38.794  30.580  30.800  1.00  0.00     0.064 A 
ATOM     72  C   UNL A   1      38.692  30.585  32.200  1.00  0.00     0.173 A 
ATOM     73  C   UNL A   1      37.696  31.046  30.064  1.00  0.00     0.173 A 
ATOM     74  F   UNL A   1      39.711  30.133  32.945  1.00  0.00    -0.203 F 
ATOM     75  C   UNL A   1      37.539  31.034  32.837  1.00  0.00     0.198 A 
ATOM     76  C   UNL A   1      36.551  31.518  30.704  1.00  0.00     0.198 A 
ATOM     77  F   UNL A   1      37.746  31.068  28.725  1.00  0.00    -0.203 F 
ATOM     78  F   UNL A   1      37.459  31.004  34.174  1.00  0.00    -0.200 F 
ATOM     79  C   UNL A   1      36.472  31.508  32.089  1.00  0.00     0.200 A 
ATOM     80  F   UNL A   1      35.526  31.987  29.978  1.00  0.00    -0.200 F 
ATOM     81  F   UNL A   1      35.367  31.953  32.703  1.00  0.00    -0.200 F 
ENDBRANCH  47  71
BRANCH  59  82
ATOM     82  C   UNL A   1      44.651  33.850  28.880  1.00  0.00     0.064 A 
ATOM     83  C   UNL A   1      45.461  34.242  29.954  1.00  0.00     0.173 A 
ATOM     84  C   UNL A   1      44.378  34.794  27.879  1.00  0.00     0.173 A 
ATOM     85  F   UNL A   1      45.740  33.377  30.941  1.00  0.00    -0.203 F 
ATOM     86  C   UNL A   1      45.979  35.532  30.023  1.00  0.00     0.198 A 
ATOM     87  C   UNL A   1      44.915  36.077  27.940  1.00  0.00     0.198 A 
ATOM     88  F   UNL A   1      43.613  34.463  26.827  1.00  0.00    -0.203 F 
ATOM     89  F   UNL A   1      46.736  35.894  31.068  1.00  0.00    -0.200 F 
ATOM     90  C   UNL A   1      45.715  36.444  29.012  1.00  0.00     0.200 A 
ATOM     91  F   UNL A   1      44.670  36.953  26.955  1.00  0.00    -0.200 F 
ATOM     92  F   UNL A   1      46.232  37.680  29.070  1.00  0.00    -0.200 F 
ENDBRANCH  59  82
ENDBRANCH  33  34
ENDBRANCH  26  28
ENDBRANCH  25  26
ENDBRANCH   1  25
TORSDOF 13
ENDMDL
