MODEL 1
REMARK VINA RESULT:     -11.5      0.000      0.000
REMARK SMILES CN(C(=O)CC(=O)OCCOC(=O)c1ccc(-c2c3nc(c(-c4c(F)c(F)c(F)c(F)c4F)c4ccc([nH]4)c(-c4c(F)c(F)c(F)c(F)c4F)c4nc(c(-c5c(F)c(F)c(F)c(F)c5F)c5ccc2[nH]5)C=C4)C=C3)cc1)C1CCC(C)(C)CC1
REMARK SMILES IDX 9 1 8 2 6 3 7 4 5 5 3 6 4 7 2 8 1 9 77 10 78 11 84 12 79 13
REMARK SMILES IDX 83 14 80 15 81 16 82 17 10 18 11 19 12 20 13 21 14 22 15 23
REMARK SMILES IDX 76 24 16 25 75 26 17 27 18 28 19 29 69 30 20 31 74 32 68 33
REMARK SMILES IDX 70 34 21 35 73 36 67 37 66 38 22 40 54 41 34 42 53 43 35 44
REMARK SMILES IDX 38 45 52 46 71 47 36 48 37 49 51 51 72 52 39 53 23 54 24 55
REMARK SMILES IDX 32 56 25 57 26 58 30 59 33 60 27 61 28 62 31 63 29 64 55 65
REMARK SMILES IDX 56 66 64 67 57 68 58 69 62 70 65 71 59 72 60 73 63 74 61 75
REMARK SMILES IDX 40 76 41 77 49 78 42 79 43 80 47 81 50 82 44 83 45 84 48 85
REMARK SMILES IDX 46 86
REMARK H PARENT 70 39 38 50
REMARK Flexibility Score: inf
ROOT
ATOM      1  C   UNL A   1      31.837  28.420  24.942  1.00  0.00     0.274 C 
ENDROOT
BRANCH   1   2
ATOM      2  O   UNL A   1      30.718  27.531  25.138  1.00  0.00    -0.462 OA
BRANCH   2   3
ATOM      3  C   UNL A   1      30.885  26.533  26.041  1.00  0.00     0.315 C 
ATOM      4  O   UNL A   1      31.382  26.671  27.154  1.00  0.00    -0.252 OA
BRANCH   3   5
ATOM      5  C   UNL A   1      30.476  25.192  25.516  1.00  0.00     0.222 C 
BRANCH   5   6
ATOM      6  C   UNL A   1      30.978  24.002  26.294  1.00  0.00     0.233 C 
ATOM      7  O   UNL A   1      30.310  23.600  27.251  1.00  0.00    -0.274 OA
BRANCH   6   8
ATOM      8  N   UNL A   1      32.150  23.355  25.886  1.00  0.00    -0.342 N 
ATOM      9  C   UNL A   1      32.173  22.203  24.998  1.00  0.00     0.147 C 
BRANCH   8  10
ATOM     10  C   UNL A   1      33.429  23.842  26.466  1.00  0.00     0.084 C 
ATOM     11  C   UNL A   1      34.357  22.674  26.841  1.00  0.00     0.025 C 
ATOM     12  C   UNL A   1      34.174  24.924  25.663  1.00  0.00     0.025 C 
ATOM     13  C   UNL A   1      35.173  22.135  25.667  1.00  0.00     0.008 C 
ATOM     14  C   UNL A   1      35.058  24.405  24.525  1.00  0.00     0.008 C 
ATOM     15  C   UNL A   1      35.970  23.221  24.913  1.00  0.00    -0.035 C 
ATOM     16  C   UNL A   1      36.552  22.605  23.625  1.00  0.00     0.011 C 
ATOM     17  C   UNL A   1      37.146  23.715  25.777  1.00  0.00     0.011 C 
ENDBRANCH   8  10
ENDBRANCH   6   8
ENDBRANCH   5   6
ENDBRANCH   3   5
ENDBRANCH   2   3
ENDBRANCH   1   2
BRANCH   1  18
ATOM     18  C   UNL A   1      31.666  29.685  25.775  1.00  0.00     0.275 C 
BRANCH  18  19
ATOM     19  O   UNL A   1      32.899  30.425  25.769  1.00  0.00    -0.458 OA
BRANCH  19  20
ATOM     20  C   UNL A   1      33.108  31.232  26.828  1.00  0.00     0.338 C 
ATOM     21  O   UNL A   1      32.375  32.130  27.229  1.00  0.00    -0.246 OA
BRANCH  20  22
ATOM     22  C   UNL A   1      34.390  30.902  27.481  1.00  0.00     0.060 A 
ATOM     23  C   UNL A   1      34.718  29.586  27.820  1.00  0.00     0.016 A 
ATOM     24  C   UNL A   1      35.242  31.946  27.846  1.00  0.00     0.016 A 
ATOM     25  C   UNL A   1      35.850  29.326  28.595  1.00  0.00     0.010 A 
ATOM     26  C   UNL A   1      36.423  31.672  28.538  1.00  0.00     0.010 A 
ATOM     27  C   UNL A   1      36.728  30.363  28.946  1.00  0.00    -0.014 A 
BRANCH  27  28
ATOM     28  C   UNL A   1      37.965  30.096  29.731  1.00  0.00     0.031 A 
ATOM     29  C   UNL A   1      39.055  29.222  29.167  1.00  0.00     0.074 A 
ATOM     30  C   UNL A   1      38.104  30.609  30.969  1.00  0.00     0.049 A 
ATOM     31  N   UNL A   1      40.103  28.715  29.767  1.00  0.00    -0.248 NA
ATOM     32  C   UNL A   1      38.944  28.859  27.746  1.00  0.00     0.031 C 
ATOM     33  C   UNL A   1      37.141  31.488  31.635  1.00  0.00     0.029 A 
ATOM     34  N   UNL A   1      39.108  30.457  31.892  1.00  0.00    -0.354 N 
ATOM     35  C   UNL A   1      40.745  27.933  28.815  1.00  0.00     0.074 A 
ATOM     36  C   UNL A   1      39.972  28.034  27.595  1.00  0.00     0.031 C 
ATOM     37  C   UNL A   1      37.615  31.821  32.845  1.00  0.00     0.029 A 
ATOM     38  C   UNL A   1      38.874  31.121  33.071  1.00  0.00     0.049 A 
ATOM     39  H   UNL A   1      39.919  29.925  31.725  1.00  0.00     0.167 HD
ATOM     40  C   UNL A   1      41.873  27.195  28.951  1.00  0.00     0.037 A 
ATOM     41  C   UNL A   1      39.571  31.136  34.223  1.00  0.00     0.037 A 
ATOM     42  C   UNL A   1      42.673  27.132  30.145  1.00  0.00     0.049 A 
ATOM     43  C   UNL A   1      40.814  30.305  34.348  1.00  0.00     0.074 A 
ATOM     44  C   UNL A   1      43.847  26.430  30.364  1.00  0.00     0.029 A 
ATOM     45  N   UNL A   1      42.391  27.813  31.320  1.00  0.00    -0.354 N 
ATOM     46  N   UNL A   1      41.380  29.527  33.460  1.00  0.00    -0.248 NA
ATOM     47  C   UNL A   1      41.503  30.338  35.647  1.00  0.00     0.031 C 
ATOM     48  C   UNL A   1      44.264  26.668  31.680  1.00  0.00     0.029 A 
ATOM     49  C   UNL A   1      43.366  27.543  32.268  1.00  0.00     0.049 A 
ATOM     50  H   UNL A   1      41.614  28.401  31.460  1.00  0.00     0.167 HD
ATOM     51  C   UNL A   1      42.489  28.979  34.087  1.00  0.00     0.074 A 
ATOM     52  C   UNL A   1      42.530  29.530  35.426  1.00  0.00     0.031 C 
ATOM     53  C   UNL A   1      43.390  28.093  33.597  1.00  0.00     0.037 A 
BRANCH  40  54
ATOM     54  C   UNL A   1      42.308  26.369  27.777  1.00  0.00     0.064 A 
ATOM     55  C   UNL A   1      43.309  26.806  26.899  1.00  0.00     0.173 A 
ATOM     56  C   UNL A   1      41.756  25.096  27.566  1.00  0.00     0.173 A 
ATOM     57  F   UNL A   1      43.857  28.021  27.052  1.00  0.00    -0.203 F 
ATOM     58  C   UNL A   1      43.733  26.002  25.844  1.00  0.00     0.198 A 
ATOM     59  C   UNL A   1      42.197  24.287  26.523  1.00  0.00     0.198 A 
ATOM     60  F   UNL A   1      40.798  24.631  28.383  1.00  0.00    -0.203 F 
ATOM     61  F   UNL A   1      44.671  26.451  24.998  1.00  0.00    -0.200 F 
ATOM     62  C   UNL A   1      43.183  24.742  25.661  1.00  0.00     0.200 A 
ATOM     63  F   UNL A   1      41.670  23.067  26.354  1.00  0.00    -0.200 F 
ATOM     64  F   UNL A   1      43.600  23.967  24.650  1.00  0.00    -0.200 F 
ENDBRANCH  40  54
BRANCH  41  65
ATOM     65  C   UNL A   1      39.083  31.951  35.362  1.00  0.00     0.064 A 
ATOM     66  C   UNL A   1      38.318  31.372  36.381  1.00  0.00     0.173 A 
ATOM     67  C   UNL A   1      39.392  33.314  35.466  1.00  0.00     0.173 A 
ATOM     68  F   UNL A   1      37.979  30.075  36.309  1.00  0.00    -0.203 F 
ATOM     69  C   UNL A   1      37.876  32.127  37.464  1.00  0.00     0.198 A 
ATOM     70  C   UNL A   1      38.971  34.064  36.561  1.00  0.00     0.198 A 
ATOM     71  F   UNL A   1      40.123  33.913  34.513  1.00  0.00    -0.203 F 
ATOM     72  F   UNL A   1      37.122  31.556  38.414  1.00  0.00    -0.200 F 
ATOM     73  C   UNL A   1      38.209  33.471  37.558  1.00  0.00     0.200 A 
ATOM     74  F   UNL A   1      39.304  35.358  36.653  1.00  0.00    -0.200 F 
ATOM     75  F   UNL A   1      37.795  34.195  38.606  1.00  0.00    -0.200 F 
ENDBRANCH  41  65
BRANCH  53  76
ATOM     76  C   UNL A   1      44.499  27.677  34.513  1.00  0.00     0.064 A 
ATOM     77  C   UNL A   1      45.691  28.411  34.592  1.00  0.00     0.173 A 
ATOM     78  C   UNL A   1      44.361  26.547  35.331  1.00  0.00     0.173 A 
ATOM     79  F   UNL A   1      45.873  29.489  33.815  1.00  0.00    -0.203 F 
ATOM     80  C   UNL A   1      46.717  28.015  35.447  1.00  0.00     0.198 A 
ATOM     81  C   UNL A   1      45.381  26.164  36.197  1.00  0.00     0.198 A 
ATOM     82  F   UNL A   1      43.238  25.816  35.289  1.00  0.00    -0.203 F 
ATOM     83  F   UNL A   1      47.864  28.707  35.481  1.00  0.00    -0.200 F 
ATOM     84  C   UNL A   1      46.559  26.895  36.251  1.00  0.00     0.200 A 
ATOM     85  F   UNL A   1      45.227  25.086  36.976  1.00  0.00    -0.200 F 
ATOM     86  F   UNL A   1      47.548  26.514  37.070  1.00  0.00    -0.200 F 
ENDBRANCH  53  76
ENDBRANCH  27  28
ENDBRANCH  20  22
ENDBRANCH  19  20
ENDBRANCH  18  19
ENDBRANCH   1  18
TORSDOF 14
ENDMDL
MODEL 2
REMARK VINA RESULT:     -11.4      0.854      1.737
REMARK SMILES CN(C(=O)CC(=O)OCCOC(=O)c1ccc(-c2c3nc(c(-c4c(F)c(F)c(F)c(F)c4F)c4ccc([nH]4)c(-c4c(F)c(F)c(F)c(F)c4F)c4nc(c(-c5c(F)c(F)c(F)c(F)c5F)c5ccc2[nH]5)C=C4)C=C3)cc1)C1CCC(C)(C)CC1
REMARK SMILES IDX 9 1 8 2 6 3 7 4 5 5 3 6 4 7 2 8 1 9 77 10 78 11 84 12 79 13
REMARK SMILES IDX 83 14 80 15 81 16 82 17 10 18 11 19 12 20 13 21 14 22 15 23
REMARK SMILES IDX 76 24 16 25 75 26 17 27 18 28 19 29 69 30 20 31 74 32 68 33
REMARK SMILES IDX 70 34 21 35 73 36 67 37 66 38 22 40 54 41 34 42 53 43 35 44
REMARK SMILES IDX 38 45 52 46 71 47 36 48 37 49 51 51 72 52 39 53 23 54 24 55
REMARK SMILES IDX 32 56 25 57 26 58 30 59 33 60 27 61 28 62 31 63 29 64 55 65
REMARK SMILES IDX 56 66 64 67 57 68 58 69 62 70 65 71 59 72 60 73 63 74 61 75
REMARK SMILES IDX 40 76 41 77 49 78 42 79 43 80 47 81 50 82 44 83 45 84 48 85
REMARK SMILES IDX 46 86
REMARK H PARENT 70 39 38 50
REMARK Flexibility Score: inf
ROOT
ATOM      1  C   UNL A   1      31.757  28.424  26.462  1.00  0.00     0.274 C 
ENDROOT
BRANCH   1   2
ATOM      2  O   UNL A   1      31.585  27.571  25.312  1.00  0.00    -0.462 OA
BRANCH   2   3
ATOM      3  C   UNL A   1      30.657  26.587  25.418  1.00  0.00     0.315 C 
ATOM      4  O   UNL A   1      30.348  26.025  26.464  1.00  0.00    -0.252 OA
BRANCH   3   5
ATOM      5  C   UNL A   1      30.087  26.174  24.097  1.00  0.00     0.222 C 
BRANCH   5   6
ATOM      6  C   UNL A   1      31.091  25.799  23.037  1.00  0.00     0.233 C 
ATOM      7  O   UNL A   1      31.313  26.601  22.125  1.00  0.00    -0.274 OA
BRANCH   6   8
ATOM      8  N   UNL A   1      31.780  24.585  23.139  1.00  0.00    -0.342 N 
ATOM      9  C   UNL A   1      31.150  23.323  23.497  1.00  0.00     0.147 C 
BRANCH   8  10
ATOM     10  C   UNL A   1      33.252  24.623  22.940  1.00  0.00     0.084 C 
ATOM     11  C   UNL A   1      33.942  25.490  24.007  1.00  0.00     0.025 C 
ATOM     12  C   UNL A   1      33.953  23.263  22.773  1.00  0.00     0.025 C 
ATOM     13  C   UNL A   1      34.206  24.754  25.320  1.00  0.00     0.008 C 
ATOM     14  C   UNL A   1      34.297  22.537  24.077  1.00  0.00     0.008 C 
ATOM     15  C   UNL A   1      34.971  23.425  25.145  1.00  0.00    -0.035 C 
ATOM     16  C   UNL A   1      34.968  22.669  26.488  1.00  0.00     0.011 C 
ATOM     17  C   UNL A   1      36.438  23.702  24.759  1.00  0.00     0.011 C 
ENDBRANCH   8  10
ENDBRANCH   6   8
ENDBRANCH   5   6
ENDBRANCH   3   5
ENDBRANCH   2   3
ENDBRANCH   1   2
BRANCH   1  18
ATOM     18  C   UNL A   1      31.618  29.890  26.064  1.00  0.00     0.275 C 
BRANCH  18  19
ATOM     19  O   UNL A   1      32.927  30.480  25.973  1.00  0.00    -0.458 OA
BRANCH  19  20
ATOM     20  C   UNL A   1      33.238  31.374  26.932  1.00  0.00     0.338 C 
ATOM     21  O   UNL A   1      32.593  32.367  27.255  1.00  0.00    -0.246 OA
BRANCH  20  22
ATOM     22  C   UNL A   1      34.514  31.011  27.580  1.00  0.00     0.060 A 
ATOM     23  C   UNL A   1      34.786  29.696  27.969  1.00  0.00     0.016 A 
ATOM     24  C   UNL A   1      35.419  32.027  27.889  1.00  0.00     0.016 A 
ATOM     25  C   UNL A   1      35.917  29.414  28.737  1.00  0.00     0.010 A 
ATOM     26  C   UNL A   1      36.598  31.726  28.575  1.00  0.00     0.010 A 
ATOM     27  C   UNL A   1      36.847  30.422  29.032  1.00  0.00    -0.014 A 
BRANCH  27  28
ATOM     28  C   UNL A   1      38.084  30.129  29.809  1.00  0.00     0.031 A 
ATOM     29  C   UNL A   1      39.159  29.245  29.232  1.00  0.00     0.074 A 
ATOM     30  C   UNL A   1      38.234  30.626  31.052  1.00  0.00     0.049 A 
ATOM     31  N   UNL A   1      40.202  28.717  29.822  1.00  0.00    -0.248 NA
ATOM     32  C   UNL A   1      39.038  28.899  27.807  1.00  0.00     0.031 C 
ATOM     33  C   UNL A   1      37.287  31.512  31.732  1.00  0.00     0.029 A 
ATOM     34  N   UNL A   1      39.240  30.450  31.970  1.00  0.00    -0.354 N 
ATOM     35  C   UNL A   1      40.829  27.936  28.860  1.00  0.00     0.074 A 
ATOM     36  C   UNL A   1      40.054  28.062  27.644  1.00  0.00     0.031 C 
ATOM     37  C   UNL A   1      37.769  31.825  32.943  1.00  0.00     0.029 A 
ATOM     38  C   UNL A   1      39.020  31.105  33.157  1.00  0.00     0.049 A 
ATOM     39  H   UNL A   1      40.042  29.908  31.794  1.00  0.00     0.167 HD
ATOM     40  C   UNL A   1      41.946  27.181  28.983  1.00  0.00     0.037 A 
ATOM     41  C   UNL A   1      39.720  31.097  34.306  1.00  0.00     0.037 A 
ATOM     42  C   UNL A   1      42.750  27.094  30.174  1.00  0.00     0.049 A 
ATOM     43  C   UNL A   1      40.952  30.247  34.418  1.00  0.00     0.074 A 
ATOM     44  C   UNL A   1      43.914  26.373  30.381  1.00  0.00     0.029 A 
ATOM     45  N   UNL A   1      42.482  27.766  31.358  1.00  0.00    -0.354 N 
ATOM     46  N   UNL A   1      41.504  29.471  33.519  1.00  0.00    -0.248 NA
ATOM     47  C   UNL A   1      41.646  30.257  35.714  1.00  0.00     0.031 C 
ATOM     48  C   UNL A   1      44.340  26.591  31.698  1.00  0.00     0.029 A 
ATOM     49  C   UNL A   1      43.457  27.472  32.299  1.00  0.00     0.049 A 
ATOM     50  H   UNL A   1      41.714  28.363  31.506  1.00  0.00     0.167 HD
ATOM     51  C   UNL A   1      42.607  28.901  34.136  1.00  0.00     0.074 A 
ATOM     52  C   UNL A   1      42.661  29.436  35.481  1.00  0.00     0.031 C 
ATOM     53  C   UNL A   1      43.493  28.008  33.633  1.00  0.00     0.037 A 
BRANCH  40  54
ATOM     54  C   UNL A   1      42.366  26.361  27.799  1.00  0.00     0.064 A 
ATOM     55  C   UNL A   1      43.357  26.802  26.912  1.00  0.00     0.173 A 
ATOM     56  C   UNL A   1      41.808  25.091  27.587  1.00  0.00     0.173 A 
ATOM     57  F   UNL A   1      43.909  28.014  27.066  1.00  0.00    -0.203 F 
ATOM     58  C   UNL A   1      43.767  26.004  25.847  1.00  0.00     0.198 A 
ATOM     59  C   UNL A   1      42.234  24.288  26.534  1.00  0.00     0.198 A 
ATOM     60  F   UNL A   1      40.859  24.624  28.413  1.00  0.00    -0.203 F 
ATOM     61  F   UNL A   1      44.696  26.456  24.992  1.00  0.00    -0.200 F 
ATOM     62  C   UNL A   1      43.211  24.746  25.663  1.00  0.00     0.200 A 
ATOM     63  F   UNL A   1      41.703  23.070  26.363  1.00  0.00    -0.200 F 
ATOM     64  F   UNL A   1      43.614  23.977  24.642  1.00  0.00    -0.200 F 
ENDBRANCH  40  54
BRANCH  41  65
ATOM     65  C   UNL A   1      39.248  31.907  35.456  1.00  0.00     0.064 A 
ATOM     66  C   UNL A   1      38.405  31.351  36.425  1.00  0.00     0.173 A 
ATOM     67  C   UNL A   1      39.649  33.240  35.620  1.00  0.00     0.173 A 
ATOM     68  F   UNL A   1      37.978  30.085  36.294  1.00  0.00    -0.203 F 
ATOM     69  C   UNL A   1      37.977  32.100  37.518  1.00  0.00     0.198 A 
ATOM     70  C   UNL A   1      39.240  33.981  36.726  1.00  0.00     0.198 A 
ATOM     71  F   UNL A   1      40.457  33.816  34.716  1.00  0.00    -0.203 F 
ATOM     72  F   UNL A   1      37.149  31.553  38.419  1.00  0.00    -0.200 F 
ATOM     73  C   UNL A   1      38.401  33.412  37.673  1.00  0.00     0.200 A 
ATOM     74  F   UNL A   1      39.661  35.244  36.877  1.00  0.00    -0.200 F 
ATOM     75  F   UNL A   1      37.999  34.128  38.730  1.00  0.00    -0.200 F 
ENDBRANCH  41  65
BRANCH  53  76
ATOM     76  C   UNL A   1      44.599  27.566  34.541  1.00  0.00     0.064 A 
ATOM     77  C   UNL A   1      44.468  26.426  35.346  1.00  0.00     0.173 A 
ATOM     78  C   UNL A   1      45.806  28.277  34.591  1.00  0.00     0.173 A 
ATOM     79  F   UNL A   1      43.325  25.725  35.344  1.00  0.00    -0.203 F 
ATOM     80  C   UNL A   1      45.503  26.024  36.187  1.00  0.00     0.198 A 
ATOM     81  C   UNL A   1      46.845  27.863  35.419  1.00  0.00     0.198 A 
ATOM     82  F   UNL A   1      45.976  29.373  33.837  1.00  0.00    -0.203 F 
ATOM     83  F   UNL A   1      45.345  24.954  36.978  1.00  0.00    -0.200 F 
ATOM     84  C   UNL A   1      46.691  26.740  36.220  1.00  0.00     0.200 A 
ATOM     85  F   UNL A   1      47.994  28.552  35.447  1.00  0.00    -0.200 F 
ATOM     86  F   UNL A   1      47.685  26.354  37.031  1.00  0.00    -0.200 F 
ENDBRANCH  53  76
ENDBRANCH  27  28
ENDBRANCH  20  22
ENDBRANCH  19  20
ENDBRANCH  18  19
ENDBRANCH   1  18
TORSDOF 14
ENDMDL
MODEL 3
REMARK VINA RESULT:     -11.3      0.564      2.143
REMARK SMILES CN(C(=O)CC(=O)OCCOC(=O)c1ccc(-c2c3nc(c(-c4c(F)c(F)c(F)c(F)c4F)c4ccc([nH]4)c(-c4c(F)c(F)c(F)c(F)c4F)c4nc(c(-c5c(F)c(F)c(F)c(F)c5F)c5ccc2[nH]5)C=C4)C=C3)cc1)C1CCC(C)(C)CC1
REMARK SMILES IDX 9 1 8 2 6 3 7 4 5 5 3 6 4 7 2 8 1 9 77 10 78 11 84 12 79 13
REMARK SMILES IDX 83 14 80 15 81 16 82 17 10 18 11 19 12 20 13 21 14 22 15 23
REMARK SMILES IDX 76 24 16 25 75 26 17 27 18 28 19 29 69 30 20 31 74 32 68 33
REMARK SMILES IDX 70 34 21 35 73 36 67 37 66 38 22 40 54 41 34 42 53 43 35 44
REMARK SMILES IDX 38 45 52 46 71 47 36 48 37 49 51 51 72 52 39 53 23 54 24 55
REMARK SMILES IDX 32 56 25 57 26 58 30 59 33 60 27 61 28 62 31 63 29 64 55 65
REMARK SMILES IDX 56 66 64 67 57 68 58 69 62 70 65 71 59 72 60 73 63 74 61 75
REMARK SMILES IDX 40 76 41 77 49 78 42 79 43 80 47 81 50 82 44 83 45 84 48 85
REMARK SMILES IDX 46 86
REMARK H PARENT 70 39 38 50
REMARK Flexibility Score: inf
ROOT
ATOM      1  C   UNL A   1      32.251  28.203  25.373  1.00  0.00     0.274 C 
ENDROOT
BRANCH   1   2
ATOM      2  O   UNL A   1      31.248  27.641  24.503  1.00  0.00    -0.462 OA
BRANCH   2   3
ATOM      3  C   UNL A   1      30.496  26.633  25.013  1.00  0.00     0.315 C 
ATOM      4  O   UNL A   1      29.434  26.242  24.539  1.00  0.00    -0.252 OA
BRANCH   3   5
ATOM      5  C   UNL A   1      31.046  26.079  26.290  1.00  0.00     0.222 C 
BRANCH   5   6
ATOM      6  C   UNL A   1      31.461  24.630  26.252  1.00  0.00     0.233 C 
ATOM      7  O   UNL A   1      31.261  23.933  27.251  1.00  0.00    -0.274 OA
BRANCH   6   8
ATOM      8  N   UNL A   1      32.010  24.101  25.078  1.00  0.00    -0.342 N 
ATOM      9  C   UNL A   1      31.362  23.081  24.268  1.00  0.00     0.147 C 
BRANCH   8  10
ATOM     10  C   UNL A   1      33.370  24.565  24.698  1.00  0.00     0.084 C 
ATOM     11  C   UNL A   1      34.351  24.457  25.877  1.00  0.00     0.025 C 
ATOM     12  C   UNL A   1      33.960  23.964  23.410  1.00  0.00     0.025 C 
ATOM     13  C   UNL A   1      34.950  23.062  26.053  1.00  0.00     0.008 C 
ATOM     14  C   UNL A   1      34.633  22.598  23.572  1.00  0.00     0.008 C 
ATOM     15  C   UNL A   1      35.601  22.499  24.770  1.00  0.00    -0.035 C 
ATOM     16  C   UNL A   1      35.951  21.016  25.002  1.00  0.00     0.011 C 
ATOM     17  C   UNL A   1      36.909  23.253  24.462  1.00  0.00     0.011 C 
ENDBRANCH   8  10
ENDBRANCH   6   8
ENDBRANCH   5   6
ENDBRANCH   3   5
ENDBRANCH   2   3
ENDBRANCH   1   2
BRANCH   1  18
ATOM     18  C   UNL A   1      31.863  29.617  25.791  1.00  0.00     0.275 C 
BRANCH  18  19
ATOM     19  O   UNL A   1      33.033  30.455  25.767  1.00  0.00    -0.458 OA
BRANCH  19  20
ATOM     20  C   UNL A   1      33.220  31.236  26.849  1.00  0.00     0.338 C 
ATOM     21  O   UNL A   1      32.478  32.121  27.260  1.00  0.00    -0.246 OA
BRANCH  20  22
ATOM     22  C   UNL A   1      34.493  30.894  27.514  1.00  0.00     0.060 A 
ATOM     23  C   UNL A   1      34.778  29.586  27.917  1.00  0.00     0.016 A 
ATOM     24  C   UNL A   1      35.381  31.925  27.827  1.00  0.00     0.016 A 
ATOM     25  C   UNL A   1      35.903  29.326  28.701  1.00  0.00     0.010 A 
ATOM     26  C   UNL A   1      36.555  31.645  28.529  1.00  0.00     0.010 A 
ATOM     27  C   UNL A   1      36.816  30.348  29.000  1.00  0.00    -0.014 A 
BRANCH  27  28
ATOM     28  C   UNL A   1      38.047  30.077  29.794  1.00  0.00     0.031 A 
ATOM     29  C   UNL A   1      39.137  29.198  29.240  1.00  0.00     0.074 A 
ATOM     30  C   UNL A   1      38.178  30.592  31.033  1.00  0.00     0.049 A 
ATOM     31  N   UNL A   1      40.179  28.688  29.849  1.00  0.00    -0.248 NA
ATOM     32  C   UNL A   1      39.036  28.833  27.818  1.00  0.00     0.031 C 
ATOM     33  C   UNL A   1      37.214  31.476  31.690  1.00  0.00     0.029 A 
ATOM     34  N   UNL A   1      39.175  30.438  31.964  1.00  0.00    -0.354 N 
ATOM     35  C   UNL A   1      40.825  27.902  28.903  1.00  0.00     0.074 A 
ATOM     36  C   UNL A   1      40.062  28.005  27.677  1.00  0.00     0.031 C 
ATOM     37  C   UNL A   1      37.680  31.809  32.903  1.00  0.00     0.029 A 
ATOM     38  C   UNL A   1      38.935  31.104  33.140  1.00  0.00     0.049 A 
ATOM     39  H   UNL A   1      39.985  29.902  31.803  1.00  0.00     0.167 HD
ATOM     40  C   UNL A   1      41.949  27.160  29.048  1.00  0.00     0.037 A 
ATOM     41  C   UNL A   1      39.623  31.118  34.296  1.00  0.00     0.037 A 
ATOM     42  C   UNL A   1      42.740  27.096  30.249  1.00  0.00     0.049 A 
ATOM     43  C   UNL A   1      40.861  30.282  34.433  1.00  0.00     0.074 A 
ATOM     44  C   UNL A   1      43.909  26.390  30.478  1.00  0.00     0.029 A 
ATOM     45  N   UNL A   1      42.452  27.780  31.421  1.00  0.00    -0.354 N 
ATOM     46  N   UNL A   1      41.432  29.501  33.550  1.00  0.00    -0.248 NA
ATOM     47  C   UNL A   1      41.540  30.315  35.736  1.00  0.00     0.031 C 
ATOM     48  C   UNL A   1      44.317  26.628  31.796  1.00  0.00     0.029 A 
ATOM     49  C   UNL A   1      43.418  27.507  32.376  1.00  0.00     0.049 A 
ATOM     50  H   UNL A   1      41.676  28.371  31.553  1.00  0.00     0.167 HD
ATOM     51  C   UNL A   1      42.533  28.950  34.186  1.00  0.00     0.074 A 
ATOM     52  C   UNL A   1      42.567  29.503  35.524  1.00  0.00     0.031 C 
ATOM     53  C   UNL A   1      43.434  28.060  33.704  1.00  0.00     0.037 A 
BRANCH  40  54
ATOM     54  C   UNL A   1      42.390  26.330  27.879  1.00  0.00     0.064 A 
ATOM     55  C   UNL A   1      41.826  25.076  27.611  1.00  0.00     0.173 A 
ATOM     56  C   UNL A   1      43.349  26.828  26.983  1.00  0.00     0.173 A 
ATOM     57  F   UNL A   1      40.917  24.553  28.446  1.00  0.00    -0.203 F 
ATOM     58  C   UNL A   1      42.215  24.343  26.492  1.00  0.00     0.198 A 
ATOM     59  C   UNL A   1      43.719  26.103  25.855  1.00  0.00     0.198 A 
ATOM     60  F   UNL A   1      43.914  28.027  27.194  1.00  0.00    -0.203 F 
ATOM     61  F   UNL A   1      41.685  23.133  26.268  1.00  0.00    -0.200 F 
ATOM     62  C   UNL A   1      43.155  24.860  25.612  1.00  0.00     0.200 A 
ATOM     63  F   UNL A   1      44.621  26.607  25.001  1.00  0.00    -0.200 F 
ATOM     64  F   UNL A   1      43.520  24.157  24.531  1.00  0.00    -0.200 F 
ENDBRANCH  40  54
BRANCH  41  65
ATOM     65  C   UNL A   1      39.129  31.937  35.431  1.00  0.00     0.064 A 
ATOM     66  C   UNL A   1      39.434  33.301  35.514  1.00  0.00     0.173 A 
ATOM     67  C   UNL A   1      38.325  31.381  36.435  1.00  0.00     0.173 A 
ATOM     68  F   UNL A   1      40.220  33.869  34.586  1.00  0.00    -0.203 F 
ATOM     69  C   UNL A   1      38.955  34.080  36.564  1.00  0.00     0.198 A 
ATOM     70  C   UNL A   1      37.826  32.165  37.472  1.00  0.00     0.198 A 
ATOM     71  F   UNL A   1      38.007  30.078  36.397  1.00  0.00    -0.203 F 
ATOM     72  F   UNL A   1      39.282  35.378  36.636  1.00  0.00    -0.200 F 
ATOM     73  C   UNL A   1      38.145  33.514  37.538  1.00  0.00     0.200 A 
ATOM     74  F   UNL A   1      37.036  31.617  38.404  1.00  0.00    -0.200 F 
ATOM     75  F   UNL A   1      37.674  34.266  38.541  1.00  0.00    -0.200 F 
ENDBRANCH  41  65
BRANCH  53  76
ATOM     76  C   UNL A   1      44.535  27.641  34.629  1.00  0.00     0.064 A 
ATOM     77  C   UNL A   1      44.399  26.520  35.461  1.00  0.00     0.173 A 
ATOM     78  C   UNL A   1      45.741  28.355  34.670  1.00  0.00     0.173 A 
ATOM     79  F   UNL A   1      43.257  25.818  35.467  1.00  0.00    -0.203 F 
ATOM     80  C   UNL A   1      45.429  26.140  36.318  1.00  0.00     0.198 A 
ATOM     81  C   UNL A   1      46.775  27.961  35.515  1.00  0.00     0.198 A 
ATOM     82  F   UNL A   1      45.915  29.432  33.892  1.00  0.00    -0.203 F 
ATOM     83  F   UNL A   1      45.266  25.089  37.133  1.00  0.00    -0.200 F 
ATOM     84  C   UNL A   1      46.616  26.858  36.342  1.00  0.00     0.200 A 
ATOM     85  F   UNL A   1      47.922  28.652  35.535  1.00  0.00    -0.200 F 
ATOM     86  F   UNL A   1      47.604  26.492  37.169  1.00  0.00    -0.200 F 
ENDBRANCH  53  76
ENDBRANCH  27  28
ENDBRANCH  20  22
ENDBRANCH  19  20
ENDBRANCH  18  19
ENDBRANCH   1  18
TORSDOF 14
ENDMDL
