MODEL 1
REMARK VINA RESULT:     -12.7      0.000      0.000
REMARK SMILES C[C@@H]1c2ccccc2-c2ccc(C(=O)OCCOC(=O)c3ccc(-c4c5nc(c(-c6c(F)c(F)c(F)c(F)c6F)c6ccc([nH]6)c(-c6c(F)c(F)c(F)c(F)c6F)c6nc(c(-c7c(F)c(F)c(F)c(F)c7F)c7ccc4[nH]7)C=C6)C=C5)cc3)cc21
REMARK SMILES IDX 17 1 16 2 15 3 13 4 14 5 12 6 1 7 2 8 3 9 85 10 4 11 8 12
REMARK SMILES IDX 9 13 84 14 5 15 7 16 10 17 6 18 11 19 18 20 19 21 20 22
REMARK SMILES IDX 21 23 22 24 83 25 23 26 82 27 24 28 25 29 26 30 76 31 27 32
REMARK SMILES IDX 81 33 75 34 77 35 28 36 80 37 74 38 73 39 29 41 61 42 41 43
REMARK SMILES IDX 60 44 42 45 45 46 59 47 78 48 43 49 44 50 58 52 79 53 46 54
REMARK SMILES IDX 30 55 31 56 39 57 32 58 33 59 37 60 40 61 34 62 35 63 38 64
REMARK SMILES IDX 36 65 62 66 63 67 71 68 64 69 65 70 69 71 72 72 66 73 67 74
REMARK SMILES IDX 70 75 68 76 47 77 48 78 56 79 49 80 50 81 54 82 57 83 51 84
REMARK SMILES IDX 52 85 55 86 53 87
REMARK H PARENT 77 40 45 51
REMARK Flexibility Score: inf
ROOT
ATOM      1  C   UNL A   1      36.990  20.783  24.619  1.00  0.00     0.275 C 
ENDROOT
BRANCH   1   2
ATOM      2  C   UNL A   1      35.681  20.094  25.002  1.00  0.00     0.275 C 
BRANCH   2   3
ATOM      3  O   UNL A   1      34.796  21.022  25.663  1.00  0.00    -0.458 OA
BRANCH   3   4
ATOM      4  C   UNL A   1      33.836  21.570  24.877  1.00  0.00     0.338 C 
ATOM      5  O   UNL A   1      33.113  20.978  24.091  1.00  0.00    -0.246 OA
BRANCH   4   6
ATOM      6  C   UNL A   1      33.683  23.016  25.165  1.00  0.00     0.060 A 
ATOM      7  C   UNL A   1      30.055  25.757  25.630  1.00  0.00     0.018 C 
ATOM      8  C   UNL A   1      31.300  25.731  26.505  1.00  0.00     0.047 C 
ATOM      9  C   UNL A   1      31.943  27.103  26.657  1.00  0.00    -0.033 A 
ATOM     10  C   UNL A   1      32.439  24.916  25.901  1.00  0.00    -0.032 A 
ATOM     11  C   UNL A   1      31.403  28.258  27.200  1.00  0.00     0.005 A 
ATOM     12  C   UNL A   1      33.275  27.073  26.190  1.00  0.00    -0.014 A 
ATOM     13  C   UNL A   1      33.586  25.731  25.754  1.00  0.00    -0.014 A 
ATOM     14  C   UNL A   1      32.466  23.562  25.590  1.00  0.00     0.020 A 
ATOM     15  C   UNL A   1      32.206  29.401  27.251  1.00  0.00     0.000 A 
ATOM     16  C   UNL A   1      34.066  28.210  26.226  1.00  0.00     0.009 A 
ATOM     17  C   UNL A   1      34.783  25.197  25.317  1.00  0.00     0.010 A 
ATOM     18  C   UNL A   1      33.522  29.380  26.760  1.00  0.00     0.001 A 
ATOM     19  C   UNL A   1      34.834  23.829  25.053  1.00  0.00     0.016 A 
ENDBRANCH   4   6
ENDBRANCH   3   4
ENDBRANCH   2   3
ENDBRANCH   1   2
BRANCH   1  20
ATOM     20  O   UNL A   1      37.500  21.503  25.753  1.00  0.00    -0.458 OA
BRANCH  20  21
ATOM     21  C   UNL A   1      38.804  21.298  26.048  1.00  0.00     0.338 C 
ATOM     22  O   UNL A   1      39.430  20.260  25.931  1.00  0.00    -0.246 OA
BRANCH  21  23
ATOM     23  C   UNL A   1      39.400  22.547  26.566  1.00  0.00     0.060 A 
ATOM     24  C   UNL A   1      38.928  23.791  26.145  1.00  0.00     0.016 A 
ATOM     25  C   UNL A   1      40.504  22.480  27.415  1.00  0.00     0.016 A 
ATOM     26  C   UNL A   1      39.600  24.962  26.503  1.00  0.00     0.010 A 
ATOM     27  C   UNL A   1      41.125  23.658  27.844  1.00  0.00     0.010 A 
ATOM     28  C   UNL A   1      40.705  24.913  27.364  1.00  0.00    -0.014 A 
BRANCH  28  29
ATOM     29  C   UNL A   1      41.470  26.146  27.714  1.00  0.00     0.031 A 
ATOM     30  C   UNL A   1      40.823  27.212  28.561  1.00  0.00     0.074 A 
ATOM     31  C   UNL A   1      42.736  26.332  27.289  1.00  0.00     0.049 A 
ATOM     32  N   UNL A   1      41.204  28.445  28.783  1.00  0.00    -0.248 NA
ATOM     33  C   UNL A   1      39.568  26.844  29.234  1.00  0.00     0.031 C 
ATOM     34  C   UNL A   1      43.522  25.376  26.510  1.00  0.00     0.029 A 
ATOM     35  N   UNL A   1      43.586  27.400  27.458  1.00  0.00    -0.354 N 
ATOM     36  C   UNL A   1      40.200  29.020  29.552  1.00  0.00     0.074 A 
ATOM     37  C   UNL A   1      39.199  27.997  29.774  1.00  0.00     0.031 C 
ATOM     38  C   UNL A   1      44.748  25.882  26.301  1.00  0.00     0.029 A 
ATOM     39  C   UNL A   1      44.808  27.231  26.855  1.00  0.00     0.049 A 
ATOM     40  H   UNL A   1      43.343  28.208  27.965  1.00  0.00     0.167 HD
ATOM     41  C   UNL A   1      40.116  30.287  30.024  1.00  0.00     0.037 A 
ATOM     42  C   UNL A   1      45.846  28.079  26.723  1.00  0.00     0.037 A 
ATOM     43  C   UNL A   1      41.146  31.282  29.877  1.00  0.00     0.049 A 
ATOM     44  C   UNL A   1      45.738  29.478  27.262  1.00  0.00     0.074 A 
ATOM     45  C   UNL A   1      41.158  32.588  30.336  1.00  0.00     0.029 A 
ATOM     46  N   UNL A   1      42.361  31.069  29.246  1.00  0.00    -0.354 N 
ATOM     47  N   UNL A   1      44.746  30.041  27.906  1.00  0.00    -0.248 NA
ATOM     48  C   UNL A   1      46.884  30.369  27.028  1.00  0.00     0.031 C 
ATOM     49  C   UNL A   1      42.374  33.172  29.965  1.00  0.00     0.029 A 
ATOM     50  C   UNL A   1      43.131  32.219  29.303  1.00  0.00     0.049 A 
ATOM     51  H   UNL A   1      42.637  30.225  28.821  1.00  0.00     0.167 HD
ATOM     52  C   UNL A   1      45.144  31.347  28.152  1.00  0.00     0.074 A 
ATOM     53  C   UNL A   1      46.480  31.488  27.613  1.00  0.00     0.031 C 
ATOM     54  C   UNL A   1      44.458  32.345  28.761  1.00  0.00     0.037 A 
BRANCH  41  55
ATOM     55  C   UNL A   1      38.848  30.686  30.717  1.00  0.00     0.064 A 
ATOM     56  C   UNL A   1      38.706  30.611  32.109  1.00  0.00     0.173 A 
ATOM     57  C   UNL A   1      37.770  31.188  29.971  1.00  0.00     0.173 A 
ATOM     58  F   UNL A   1      39.703  30.125  32.864  1.00  0.00    -0.203 F 
ATOM     59  C   UNL A   1      37.522  31.005  32.728  1.00  0.00     0.198 A 
ATOM     60  C   UNL A   1      36.597  31.602  30.595  1.00  0.00     0.198 A 
ATOM     61  F   UNL A   1      37.858  31.283  28.636  1.00  0.00    -0.203 F 
ATOM     62  F   UNL A   1      37.392  30.889  34.058  1.00  0.00    -0.200 F 
ATOM     63  C   UNL A   1      36.472  31.506  31.972  1.00  0.00     0.200 A 
ATOM     64  F   UNL A   1      35.589  32.096  29.864  1.00  0.00    -0.200 F 
ATOM     65  F   UNL A   1      35.337  31.890  32.571  1.00  0.00    -0.200 F 
ENDBRANCH  41  55
BRANCH  42  66
ATOM     66  C   UNL A   1      47.071  27.637  26.007  1.00  0.00     0.064 A 
ATOM     67  C   UNL A   1      48.168  27.122  26.713  1.00  0.00     0.173 A 
ATOM     68  C   UNL A   1      47.168  27.711  24.611  1.00  0.00     0.173 A 
ATOM     69  F   UNL A   1      48.133  27.060  28.052  1.00  0.00    -0.203 F 
ATOM     70  C   UNL A   1      49.316  26.698  26.046  1.00  0.00     0.198 A 
ATOM     71  C   UNL A   1      48.305  27.263  23.943  1.00  0.00     0.198 A 
ATOM     72  F   UNL A   1      46.147  28.203  23.893  1.00  0.00    -0.203 F 
ATOM     73  F   UNL A   1      50.363  26.241  26.744  1.00  0.00    -0.200 F 
ATOM     74  C   UNL A   1      49.379  26.761  24.662  1.00  0.00     0.200 A 
ATOM     75  F   UNL A   1      48.359  27.315  22.605  1.00  0.00    -0.200 F 
ATOM     76  F   UNL A   1      50.480  26.343  24.020  1.00  0.00    -0.200 F 
ENDBRANCH  42  66
BRANCH  54  77
ATOM     77  C   UNL A   1      45.145  33.670  28.886  1.00  0.00     0.064 A 
ATOM     78  C   UNL A   1      45.974  33.960  29.978  1.00  0.00     0.173 A 
ATOM     79  C   UNL A   1      44.999  34.645  27.889  1.00  0.00     0.173 A 
ATOM     80  F   UNL A   1      46.132  33.063  30.964  1.00  0.00    -0.203 F 
ATOM     81  C   UNL A   1      46.620  35.190  30.077  1.00  0.00     0.198 A 
ATOM     82  C   UNL A   1      45.660  35.866  27.983  1.00  0.00     0.198 A 
ATOM     83  F   UNL A   1      44.217  34.411  26.825  1.00  0.00    -0.203 F 
ATOM     84  F   UNL A   1      47.380  35.462  31.148  1.00  0.00    -0.200 F 
ATOM     85  C   UNL A   1      46.467  36.139  29.078  1.00  0.00     0.200 A 
ATOM     86  F   UNL A   1      45.516  36.781  27.014  1.00  0.00    -0.200 F 
ATOM     87  F   UNL A   1      47.088  37.322  29.175  1.00  0.00    -0.200 F 
ENDBRANCH  54  77
ENDBRANCH  28  29
ENDBRANCH  21  23
ENDBRANCH  20  21
ENDBRANCH   1  20
TORSDOF 11
ENDMDL
MODEL 2
REMARK VINA RESULT:     -12.7      4.557      9.766
REMARK SMILES C[C@@H]1c2ccccc2-c2ccc(C(=O)OCCOC(=O)c3ccc(-c4c5nc(c(-c6c(F)c(F)c(F)c(F)c6F)c6ccc([nH]6)c(-c6c(F)c(F)c(F)c(F)c6F)c6nc(c(-c7c(F)c(F)c(F)c(F)c7F)c7ccc4[nH]7)C=C6)C=C5)cc3)cc21
REMARK SMILES IDX 17 1 16 2 15 3 13 4 14 5 12 6 1 7 2 8 3 9 85 10 4 11 8 12
REMARK SMILES IDX 9 13 84 14 5 15 7 16 10 17 6 18 11 19 18 20 19 21 20 22
REMARK SMILES IDX 21 23 22 24 83 25 23 26 82 27 24 28 25 29 26 30 76 31 27 32
REMARK SMILES IDX 81 33 75 34 77 35 28 36 80 37 74 38 73 39 29 41 61 42 41 43
REMARK SMILES IDX 60 44 42 45 45 46 59 47 78 48 43 49 44 50 58 52 79 53 46 54
REMARK SMILES IDX 30 55 31 56 39 57 32 58 33 59 37 60 40 61 34 62 35 63 38 64
REMARK SMILES IDX 36 65 62 66 63 67 71 68 64 69 65 70 69 71 72 72 66 73 67 74
REMARK SMILES IDX 70 75 68 76 47 77 48 78 56 79 49 80 50 81 54 82 57 83 51 84
REMARK SMILES IDX 52 85 55 86 53 87
REMARK H PARENT 77 40 45 51
REMARK Flexibility Score: inf
ROOT
ATOM      1  C   UNL A   1      31.416  29.811  25.751  1.00  0.00     0.275 C 
ENDROOT
BRANCH   1   2
ATOM      2  C   UNL A   1      31.057  29.592  24.282  1.00  0.00     0.275 C 
BRANCH   2   3
ATOM      3  O   UNL A   1      31.867  28.541  23.714  1.00  0.00    -0.458 OA
BRANCH   3   4
ATOM      4  C   UNL A   1      31.405  27.281  23.912  1.00  0.00     0.338 C 
ATOM      5  O   UNL A   1      30.264  26.887  23.729  1.00  0.00    -0.246 OA
BRANCH   4   6
ATOM      6  C   UNL A   1      32.511  26.370  24.291  1.00  0.00     0.060 A 
ATOM      7  C   UNL A   1      33.358  21.953  23.477  1.00  0.00     0.018 C 
ATOM      8  C   UNL A   1      34.352  23.103  23.406  1.00  0.00     0.047 C 
ATOM      9  C   UNL A   1      35.606  22.852  24.234  1.00  0.00    -0.033 A 
ATOM     10  C   UNL A   1      33.821  24.392  24.025  1.00  0.00    -0.032 A 
ATOM     11  C   UNL A   1      36.541  21.838  24.104  1.00  0.00     0.005 A 
ATOM     12  C   UNL A   1      35.762  23.864  25.205  1.00  0.00    -0.014 A 
ATOM     13  C   UNL A   1      34.687  24.819  25.060  1.00  0.00    -0.014 A 
ATOM     14  C   UNL A   1      32.717  25.146  23.646  1.00  0.00     0.020 A 
ATOM     15  C   UNL A   1      37.633  21.831  24.977  1.00  0.00     0.000 A 
ATOM     16  C   UNL A   1      36.835  23.849  26.081  1.00  0.00     0.009 A 
ATOM     17  C   UNL A   1      34.474  26.019  25.711  1.00  0.00     0.010 A 
ATOM     18  C   UNL A   1      37.774  22.822  25.962  1.00  0.00     0.001 A 
ATOM     19  C   UNL A   1      33.399  26.807  25.300  1.00  0.00     0.016 A 
ENDBRANCH   4   6
ENDBRANCH   3   4
ENDBRANCH   2   3
ENDBRANCH   1   2
BRANCH   1  20
ATOM     20  O   UNL A   1      32.781  30.251  25.848  1.00  0.00    -0.458 OA
BRANCH  20  21
ATOM     21  C   UNL A   1      33.041  31.164  26.811  1.00  0.00     0.338 C 
ATOM     22  O   UNL A   1      32.336  32.096  27.152  1.00  0.00    -0.246 OA
BRANCH  21  23
ATOM     23  C   UNL A   1      34.360  30.883  27.418  1.00  0.00     0.060 A 
ATOM     24  C   UNL A   1      34.790  29.571  27.616  1.00  0.00     0.016 A 
ATOM     25  C   UNL A   1      35.140  31.942  27.881  1.00  0.00     0.016 A 
ATOM     26  C   UNL A   1      35.955  29.309  28.341  1.00  0.00     0.010 A 
ATOM     27  C   UNL A   1      36.352  31.682  28.531  1.00  0.00     0.010 A 
ATOM     28  C   UNL A   1      36.756  30.361  28.804  1.00  0.00    -0.014 A 
BRANCH  28  29
ATOM     29  C   UNL A   1      37.974  30.104  29.627  1.00  0.00     0.031 A 
ATOM     30  C   UNL A   1      39.089  29.257  29.068  1.00  0.00     0.074 A 
ATOM     31  C   UNL A   1      38.104  30.614  30.868  1.00  0.00     0.049 A 
ATOM     32  N   UNL A   1      40.111  28.714  29.682  1.00  0.00    -0.248 NA
ATOM     33  C   UNL A   1      39.035  28.968  27.627  1.00  0.00     0.031 C 
ATOM     34  C   UNL A   1      37.144  31.494  31.532  1.00  0.00     0.029 A 
ATOM     35  N   UNL A   1      39.109  30.460  31.796  1.00  0.00    -0.354 N 
ATOM     36  C   UNL A   1      40.773  27.959  28.722  1.00  0.00     0.074 A 
ATOM     37  C   UNL A   1      40.048  28.125  27.479  1.00  0.00     0.031 C 
ATOM     38  C   UNL A   1      37.620  31.833  32.740  1.00  0.00     0.029 A 
ATOM     39  C   UNL A   1      38.877  31.127  32.973  1.00  0.00     0.049 A 
ATOM     40  H   UNL A   1      39.918  29.925  31.630  1.00  0.00     0.167 HD
ATOM     41  C   UNL A   1      41.880  27.191  28.864  1.00  0.00     0.037 A 
ATOM     42  C   UNL A   1      39.571  31.137  34.128  1.00  0.00     0.037 A 
ATOM     43  C   UNL A   1      42.650  27.088  30.076  1.00  0.00     0.049 A 
ATOM     44  C   UNL A   1      40.802  30.286  34.263  1.00  0.00     0.074 A 
ATOM     45  C   UNL A   1      43.796  26.348  30.311  1.00  0.00     0.029 A 
ATOM     46  N   UNL A   1      42.369  27.772  31.248  1.00  0.00    -0.354 N 
ATOM     47  N   UNL A   1      41.367  29.502  33.379  1.00  0.00    -0.248 NA
ATOM     48  C   UNL A   1      41.475  30.298  35.571  1.00  0.00     0.031 C 
ATOM     49  C   UNL A   1      44.199  26.569  31.633  1.00  0.00     0.029 A 
ATOM     50  C   UNL A   1      43.319  27.471  32.210  1.00  0.00     0.049 A 
ATOM     51  H   UNL A   1      41.607  28.382  31.378  1.00  0.00     0.167 HD
ATOM     52  C   UNL A   1      42.456  28.928  34.018  1.00  0.00     0.074 A 
ATOM     53  C   UNL A   1      42.491  29.472  35.359  1.00  0.00     0.031 C 
ATOM     54  C   UNL A   1      43.341  28.020  33.540  1.00  0.00     0.037 A 
BRANCH  41  55
ATOM     55  C   UNL A   1      42.308  26.367  27.688  1.00  0.00     0.064 A 
ATOM     56  C   UNL A   1      43.328  26.781  26.821  1.00  0.00     0.173 A 
ATOM     57  C   UNL A   1      41.707  25.121  27.449  1.00  0.00     0.173 A 
ATOM     58  F   UNL A   1      43.923  27.970  26.999  1.00  0.00    -0.203 F 
ATOM     59  C   UNL A   1      43.717  25.987  25.745  1.00  0.00     0.198 A 
ATOM     60  C   UNL A   1      42.114  24.319  26.387  1.00  0.00     0.198 A 
ATOM     61  F   UNL A   1      40.728  24.678  28.252  1.00  0.00    -0.203 F 
ATOM     62  F   UNL A   1      44.669  26.419  24.905  1.00  0.00    -0.200 F 
ATOM     63  C   UNL A   1      43.115  24.755  25.533  1.00  0.00     0.200 A 
ATOM     64  F   UNL A   1      41.538  23.125  26.190  1.00  0.00    -0.200 F 
ATOM     65  F   UNL A   1      43.496  23.990  24.501  1.00  0.00    -0.200 F 
ENDBRANCH  41  55
BRANCH  42  66
ATOM     66  C   UNL A   1      39.088  31.957  35.269  1.00  0.00     0.064 A 
ATOM     67  C   UNL A   1      38.329  31.379  36.298  1.00  0.00     0.173 A 
ATOM     68  C   UNL A   1      39.379  33.325  35.360  1.00  0.00     0.173 A 
ATOM     69  F   UNL A   1      38.000  30.081  36.238  1.00  0.00    -0.203 F 
ATOM     70  C   UNL A   1      37.881  32.142  37.374  1.00  0.00     0.198 A 
ATOM     71  C   UNL A   1      38.953  34.081  36.450  1.00  0.00     0.198 A 
ATOM     72  F   UNL A   1      40.095  33.924  34.397  1.00  0.00    -0.203 F 
ATOM     73  F   UNL A   1      37.131  31.575  38.327  1.00  0.00    -0.200 F 
ATOM     74  C   UNL A   1      38.201  33.490  37.453  1.00  0.00     0.200 A 
ATOM     75  F   UNL A   1      39.272  35.380  36.527  1.00  0.00    -0.200 F 
ATOM     76  F   UNL A   1      37.778  34.221  38.494  1.00  0.00    -0.200 F 
ENDBRANCH  42  66
BRANCH  54  77
ATOM     77  C   UNL A   1      44.427  27.570  34.467  1.00  0.00     0.064 A 
ATOM     78  C   UNL A   1      44.271  26.435  35.275  1.00  0.00     0.173 A 
ATOM     79  C   UNL A   1      45.646  28.259  34.526  1.00  0.00     0.173 A 
ATOM     80  F   UNL A   1      43.116  25.752  35.265  1.00  0.00    -0.203 F 
ATOM     81  C   UNL A   1      45.292  26.016  36.124  1.00  0.00     0.198 A 
ATOM     82  C   UNL A   1      46.672  27.827  35.361  1.00  0.00     0.198 A 
ATOM     83  F   UNL A   1      45.843  29.349  33.769  1.00  0.00    -0.203 F 
ATOM     84  F   UNL A   1      45.110  24.949  36.915  1.00  0.00    -0.200 F 
ATOM     85  C   UNL A   1      46.493  26.709  36.163  1.00  0.00     0.200 A 
ATOM     86  F   UNL A   1      47.834  28.494  35.394  1.00  0.00    -0.200 F 
ATOM     87  F   UNL A   1      47.475  26.305  36.979  1.00  0.00    -0.200 F 
ENDBRANCH  54  77
ENDBRANCH  28  29
ENDBRANCH  21  23
ENDBRANCH  20  21
ENDBRANCH   1  20
TORSDOF 11
ENDMDL
MODEL 3
REMARK VINA RESULT:     -12.7      0.204      1.640
REMARK SMILES C[C@@H]1c2ccccc2-c2ccc(C(=O)OCCOC(=O)c3ccc(-c4c5nc(c(-c6c(F)c(F)c(F)c(F)c6F)c6ccc([nH]6)c(-c6c(F)c(F)c(F)c(F)c6F)c6nc(c(-c7c(F)c(F)c(F)c(F)c7F)c7ccc4[nH]7)C=C6)C=C5)cc3)cc21
REMARK SMILES IDX 17 1 16 2 15 3 13 4 14 5 12 6 1 7 2 8 3 9 85 10 4 11 8 12
REMARK SMILES IDX 9 13 84 14 5 15 7 16 10 17 6 18 11 19 18 20 19 21 20 22
REMARK SMILES IDX 21 23 22 24 83 25 23 26 82 27 24 28 25 29 26 30 76 31 27 32
REMARK SMILES IDX 81 33 75 34 77 35 28 36 80 37 74 38 73 39 29 41 61 42 41 43
REMARK SMILES IDX 60 44 42 45 45 46 59 47 78 48 43 49 44 50 58 52 79 53 46 54
REMARK SMILES IDX 30 55 31 56 39 57 32 58 33 59 37 60 40 61 34 62 35 63 38 64
REMARK SMILES IDX 36 65 62 66 63 67 71 68 64 69 65 70 69 71 72 72 66 73 67 74
REMARK SMILES IDX 70 75 68 76 47 77 48 78 56 79 49 80 50 81 54 82 57 83 51 84
REMARK SMILES IDX 52 85 55 86 53 87
REMARK H PARENT 77 40 45 51
REMARK Flexibility Score: inf
ROOT
ATOM      1  C   UNL A   1      36.754  20.849  24.608  1.00  0.00     0.275 C 
ENDROOT
BRANCH   1   2
ATOM      2  C   UNL A   1      35.482  20.109  25.022  1.00  0.00     0.275 C 
BRANCH   2   3
ATOM      3  O   UNL A   1      34.540  21.021  25.625  1.00  0.00    -0.458 OA
BRANCH   3   4
ATOM      4  C   UNL A   1      33.707  21.652  24.760  1.00  0.00     0.338 C 
ATOM      5  O   UNL A   1      33.041  21.131  23.880  1.00  0.00    -0.246 OA
BRANCH   4   6
ATOM      6  C   UNL A   1      33.610  23.096  25.083  1.00  0.00     0.060 A 
ATOM      7  C   UNL A   1      30.096  25.983  25.531  1.00  0.00     0.018 C 
ATOM      8  C   UNL A   1      31.316  25.880  26.435  1.00  0.00     0.047 C 
ATOM      9  C   UNL A   1      32.014  27.218  26.638  1.00  0.00    -0.033 A 
ATOM     10  C   UNL A   1      32.432  25.030  25.837  1.00  0.00    -0.032 A 
ATOM     11  C   UNL A   1      31.512  28.382  27.198  1.00  0.00     0.005 A 
ATOM     12  C   UNL A   1      33.355  27.141  26.203  1.00  0.00    -0.014 A 
ATOM     13  C   UNL A   1      33.617  25.797  25.739  1.00  0.00    -0.014 A 
ATOM     14  C   UNL A   1      32.409  23.685  25.491  1.00  0.00     0.020 A 
ATOM     15  C   UNL A   1      32.362  29.486  27.298  1.00  0.00     0.000 A 
ATOM     16  C   UNL A   1      34.194  28.239  26.288  1.00  0.00     0.009 A 
ATOM     17  C   UNL A   1      34.801  25.221  25.318  1.00  0.00     0.010 A 
ATOM     18  C   UNL A   1      33.688  29.419  26.840  1.00  0.00     0.001 A 
ATOM     19  C   UNL A   1      34.798  23.859  25.019  1.00  0.00     0.016 A 
ENDBRANCH   4   6
ENDBRANCH   3   4
ENDBRANCH   2   3
ENDBRANCH   1   2
BRANCH   1  20
ATOM     20  O   UNL A   1      37.324  21.496  25.757  1.00  0.00    -0.458 OA
BRANCH  20  21
ATOM     21  C   UNL A   1      38.645  21.285  25.960  1.00  0.00     0.338 C 
ATOM     22  O   UNL A   1      39.268  20.260  25.749  1.00  0.00    -0.246 OA
BRANCH  21  23
ATOM     23  C   UNL A   1      39.265  22.509  26.510  1.00  0.00     0.060 A 
ATOM     24  C   UNL A   1      38.780  23.772  26.167  1.00  0.00     0.016 A 
ATOM     25  C   UNL A   1      40.405  22.402  27.306  1.00  0.00     0.016 A 
ATOM     26  C   UNL A   1      39.469  24.924  26.550  1.00  0.00     0.010 A 
ATOM     27  C   UNL A   1      41.046  23.559  27.763  1.00  0.00     0.010 A 
ATOM     28  C   UNL A   1      40.610  24.835  27.359  1.00  0.00    -0.014 A 
BRANCH  28  29
ATOM     29  C   UNL A   1      41.392  26.049  27.734  1.00  0.00     0.031 A 
ATOM     30  C   UNL A   1      40.752  27.120  28.581  1.00  0.00     0.074 A 
ATOM     31  C   UNL A   1      42.668  26.216  27.330  1.00  0.00     0.049 A 
ATOM     32  N   UNL A   1      41.153  28.343  28.821  1.00  0.00    -0.248 NA
ATOM     33  C   UNL A   1      39.480  26.769  29.231  1.00  0.00     0.031 C 
ATOM     34  C   UNL A   1      43.447  25.253  26.554  1.00  0.00     0.029 A 
ATOM     35  N   UNL A   1      43.535  27.266  27.523  1.00  0.00    -0.354 N 
ATOM     36  C   UNL A   1      40.148  28.930  29.579  1.00  0.00     0.074 A 
ATOM     37  C   UNL A   1      39.125  27.924  29.776  1.00  0.00     0.031 C 
ATOM     38  C   UNL A   1      44.686  25.737  26.369  1.00  0.00     0.029 A 
ATOM     39  C   UNL A   1      44.763  27.079  26.937  1.00  0.00     0.049 A 
ATOM     40  H   UNL A   1      43.299  28.073  28.033  1.00  0.00     0.167 HD
ATOM     41  C   UNL A   1      40.080  30.194  30.062  1.00  0.00     0.037 A 
ATOM     42  C   UNL A   1      45.819  27.909  26.828  1.00  0.00     0.037 A 
ATOM     43  C   UNL A   1      41.130  31.170  29.940  1.00  0.00     0.049 A 
ATOM     44  C   UNL A   1      45.729  29.304  27.379  1.00  0.00     0.074 A 
ATOM     45  C   UNL A   1      41.160  32.472  30.412  1.00  0.00     0.029 A 
ATOM     46  N   UNL A   1      42.351  30.940  29.326  1.00  0.00    -0.354 N 
ATOM     47  N   UNL A   1      44.737  29.880  28.013  1.00  0.00    -0.248 NA
ATOM     48  C   UNL A   1      46.895  30.176  27.171  1.00  0.00     0.031 C 
ATOM     49  C   UNL A   1      42.393  33.037  30.066  1.00  0.00     0.029 A 
ATOM     50  C   UNL A   1      43.141  32.076  29.406  1.00  0.00     0.049 A 
ATOM     51  H   UNL A   1      42.618  30.096  28.897  1.00  0.00     0.167 HD
ATOM     52  C   UNL A   1      45.156  31.176  28.278  1.00  0.00     0.074 A 
ATOM     53  C   UNL A   1      46.502  31.297  27.761  1.00  0.00     0.031 C 
ATOM     54  C   UNL A   1      44.479  32.181  28.886  1.00  0.00     0.037 A 
BRANCH  41  55
ATOM     55  C   UNL A   1      38.809  30.610  30.740  1.00  0.00     0.064 A 
ATOM     56  C   UNL A   1      37.688  31.040  30.019  1.00  0.00     0.173 A 
ATOM     57  C   UNL A   1      38.706  30.540  32.138  1.00  0.00     0.173 A 
ATOM     58  F   UNL A   1      37.743  31.138  28.682  1.00  0.00    -0.203 F 
ATOM     59  C   UNL A   1      36.514  31.405  30.673  1.00  0.00     0.198 A 
ATOM     60  C   UNL A   1      37.524  30.883  32.788  1.00  0.00     0.198 A 
ATOM     61  F   UNL A   1      39.750  30.131  32.874  1.00  0.00    -0.203 F 
ATOM     62  F   UNL A   1      35.466  31.851  29.967  1.00  0.00    -0.200 F 
ATOM     63  C   UNL A   1      36.431  31.320  32.056  1.00  0.00     0.200 A 
ATOM     64  F   UNL A   1      37.442  30.789  34.122  1.00  0.00    -0.200 F 
ATOM     65  F   UNL A   1      35.298  31.666  32.682  1.00  0.00    -0.200 F 
ENDBRANCH  41  55
BRANCH  42  66
ATOM     66  C   UNL A   1      47.046  27.450  26.128  1.00  0.00     0.064 A 
ATOM     67  C   UNL A   1      47.197  27.637  24.746  1.00  0.00     0.173 A 
ATOM     68  C   UNL A   1      48.092  26.825  26.821  1.00  0.00     0.173 A 
ATOM     69  F   UNL A   1      46.209  28.203  24.036  1.00  0.00    -0.203 F 
ATOM     70  C   UNL A   1      48.349  27.216  24.086  1.00  0.00     0.198 A 
ATOM     71  C   UNL A   1      49.255  26.428  26.165  1.00  0.00     0.198 A 
ATOM     72  F   UNL A   1      47.991  26.617  28.142  1.00  0.00    -0.203 F 
ATOM     73  F   UNL A   1      48.455  27.377  22.761  1.00  0.00    -0.200 F 
ATOM     74  C   UNL A   1      49.379  26.619  24.797  1.00  0.00     0.200 A 
ATOM     75  F   UNL A   1      50.252  25.861  26.857  1.00  0.00    -0.200 F 
ATOM     76  F   UNL A   1      50.493  26.224  24.163  1.00  0.00    -0.200 F 
ENDBRANCH  42  66
BRANCH  54  77
ATOM     77  C   UNL A   1      45.189  33.491  29.034  1.00  0.00     0.064 A 
ATOM     78  C   UNL A   1      46.008  33.755  30.140  1.00  0.00     0.173 A 
ATOM     79  C   UNL A   1      45.074  34.480  28.046  1.00  0.00     0.173 A 
ATOM     80  F   UNL A   1      46.136  32.845  31.118  1.00  0.00    -0.203 F 
ATOM     81  C   UNL A   1      46.675  34.971  30.261  1.00  0.00     0.198 A 
ATOM     82  C   UNL A   1      45.757  35.686  28.161  1.00  0.00     0.198 A 
ATOM     83  F   UNL A   1      44.303  34.272  26.968  1.00  0.00    -0.203 F 
ATOM     84  F   UNL A   1      47.425  35.218  31.345  1.00  0.00    -0.200 F 
ATOM     85  C   UNL A   1      46.553  35.934  29.270  1.00  0.00     0.200 A 
ATOM     86  F   UNL A   1      45.643  36.615  27.200  1.00  0.00    -0.200 F 
ATOM     87  F   UNL A   1      47.195  37.103  29.388  1.00  0.00    -0.200 F 
ENDBRANCH  54  77
ENDBRANCH  28  29
ENDBRANCH  21  23
ENDBRANCH  20  21
ENDBRANCH   1  20
TORSDOF 11
ENDMDL
