MODEL 1
REMARK VINA RESULT:      -9.3      0.000      0.000
REMARK SMILES O=C(CCCNc1ccccc1SC(F)F)OCCOC(=O)c1ccc(-c2c3nc(c(-c4c(F)c(F)c(F)c(F)c4F)c4ccc([nH]4)c(-c4c(F)c(F)c(F)c(F)c4F)c4nc(c(-c5c(F)c(F)c(F)c(F)c5F)c5ccc2[nH]5)C=C4)C=C3)cc1
REMARK SMILES IDX 1 1 2 2 3 3 4 4 5 5 6 6 7 8 8 9 12 10 9 11 11 12 10 13 13 14
REMARK SMILES IDX 14 15 15 16 16 17 17 18 18 19 19 20 20 21 21 22 22 23 23 24
REMARK SMILES IDX 24 25 85 26 25 27 84 28 26 29 27 30 28 31 78 32 29 33 83 34
REMARK SMILES IDX 77 35 79 36 30 37 82 38 76 39 75 40 31 42 63 43 43 44 62 45
REMARK SMILES IDX 44 46 47 47 61 48 80 49 45 50 46 51 60 53 81 54 48 55 32 56
REMARK SMILES IDX 33 57 41 58 34 59 35 60 39 61 42 62 36 63 37 64 40 65 38 66
REMARK SMILES IDX 64 67 65 68 73 69 66 70 67 71 71 72 74 73 68 74 69 75 72 76
REMARK SMILES IDX 70 77 49 78 50 79 58 80 51 81 52 82 56 83 59 84 53 85 54 86
REMARK SMILES IDX 57 87 55 88
REMARK H PARENT 6 7 79 41 47 52
REMARK Flexibility Score: inf
ROOT
ATOM      1  O   UNL A   1      43.910  18.441  25.398  1.00  0.00    -0.252 OA
ATOM      2  C   UNL A   1      43.794  19.608  25.040  1.00  0.00     0.305 C 
ENDROOT
BRANCH   2   3
ATOM      3  C   UNL A   1      44.940  20.352  24.389  1.00  0.00     0.124 C 
BRANCH   3   4
ATOM      4  C   UNL A   1      45.918  20.973  25.380  1.00  0.00     0.033 C 
BRANCH   4   5
ATOM      5  C   UNL A   1      45.420  22.291  25.972  1.00  0.00     0.113 C 
BRANCH   5   6
ATOM      6  N   UNL A   1      45.345  23.322  24.953  1.00  0.00    -0.384 N 
ATOM      7  H   UNL A   1      45.457  23.016  24.024  1.00  0.00     0.160 HD
BRANCH   6   8
ATOM      8  C   UNL A   1      45.134  24.684  25.120  1.00  0.00     0.048 A 
ATOM      9  C   UNL A   1      43.791  25.106  24.960  1.00  0.00     0.027 A 
ATOM     10  C   UNL A   1      46.088  25.688  25.412  1.00  0.00     0.036 A 
ATOM     11  C   UNL A   1      43.388  26.431  25.133  1.00  0.00     0.002 A 
ATOM     12  C   UNL A   1      45.666  27.025  25.588  1.00  0.00     0.017 A 
ATOM     13  C   UNL A   1      44.328  27.394  25.456  1.00  0.00     0.001 A 
BRANCH  10  14
ATOM     14  S   UNL A   1      47.836  25.430  25.735  1.00  0.00    -0.053 SA
BRANCH  14  15
ATOM     15  C   UNL A   1      47.793  24.709  27.391  1.00  0.00     0.405 C 
ATOM     16  F   UNL A   1      49.009  24.864  27.978  1.00  0.00    -0.198 F 
ATOM     17  F   UNL A   1      46.895  25.311  28.211  1.00  0.00    -0.198 F 
ENDBRANCH  14  15
ENDBRANCH  10  14
ENDBRANCH   6   8
ENDBRANCH   5   6
ENDBRANCH   4   5
ENDBRANCH   3   4
ENDBRANCH   2   3
BRANCH   2  18
ATOM     18  O   UNL A   1      42.701  20.343  25.368  1.00  0.00    -0.462 OA
BRANCH  18  19
ATOM     19  C   UNL A   1      41.754  19.831  26.329  1.00  0.00     0.274 C 
BRANCH  19  20
ATOM     20  C   UNL A   1      41.191  20.930  27.229  1.00  0.00     0.275 C 
BRANCH  20  21
ATOM     21  O   UNL A   1      41.093  22.167  26.503  1.00  0.00    -0.458 OA
BRANCH  21  22
ATOM     22  C   UNL A   1      39.826  22.648  26.387  1.00  0.00     0.338 C 
ATOM     23  O   UNL A   1      38.849  22.044  26.005  1.00  0.00    -0.246 OA
BRANCH  22  24
ATOM     24  C   UNL A   1      39.761  24.011  26.967  1.00  0.00     0.060 A 
ATOM     25  C   UNL A   1      40.227  25.065  26.171  1.00  0.00     0.016 A 
ATOM     26  C   UNL A   1      39.260  24.266  28.249  1.00  0.00     0.016 A 
ATOM     27  C   UNL A   1      40.267  26.360  26.680  1.00  0.00     0.010 A 
ATOM     28  C   UNL A   1      39.298  25.568  28.761  1.00  0.00     0.010 A 
ATOM     29  C   UNL A   1      39.855  26.607  27.996  1.00  0.00    -0.014 A 
BRANCH  29  30
ATOM     30  C   UNL A   1      40.258  27.885  28.630  1.00  0.00     0.031 A 
ATOM     31  C   UNL A   1      41.720  28.093  28.922  1.00  0.00     0.074 A 
ATOM     32  C   UNL A   1      39.373  28.869  28.866  1.00  0.00     0.049 A 
ATOM     33  N   UNL A   1      42.342  29.163  29.345  1.00  0.00    -0.248 NA
ATOM     34  C   UNL A   1      42.601  26.934  28.702  1.00  0.00     0.031 C 
ATOM     35  C   UNL A   1      37.937  28.796  28.615  1.00  0.00     0.029 A 
ATOM     36  N   UNL A   1      39.568  30.134  29.361  1.00  0.00    -0.354 N 
ATOM     37  C   UNL A   1      43.683  28.811  29.423  1.00  0.00     0.074 A 
ATOM     38  C   UNL A   1      43.781  27.416  29.058  1.00  0.00     0.031 C 
ATOM     39  C   UNL A   1      37.377  29.972  28.953  1.00  0.00     0.029 A 
ATOM     40  C   UNL A   1      38.416  30.877  29.442  1.00  0.00     0.049 A 
ATOM     41  H   UNL A   1      40.450  30.477  29.632  1.00  0.00     0.167 HD
ATOM     42  C   UNL A   1      44.745  29.585  29.747  1.00  0.00     0.037 A 
ATOM     43  C   UNL A   1      38.233  32.147  29.852  1.00  0.00     0.037 A 
ATOM     44  C   UNL A   1      44.653  30.970  30.118  1.00  0.00     0.049 A 
ATOM     45  C   UNL A   1      39.427  32.975  30.257  1.00  0.00     0.074 A 
ATOM     46  C   UNL A   1      45.669  31.846  30.452  1.00  0.00     0.029 A 
ATOM     47  N   UNL A   1      43.464  31.678  30.212  1.00  0.00    -0.354 N 
ATOM     48  N   UNL A   1      40.699  32.656  30.262  1.00  0.00    -0.248 NA
ATOM     49  C   UNL A   1      39.158  34.353  30.695  1.00  0.00     0.031 C 
ATOM     50  C   UNL A   1      45.091  33.074  30.792  1.00  0.00     0.029 A 
ATOM     51  C   UNL A   1      43.720  32.976  30.620  1.00  0.00     0.049 A 
ATOM     52  H   UNL A   1      42.571  31.312  30.017  1.00  0.00     0.167 HD
ATOM     53  C   UNL A   1      41.381  33.800  30.656  1.00  0.00     0.074 A 
ATOM     54  C   UNL A   1      40.383  34.825  30.878  1.00  0.00     0.031 C 
ATOM     55  C   UNL A   1      42.715  33.989  30.812  1.00  0.00     0.037 A 
BRANCH  42  56
ATOM     56  C   UNL A   1      46.096  28.935  29.725  1.00  0.00     0.064 A 
ATOM     57  C   UNL A   1      46.909  28.969  28.582  1.00  0.00     0.173 A 
ATOM     58  C   UNL A   1      46.585  28.275  30.862  1.00  0.00     0.173 A 
ATOM     59  F   UNL A   1      46.476  29.569  27.464  1.00  0.00    -0.203 F 
ATOM     60  C   UNL A   1      48.150  28.339  28.569  1.00  0.00     0.198 A 
ATOM     61  C   UNL A   1      47.838  27.670  30.853  1.00  0.00     0.198 A 
ATOM     62  F   UNL A   1      45.845  28.213  31.979  1.00  0.00    -0.203 F 
ATOM     63  F   UNL A   1      48.888  28.338  27.449  1.00  0.00    -0.200 F 
ATOM     64  C   UNL A   1      48.616  27.696  29.705  1.00  0.00     0.200 A 
ATOM     65  F   UNL A   1      48.290  27.053  31.954  1.00  0.00    -0.200 F 
ATOM     66  F   UNL A   1      49.811  27.090  29.691  1.00  0.00    -0.200 F 
ENDBRANCH  42  56
BRANCH  43  67
ATOM     67  C   UNL A   1      36.869  32.737  29.872  1.00  0.00     0.064 A 
ATOM     68  C   UNL A   1      36.344  33.383  28.743  1.00  0.00     0.173 A 
ATOM     69  C   UNL A   1      36.080  32.702  31.030  1.00  0.00     0.173 A 
ATOM     70  F   UNL A   1      37.073  33.466  27.620  1.00  0.00    -0.203 F 
ATOM     71  C   UNL A   1      35.092  33.994  28.781  1.00  0.00     0.198 A 
ATOM     72  C   UNL A   1      34.816  33.291  31.059  1.00  0.00     0.198 A 
ATOM     73  F   UNL A   1      36.538  32.099  32.136  1.00  0.00    -0.203 F 
ATOM     74  F   UNL A   1      34.637  34.651  27.705  1.00  0.00    -0.200 F 
ATOM     75  C   UNL A   1      34.328  33.944  29.937  1.00  0.00     0.200 A 
ATOM     76  F   UNL A   1      34.079  33.237  32.176  1.00  0.00    -0.200 F 
ATOM     77  F   UNL A   1      33.127  34.538  29.975  1.00  0.00    -0.200 F 
ENDBRANCH  43  67
BRANCH  55  78
ATOM     78  C   UNL A   1      43.180  35.366  31.189  1.00  0.00     0.064 A 
ATOM     79  C   UNL A   1      43.327  35.757  32.528  1.00  0.00     0.173 A 
ATOM     80  C   UNL A   1      43.526  36.291  30.193  1.00  0.00     0.173 A 
ATOM     81  F   UNL A   1      43.000  34.913  33.518  1.00  0.00    -0.203 F 
ATOM     82  C   UNL A   1      43.775  37.035  32.854  1.00  0.00     0.198 A 
ATOM     83  C   UNL A   1      44.002  37.557  30.522  1.00  0.00     0.198 A 
ATOM     84  F   UNL A   1      43.413  35.963  28.896  1.00  0.00    -0.203 F 
ATOM     85  F   UNL A   1      43.863  37.403  34.140  1.00  0.00    -0.200 F 
ATOM     86  C   UNL A   1      44.118  37.930  31.853  1.00  0.00     0.200 A 
ATOM     87  F   UNL A   1      44.347  38.416  29.553  1.00  0.00    -0.200 F 
ATOM     88  F   UNL A   1      44.554  39.157  32.169  1.00  0.00    -0.200 F 
ENDBRANCH  55  78
ENDBRANCH  29  30
ENDBRANCH  22  24
ENDBRANCH  21  22
ENDBRANCH  20  21
ENDBRANCH  19  20
ENDBRANCH  18  19
ENDBRANCH   2  18
TORSDOF 17
ENDMDL
MODEL 2
REMARK VINA RESULT:      -9.2      5.494     10.724
REMARK SMILES O=C(CCCNc1ccccc1SC(F)F)OCCOC(=O)c1ccc(-c2c3nc(c(-c4c(F)c(F)c(F)c(F)c4F)c4ccc([nH]4)c(-c4c(F)c(F)c(F)c(F)c4F)c4nc(c(-c5c(F)c(F)c(F)c(F)c5F)c5ccc2[nH]5)C=C4)C=C3)cc1
REMARK SMILES IDX 1 1 2 2 3 3 4 4 5 5 6 6 7 8 8 9 12 10 9 11 11 12 10 13 13 14
REMARK SMILES IDX 14 15 15 16 16 17 17 18 18 19 19 20 20 21 21 22 22 23 23 24
REMARK SMILES IDX 24 25 85 26 25 27 84 28 26 29 27 30 28 31 78 32 29 33 83 34
REMARK SMILES IDX 77 35 79 36 30 37 82 38 76 39 75 40 31 42 63 43 43 44 62 45
REMARK SMILES IDX 44 46 47 47 61 48 80 49 45 50 46 51 60 53 81 54 48 55 32 56
REMARK SMILES IDX 33 57 41 58 34 59 35 60 39 61 42 62 36 63 37 64 40 65 38 66
REMARK SMILES IDX 64 67 65 68 73 69 66 70 67 71 71 72 74 73 68 74 69 75 72 76
REMARK SMILES IDX 70 77 49 78 50 79 58 80 51 81 52 82 56 83 59 84 53 85 54 86
REMARK SMILES IDX 57 87 55 88
REMARK H PARENT 6 7 79 41 47 52
REMARK Flexibility Score: inf
ROOT
ATOM      1  O   UNL A   1      33.512  29.279  23.040  1.00  0.00    -0.252 OA
ATOM      2  C   UNL A   1      33.114  28.938  24.149  1.00  0.00     0.305 C 
ENDROOT
BRANCH   2   3
ATOM      3  C   UNL A   1      33.845  27.895  24.966  1.00  0.00     0.124 C 
BRANCH   3   4
ATOM      4  C   UNL A   1      33.623  26.465  24.487  1.00  0.00     0.033 C 
BRANCH   4   5
ATOM      5  C   UNL A   1      34.357  25.426  25.335  1.00  0.00     0.113 C 
BRANCH   5   6
ATOM      6  N   UNL A   1      34.108  24.084  24.841  1.00  0.00    -0.384 N 
ATOM      7  H   UNL A   1      33.217  23.929  24.452  1.00  0.00     0.160 HD
BRANCH   6   8
ATOM      8  C   UNL A   1      34.965  22.992  24.847  1.00  0.00     0.048 A 
ATOM      9  C   UNL A   1      36.306  23.282  24.497  1.00  0.00     0.027 A 
ATOM     10  C   UNL A   1      34.660  21.641  25.140  1.00  0.00     0.036 A 
ATOM     11  C   UNL A   1      37.314  22.315  24.492  1.00  0.00     0.002 A 
ATOM     12  C   UNL A   1      35.689  20.673  25.134  1.00  0.00     0.017 A 
ATOM     13  C   UNL A   1      37.005  21.006  24.818  1.00  0.00     0.001 A 
BRANCH  10  14
ATOM     14  S   UNL A   1      33.069  21.005  25.679  1.00  0.00    -0.053 SA
BRANCH  14  15
ATOM     15  C   UNL A   1      32.310  20.551  24.103  1.00  0.00     0.405 C 
ATOM     16  F   UNL A   1      32.426  21.591  23.235  1.00  0.00    -0.198 F 
ATOM     17  F   UNL A   1      32.912  19.490  23.510  1.00  0.00    -0.198 F 
ENDBRANCH  14  15
ENDBRANCH  10  14
ENDBRANCH   6   8
ENDBRANCH   5   6
ENDBRANCH   4   5
ENDBRANCH   3   4
ENDBRANCH   2   3
BRANCH   2  18
ATOM     18  O   UNL A   1      31.907  29.343  24.621  1.00  0.00    -0.462 OA
BRANCH  18  19
ATOM     19  C   UNL A   1      31.736  29.591  26.032  1.00  0.00     0.274 C 
BRANCH  19  20
ATOM     20  C   UNL A   1      31.990  31.053  26.398  1.00  0.00     0.275 C 
BRANCH  20  21
ATOM     21  O   UNL A   1      32.729  31.139  27.627  1.00  0.00    -0.458 OA
BRANCH  21  22
ATOM     22  C   UNL A   1      33.528  32.235  27.724  1.00  0.00     0.338 C 
ATOM     23  O   UNL A   1      33.179  33.394  27.723  1.00  0.00    -0.246 OA
BRANCH  22  24
ATOM     24  C   UNL A   1      34.920  31.808  28.006  1.00  0.00     0.060 A 
ATOM     25  C   UNL A   1      35.161  30.430  28.075  1.00  0.00     0.016 A 
ATOM     26  C   UNL A   1      35.967  32.717  28.198  1.00  0.00     0.016 A 
ATOM     27  C   UNL A   1      36.427  29.959  28.412  1.00  0.00     0.010 A 
ATOM     28  C   UNL A   1      37.240  32.244  28.536  1.00  0.00     0.010 A 
ATOM     29  C   UNL A   1      37.457  30.865  28.699  1.00  0.00    -0.014 A 
BRANCH  29  30
ATOM     30  C   UNL A   1      38.655  30.363  29.413  1.00  0.00     0.031 A 
ATOM     31  C   UNL A   1      38.859  30.803  30.838  1.00  0.00     0.074 A 
ATOM     32  C   UNL A   1      39.496  29.478  28.850  1.00  0.00     0.049 A 
ATOM     33  N   UNL A   1      39.744  30.406  31.715  1.00  0.00    -0.248 NA
ATOM     34  C   UNL A   1      37.932  31.830  31.343  1.00  0.00     0.031 C 
ATOM     35  C   UNL A   1      39.399  28.964  27.487  1.00  0.00     0.029 A 
ATOM     36  N   UNL A   1      40.595  28.845  29.375  1.00  0.00    -0.354 N 
ATOM     37  C   UNL A   1      39.469  31.120  32.874  1.00  0.00     0.074 A 
ATOM     38  C   UNL A   1      38.372  32.013  32.577  1.00  0.00     0.031 C 
ATOM     39  C   UNL A   1      40.398  28.087  27.282  1.00  0.00     0.029 A 
ATOM     40  C   UNL A   1      41.201  27.979  28.499  1.00  0.00     0.049 A 
ATOM     41  H   UNL A   1      40.919  28.998  30.292  1.00  0.00     0.167 HD
ATOM     42  C   UNL A   1      40.060  31.024  34.088  1.00  0.00     0.037 A 
ATOM     43  C   UNL A   1      42.273  27.181  28.674  1.00  0.00     0.037 A 
ATOM     44  C   UNL A   1      41.155  30.144  34.387  1.00  0.00     0.049 A 
ATOM     45  C   UNL A   1      42.948  27.130  30.023  1.00  0.00     0.074 A 
ATOM     46  C   UNL A   1      41.817  29.963  35.587  1.00  0.00     0.029 A 
ATOM     47  N   UNL A   1      41.756  29.300  33.465  1.00  0.00    -0.354 N 
ATOM     48  N   UNL A   1      42.638  27.756  31.132  1.00  0.00    -0.248 NA
ATOM     49  C   UNL A   1      44.112  26.240  30.145  1.00  0.00     0.031 C 
ATOM     50  C   UNL A   1      42.849  29.041  35.381  1.00  0.00     0.029 A 
ATOM     51  C   UNL A   1      42.796  28.611  34.065  1.00  0.00     0.049 A 
ATOM     52  H   UNL A   1      41.484  29.206  32.524  1.00  0.00     0.167 HD
ATOM     53  C   UNL A   1      43.535  27.304  32.092  1.00  0.00     0.074 A 
ATOM     54  C   UNL A   1      44.400  26.347  31.435  1.00  0.00     0.031 C 
ATOM     55  C   UNL A   1      43.631  27.644  33.401  1.00  0.00     0.037 A 
BRANCH  42  56
ATOM     56  C   UNL A   1      39.535  31.913  35.176  1.00  0.00     0.064 A 
ATOM     57  C   UNL A   1      39.960  33.244  35.306  1.00  0.00     0.173 A 
ATOM     58  C   UNL A   1      38.593  31.429  36.096  1.00  0.00     0.173 A 
ATOM     59  F   UNL A   1      40.875  33.746  34.463  1.00  0.00    -0.203 F 
ATOM     60  C   UNL A   1      39.482  34.049  36.336  1.00  0.00     0.198 A 
ATOM     61  C   UNL A   1      38.098  32.246  37.108  1.00  0.00     0.198 A 
ATOM     62  F   UNL A   1      38.158  30.163  36.015  1.00  0.00    -0.203 F 
ATOM     63  F   UNL A   1      39.941  35.302  36.473  1.00  0.00    -0.200 F 
ATOM     64  C   UNL A   1      38.548  33.552  37.232  1.00  0.00     0.200 A 
ATOM     65  F   UNL A   1      37.190  31.766  37.970  1.00  0.00    -0.200 F 
ATOM     66  F   UNL A   1      38.089  34.328  38.223  1.00  0.00    -0.200 F 
ENDBRANCH  42  56
BRANCH  43  67
ATOM     67  C   UNL A   1      42.765  26.334  27.556  1.00  0.00     0.064 A 
ATOM     68  C   UNL A   1      43.773  26.789  26.693  1.00  0.00     0.173 A 
ATOM     69  C   UNL A   1      42.211  25.072  27.303  1.00  0.00     0.173 A 
ATOM     70  F   UNL A   1      44.315  28.002  26.879  1.00  0.00    -0.203 F 
ATOM     71  C   UNL A   1      44.188  26.024  25.606  1.00  0.00     0.198 A 
ATOM     72  C   UNL A   1      42.645  24.296  26.230  1.00  0.00     0.198 A 
ATOM     73  F   UNL A   1      41.242  24.593  28.097  1.00  0.00    -0.203 F 
ATOM     74  F   UNL A   1      45.116  26.506  24.766  1.00  0.00    -0.200 F 
ATOM     75  C   UNL A   1      43.628  24.778  25.377  1.00  0.00     0.200 A 
ATOM     76  F   UNL A   1      42.105  23.089  26.015  1.00  0.00    -0.200 F 
ATOM     77  F   UNL A   1      44.023  24.045  24.326  1.00  0.00    -0.200 F 
ENDBRANCH  43  67
BRANCH  55  78
ATOM     78  C   UNL A   1      44.668  26.939  34.227  1.00  0.00     0.064 A 
ATOM     79  C   UNL A   1      45.957  27.463  34.401  1.00  0.00     0.173 A 
ATOM     80  C   UNL A   1      44.350  25.743  34.888  1.00  0.00     0.173 A 
ATOM     81  F   UNL A   1      46.314  28.598  33.781  1.00  0.00    -0.203 F 
ATOM     82  C   UNL A   1      46.899  26.799  35.183  1.00  0.00     0.198 A 
ATOM     83  C   UNL A   1      45.284  25.098  35.694  1.00  0.00     0.198 A 
ATOM     84  F   UNL A   1      43.127  25.205  34.762  1.00  0.00    -0.203 F 
ATOM     85  F   UNL A   1      48.139  27.293  35.298  1.00  0.00    -0.200 F 
ATOM     86  C   UNL A   1      46.560  25.622  35.834  1.00  0.00     0.200 A 
ATOM     87  F   UNL A   1      44.950  23.969  36.334  1.00  0.00    -0.200 F 
ATOM     88  F   UNL A   1      47.466  24.989  36.591  1.00  0.00    -0.200 F 
ENDBRANCH  55  78
ENDBRANCH  29  30
ENDBRANCH  22  24
ENDBRANCH  21  22
ENDBRANCH  20  21
ENDBRANCH  19  20
ENDBRANCH  18  19
ENDBRANCH   2  18
TORSDOF 17
ENDMDL
MODEL 3
REMARK VINA RESULT:      -9.1      5.543     11.089
REMARK SMILES O=C(CCCNc1ccccc1SC(F)F)OCCOC(=O)c1ccc(-c2c3nc(c(-c4c(F)c(F)c(F)c(F)c4F)c4ccc([nH]4)c(-c4c(F)c(F)c(F)c(F)c4F)c4nc(c(-c5c(F)c(F)c(F)c(F)c5F)c5ccc2[nH]5)C=C4)C=C3)cc1
REMARK SMILES IDX 1 1 2 2 3 3 4 4 5 5 6 6 7 8 8 9 12 10 9 11 11 12 10 13 13 14
REMARK SMILES IDX 14 15 15 16 16 17 17 18 18 19 19 20 20 21 21 22 22 23 23 24
REMARK SMILES IDX 24 25 85 26 25 27 84 28 26 29 27 30 28 31 78 32 29 33 83 34
REMARK SMILES IDX 77 35 79 36 30 37 82 38 76 39 75 40 31 42 63 43 43 44 62 45
REMARK SMILES IDX 44 46 47 47 61 48 80 49 45 50 46 51 60 53 81 54 48 55 32 56
REMARK SMILES IDX 33 57 41 58 34 59 35 60 39 61 42 62 36 63 37 64 40 65 38 66
REMARK SMILES IDX 64 67 65 68 73 69 66 70 67 71 71 72 74 73 68 74 69 75 72 76
REMARK SMILES IDX 70 77 49 78 50 79 58 80 51 81 52 82 56 83 59 84 53 85 54 86
REMARK SMILES IDX 57 87 55 88
REMARK H PARENT 6 7 79 41 47 52
REMARK Flexibility Score: inf
ROOT
ATOM      1  O   UNL A   1      31.322  27.528  27.458  1.00  0.00    -0.252 OA
ATOM      2  C   UNL A   1      32.040  28.491  27.205  1.00  0.00     0.305 C 
ENDROOT
BRANCH   2   3
ATOM      3  C   UNL A   1      33.503  28.317  26.861  1.00  0.00     0.124 C 
BRANCH   3   4
ATOM      4  C   UNL A   1      33.767  28.081  25.378  1.00  0.00     0.033 C 
BRANCH   4   5
ATOM      5  C   UNL A   1      33.225  26.743  24.876  1.00  0.00     0.113 C 
BRANCH   5   6
ATOM      6  N   UNL A   1      33.727  25.645  25.682  1.00  0.00    -0.384 N 
ATOM      7  H   UNL A   1      33.877  25.846  26.634  1.00  0.00     0.160 HD
BRANCH   6   8
ATOM      8  C   UNL A   1      34.021  24.348  25.283  1.00  0.00     0.048 A 
ATOM      9  C   UNL A   1      34.953  24.246  24.221  1.00  0.00     0.027 A 
ATOM     10  C   UNL A   1      33.497  23.135  25.792  1.00  0.00     0.036 A 
ATOM     11  C   UNL A   1      35.397  23.021  23.719  1.00  0.00     0.002 A 
ATOM     12  C   UNL A   1      33.958  21.903  25.277  1.00  0.00     0.017 A 
ATOM     13  C   UNL A   1      34.903  21.844  24.254  1.00  0.00     0.001 A 
BRANCH  10  14
ATOM     14  S   UNL A   1      32.363  22.966  27.174  1.00  0.00    -0.053 SA
BRANCH  14  15
ATOM     15  C   UNL A   1      30.767  22.918  26.327  1.00  0.00     0.405 C 
ATOM     16  F   UNL A   1      29.772  23.069  27.241  1.00  0.00    -0.198 F 
ATOM     17  F   UNL A   1      30.613  23.921  25.426  1.00  0.00    -0.198 F 
ENDBRANCH  14  15
ENDBRANCH  10  14
ENDBRANCH   6   8
ENDBRANCH   5   6
ENDBRANCH   4   5
ENDBRANCH   3   4
ENDBRANCH   2   3
BRANCH   2  18
ATOM     18  O   UNL A   1      31.607  29.763  27.395  1.00  0.00    -0.462 OA
BRANCH  18  19
ATOM     19  C   UNL A   1      32.030  30.806  26.493  1.00  0.00     0.274 C 
BRANCH  19  20
ATOM     20  C   UNL A   1      31.830  32.201  27.087  1.00  0.00     0.275 C 
BRANCH  20  21
ATOM     21  O   UNL A   1      33.037  32.973  26.964  1.00  0.00    -0.458 OA
BRANCH  21  22
ATOM     22  C   UNL A   1      33.545  33.406  28.149  1.00  0.00     0.338 C 
ATOM     23  O   UNL A   1      32.984  34.084  28.979  1.00  0.00    -0.246 OA
BRANCH  22  24
ATOM     24  C   UNL A   1      34.869  32.778  28.376  1.00  0.00     0.060 A 
ATOM     25  C   UNL A   1      34.885  31.402  28.635  1.00  0.00     0.016 A 
ATOM     26  C   UNL A   1      36.068  33.501  28.338  1.00  0.00     0.016 A 
ATOM     27  C   UNL A   1      36.085  30.761  28.934  1.00  0.00     0.010 A 
ATOM     28  C   UNL A   1      37.274  32.857  28.636  1.00  0.00     0.010 A 
ATOM     29  C   UNL A   1      37.275  31.497  28.991  1.00  0.00    -0.014 A 
BRANCH  29  30
ATOM     30  C   UNL A   1      38.444  30.890  29.671  1.00  0.00     0.031 A 
ATOM     31  C   UNL A   1      38.685  31.254  31.111  1.00  0.00     0.074 A 
ATOM     32  C   UNL A   1      39.224  29.979  29.063  1.00  0.00     0.049 A 
ATOM     33  N   UNL A   1      39.550  30.765  31.962  1.00  0.00    -0.248 NA
ATOM     34  C   UNL A   1      37.829  32.315  31.669  1.00  0.00     0.031 C 
ATOM     35  C   UNL A   1      39.085  29.533  27.680  1.00  0.00     0.029 A 
ATOM     36  N   UNL A   1      40.284  29.256  29.549  1.00  0.00    -0.354 N 
ATOM     37  C   UNL A   1      39.328  31.443  33.154  1.00  0.00     0.074 A 
ATOM     38  C   UNL A   1      38.289  32.415  32.906  1.00  0.00     0.031 C 
ATOM     39  C   UNL A   1      40.025  28.604  27.427  1.00  0.00     0.029 A 
ATOM     40  C   UNL A   1      40.828  28.392  28.631  1.00  0.00     0.049 A 
ATOM     41  H   UNL A   1      40.623  29.349  30.468  1.00  0.00     0.167 HD
ATOM     42  C   UNL A   1      39.921  31.258  34.357  1.00  0.00     0.037 A 
ATOM     43  C   UNL A   1      41.848  27.522  28.761  1.00  0.00     0.037 A 
ATOM     44  C   UNL A   1      40.960  30.298  34.607  1.00  0.00     0.049 A 
ATOM     45  C   UNL A   1      42.528  27.370  30.100  1.00  0.00     0.074 A 
ATOM     46  C   UNL A   1      41.617  30.024  35.791  1.00  0.00     0.029 A 
ATOM     47  N   UNL A   1      41.500  29.459  33.644  1.00  0.00    -0.354 N 
ATOM     48  N   UNL A   1      42.266  27.965  31.238  1.00  0.00    -0.248 NA
ATOM     49  C   UNL A   1      43.634  26.404  30.173  1.00  0.00     0.031 C 
ATOM     50  C   UNL A   1      42.587  29.049  35.536  1.00  0.00     0.029 A 
ATOM     51  C   UNL A   1      42.499  28.681  34.203  1.00  0.00     0.049 A 
ATOM     52  H   UNL A   1      41.215  29.423  32.702  1.00  0.00     0.167 HD
ATOM     53  C   UNL A   1      43.140  27.416  32.169  1.00  0.00     0.074 A 
ATOM     54  C   UNL A   1      43.938  26.436  31.463  1.00  0.00     0.031 C 
ATOM     55  C   UNL A   1      43.266  27.692  33.490  1.00  0.00     0.037 A 
BRANCH  42  56
ATOM     56  C   UNL A   1      39.460  32.129  35.487  1.00  0.00     0.064 A 
ATOM     57  C   UNL A   1      38.486  31.696  36.398  1.00  0.00     0.173 A 
ATOM     58  C   UNL A   1      40.002  33.411  35.661  1.00  0.00     0.173 A 
ATOM     59  F   UNL A   1      37.923  30.486  36.260  1.00  0.00    -0.203 F 
ATOM     60  C   UNL A   1      38.050  32.526  37.427  1.00  0.00     0.198 A 
ATOM     61  C   UNL A   1      39.582  34.228  36.707  1.00  0.00     0.198 A 
ATOM     62  F   UNL A   1      40.934  33.873  34.814  1.00  0.00    -0.203 F 
ATOM     63  F   UNL A   1      37.080  32.111  38.255  1.00  0.00    -0.200 F 
ATOM     64  C   UNL A   1      38.602  33.788  37.584  1.00  0.00     0.200 A 
ATOM     65  F   UNL A   1      40.121  35.445  36.862  1.00  0.00    -0.200 F 
ATOM     66  F   UNL A   1      38.181  34.586  38.575  1.00  0.00    -0.200 F 
ENDBRANCH  42  56
BRANCH  43  67
ATOM     67  C   UNL A   1      42.278  26.695  27.603  1.00  0.00     0.064 A 
ATOM     68  C   UNL A   1      41.685  25.450  27.344  1.00  0.00     0.173 A 
ATOM     69  C   UNL A   1      43.315  27.113  26.757  1.00  0.00     0.173 A 
ATOM     70  F   UNL A   1      40.708  24.996  28.142  1.00  0.00    -0.203 F 
ATOM     71  C   UNL A   1      42.132  24.645  26.298  1.00  0.00     0.198 A 
ATOM     72  C   UNL A   1      43.743  26.318  25.696  1.00  0.00     0.198 A 
ATOM     73  F   UNL A   1      43.916  28.293  26.966  1.00  0.00    -0.203 F 
ATOM     74  F   UNL A   1      41.584  23.437  26.105  1.00  0.00    -0.200 F 
ATOM     75  C   UNL A   1      43.157  25.080  25.473  1.00  0.00     0.200 A 
ATOM     76  F   UNL A   1      44.731  26.744  24.898  1.00  0.00    -0.200 F 
ATOM     77  F   UNL A   1      43.591  24.302  24.472  1.00  0.00    -0.200 F 
ENDBRANCH  43  67
BRANCH  55  78
ATOM     78  C   UNL A   1      44.262  26.888  34.275  1.00  0.00     0.064 A 
ATOM     79  C   UNL A   1      45.570  27.341  34.494  1.00  0.00     0.173 A 
ATOM     80  C   UNL A   1      43.884  25.666  34.852  1.00  0.00     0.173 A 
ATOM     81  F   UNL A   1      45.984  28.498  33.955  1.00  0.00    -0.203 F 
ATOM     82  C   UNL A   1      46.474  26.585  35.237  1.00  0.00     0.198 A 
ATOM     83  C   UNL A   1      44.780  24.927  35.620  1.00  0.00     0.198 A 
ATOM     84  F   UNL A   1      42.640  25.192  34.680  1.00  0.00    -0.203 F 
ATOM     85  F   UNL A   1      47.733  27.014  35.394  1.00  0.00    -0.200 F 
ATOM     86  C   UNL A   1      46.077  25.384  35.804  1.00  0.00     0.200 A 
ATOM     87  F   UNL A   1      44.390  23.774  36.179  1.00  0.00    -0.200 F 
ATOM     88  F   UNL A   1      46.945  24.661  36.524  1.00  0.00    -0.200 F 
ENDBRANCH  55  78
ENDBRANCH  29  30
ENDBRANCH  22  24
ENDBRANCH  21  22
ENDBRANCH  20  21
ENDBRANCH  19  20
ENDBRANCH  18  19
ENDBRANCH   2  18
TORSDOF 17
ENDMDL
