MODEL 1
REMARK VINA RESULT:     -13.4      0.000      0.000
REMARK SMILES Cc1ccc2nc3c(c(C(=O)OCCOC(=O)c4ccc(-c5c6nc(c(-c7c(F)c(F)c(F)c(F)c7F)c7ccc([nH]7)c(-c7c(F)c(F)c(F)c(F)c7F)c7nc(c(-c8c(F)c(F)c(F)c(F)c8F)c8ccc5[nH]8)C=C7)C=C6)cc4)c2c1)C[C@H](C)CC3
REMARK SMILES IDX 14 1 13 2 12 3 10 4 11 5 9 6 1 7 2 8 3 9 82 10 4 11 81 12
REMARK SMILES IDX 5 13 6 14 8 15 7 16 83 17 87 18 84 19 86 20 85 21 15 22
REMARK SMILES IDX 16 23 17 24 18 25 19 26 80 27 20 28 79 29 21 30 22 31 23 32
REMARK SMILES IDX 73 33 24 34 78 35 72 36 74 37 25 38 77 39 71 40 70 41 26 43
REMARK SMILES IDX 58 44 38 45 57 46 39 47 42 48 56 49 75 50 40 51 41 52 55 54
REMARK SMILES IDX 76 55 43 56 27 57 28 58 36 59 29 60 30 61 34 62 37 63 31 64
REMARK SMILES IDX 32 65 35 66 33 67 59 68 60 69 68 70 61 71 62 72 66 73 69 74
REMARK SMILES IDX 63 75 64 76 67 77 65 78 44 79 45 80 53 81 46 82 47 83 51 84
REMARK SMILES IDX 54 85 48 86 49 87 52 88 50 89
REMARK H PARENT 74 42 42 53
REMARK Flexibility Score: inf
ROOT
ATOM      1  C   UNL A   1      32.337  30.133  25.647  1.00  0.00     0.275 C 
ENDROOT
BRANCH   1   2
ATOM      2  C   UNL A   1      33.337  29.162  25.018  1.00  0.00     0.275 C 
BRANCH   2   3
ATOM      3  O   UNL A   1      33.263  29.210  23.571  1.00  0.00    -0.458 OA
BRANCH   3   4
ATOM      4  C   UNL A   1      33.179  28.016  22.928  1.00  0.00     0.339 C 
ATOM      5  O   UNL A   1      33.816  27.689  21.941  1.00  0.00    -0.246 OA
BRANCH   4   6
ATOM      6  C   UNL A   1      32.194  27.112  23.593  1.00  0.00     0.074 A 
ATOM      7  C   UNL A   1      28.207  29.803  22.011  1.00  0.00     0.044 C 
ATOM      8  C   UNL A   1      28.813  28.641  22.740  1.00  0.00    -0.050 A 
ATOM      9  C   UNL A   1      28.000  27.683  23.335  1.00  0.00     0.005 A 
ATOM     10  C   UNL A   1      30.202  28.468  22.791  1.00  0.00     0.014 A 
ATOM     11  C   UNL A   1      28.574  26.599  23.998  1.00  0.00     0.029 A 
ATOM     12  C   UNL A   1      30.800  27.373  23.478  1.00  0.00     0.015 A 
ATOM     13  C   UNL A   1      29.946  26.433  24.085  1.00  0.00     0.071 A 
ATOM     14  N   UNL A   1      30.385  25.356  24.747  1.00  0.00    -0.253 NA
ATOM     15  C   UNL A   1      32.660  25.950  24.257  1.00  0.00    -0.011 A 
ATOM     16  C   UNL A   1      31.709  25.115  24.827  1.00  0.00     0.045 A 
ATOM     17  C   UNL A   1      34.121  25.607  24.356  1.00  0.00     0.041 C 
ATOM     18  C   UNL A   1      32.103  23.908  25.636  1.00  0.00     0.057 C 
ATOM     19  C   UNL A   1      34.517  24.384  25.204  1.00  0.00    -0.009 C 
ATOM     20  C   UNL A   1      33.430  23.316  25.189  1.00  0.00     0.010 C 
ATOM     21  C   UNL A   1      35.853  23.796  24.736  1.00  0.00     0.008 C 
ENDBRANCH   4   6
ENDBRANCH   3   4
ENDBRANCH   2   3
ENDBRANCH   1   2
BRANCH   1  22
ATOM     22  O   UNL A   1      32.731  30.337  27.014  1.00  0.00    -0.458 OA
BRANCH  22  23
ATOM     23  C   UNL A   1      33.340  31.508  27.311  1.00  0.00     0.338 C 
ATOM     24  O   UNL A   1      32.863  32.625  27.316  1.00  0.00    -0.246 OA
BRANCH  23  25
ATOM     25  C   UNL A   1      34.687  31.176  27.809  1.00  0.00     0.060 A 
ATOM     26  C   UNL A   1      35.675  32.128  28.036  1.00  0.00     0.016 A 
ATOM     27  C   UNL A   1      34.905  29.851  28.164  1.00  0.00     0.016 A 
ATOM     28  C   UNL A   1      36.895  31.732  28.613  1.00  0.00     0.010 A 
ATOM     29  C   UNL A   1      36.073  29.483  28.820  1.00  0.00     0.010 A 
ATOM     30  C   UNL A   1      37.099  30.404  29.038  1.00  0.00    -0.014 A 
BRANCH  30  31
ATOM     31  C   UNL A   1      38.304  29.964  29.803  1.00  0.00     0.031 A 
ATOM     32  C   UNL A   1      38.574  30.428  31.216  1.00  0.00     0.074 A 
ATOM     33  C   UNL A   1      39.271  29.286  29.155  1.00  0.00     0.049 A 
ATOM     34  N   UNL A   1      39.588  30.143  32.002  1.00  0.00    -0.248 NA
ATOM     35  C   UNL A   1      37.629  31.388  31.803  1.00  0.00     0.031 C 
ATOM     36  C   UNL A   1      39.257  28.952  27.732  1.00  0.00     0.029 A 
ATOM     37  N   UNL A   1      40.463  28.770  29.605  1.00  0.00    -0.354 N 
ATOM     38  C   UNL A   1      39.423  30.920  33.144  1.00  0.00     0.074 A 
ATOM     39  C   UNL A   1      38.246  31.731  32.926  1.00  0.00     0.031 C 
ATOM     40  C   UNL A   1      40.354  28.240  27.436  1.00  0.00     0.029 A 
ATOM     41  C   UNL A   1      41.148  28.063  28.650  1.00  0.00     0.049 A 
ATOM     42  H   UNL A   1      40.793  28.897  30.524  1.00  0.00     0.167 HD
ATOM     43  C   UNL A   1      40.165  30.929  34.280  1.00  0.00     0.037 A 
ATOM     44  C   UNL A   1      42.261  27.309  28.747  1.00  0.00     0.037 A 
ATOM     45  C   UNL A   1      41.279  30.045  34.523  1.00  0.00     0.049 A 
ATOM     46  C   UNL A   1      42.935  27.144  30.079  1.00  0.00     0.074 A 
ATOM     47  C   UNL A   1      41.975  29.841  35.704  1.00  0.00     0.029 A 
ATOM     48  N   UNL A   1      41.852  29.214  33.575  1.00  0.00    -0.354 N 
ATOM     49  N   UNL A   1      42.673  27.743  31.213  1.00  0.00    -0.248 NA
ATOM     50  C   UNL A   1      44.036  26.172  30.155  1.00  0.00     0.031 C 
ATOM     51  C   UNL A   1      42.988  28.908  35.462  1.00  0.00     0.029 A 
ATOM     52  C   UNL A   1      42.889  28.492  34.146  1.00  0.00     0.049 A 
ATOM     53  H   UNL A   1      41.565  29.146  32.635  1.00  0.00     0.167 HD
ATOM     54  C   UNL A   1      43.549  27.201  32.143  1.00  0.00     0.074 A 
ATOM     55  C   UNL A   1      44.346  26.217  31.444  1.00  0.00     0.031 C 
ATOM     56  C   UNL A   1      43.672  27.499  33.458  1.00  0.00     0.037 A 
BRANCH  43  57
ATOM     57  C   UNL A   1      39.776  31.864  35.398  1.00  0.00     0.064 A 
ATOM     58  C   UNL A   1      40.312  33.156  35.493  1.00  0.00     0.173 A 
ATOM     59  C   UNL A   1      38.755  31.516  36.298  1.00  0.00     0.173 A 
ATOM     60  F   UNL A   1      41.282  33.550  34.654  1.00  0.00    -0.203 F 
ATOM     61  C   UNL A   1      39.860  34.056  36.456  1.00  0.00     0.198 A 
ATOM     62  C   UNL A   1      38.276  32.431  37.233  1.00  0.00     0.198 A 
ATOM     63  F   UNL A   1      38.187  30.301  36.244  1.00  0.00    -0.203 F 
ATOM     64  F   UNL A   1      40.412  35.273  36.544  1.00  0.00    -0.200 F 
ATOM     65  C   UNL A   1      38.832  33.698  37.315  1.00  0.00     0.200 A 
ATOM     66  F   UNL A   1      37.261  32.095  38.043  1.00  0.00    -0.200 F 
ATOM     67  F   UNL A   1      38.372  34.579  38.214  1.00  0.00    -0.200 F 
ENDBRANCH  43  57
BRANCH  44  68
ATOM     68  C   UNL A   1      42.683  26.512  27.570  1.00  0.00     0.064 A 
ATOM     69  C   UNL A   1      43.674  27.010  26.710  1.00  0.00     0.173 A 
ATOM     70  C   UNL A   1      42.183  25.228  27.321  1.00  0.00     0.173 A 
ATOM     71  F   UNL A   1      44.173  28.239  26.909  1.00  0.00    -0.203 F 
ATOM     72  C   UNL A   1      44.147  26.255  25.642  1.00  0.00     0.198 A 
ATOM     73  C   UNL A   1      42.672  24.464  26.262  1.00  0.00     0.198 A 
ATOM     74  F   UNL A   1      41.248  24.704  28.126  1.00  0.00    -0.203 F 
ATOM     75  F   UNL A   1      45.082  26.763  24.829  1.00  0.00    -0.200 F 
ATOM     76  C   UNL A   1      43.653  24.978  25.425  1.00  0.00     0.200 A 
ATOM     77  F   UNL A   1      42.208  23.223  26.063  1.00  0.00    -0.200 F 
ATOM     78  F   UNL A   1      44.123  24.242  24.409  1.00  0.00    -0.200 F 
ENDBRANCH  44  68
BRANCH  56  79
ATOM     79  C   UNL A   1      44.681  26.736  34.264  1.00  0.00     0.064 A 
ATOM     80  C   UNL A   1      45.987  27.212  34.449  1.00  0.00     0.173 A 
ATOM     81  C   UNL A   1      44.308  25.561  34.935  1.00  0.00     0.173 A 
ATOM     82  F   UNL A   1      46.394  28.326  33.824  1.00  0.00    -0.203 F 
ATOM     83  C   UNL A   1      46.886  26.534  35.268  1.00  0.00     0.198 A 
ATOM     84  C   UNL A   1      45.201  24.899  35.773  1.00  0.00     0.198 A 
ATOM     85  F   UNL A   1      43.067  25.070  34.800  1.00  0.00    -0.203 F 
ATOM     86  F   UNL A   1      48.137  26.992  35.411  1.00  0.00    -0.200 F 
ATOM     87  C   UNL A   1      46.490  25.384  35.937  1.00  0.00     0.200 A 
ATOM     88  F   UNL A   1      44.812  23.798  36.430  1.00  0.00    -0.200 F 
ATOM     89  F   UNL A   1      47.351  24.744  36.739  1.00  0.00    -0.200 F 
ENDBRANCH  56  79
ENDBRANCH  30  31
ENDBRANCH  23  25
ENDBRANCH  22  23
ENDBRANCH   1  22
TORSDOF 11
ENDMDL
MODEL 2
REMARK VINA RESULT:     -13.4      0.508      2.534
REMARK SMILES Cc1ccc2nc3c(c(C(=O)OCCOC(=O)c4ccc(-c5c6nc(c(-c7c(F)c(F)c(F)c(F)c7F)c7ccc([nH]7)c(-c7c(F)c(F)c(F)c(F)c7F)c7nc(c(-c8c(F)c(F)c(F)c(F)c8F)c8ccc5[nH]8)C=C7)C=C6)cc4)c2c1)C[C@H](C)CC3
REMARK SMILES IDX 14 1 13 2 12 3 10 4 11 5 9 6 1 7 2 8 3 9 82 10 4 11 81 12
REMARK SMILES IDX 5 13 6 14 8 15 7 16 83 17 87 18 84 19 86 20 85 21 15 22
REMARK SMILES IDX 16 23 17 24 18 25 19 26 80 27 20 28 79 29 21 30 22 31 23 32
REMARK SMILES IDX 73 33 24 34 78 35 72 36 74 37 25 38 77 39 71 40 70 41 26 43
REMARK SMILES IDX 58 44 38 45 57 46 39 47 42 48 56 49 75 50 40 51 41 52 55 54
REMARK SMILES IDX 76 55 43 56 27 57 28 58 36 59 29 60 30 61 34 62 37 63 31 64
REMARK SMILES IDX 32 65 35 66 33 67 59 68 60 69 68 70 61 71 62 72 66 73 69 74
REMARK SMILES IDX 63 75 64 76 67 77 65 78 44 79 45 80 53 81 46 82 47 83 51 84
REMARK SMILES IDX 54 85 48 86 49 87 52 88 50 89
REMARK H PARENT 74 42 42 53
REMARK Flexibility Score: inf
ROOT
ATOM      1  C   UNL A   1      32.196  30.102  25.616  1.00  0.00     0.275 C 
ENDROOT
BRANCH   1   2
ATOM      2  C   UNL A   1      33.247  29.310  24.838  1.00  0.00     0.275 C 
BRANCH   2   3
ATOM      3  O   UNL A   1      32.934  29.288  23.423  1.00  0.00    -0.458 OA
BRANCH   3   4
ATOM      4  C   UNL A   1      32.705  28.067  22.871  1.00  0.00     0.339 C 
ATOM      5  O   UNL A   1      33.411  27.512  22.046  1.00  0.00    -0.246 OA
BRANCH   4   6
ATOM      6  C   UNL A   1      31.456  27.455  23.413  1.00  0.00     0.074 A 
ATOM      7  C   UNL A   1      33.973  23.966  26.084  1.00  0.00     0.044 C 
ATOM      8  C   UNL A   1      32.704  24.625  25.633  1.00  0.00    -0.050 A 
ATOM      9  C   UNL A   1      31.477  24.198  26.129  1.00  0.00     0.005 A 
ATOM     10  C   UNL A   1      32.730  25.712  24.750  1.00  0.00     0.014 A 
ATOM     11  C   UNL A   1      30.303  24.827  25.714  1.00  0.00     0.029 A 
ATOM     12  C   UNL A   1      31.537  26.352  24.309  1.00  0.00     0.015 A 
ATOM     13  C   UNL A   1      30.311  25.881  24.816  1.00  0.00     0.071 A 
ATOM     14  N   UNL A   1      29.125  26.406  24.488  1.00  0.00    -0.253 NA
ATOM     15  C   UNL A   1      30.205  28.040  23.097  1.00  0.00    -0.011 A 
ATOM     16  C   UNL A   1      29.071  27.464  23.655  1.00  0.00     0.045 A 
ATOM     17  C   UNL A   1      30.077  29.238  22.199  1.00  0.00     0.041 C 
ATOM     18  C   UNL A   1      27.689  27.948  23.307  1.00  0.00     0.057 C 
ATOM     19  C   UNL A   1      28.659  29.715  21.830  1.00  0.00    -0.009 C 
ATOM     20  C   UNL A   1      27.663  29.426  22.947  1.00  0.00     0.010 C 
ATOM     21  C   UNL A   1      28.650  31.206  21.477  1.00  0.00     0.008 C 
ENDBRANCH   4   6
ENDBRANCH   3   4
ENDBRANCH   2   3
ENDBRANCH   1   2
BRANCH   1  22
ATOM     22  O   UNL A   1      32.682  30.266  26.958  1.00  0.00    -0.458 OA
BRANCH  22  23
ATOM     23  C   UNL A   1      33.275  31.444  27.260  1.00  0.00     0.338 C 
ATOM     24  O   UNL A   1      32.785  32.555  27.265  1.00  0.00    -0.246 OA
BRANCH  23  25
ATOM     25  C   UNL A   1      34.625  31.128  27.760  1.00  0.00     0.060 A 
ATOM     26  C   UNL A   1      35.599  32.093  27.995  1.00  0.00     0.016 A 
ATOM     27  C   UNL A   1      34.860  29.805  28.111  1.00  0.00     0.016 A 
ATOM     28  C   UNL A   1      36.823  31.710  28.574  1.00  0.00     0.010 A 
ATOM     29  C   UNL A   1      36.031  29.450  28.770  1.00  0.00     0.010 A 
ATOM     30  C   UNL A   1      37.043  30.384  28.995  1.00  0.00    -0.014 A 
BRANCH  30  31
ATOM     31  C   UNL A   1      38.251  29.958  29.762  1.00  0.00     0.031 A 
ATOM     32  C   UNL A   1      38.515  30.426  31.175  1.00  0.00     0.074 A 
ATOM     33  C   UNL A   1      39.226  29.288  29.116  1.00  0.00     0.049 A 
ATOM     34  N   UNL A   1      39.531  30.152  31.962  1.00  0.00    -0.248 NA
ATOM     35  C   UNL A   1      37.559  31.377  31.759  1.00  0.00     0.031 C 
ATOM     36  C   UNL A   1      39.217  28.952  27.694  1.00  0.00     0.029 A 
ATOM     37  N   UNL A   1      40.423  28.785  29.569  1.00  0.00    -0.354 N 
ATOM     38  C   UNL A   1      39.357  30.929  33.103  1.00  0.00     0.074 A 
ATOM     39  C   UNL A   1      38.171  31.728  32.883  1.00  0.00     0.031 C 
ATOM     40  C   UNL A   1      40.323  28.251  27.401  1.00  0.00     0.029 A 
ATOM     41  C   UNL A   1      41.117  28.083  28.616  1.00  0.00     0.049 A 
ATOM     42  H   UNL A   1      40.751  28.916  30.488  1.00  0.00     0.167 HD
ATOM     43  C   UNL A   1      40.096  30.948  34.240  1.00  0.00     0.037 A 
ATOM     44  C   UNL A   1      42.237  27.341  28.715  1.00  0.00     0.037 A 
ATOM     45  C   UNL A   1      41.219  30.075  34.486  1.00  0.00     0.049 A 
ATOM     46  C   UNL A   1      42.911  27.185  30.049  1.00  0.00     0.074 A 
ATOM     47  C   UNL A   1      41.915  29.880  35.668  1.00  0.00     0.029 A 
ATOM     48  N   UNL A   1      41.802  29.249  33.540  1.00  0.00    -0.354 N 
ATOM     49  N   UNL A   1      42.641  27.783  31.182  1.00  0.00    -0.248 NA
ATOM     50  C   UNL A   1      44.021  26.224  30.127  1.00  0.00     0.031 C 
ATOM     51  C   UNL A   1      42.938  28.957  35.430  1.00  0.00     0.029 A 
ATOM     52  C   UNL A   1      42.845  28.538  34.113  1.00  0.00     0.049 A 
ATOM     53  H   UNL A   1      41.517  29.176  32.600  1.00  0.00     0.167 HD
ATOM     54  C   UNL A   1      43.521  27.251  32.113  1.00  0.00     0.074 A 
ATOM     55  C   UNL A   1      44.330  26.274  31.417  1.00  0.00     0.031 C 
ATOM     56  C   UNL A   1      43.639  27.552  33.428  1.00  0.00     0.037 A 
BRANCH  43  57
ATOM     57  C   UNL A   1      39.696  31.880  35.356  1.00  0.00     0.064 A 
ATOM     58  C   UNL A   1      40.183  33.193  35.424  1.00  0.00     0.173 A 
ATOM     59  C   UNL A   1      38.711  31.503  36.284  1.00  0.00     0.173 A 
ATOM     60  F   UNL A   1      41.117  33.615  34.558  1.00  0.00    -0.203 F 
ATOM     61  C   UNL A   1      39.717  34.086  36.387  1.00  0.00     0.198 A 
ATOM     62  C   UNL A   1      38.218  32.410  37.220  1.00  0.00     0.198 A 
ATOM     63  F   UNL A   1      38.191  30.266  36.257  1.00  0.00    -0.203 F 
ATOM     64  F   UNL A   1      40.223  35.325  36.448  1.00  0.00    -0.200 F 
ATOM     65  C   UNL A   1      38.725  33.699  37.274  1.00  0.00     0.200 A 
ATOM     66  F   UNL A   1      37.236  32.044  38.057  1.00  0.00    -0.200 F 
ATOM     67  F   UNL A   1      38.250  34.572  38.174  1.00  0.00    -0.200 F 
ENDBRANCH  43  57
BRANCH  44  68
ATOM     68  C   UNL A   1      42.669  26.547  27.540  1.00  0.00     0.064 A 
ATOM     69  C   UNL A   1      43.666  27.047  26.689  1.00  0.00     0.173 A 
ATOM     70  C   UNL A   1      42.171  25.263  27.284  1.00  0.00     0.173 A 
ATOM     71  F   UNL A   1      44.163  28.276  26.895  1.00  0.00    -0.203 F 
ATOM     72  C   UNL A   1      44.148  26.294  25.623  1.00  0.00     0.198 A 
ATOM     73  C   UNL A   1      42.669  24.501  26.228  1.00  0.00     0.198 A 
ATOM     74  F   UNL A   1      41.231  24.736  28.082  1.00  0.00    -0.203 F 
ATOM     75  F   UNL A   1      45.089  26.805  24.818  1.00  0.00    -0.200 F 
ATOM     76  C   UNL A   1      43.656  25.018  25.400  1.00  0.00     0.200 A 
ATOM     77  F   UNL A   1      42.208  23.261  26.023  1.00  0.00    -0.200 F 
ATOM     78  F   UNL A   1      44.135  24.284  24.386  1.00  0.00    -0.200 F 
ENDBRANCH  44  68
BRANCH  56  79
ATOM     79  C   UNL A   1      44.655  26.801  34.237  1.00  0.00     0.064 A 
ATOM     80  C   UNL A   1      45.956  27.289  34.422  1.00  0.00     0.173 A 
ATOM     81  C   UNL A   1      44.292  25.624  34.911  1.00  0.00     0.173 A 
ATOM     82  F   UNL A   1      46.353  28.406  33.793  1.00  0.00    -0.203 F 
ATOM     83  C   UNL A   1      46.861  26.621  35.243  1.00  0.00     0.198 A 
ATOM     84  C   UNL A   1      45.191  24.972  35.750  1.00  0.00     0.198 A 
ATOM     85  F   UNL A   1      43.056  25.120  34.775  1.00  0.00    -0.203 F 
ATOM     86  F   UNL A   1      48.108  27.092  35.386  1.00  0.00    -0.200 F 
ATOM     87  C   UNL A   1      46.475  25.470  35.914  1.00  0.00     0.200 A 
ATOM     88  F   UNL A   1      44.812  23.869  36.409  1.00  0.00    -0.200 F 
ATOM     89  F   UNL A   1      47.341  24.839  36.718  1.00  0.00    -0.200 F 
ENDBRANCH  56  79
ENDBRANCH  30  31
ENDBRANCH  23  25
ENDBRANCH  22  23
ENDBRANCH   1  22
TORSDOF 11
ENDMDL
MODEL 3
REMARK VINA RESULT:     -13.4      0.608      2.801
REMARK SMILES Cc1ccc2nc3c(c(C(=O)OCCOC(=O)c4ccc(-c5c6nc(c(-c7c(F)c(F)c(F)c(F)c7F)c7ccc([nH]7)c(-c7c(F)c(F)c(F)c(F)c7F)c7nc(c(-c8c(F)c(F)c(F)c(F)c8F)c8ccc5[nH]8)C=C7)C=C6)cc4)c2c1)C[C@H](C)CC3
REMARK SMILES IDX 14 1 13 2 12 3 10 4 11 5 9 6 1 7 2 8 3 9 82 10 4 11 81 12
REMARK SMILES IDX 5 13 6 14 8 15 7 16 83 17 87 18 84 19 86 20 85 21 15 22
REMARK SMILES IDX 16 23 17 24 18 25 19 26 80 27 20 28 79 29 21 30 22 31 23 32
REMARK SMILES IDX 73 33 24 34 78 35 72 36 74 37 25 38 77 39 71 40 70 41 26 43
REMARK SMILES IDX 58 44 38 45 57 46 39 47 42 48 56 49 75 50 40 51 41 52 55 54
REMARK SMILES IDX 76 55 43 56 27 57 28 58 36 59 29 60 30 61 34 62 37 63 31 64
REMARK SMILES IDX 32 65 35 66 33 67 59 68 60 69 68 70 61 71 62 72 66 73 69 74
REMARK SMILES IDX 63 75 64 76 67 77 65 78 44 79 45 80 53 81 46 82 47 83 51 84
REMARK SMILES IDX 54 85 48 86 49 87 52 88 50 89
REMARK H PARENT 74 42 42 53
REMARK Flexibility Score: inf
ROOT
ATOM      1  C   UNL A   1      32.053  30.315  25.648  1.00  0.00     0.275 C 
ENDROOT
BRANCH   1   2
ATOM      2  C   UNL A   1      33.015  29.320  24.997  1.00  0.00     0.275 C 
BRANCH   2   3
ATOM      3  O   UNL A   1      32.888  29.348  23.554  1.00  0.00    -0.458 OA
BRANCH   3   4
ATOM      4  C   UNL A   1      32.671  28.154  22.941  1.00  0.00     0.339 C 
ATOM      5  O   UNL A   1      33.381  27.650  22.087  1.00  0.00    -0.246 OA
BRANCH   4   6
ATOM      6  C   UNL A   1      31.433  27.499  23.456  1.00  0.00     0.074 A 
ATOM      7  C   UNL A   1      34.007  24.041  26.112  1.00  0.00     0.044 C 
ATOM      8  C   UNL A   1      32.726  24.671  25.652  1.00  0.00    -0.050 A 
ATOM      9  C   UNL A   1      31.504  24.204  26.123  1.00  0.00     0.005 A 
ATOM     10  C   UNL A   1      32.735  25.772  24.786  1.00  0.00     0.014 A 
ATOM     11  C   UNL A   1      30.320  24.806  25.701  1.00  0.00     0.029 A 
ATOM     12  C   UNL A   1      31.531  26.386  24.336  1.00  0.00     0.015 A 
ATOM     13  C   UNL A   1      30.312  25.873  24.819  1.00  0.00     0.071 A 
ATOM     14  N   UNL A   1      29.116  26.371  24.481  1.00  0.00    -0.253 NA
ATOM     15  C   UNL A   1      30.170  28.054  23.130  1.00  0.00    -0.011 A 
ATOM     16  C   UNL A   1      29.045  27.439  23.662  1.00  0.00     0.045 A 
ATOM     17  C   UNL A   1      30.022  29.262  22.247  1.00  0.00     0.041 C 
ATOM     18  C   UNL A   1      27.655  27.890  23.301  1.00  0.00     0.057 C 
ATOM     19  C   UNL A   1      28.597  29.705  21.865  1.00  0.00    -0.009 C 
ATOM     20  C   UNL A   1      27.593  29.372  22.963  1.00  0.00     0.010 C 
ATOM     21  C   UNL A   1      28.552  31.200  21.533  1.00  0.00     0.008 C 
ENDBRANCH   4   6
ENDBRANCH   3   4
ENDBRANCH   2   3
ENDBRANCH   1   2
BRANCH   1  22
ATOM     22  O   UNL A   1      32.501  30.536  26.995  1.00  0.00    -0.458 OA
BRANCH  22  23
ATOM     23  C   UNL A   1      33.119  31.712  27.254  1.00  0.00     0.338 C 
ATOM     24  O   UNL A   1      32.654  32.833  27.211  1.00  0.00    -0.246 OA
BRANCH  23  25
ATOM     25  C   UNL A   1      34.458  31.386  27.776  1.00  0.00     0.060 A 
ATOM     26  C   UNL A   1      35.429  32.345  28.043  1.00  0.00     0.016 A 
ATOM     27  C   UNL A   1      34.683  30.058  28.112  1.00  0.00     0.016 A 
ATOM     28  C   UNL A   1      36.640  31.952  28.641  1.00  0.00     0.010 A 
ATOM     29  C   UNL A   1      35.840  29.690  28.788  1.00  0.00     0.010 A 
ATOM     30  C   UNL A   1      36.850  30.619  29.047  1.00  0.00    -0.014 A 
BRANCH  30  31
ATOM     31  C   UNL A   1      38.042  30.179  29.831  1.00  0.00     0.031 A 
ATOM     32  C   UNL A   1      38.276  30.622  31.258  1.00  0.00     0.074 A 
ATOM     33  C   UNL A   1      39.031  29.522  29.194  1.00  0.00     0.049 A 
ATOM     34  N   UNL A   1      39.274  30.333  32.061  1.00  0.00    -0.248 NA
ATOM     35  C   UNL A   1      37.306  31.560  31.839  1.00  0.00     0.031 C 
ATOM     36  C   UNL A   1      39.053  29.213  27.765  1.00  0.00     0.029 A 
ATOM     37  N   UNL A   1      40.218  29.012  29.662  1.00  0.00    -0.354 N 
ATOM     38  C   UNL A   1      39.076  31.089  33.212  1.00  0.00     0.074 A 
ATOM     39  C   UNL A   1      37.894  31.891  32.982  1.00  0.00     0.031 C 
ATOM     40  C   UNL A   1      40.165  28.518  27.482  1.00  0.00     0.029 A 
ATOM     41  C   UNL A   1      40.933  28.328  28.711  1.00  0.00     0.049 A 
ATOM     42  H   UNL A   1      40.527  29.126  30.590  1.00  0.00     0.167 HD
ATOM     43  C   UNL A   1      39.791  31.087  34.365  1.00  0.00     0.037 A 
ATOM     44  C   UNL A   1      42.051  27.585  28.820  1.00  0.00     0.037 A 
ATOM     45  C   UNL A   1      40.909  30.210  34.618  1.00  0.00     0.049 A 
ATOM     46  C   UNL A   1      42.697  27.404  30.164  1.00  0.00     0.074 A 
ATOM     47  C   UNL A   1      41.581  29.993  35.811  1.00  0.00     0.029 A 
ATOM     48  N   UNL A   1      41.513  29.402  33.670  1.00  0.00    -0.354 N 
ATOM     49  N   UNL A   1      42.403  27.981  31.302  1.00  0.00    -0.248 NA
ATOM     50  C   UNL A   1      43.807  26.443  30.249  1.00  0.00     0.031 C 
ATOM     51  C   UNL A   1      42.609  29.076  35.577  1.00  0.00     0.029 A 
ATOM     52  C   UNL A   1      42.544  28.682  34.251  1.00  0.00     0.049 A 
ATOM     53  H   UNL A   1      41.248  29.347  32.722  1.00  0.00     0.167 HD
ATOM     54  C   UNL A   1      43.263  27.433  32.242  1.00  0.00     0.074 A 
ATOM     55  C   UNL A   1      44.088  26.469  31.545  1.00  0.00     0.031 C 
ATOM     56  C   UNL A   1      43.354  27.709  33.565  1.00  0.00     0.037 A 
BRANCH  43  57
ATOM     57  C   UNL A   1      39.367  31.997  35.489  1.00  0.00     0.064 A 
ATOM     58  C   UNL A   1      38.471  31.570  36.480  1.00  0.00     0.173 A 
ATOM     59  C   UNL A   1      39.968  33.257  35.656  1.00  0.00     0.173 A 
ATOM     60  F   UNL A   1      37.874  30.372  36.383  1.00  0.00    -0.203 F 
ATOM     61  C   UNL A   1      38.177  32.372  37.581  1.00  0.00     0.198 A 
ATOM     62  C   UNL A   1      39.703  34.039  36.778  1.00  0.00     0.198 A 
ATOM     63  F   UNL A   1      40.849  33.713  34.753  1.00  0.00    -0.203 F 
ATOM     64  F   UNL A   1      37.293  31.951  38.496  1.00  0.00    -0.200 F 
ATOM     65  C   UNL A   1      38.804  33.598  37.737  1.00  0.00     0.200 A 
ATOM     66  F   UNL A   1      40.333  35.211  36.943  1.00  0.00    -0.200 F 
ATOM     67  F   UNL A   1      38.549  34.351  38.817  1.00  0.00    -0.200 F 
ENDBRANCH  43  57
BRANCH  44  68
ATOM     68  C   UNL A   1      42.509  26.813  27.639  1.00  0.00     0.064 A 
ATOM     69  C   UNL A   1      43.471  27.362  26.778  1.00  0.00     0.173 A 
ATOM     70  C   UNL A   1      42.073  25.506  27.389  1.00  0.00     0.173 A 
ATOM     71  F   UNL A   1      43.908  28.614  26.979  1.00  0.00    -0.203 F 
ATOM     72  C   UNL A   1      43.977  26.634  25.706  1.00  0.00     0.198 A 
ATOM     73  C   UNL A   1      42.596  24.770  26.327  1.00  0.00     0.198 A 
ATOM     74  F   UNL A   1      41.168  24.934  28.196  1.00  0.00    -0.203 F 
ATOM     75  F   UNL A   1      44.883  27.190  24.891  1.00  0.00    -0.200 F 
ATOM     76  C   UNL A   1      43.546  25.335  25.488  1.00  0.00     0.200 A 
ATOM     77  F   UNL A   1      42.193  23.508  26.125  1.00  0.00    -0.200 F 
ATOM     78  F   UNL A   1      44.049  24.626  24.468  1.00  0.00    -0.200 F 
ENDBRANCH  44  68
BRANCH  56  79
ATOM     79  C   UNL A   1      44.353  26.943  34.380  1.00  0.00     0.064 A 
ATOM     80  C   UNL A   1      45.647  27.433  34.610  1.00  0.00     0.173 A 
ATOM     81  C   UNL A   1      43.980  25.748  35.016  1.00  0.00     0.173 A 
ATOM     82  F   UNL A   1      46.053  28.566  34.019  1.00  0.00    -0.203 F 
ATOM     83  C   UNL A   1      46.534  26.750  35.437  1.00  0.00     0.198 A 
ATOM     84  C   UNL A   1      44.861  25.081  35.863  1.00  0.00     0.198 A 
ATOM     85  F   UNL A   1      42.750  25.242  34.838  1.00  0.00    -0.203 F 
ATOM     86  F   UNL A   1      47.774  27.223  35.623  1.00  0.00    -0.200 F 
ATOM     87  C   UNL A   1      46.138  25.581  36.071  1.00  0.00     0.200 A 
ATOM     88  F   UNL A   1      44.471  23.960  36.485  1.00  0.00    -0.200 F 
ATOM     89  F   UNL A   1      46.987  24.935  36.881  1.00  0.00    -0.200 F 
ENDBRANCH  56  79
ENDBRANCH  30  31
ENDBRANCH  23  25
ENDBRANCH  22  23
ENDBRANCH   1  22
TORSDOF 11
ENDMDL
