MODEL 1
REMARK VINA RESULT:     -10.8      0.000      0.000
REMARK SMILES CCC[C@@](C)(Nc1cc(C)cc(C)c1)C(=O)OCCOC(=O)c1ccc(-c2c3nc(c(-c4c(F)c(F)c(F)c(F)c4F)c4ccc([nH]4)c(-c4c(F)c(F)c(F)c(F)c4F)c4nc(c(-c5c(F)c(F)c(F)c(F)c5F)c5ccc2[nH]5)C=C4)C=C3)cc1
REMARK SMILES IDX 18 1 17 2 15 3 16 4 4 5 5 6 3 7 2 8 1 9 6 10 7 12 8 13 14 14
REMARK SMILES IDX 9 15 12 16 10 17 11 18 13 19 19 20 20 21 21 22 22 23 23 24
REMARK SMILES IDX 24 25 85 26 25 27 84 28 26 29 27 30 28 31 78 32 29 33 83 34
REMARK SMILES IDX 77 35 79 36 30 37 82 38 76 39 75 40 31 42 63 43 43 44 62 45
REMARK SMILES IDX 44 46 47 47 61 48 80 49 45 50 46 51 60 53 81 54 48 55 32 56
REMARK SMILES IDX 33 57 41 58 34 59 35 60 39 61 42 62 36 63 37 64 40 65 38 66
REMARK SMILES IDX 64 67 65 68 73 69 66 70 67 71 71 72 74 73 68 74 69 75 72 76
REMARK SMILES IDX 70 77 49 78 50 79 58 80 51 81 52 82 56 83 59 84 53 85 54 86
REMARK SMILES IDX 57 87 55 88
REMARK H PARENT 6 11 79 41 47 52
REMARK Flexibility Score: inf
ROOT
ATOM      1  C   UNL A   1      38.130  19.757  24.757  1.00  0.00     0.274 C 
ENDROOT
BRANCH   1   2
ATOM      2  O   UNL A   1      37.405  20.922  25.213  1.00  0.00    -0.460 OA
BRANCH   2   3
ATOM      3  C   UNL A   1      36.060  20.929  25.011  1.00  0.00     0.331 C 
ATOM      4  O   UNL A   1      35.390  19.905  25.001  1.00  0.00    -0.249 OA
BRANCH   3   5
ATOM      5  C   UNL A   1      35.467  22.357  24.807  1.00  0.00     0.133 C 
ATOM      6  C   UNL A   1      36.507  23.324  24.237  1.00  0.00     0.047 C 
BRANCH   5   7
ATOM      7  C   UNL A   1      34.241  22.270  23.820  1.00  0.00     0.040 C 
BRANCH   7   8
ATOM      8  C   UNL A   1      34.048  23.300  22.694  1.00  0.00    -0.000 C 
ATOM      9  C   UNL A   1      32.733  24.060  22.674  1.00  0.00     0.004 C 
ENDBRANCH   7   8
ENDBRANCH   5   7
BRANCH   5  10
ATOM     10  N   UNL A   1      34.887  22.929  26.061  1.00  0.00    -0.370 N 
ATOM     11  H   UNL A   1      35.442  22.812  26.866  1.00  0.00     0.161 HD
BRANCH  10  12
ATOM     12  C   UNL A   1      33.696  23.595  26.272  1.00  0.00     0.035 A 
ATOM     13  C   UNL A   1      32.495  22.974  26.612  1.00  0.00     0.029 A 
ATOM     14  C   UNL A   1      33.662  24.981  26.050  1.00  0.00     0.029 A 
ATOM     15  C   UNL A   1      31.278  23.675  26.645  1.00  0.00    -0.049 A 
ATOM     16  C   UNL A   1      32.469  25.718  26.120  1.00  0.00    -0.049 A 
ATOM     17  C   UNL A   1      29.981  22.955  26.871  1.00  0.00     0.044 C 
ATOM     18  C   UNL A   1      31.275  25.049  26.398  1.00  0.00     0.007 A 
ATOM     19  C   UNL A   1      32.448  27.190  25.838  1.00  0.00     0.044 C 
ENDBRANCH  10  12
ENDBRANCH   5  10
ENDBRANCH   3   5
ENDBRANCH   2   3
ENDBRANCH   1   2
BRANCH   1  20
ATOM     20  C   UNL A   1      39.197  19.270  25.752  1.00  0.00     0.275 C 
BRANCH  20  21
ATOM     21  O   UNL A   1      40.220  20.270  25.896  1.00  0.00    -0.458 OA
BRANCH  21  22
ATOM     22  C   UNL A   1      40.837  20.336  27.096  1.00  0.00     0.338 C 
ATOM     23  O   UNL A   1      41.192  19.415  27.809  1.00  0.00    -0.246 OA
BRANCH  22  24
ATOM     24  C   UNL A   1      41.126  21.753  27.384  1.00  0.00     0.060 A 
ATOM     25  C   UNL A   1      40.552  22.726  26.562  1.00  0.00     0.016 A 
ATOM     26  C   UNL A   1      41.977  22.121  28.425  1.00  0.00     0.016 A 
ATOM     27  C   UNL A   1      40.791  24.080  26.801  1.00  0.00     0.010 A 
ATOM     28  C   UNL A   1      42.241  23.479  28.648  1.00  0.00     0.010 A 
ATOM     29  C   UNL A   1      41.653  24.466  27.835  1.00  0.00    -0.014 A 
BRANCH  29  30
ATOM     30  C   UNL A   1      42.045  25.892  27.967  1.00  0.00     0.031 A 
ATOM     31  C   UNL A   1      43.347  26.344  27.370  1.00  0.00     0.074 A 
ATOM     32  C   UNL A   1      41.239  26.786  28.566  1.00  0.00     0.049 A 
ATOM     33  N   UNL A   1      43.915  27.524  27.400  1.00  0.00    -0.248 NA
ATOM     34  C   UNL A   1      44.109  25.326  26.630  1.00  0.00     0.031 C 
ATOM     35  C   UNL A   1      39.921  26.497  29.124  1.00  0.00     0.029 A 
ATOM     36  N   UNL A   1      41.418  28.129  28.802  1.00  0.00    -0.354 N 
ATOM     37  C   UNL A   1      45.099  27.389  26.690  1.00  0.00     0.074 A 
ATOM     38  C   UNL A   1      45.180  26.011  26.254  1.00  0.00     0.031 C 
ATOM     39  C   UNL A   1      39.411  27.628  29.646  1.00  0.00     0.029 A 
ATOM     40  C   UNL A   1      40.382  28.711  29.488  1.00  0.00     0.049 A 
ATOM     41  H   UNL A   1      42.215  28.626  28.506  1.00  0.00     0.167 HD
ATOM     42  C   UNL A   1      46.037  28.330  26.423  1.00  0.00     0.037 A 
ATOM     43  C   UNL A   1      40.244  29.969  29.955  1.00  0.00     0.037 A 
ATOM     44  C   UNL A   1      45.970  29.699  26.863  1.00  0.00     0.049 A 
ATOM     45  C   UNL A   1      41.342  30.975  29.717  1.00  0.00     0.074 A 
ATOM     46  C   UNL A   1      46.886  30.717  26.663  1.00  0.00     0.029 A 
ATOM     47  N   UNL A   1      44.924  30.240  27.596  1.00  0.00    -0.354 N 
ATOM     48  N   UNL A   1      42.467  30.839  29.059  1.00  0.00    -0.248 NA
ATOM     49  C   UNL A   1      41.147  32.315  30.292  1.00  0.00     0.031 C 
ATOM     50  C   UNL A   1      46.414  31.865  27.309  1.00  0.00     0.029 A 
ATOM     51  C   UNL A   1      45.181  31.574  27.870  1.00  0.00     0.049 A 
ATOM     52  H   UNL A   1      44.119  29.749  27.880  1.00  0.00     0.167 HD
ATOM     53  C   UNL A   1      43.100  32.074  29.120  1.00  0.00     0.074 A 
ATOM     54  C   UNL A   1      42.227  32.955  29.864  1.00  0.00     0.031 C 
ATOM     55  C   UNL A   1      44.299  32.445  28.605  1.00  0.00     0.037 A 
BRANCH  42  56
ATOM     56  C   UNL A   1      47.242  27.891  25.647  1.00  0.00     0.064 A 
ATOM     57  C   UNL A   1      47.244  27.863  24.245  1.00  0.00     0.173 A 
ATOM     58  C   UNL A   1      48.412  27.504  26.315  1.00  0.00     0.173 A 
ATOM     59  F   UNL A   1      46.142  28.207  23.561  1.00  0.00    -0.203 F 
ATOM     60  C   UNL A   1      48.369  27.442  23.540  1.00  0.00     0.198 A 
ATOM     61  C   UNL A   1      49.544  27.108  25.608  1.00  0.00     0.198 A 
ATOM     62  F   UNL A   1      48.461  27.515  27.656  1.00  0.00    -0.203 F 
ATOM     63  F   UNL A   1      48.335  27.380  22.201  1.00  0.00    -0.200 F 
ATOM     64  C   UNL A   1      49.518  27.070  24.222  1.00  0.00     0.200 A 
ATOM     65  F   UNL A   1      50.656  26.757  26.267  1.00  0.00    -0.200 F 
ATOM     66  F   UNL A   1      50.601  26.666  23.542  1.00  0.00    -0.200 F 
ENDBRANCH  42  56
BRANCH  43  67
ATOM     67  C   UNL A   1      39.028  30.355  30.719  1.00  0.00     0.064 A 
ATOM     68  C   UNL A   1      37.937  30.963  30.083  1.00  0.00     0.173 A 
ATOM     69  C   UNL A   1      38.951  30.162  32.106  1.00  0.00     0.173 A 
ATOM     70  F   UNL A   1      37.977  31.201  28.764  1.00  0.00    -0.203 F 
ATOM     71  C   UNL A   1      36.823  31.382  30.810  1.00  0.00     0.198 A 
ATOM     72  C   UNL A   1      37.825  30.554  32.826  1.00  0.00     0.198 A 
ATOM     73  F   UNL A   1      39.972  29.594  32.763  1.00  0.00    -0.203 F 
ATOM     74  F   UNL A   1      35.817  32.010  30.186  1.00  0.00    -0.200 F 
ATOM     75  C   UNL A   1      36.766  31.173  32.179  1.00  0.00     0.200 A 
ATOM     76  F   UNL A   1      37.771  30.346  34.148  1.00  0.00    -0.200 F 
ATOM     77  F   UNL A   1      35.695  31.577  32.876  1.00  0.00    -0.200 F 
ENDBRANCH  43  67
BRANCH  55  78
ATOM     78  C   UNL A   1      44.719  33.874  28.797  1.00  0.00     0.064 A 
ATOM     79  C   UNL A   1      45.490  34.275  29.899  1.00  0.00     0.173 A 
ATOM     80  C   UNL A   1      44.368  34.849  27.851  1.00  0.00     0.173 A 
ATOM     81  F   UNL A   1      45.838  33.383  30.838  1.00  0.00    -0.203 F 
ATOM     82  C   UNL A   1      45.866  35.606  30.062  1.00  0.00     0.198 A 
ATOM     83  C   UNL A   1      44.771  36.173  28.004  1.00  0.00     0.198 A 
ATOM     84  F   UNL A   1      43.640  34.518  26.775  1.00  0.00    -0.203 F 
ATOM     85  F   UNL A   1      46.558  35.976  31.149  1.00  0.00    -0.200 F 
ATOM     86  C   UNL A   1      45.512  36.553  29.112  1.00  0.00     0.200 A 
ATOM     87  F   UNL A   1      44.438  37.085  27.079  1.00  0.00    -0.200 F 
ATOM     88  F   UNL A   1      45.877  37.833  29.271  1.00  0.00    -0.200 F 
ENDBRANCH  55  78
ENDBRANCH  29  30
ENDBRANCH  22  24
ENDBRANCH  21  22
ENDBRANCH  20  21
ENDBRANCH   1  20
TORSDOF 15
ENDMDL
MODEL 2
REMARK VINA RESULT:     -10.8      1.667      2.877
REMARK SMILES CCC[C@@](C)(Nc1cc(C)cc(C)c1)C(=O)OCCOC(=O)c1ccc(-c2c3nc(c(-c4c(F)c(F)c(F)c(F)c4F)c4ccc([nH]4)c(-c4c(F)c(F)c(F)c(F)c4F)c4nc(c(-c5c(F)c(F)c(F)c(F)c5F)c5ccc2[nH]5)C=C4)C=C3)cc1
REMARK SMILES IDX 18 1 17 2 15 3 16 4 4 5 5 6 3 7 2 8 1 9 6 10 7 12 8 13 14 14
REMARK SMILES IDX 9 15 12 16 10 17 11 18 13 19 19 20 20 21 21 22 22 23 23 24
REMARK SMILES IDX 24 25 85 26 25 27 84 28 26 29 27 30 28 31 78 32 29 33 83 34
REMARK SMILES IDX 77 35 79 36 30 37 82 38 76 39 75 40 31 42 63 43 43 44 62 45
REMARK SMILES IDX 44 46 47 47 61 48 80 49 45 50 46 51 60 53 81 54 48 55 32 56
REMARK SMILES IDX 33 57 41 58 34 59 35 60 39 61 42 62 36 63 37 64 40 65 38 66
REMARK SMILES IDX 64 67 65 68 73 69 66 70 67 71 71 72 74 73 68 74 69 75 72 76
REMARK SMILES IDX 70 77 49 78 50 79 58 80 51 81 52 82 56 83 59 84 53 85 54 86
REMARK SMILES IDX 57 87 55 88
REMARK H PARENT 6 11 79 41 47 52
REMARK Flexibility Score: inf
ROOT
ATOM      1  C   UNL A   1      36.360  20.065  25.009  1.00  0.00     0.274 C 
ENDROOT
BRANCH   1   2
ATOM      2  O   UNL A   1      35.700  21.107  25.764  1.00  0.00    -0.460 OA
BRANCH   2   3
ATOM      3  C   UNL A   1      34.620  21.698  25.186  1.00  0.00     0.331 C 
ATOM      4  O   UNL A   1      34.643  22.137  24.043  1.00  0.00    -0.249 OA
BRANCH   3   5
ATOM      5  C   UNL A   1      33.367  21.751  26.112  1.00  0.00     0.133 C 
ATOM      6  C   UNL A   1      33.756  21.957  27.578  1.00  0.00     0.047 C 
BRANCH   5   7
ATOM      7  C   UNL A   1      32.432  22.933  25.649  1.00  0.00     0.040 C 
BRANCH   7   8
ATOM      8  C   UNL A   1      32.345  24.242  26.452  1.00  0.00    -0.000 C 
ATOM      9  C   UNL A   1      33.238  25.385  26.002  1.00  0.00     0.004 C 
ENDBRANCH   7   8
ENDBRANCH   5   7
BRANCH   5  10
ATOM     10  N   UNL A   1      32.505  20.534  25.990  1.00  0.00    -0.370 N 
ATOM     11  H   UNL A   1      31.699  20.538  26.557  1.00  0.00     0.161 HD
BRANCH  10  12
ATOM     12  C   UNL A   1      32.658  19.405  25.211  1.00  0.00     0.035 A 
ATOM     13  C   UNL A   1      33.214  18.207  25.660  1.00  0.00     0.029 A 
ATOM     14  C   UNL A   1      32.311  19.483  23.853  1.00  0.00     0.029 A 
ATOM     15  C   UNL A   1      33.506  17.149  24.783  1.00  0.00    -0.049 A 
ATOM     16  C   UNL A   1      32.549  18.425  22.961  1.00  0.00    -0.049 A 
ATOM     17  C   UNL A   1      34.235  15.930  25.266  1.00  0.00     0.044 C 
ATOM     18  C   UNL A   1      33.168  17.267  23.434  1.00  0.00     0.007 A 
ATOM     19  C   UNL A   1      32.209  18.547  21.505  1.00  0.00     0.044 C 
ENDBRANCH  10  12
ENDBRANCH   5  10
ENDBRANCH   3   5
ENDBRANCH   2   3
ENDBRANCH   1   2
BRANCH   1  20
ATOM     20  C   UNL A   1      37.872  20.292  24.842  1.00  0.00     0.275 C 
BRANCH  20  21
ATOM     21  O   UNL A   1      38.308  21.332  25.735  1.00  0.00    -0.458 OA
BRANCH  21  22
ATOM     22  C   UNL A   1      39.503  21.149  26.339  1.00  0.00     0.338 C 
ATOM     23  O   UNL A   1      40.148  20.120  26.430  1.00  0.00    -0.246 OA
BRANCH  22  24
ATOM     24  C   UNL A   1      39.985  22.462  26.806  1.00  0.00     0.060 A 
ATOM     25  C   UNL A   1      39.401  23.611  26.267  1.00  0.00     0.016 A 
ATOM     26  C   UNL A   1      41.020  22.564  27.734  1.00  0.00     0.016 A 
ATOM     27  C   UNL A   1      39.821  24.875  26.684  1.00  0.00     0.010 A 
ATOM     28  C   UNL A   1      41.461  23.833  28.132  1.00  0.00     0.010 A 
ATOM     29  C   UNL A   1      40.867  24.996  27.606  1.00  0.00    -0.014 A 
BRANCH  29  30
ATOM     30  C   UNL A   1      41.428  26.338  27.905  1.00  0.00     0.031 A 
ATOM     31  C   UNL A   1      42.836  26.646  27.482  1.00  0.00     0.074 A 
ATOM     32  C   UNL A   1      40.687  27.289  28.502  1.00  0.00     0.049 A 
ATOM     33  N   UNL A   1      43.548  27.728  27.675  1.00  0.00    -0.248 NA
ATOM     34  C   UNL A   1      43.533  25.590  26.730  1.00  0.00     0.031 C 
ATOM     35  C   UNL A   1      39.289  27.147  28.899  1.00  0.00     0.029 A 
ATOM     36  N   UNL A   1      41.015  28.570  28.874  1.00  0.00    -0.354 N 
ATOM     37  C   UNL A   1      44.775  27.482  27.075  1.00  0.00     0.074 A 
ATOM     38  C   UNL A   1      44.719  26.144  26.525  1.00  0.00     0.031 C 
ATOM     39  C   UNL A   1      38.879  28.295  29.469  1.00  0.00     0.029 A 
ATOM     40  C   UNL A   1      39.997  29.239  29.506  1.00  0.00     0.049 A 
ATOM     41  H   UNL A   1      41.899  28.971  28.705  1.00  0.00     0.167 HD
ATOM     42  C   UNL A   1      45.853  28.299  26.988  1.00  0.00     0.037 A 
ATOM     43  C   UNL A   1      39.977  30.464  30.070  1.00  0.00     0.037 A 
ATOM     44  C   UNL A   1      45.920  29.625  27.541  1.00  0.00     0.049 A 
ATOM     45  C   UNL A   1      41.218  31.320  30.033  1.00  0.00     0.074 A 
ATOM     46  C   UNL A   1      46.979  30.517  27.526  1.00  0.00     0.029 A 
ATOM     47  N   UNL A   1      44.881  30.251  28.215  1.00  0.00    -0.354 N 
ATOM     48  N   UNL A   1      42.380  31.077  29.479  1.00  0.00    -0.248 NA
ATOM     49  C   UNL A   1      41.140  32.626  30.707  1.00  0.00     0.031 C 
ATOM     50  C   UNL A   1      46.595  31.667  28.224  1.00  0.00     0.029 A 
ATOM     51  C   UNL A   1      45.281  31.511  28.634  1.00  0.00     0.049 A 
ATOM     52  H   UNL A   1      43.992  29.859  28.373  1.00  0.00     0.167 HD
ATOM     53  C   UNL A   1      43.161  32.202  29.714  1.00  0.00     0.074 A 
ATOM     54  C   UNL A   1      42.335  33.138  30.446  1.00  0.00     0.031 C 
ATOM     55  C   UNL A   1      44.447  32.438  29.355  1.00  0.00     0.037 A 
BRANCH  42  56
ATOM     56  C   UNL A   1      47.066  27.754  26.297  1.00  0.00     0.064 A 
ATOM     57  C   UNL A   1      47.208  27.814  24.902  1.00  0.00     0.173 A 
ATOM     58  C   UNL A   1      48.106  27.178  27.040  1.00  0.00     0.173 A 
ATOM     59  F   UNL A   1      46.232  28.340  24.146  1.00  0.00    -0.203 F 
ATOM     60  C   UNL A   1      48.337  27.293  24.276  1.00  0.00     0.198 A 
ATOM     61  C   UNL A   1      49.245  26.681  26.414  1.00  0.00     0.198 A 
ATOM     62  F   UNL A   1      48.018  27.099  28.377  1.00  0.00    -0.203 F 
ATOM     63  F   UNL A   1      48.432  27.319  22.939  1.00  0.00    -0.200 F 
ATOM     64  C   UNL A   1      49.357  26.733  25.032  1.00  0.00     0.200 A 
ATOM     65  F   UNL A   1      50.233  26.148  27.145  1.00  0.00    -0.200 F 
ATOM     66  F   UNL A   1      50.444  26.233  24.428  1.00  0.00    -0.200 F 
ENDBRANCH  42  56
BRANCH  43  67
ATOM     67  C   UNL A   1      38.746  30.958  30.743  1.00  0.00     0.064 A 
ATOM     68  C   UNL A   1      38.566  30.805  32.124  1.00  0.00     0.173 A 
ATOM     69  C   UNL A   1      37.708  31.553  30.011  1.00  0.00     0.173 A 
ATOM     70  F   UNL A   1      39.515  30.210  32.863  1.00  0.00    -0.203 F 
ATOM     71  C   UNL A   1      37.385  31.211  32.746  1.00  0.00     0.198 A 
ATOM     72  C   UNL A   1      36.541  31.985  30.638  1.00  0.00     0.198 A 
ATOM     73  F   UNL A   1      37.826  31.713  28.685  1.00  0.00    -0.203 F 
ATOM     74  F   UNL A   1      37.216  31.004  34.059  1.00  0.00    -0.200 F 
ATOM     75  C   UNL A   1      36.377  31.805  32.003  1.00  0.00     0.200 A 
ATOM     76  F   UNL A   1      35.571  32.563  29.917  1.00  0.00    -0.200 F 
ATOM     77  F   UNL A   1      35.242  32.194  32.600  1.00  0.00    -0.200 F 
ENDBRANCH  43  67
BRANCH  55  78
ATOM     78  C   UNL A   1      45.029  33.775  29.716  1.00  0.00     0.064 A 
ATOM     79  C   UNL A   1      45.709  33.981  30.926  1.00  0.00     0.173 A 
ATOM     80  C   UNL A   1      44.928  34.856  28.827  1.00  0.00     0.173 A 
ATOM     81  F   UNL A   1      45.820  32.983  31.815  1.00  0.00    -0.203 F 
ATOM     82  C   UNL A   1      46.239  35.228  31.245  1.00  0.00     0.198 A 
ATOM     83  C   UNL A   1      45.484  36.094  29.139  1.00  0.00     0.198 A 
ATOM     84  F   UNL A   1      44.296  34.711  27.654  1.00  0.00    -0.203 F 
ATOM     85  F   UNL A   1      46.840  35.416  32.430  1.00  0.00    -0.200 F 
ATOM     86  C   UNL A   1      46.132  36.282  30.350  1.00  0.00     0.200 A 
ATOM     87  F   UNL A   1      45.390  37.109  28.267  1.00  0.00    -0.200 F 
ATOM     88  F   UNL A   1      46.644  37.482  30.660  1.00  0.00    -0.200 F 
ENDBRANCH  55  78
ENDBRANCH  29  30
ENDBRANCH  22  24
ENDBRANCH  21  22
ENDBRANCH  20  21
ENDBRANCH   1  20
TORSDOF 15
ENDMDL
MODEL 3
REMARK VINA RESULT:     -10.8      4.066      6.845
REMARK SMILES CCC[C@@](C)(Nc1cc(C)cc(C)c1)C(=O)OCCOC(=O)c1ccc(-c2c3nc(c(-c4c(F)c(F)c(F)c(F)c4F)c4ccc([nH]4)c(-c4c(F)c(F)c(F)c(F)c4F)c4nc(c(-c5c(F)c(F)c(F)c(F)c5F)c5ccc2[nH]5)C=C4)C=C3)cc1
REMARK SMILES IDX 18 1 17 2 15 3 16 4 4 5 5 6 3 7 2 8 1 9 6 10 7 12 8 13 14 14
REMARK SMILES IDX 9 15 12 16 10 17 11 18 13 19 19 20 20 21 21 22 22 23 23 24
REMARK SMILES IDX 24 25 85 26 25 27 84 28 26 29 27 30 28 31 78 32 29 33 83 34
REMARK SMILES IDX 77 35 79 36 30 37 82 38 76 39 75 40 31 42 63 43 43 44 62 45
REMARK SMILES IDX 44 46 47 47 61 48 80 49 45 50 46 51 60 53 81 54 48 55 32 56
REMARK SMILES IDX 33 57 41 58 34 59 35 60 39 61 42 62 36 63 37 64 40 65 38 66
REMARK SMILES IDX 64 67 65 68 73 69 66 70 67 71 71 72 74 73 68 74 69 75 72 76
REMARK SMILES IDX 70 77 49 78 50 79 58 80 51 81 52 82 56 83 59 84 53 85 54 86
REMARK SMILES IDX 57 87 55 88
REMARK H PARENT 6 11 79 41 47 52
REMARK Flexibility Score: inf
ROOT
ATOM      1  C   UNL A   1      41.155  20.187  26.522  1.00  0.00     0.274 C 
ENDROOT
BRANCH   1   2
ATOM      2  O   UNL A   1      42.343  20.997  26.678  1.00  0.00    -0.460 OA
BRANCH   2   3
ATOM      3  C   UNL A   1      43.274  20.925  25.689  1.00  0.00     0.331 C 
ATOM      4  O   UNL A   1      43.378  19.951  24.953  1.00  0.00    -0.249 OA
BRANCH   3   5
ATOM      5  C   UNL A   1      44.174  22.193  25.584  1.00  0.00     0.133 C 
ATOM      6  C   UNL A   1      44.863  22.286  24.220  1.00  0.00     0.047 C 
BRANCH   5   7
ATOM      7  C   UNL A   1      43.287  23.476  25.809  1.00  0.00     0.040 C 
BRANCH   7   8
ATOM      8  C   UNL A   1      43.447  24.723  24.922  1.00  0.00    -0.000 C 
ATOM      9  C   UNL A   1      43.785  26.027  25.622  1.00  0.00     0.004 C 
ENDBRANCH   7   8
ENDBRANCH   5   7
BRANCH   5  10
ATOM     10  N   UNL A   1      45.202  22.266  26.669  1.00  0.00    -0.370 N 
ATOM     11  H   UNL A   1      45.680  21.423  26.845  1.00  0.00     0.161 HD
BRANCH  10  12
ATOM     12  C   UNL A   1      45.588  23.326  27.464  1.00  0.00     0.035 A 
ATOM     13  C   UNL A   1      46.615  24.215  27.146  1.00  0.00     0.029 A 
ATOM     14  C   UNL A   1      44.969  23.480  28.714  1.00  0.00     0.029 A 
ATOM     15  C   UNL A   1      47.083  25.169  28.066  1.00  0.00    -0.049 A 
ATOM     16  C   UNL A   1      45.384  24.454  29.637  1.00  0.00    -0.049 A 
ATOM     17  C   UNL A   1      48.283  26.014  27.753  1.00  0.00     0.044 C 
ATOM     18  C   UNL A   1      46.459  25.281  29.309  1.00  0.00     0.007 A 
ATOM     19  C   UNL A   1      44.736  24.572  30.984  1.00  0.00     0.044 C 
ENDBRANCH  10  12
ENDBRANCH   5  10
ENDBRANCH   3   5
ENDBRANCH   2   3
ENDBRANCH   1   2
BRANCH   1  20
ATOM     20  C   UNL A   1      39.855  21.007  26.483  1.00  0.00     0.275 C 
BRANCH  20  21
ATOM     21  O   UNL A   1      40.154  22.402  26.671  1.00  0.00    -0.458 OA
BRANCH  21  22
ATOM     22  C   UNL A   1      39.222  23.282  26.246  1.00  0.00     0.338 C 
ATOM     23  O   UNL A   1      38.304  23.088  25.471  1.00  0.00    -0.246 OA
BRANCH  22  24
ATOM     24  C   UNL A   1      39.428  24.550  26.971  1.00  0.00     0.060 A 
ATOM     25  C   UNL A   1      40.097  25.587  26.317  1.00  0.00     0.016 A 
ATOM     26  C   UNL A   1      39.000  24.707  28.289  1.00  0.00     0.016 A 
ATOM     27  C   UNL A   1      40.308  26.806  26.961  1.00  0.00     0.010 A 
ATOM     28  C   UNL A   1      39.236  25.921  28.947  1.00  0.00     0.010 A 
ATOM     29  C   UNL A   1      39.895  26.976  28.288  1.00  0.00    -0.014 A 
BRANCH  29  30
ATOM     30  C   UNL A   1      40.284  28.206  29.024  1.00  0.00     0.031 A 
ATOM     31  C   UNL A   1      41.702  28.349  29.498  1.00  0.00     0.074 A 
ATOM     32  C   UNL A   1      39.407  29.204  29.230  1.00  0.00     0.049 A 
ATOM     33  N   UNL A   1      42.257  29.309  30.195  1.00  0.00    -0.248 NA
ATOM     34  C   UNL A   1      42.623  27.264  29.126  1.00  0.00     0.031 C 
ATOM     35  C   UNL A   1      38.024  29.226  28.763  1.00  0.00     0.029 A 
ATOM     36  N   UNL A   1      39.559  30.401  29.889  1.00  0.00    -0.354 N 
ATOM     37  C   UNL A   1      43.586  28.942  30.349  1.00  0.00     0.074 A 
ATOM     38  C   UNL A   1      43.754  27.665  29.689  1.00  0.00     0.031 C 
ATOM     39  C   UNL A   1      37.448  30.377  29.157  1.00  0.00     0.029 A 
ATOM     40  C   UNL A   1      38.414  31.156  29.933  1.00  0.00     0.049 A 
ATOM     41  H   UNL A   1      40.410  30.689  30.293  1.00  0.00     0.167 HD
ATOM     42  C   UNL A   1      44.580  29.610  30.984  1.00  0.00     0.037 A 
ATOM     43  C   UNL A   1      38.167  32.330  30.548  1.00  0.00     0.037 A 
ATOM     44  C   UNL A   1      44.418  30.873  31.653  1.00  0.00     0.049 A 
ATOM     45  C   UNL A   1      39.269  33.011  31.320  1.00  0.00     0.074 A 
ATOM     46  C   UNL A   1      45.361  31.612  32.346  1.00  0.00     0.029 A 
ATOM     47  N   UNL A   1      43.229  31.586  31.714  1.00  0.00    -0.354 N 
ATOM     48  N   UNL A   1      40.519  32.652  31.476  1.00  0.00    -0.248 NA
ATOM     49  C   UNL A   1      38.920  34.266  32.004  1.00  0.00     0.031 C 
ATOM     50  C   UNL A   1      44.734  32.753  32.860  1.00  0.00     0.029 A 
ATOM     51  C   UNL A   1      43.412  32.748  32.448  1.00  0.00     0.049 A 
ATOM     52  H   UNL A   1      42.381  31.307  31.299  1.00  0.00     0.167 HD
ATOM     53  C   UNL A   1      41.110  33.643  32.252  1.00  0.00     0.074 A 
ATOM     54  C   UNL A   1      40.086  34.629  32.520  1.00  0.00     0.031 C 
ATOM     55  C   UNL A   1      42.387  33.727  32.702  1.00  0.00     0.037 A 
BRANCH  42  56
ATOM     56  C   UNL A   1      45.928  28.956  31.016  1.00  0.00     0.064 A 
ATOM     57  C   UNL A   1      46.935  29.301  30.103  1.00  0.00     0.173 A 
ATOM     58  C   UNL A   1      46.219  27.981  31.981  1.00  0.00     0.173 A 
ATOM     59  F   UNL A   1      46.699  30.215  29.150  1.00  0.00    -0.203 F 
ATOM     60  C   UNL A   1      48.179  28.674  30.141  1.00  0.00     0.198 A 
ATOM     61  C   UNL A   1      47.471  27.375  32.032  1.00  0.00     0.198 A 
ATOM     62  F   UNL A   1      45.289  27.617  32.878  1.00  0.00    -0.203 F 
ATOM     63  F   UNL A   1      49.112  28.987  29.231  1.00  0.00    -0.200 F 
ATOM     64  C   UNL A   1      48.447  27.717  31.108  1.00  0.00     0.200 A 
ATOM     65  F   UNL A   1      47.732  26.457  32.972  1.00  0.00    -0.200 F 
ATOM     66  F   UNL A   1      49.645  27.117  31.144  1.00  0.00    -0.200 F 
ENDBRANCH  42  56
BRANCH  43  67
ATOM     67  C   UNL A   1      36.811  32.938  30.485  1.00  0.00     0.064 A 
ATOM     68  C   UNL A   1      36.399  33.672  29.364  1.00  0.00     0.173 A 
ATOM     69  C   UNL A   1      35.918  32.834  31.561  1.00  0.00     0.173 A 
ATOM     70  F   UNL A   1      37.230  33.830  28.323  1.00  0.00    -0.203 F 
ATOM     71  C   UNL A   1      35.152  34.295  29.331  1.00  0.00     0.198 A 
ATOM     72  C   UNL A   1      34.661  33.433  31.515  1.00  0.00     0.198 A 
ATOM     73  F   UNL A   1      36.269  32.153  32.661  1.00  0.00    -0.203 F 
ATOM     74  F   UNL A   1      34.803  35.035  28.270  1.00  0.00    -0.200 F 
ATOM     75  C   UNL A   1      34.282  34.170  30.403  1.00  0.00     0.200 A 
ATOM     76  F   UNL A   1      33.822  33.306  32.551  1.00  0.00    -0.200 F 
ATOM     77  F   UNL A   1      33.085  34.771  30.371  1.00  0.00    -0.200 F 
ENDBRANCH  43  67
BRANCH  55  78
ATOM     78  C   UNL A   1      42.757  34.944  33.499  1.00  0.00     0.064 A 
ATOM     79  C   UNL A   1      42.690  34.957  34.900  1.00  0.00     0.173 A 
ATOM     80  C   UNL A   1      43.211  36.105  32.853  1.00  0.00     0.173 A 
ATOM     81  F   UNL A   1      42.249  33.878  35.564  1.00  0.00    -0.203 F 
ATOM     82  C   UNL A   1      43.034  36.097  35.623  1.00  0.00     0.198 A 
ATOM     83  C   UNL A   1      43.581  37.232  33.581  1.00  0.00     0.198 A 
ATOM     84  F   UNL A   1      43.302  36.143  31.516  1.00  0.00    -0.203 F 
ATOM     85  F   UNL A   1      42.913  36.103  36.958  1.00  0.00    -0.200 F 
ATOM     86  C   UNL A   1      43.485  37.231  34.964  1.00  0.00     0.200 A 
ATOM     87  F   UNL A   1      44.028  38.324  32.944  1.00  0.00    -0.200 F 
ATOM     88  F   UNL A   1      43.817  38.326  35.662  1.00  0.00    -0.200 F 
ENDBRANCH  55  78
ENDBRANCH  29  30
ENDBRANCH  22  24
ENDBRANCH  21  22
ENDBRANCH  20  21
ENDBRANCH   1  20
TORSDOF 15
ENDMDL
