MODEL 1
REMARK VINA RESULT:     -12.5      0.000      0.000
REMARK SMILES Cc1c(C)c2cc(Cl)c(O[C@@H](C)C(=O)OCCOC(=O)c3ccc(-c4c5nc(c(-c6c(F)c(F)c(F)c(F)c6F)c6ccc([nH]6)c(-c6c(F)c(F)c(F)c(F)c6F)c6nc(c(-c7c(F)c(F)c(F)c(F)c7F)c7ccc4[nH]7)C=C6)C=C5)cc3)cc2oc1=O
REMARK SMILES IDX 16 1 15 2 13 3 14 4 11 5 12 6 10 7 9 8 1 9 2 10 3 11 87 12
REMARK SMILES IDX 4 13 5 14 86 15 88 16 6 17 85 18 7 19 84 20 8 21 17 22 18 23
REMARK SMILES IDX 19 24 20 25 21 26 22 27 83 28 23 29 82 30 24 31 25 32 26 33
REMARK SMILES IDX 76 34 27 35 81 36 75 37 77 38 28 39 80 40 74 41 73 42 29 44
REMARK SMILES IDX 61 45 41 46 60 47 42 48 45 49 59 50 78 51 43 52 44 53 58 55
REMARK SMILES IDX 79 56 46 57 30 58 31 59 39 60 32 61 33 62 37 63 40 64 34 65
REMARK SMILES IDX 35 66 38 67 36 68 62 69 63 70 71 71 64 72 65 73 69 74 72 75
REMARK SMILES IDX 66 76 67 77 70 78 68 79 47 80 48 81 56 82 49 83 50 84 54 85
REMARK SMILES IDX 57 86 51 87 52 88 55 89 53 90
REMARK H PARENT 77 43 45 54
REMARK Flexibility Score: inf
ROOT
ATOM      1  C   UNL A   1      31.656  28.597  24.969  1.00  0.00     0.274 C 
ENDROOT
BRANCH   1   2
ATOM      2  O   UNL A   1      31.421  27.502  25.875  1.00  0.00    -0.459 OA
BRANCH   2   3
ATOM      3  C   UNL A   1      30.549  26.533  25.511  1.00  0.00     0.347 C 
ATOM      4  O   UNL A   1      30.116  25.673  26.272  1.00  0.00    -0.248 OA
BRANCH   3   5
ATOM      5  C   UNL A   1      30.134  26.616  24.017  1.00  0.00     0.279 C 
ATOM      6  C   UNL A   1      28.615  26.728  23.876  1.00  0.00     0.066 C 
BRANCH   5   7
ATOM      7  O   UNL A   1      30.665  25.828  22.964  1.00  0.00    -0.477 OA
BRANCH   7   8
ATOM      8  C   UNL A   1      31.701  24.961  23.141  1.00  0.00     0.142 A 
ATOM      9  C   UNL A   1      35.978  20.358  25.003  1.00  0.00     0.052 C 
ATOM     10  C   UNL A   1      34.891  21.308  24.579  1.00  0.00     0.038 A 
ATOM     11  C   UNL A   1      35.132  22.466  23.927  1.00  0.00    -0.030 A 
ATOM     12  C   UNL A   1      33.508  20.887  24.938  1.00  0.00     0.339 A 
ATOM     13  C   UNL A   1      36.507  22.911  23.502  1.00  0.00     0.046 C 
ATOM     14  C   UNL A   1      33.996  23.351  23.609  1.00  0.00     0.023 A 
ATOM     15  O   UNL A   1      32.470  21.622  24.397  1.00  0.00    -0.422 OA
ATOM     16  O   UNL A   1      33.281  19.912  25.646  1.00  0.00    -0.246 OA
ATOM     17  C   UNL A   1      34.127  24.653  23.113  1.00  0.00     0.036 A 
ATOM     18  C   UNL A   1      32.706  22.880  23.824  1.00  0.00     0.142 A 
ATOM     19  C   UNL A   1      32.993  25.451  22.892  1.00  0.00     0.083 A 
ATOM     20  C   UNL A   1      31.567  23.642  23.554  1.00  0.00     0.096 A 
ATOM     21  Cl  UNL A   1      33.247  27.067  22.327  1.00  0.00    -0.080 Cl
ENDBRANCH   7   8
ENDBRANCH   5   7
ENDBRANCH   3   5
ENDBRANCH   2   3
ENDBRANCH   1   2
BRANCH   1  22
ATOM     22  C   UNL A   1      31.726  29.910  25.749  1.00  0.00     0.275 C 
BRANCH  22  23
ATOM     23  O   UNL A   1      33.094  30.276  25.998  1.00  0.00    -0.458 OA
BRANCH  23  24
ATOM     24  C   UNL A   1      33.279  31.254  26.919  1.00  0.00     0.338 C 
ATOM     25  O   UNL A   1      32.510  32.145  27.216  1.00  0.00    -0.246 OA
BRANCH  24  26
ATOM     26  C   UNL A   1      34.523  30.969  27.657  1.00  0.00     0.060 A 
ATOM     27  C   UNL A   1      35.417  31.989  27.991  1.00  0.00     0.016 A 
ATOM     28  C   UNL A   1      34.792  29.643  28.013  1.00  0.00     0.016 A 
ATOM     29  C   UNL A   1      36.595  31.672  28.666  1.00  0.00     0.010 A 
ATOM     30  C   UNL A   1      35.970  29.327  28.685  1.00  0.00     0.010 A 
ATOM     31  C   UNL A   1      36.879  30.341  29.012  1.00  0.00    -0.014 A 
BRANCH  31  32
ATOM     32  C   UNL A   1      38.105  30.026  29.777  1.00  0.00     0.031 A 
ATOM     33  C   UNL A   1      38.310  30.567  31.157  1.00  0.00     0.074 A 
ATOM     34  C   UNL A   1      39.030  29.233  29.206  1.00  0.00     0.049 A 
ATOM     35  N   UNL A   1      39.266  30.299  32.011  1.00  0.00    -0.248 NA
ATOM     36  C   UNL A   1      37.321  31.539  31.644  1.00  0.00     0.031 C 
ATOM     37  C   UNL A   1      38.946  28.693  27.848  1.00  0.00     0.029 A 
ATOM     38  N   UNL A   1      40.209  28.733  29.695  1.00  0.00    -0.354 N 
ATOM     39  C   UNL A   1      38.981  31.048  33.143  1.00  0.00     0.074 A 
ATOM     40  C   UNL A   1      37.795  31.825  32.850  1.00  0.00     0.031 C 
ATOM     41  C   UNL A   1      40.011  27.907  27.625  1.00  0.00     0.029 A 
ATOM     42  C   UNL A   1      40.854  27.900  28.817  1.00  0.00     0.049 A 
ATOM     43  H   UNL A   1      40.558  28.951  30.589  1.00  0.00     0.167 HD
ATOM     44  C   UNL A   1      39.640  31.061  34.326  1.00  0.00     0.037 A 
ATOM     45  C   UNL A   1      41.991  27.194  28.966  1.00  0.00     0.037 A 
ATOM     46  C   UNL A   1      40.824  30.290  34.600  1.00  0.00     0.049 A 
ATOM     47  C   UNL A   1      42.719  27.251  30.280  1.00  0.00     0.074 A 
ATOM     48  C   UNL A   1      41.541  30.199  35.781  1.00  0.00     0.029 A 
ATOM     49  N   UNL A   1      41.473  29.482  33.676  1.00  0.00    -0.354 N 
ATOM     50  N   UNL A   1      42.394  27.893  31.376  1.00  0.00    -0.248 NA
ATOM     51  C   UNL A   1      43.965  26.480  30.382  1.00  0.00     0.031 C 
ATOM     52  C   UNL A   1      42.647  29.372  35.558  1.00  0.00     0.029 A 
ATOM     53  C   UNL A   1      42.596  28.912  34.252  1.00  0.00     0.049 A 
ATOM     54  H   UNL A   1      41.178  29.337  32.748  1.00  0.00     0.167 HD
ATOM     55  C   UNL A   1      43.383  27.592  32.301  1.00  0.00     0.074 A 
ATOM     56  C   UNL A   1      44.311  26.695  31.645  1.00  0.00     0.031 C 
ATOM     57  C   UNL A   1      43.509  28.023  33.580  1.00  0.00     0.037 A 
BRANCH  44  58
ATOM     58  C   UNL A   1      39.087  31.916  35.428  1.00  0.00     0.064 A 
ATOM     59  C   UNL A   1      38.278  31.368  36.433  1.00  0.00     0.173 A 
ATOM     60  C   UNL A   1      39.436  33.271  35.529  1.00  0.00     0.173 A 
ATOM     61  F   UNL A   1      37.914  30.078  36.379  1.00  0.00    -0.203 F 
ATOM     62  C   UNL A   1      37.828  32.147  37.495  1.00  0.00     0.198 A 
ATOM     63  C   UNL A   1      39.003  34.041  36.606  1.00  0.00     0.198 A 
ATOM     64  F   UNL A   1      40.216  33.842  34.599  1.00  0.00    -0.203 F 
ATOM     65  F   UNL A   1      37.036  31.607  38.434  1.00  0.00    -0.200 F 
ATOM     66  C   UNL A   1      38.198  33.481  37.586  1.00  0.00     0.200 A 
ATOM     67  F   UNL A   1      39.374  35.326  36.701  1.00  0.00    -0.200 F 
ATOM     68  F   UNL A   1      37.780  34.225  38.619  1.00  0.00    -0.200 F 
ENDBRANCH  44  58
BRANCH  45  69
ATOM     69  C   UNL A   1      42.467  26.332  27.857  1.00  0.00     0.064 A 
ATOM     70  C   UNL A   1      43.395  26.813  26.925  1.00  0.00     0.173 A 
ATOM     71  C   UNL A   1      42.036  25.004  27.725  1.00  0.00     0.173 A 
ATOM     72  F   UNL A   1      43.824  28.082  27.001  1.00  0.00    -0.203 F 
ATOM     73  C   UNL A   1      43.870  26.002  25.897  1.00  0.00     0.198 A 
ATOM     74  C   UNL A   1      42.529  24.186  26.713  1.00  0.00     0.198 A 
ATOM     75  F   UNL A   1      41.153  24.496  28.598  1.00  0.00    -0.203 F 
ATOM     76  F   UNL A   1      44.737  26.494  25.002  1.00  0.00    -0.200 F 
ATOM     77  C   UNL A   1      43.443  24.686  25.797  1.00  0.00     0.200 A 
ATOM     78  F   UNL A   1      42.124  22.911  26.628  1.00  0.00    -0.200 F 
ATOM     79  F   UNL A   1      43.909  23.901  24.816  1.00  0.00    -0.200 F 
ENDBRANCH  45  69
BRANCH  57  80
ATOM     80  C   UNL A   1      44.693  27.534  34.360  1.00  0.00     0.064 A 
ATOM     81  C   UNL A   1      45.885  28.270  34.412  1.00  0.00     0.173 A 
ATOM     82  C   UNL A   1      44.607  26.362  35.127  1.00  0.00     0.173 A 
ATOM     83  F   UNL A   1      46.018  29.390  33.685  1.00  0.00    -0.203 F 
ATOM     84  C   UNL A   1      46.953  27.846  35.198  1.00  0.00     0.198 A 
ATOM     85  C   UNL A   1      45.668  25.955  35.931  1.00  0.00     0.198 A 
ATOM     86  F   UNL A   1      43.486  25.627  35.115  1.00  0.00    -0.203 F 
ATOM     87  F   UNL A   1      48.093  28.550  35.211  1.00  0.00    -0.200 F 
ATOM     88  C   UNL A   1      46.840  26.695  35.964  1.00  0.00     0.200 A 
ATOM     89  F   UNL A   1      45.552  24.850  36.682  1.00  0.00    -0.200 F 
ATOM     90  F   UNL A   1      47.862  26.299  36.734  1.00  0.00    -0.200 F 
ENDBRANCH  57  80
ENDBRANCH  31  32
ENDBRANCH  24  26
ENDBRANCH  23  24
ENDBRANCH  22  23
ENDBRANCH   1  22
TORSDOF 13
ENDMDL
MODEL 2
REMARK VINA RESULT:     -12.4      0.376      1.719
REMARK SMILES Cc1c(C)c2cc(Cl)c(O[C@@H](C)C(=O)OCCOC(=O)c3ccc(-c4c5nc(c(-c6c(F)c(F)c(F)c(F)c6F)c6ccc([nH]6)c(-c6c(F)c(F)c(F)c(F)c6F)c6nc(c(-c7c(F)c(F)c(F)c(F)c7F)c7ccc4[nH]7)C=C6)C=C5)cc3)cc2oc1=O
REMARK SMILES IDX 16 1 15 2 13 3 14 4 11 5 12 6 10 7 9 8 1 9 2 10 3 11 87 12
REMARK SMILES IDX 4 13 5 14 86 15 88 16 6 17 85 18 7 19 84 20 8 21 17 22 18 23
REMARK SMILES IDX 19 24 20 25 21 26 22 27 83 28 23 29 82 30 24 31 25 32 26 33
REMARK SMILES IDX 76 34 27 35 81 36 75 37 77 38 28 39 80 40 74 41 73 42 29 44
REMARK SMILES IDX 61 45 41 46 60 47 42 48 45 49 59 50 78 51 43 52 44 53 58 55
REMARK SMILES IDX 79 56 46 57 30 58 31 59 39 60 32 61 33 62 37 63 40 64 34 65
REMARK SMILES IDX 35 66 38 67 36 68 62 69 63 70 71 71 64 72 65 73 69 74 72 75
REMARK SMILES IDX 66 76 67 77 70 78 68 79 47 80 48 81 56 82 49 83 50 84 54 85
REMARK SMILES IDX 57 86 51 87 52 88 55 89 53 90
REMARK H PARENT 77 43 45 54
REMARK Flexibility Score: inf
ROOT
ATOM      1  C   UNL A   1      31.512  28.947  24.938  1.00  0.00     0.274 C 
ENDROOT
BRANCH   1   2
ATOM      2  O   UNL A   1      31.577  27.793  25.796  1.00  0.00    -0.459 OA
BRANCH   2   3
ATOM      3  C   UNL A   1      30.737  26.758  25.559  1.00  0.00     0.347 C 
ATOM      4  O   UNL A   1      30.408  25.929  26.402  1.00  0.00    -0.248 OA
BRANCH   3   5
ATOM      5  C   UNL A   1      30.212  26.721  24.099  1.00  0.00     0.279 C 
ATOM      6  C   UNL A   1      28.703  26.481  24.065  1.00  0.00     0.066 C 
BRANCH   5   7
ATOM      7  O   UNL A   1      30.837  26.057  23.011  1.00  0.00    -0.477 OA
BRANCH   7   8
ATOM      8  C   UNL A   1      31.834  25.145  23.175  1.00  0.00     0.142 A 
ATOM      9  C   UNL A   1      35.925  20.361  24.999  1.00  0.00     0.052 C 
ATOM     10  C   UNL A   1      34.876  21.357  24.586  1.00  0.00     0.038 A 
ATOM     11  C   UNL A   1      35.158  22.498  23.921  1.00  0.00    -0.030 A 
ATOM     12  C   UNL A   1      33.482  21.004  24.973  1.00  0.00     0.339 A 
ATOM     13  C   UNL A   1      36.545  22.876  23.468  1.00  0.00     0.046 C 
ATOM     14  C   UNL A   1      34.060  23.432  23.616  1.00  0.00     0.023 A 
ATOM     15  O   UNL A   1      32.469  21.783  24.445  1.00  0.00    -0.422 OA
ATOM     16  O   UNL A   1      33.223  20.046  25.693  1.00  0.00    -0.246 OA
ATOM     17  C   UNL A   1      34.242  24.723  23.107  1.00  0.00     0.036 A 
ATOM     18  C   UNL A   1      32.754  23.024  23.858  1.00  0.00     0.142 A 
ATOM     19  C   UNL A   1      33.143  25.572  22.900  1.00  0.00     0.083 A 
ATOM     20  C   UNL A   1      31.646  23.837  23.601  1.00  0.00     0.096 A 
ATOM     21  Cl  UNL A   1      33.462  27.171  22.317  1.00  0.00    -0.080 Cl
ENDBRANCH   7   8
ENDBRANCH   5   7
ENDBRANCH   3   5
ENDBRANCH   2   3
ENDBRANCH   1   2
BRANCH   1  22
ATOM     22  C   UNL A   1      31.795  30.213  25.747  1.00  0.00     0.275 C 
BRANCH  22  23
ATOM     23  O   UNL A   1      33.153  30.215  26.219  1.00  0.00    -0.458 OA
BRANCH  23  24
ATOM     24  C   UNL A   1      33.492  31.260  27.015  1.00  0.00     0.338 C 
ATOM     25  O   UNL A   1      32.849  32.266  27.230  1.00  0.00    -0.246 OA
BRANCH  24  26
ATOM     26  C   UNL A   1      34.725  30.908  27.745  1.00  0.00     0.060 A 
ATOM     27  C   UNL A   1      34.915  29.628  28.271  1.00  0.00     0.016 A 
ATOM     28  C   UNL A   1      35.703  31.895  27.904  1.00  0.00     0.016 A 
ATOM     29  C   UNL A   1      36.083  29.345  28.976  1.00  0.00     0.010 A 
ATOM     30  C   UNL A   1      36.869  31.612  28.612  1.00  0.00     0.010 A 
ATOM     31  C   UNL A   1      37.063  30.336  29.154  1.00  0.00    -0.014 A 
BRANCH  31  32
ATOM     32  C   UNL A   1      38.322  30.007  29.857  1.00  0.00     0.031 A 
ATOM     33  C   UNL A   1      38.609  30.560  31.218  1.00  0.00     0.074 A 
ATOM     34  C   UNL A   1      39.201  29.189  29.250  1.00  0.00     0.049 A 
ATOM     35  N   UNL A   1      39.603  30.285  32.024  1.00  0.00    -0.248 NA
ATOM     36  C   UNL A   1      37.665  31.557  31.743  1.00  0.00     0.031 C 
ATOM     37  C   UNL A   1      39.035  28.635  27.905  1.00  0.00     0.029 A 
ATOM     38  N   UNL A   1      40.394  28.674  29.682  1.00  0.00    -0.354 N 
ATOM     39  C   UNL A   1      39.393  31.053  33.159  1.00  0.00     0.074 A 
ATOM     40  C   UNL A   1      38.207  31.849  32.919  1.00  0.00     0.031 C 
ATOM     41  C   UNL A   1      40.072  27.826  27.636  1.00  0.00     0.029 A 
ATOM     42  C   UNL A   1      40.977  27.818  28.782  1.00  0.00     0.049 A 
ATOM     43  H   UNL A   1      40.794  28.895  30.554  1.00  0.00     0.167 HD
ATOM     44  C   UNL A   1      40.113  31.068  34.305  1.00  0.00     0.037 A 
ATOM     45  C   UNL A   1      42.107  27.093  28.881  1.00  0.00     0.037 A 
ATOM     46  C   UNL A   1      41.296  30.278  34.527  1.00  0.00     0.049 A 
ATOM     47  C   UNL A   1      42.904  27.152  30.154  1.00  0.00     0.074 A 
ATOM     48  C   UNL A   1      42.072  30.187  35.670  1.00  0.00     0.029 A 
ATOM     49  N   UNL A   1      41.880  29.447  33.581  1.00  0.00    -0.354 N 
ATOM     50  N   UNL A   1      42.650  27.813  31.257  1.00  0.00    -0.248 NA
ATOM     51  C   UNL A   1      44.139  26.358  30.200  1.00  0.00     0.031 C 
ATOM     52  C   UNL A   1      43.150  29.337  35.400  1.00  0.00     0.029 A 
ATOM     53  C   UNL A   1      43.022  28.862  34.105  1.00  0.00     0.049 A 
ATOM     54  H   UNL A   1      41.534  29.296  32.672  1.00  0.00     0.167 HD
ATOM     55  C   UNL A   1      43.680  27.504  32.133  1.00  0.00     0.074 A 
ATOM     56  C   UNL A   1      44.555  26.582  31.440  1.00  0.00     0.031 C 
ATOM     57  C   UNL A   1      43.882  27.948  33.397  1.00  0.00     0.037 A 
BRANCH  44  58
ATOM     58  C   UNL A   1      39.635  31.947  35.424  1.00  0.00     0.064 A 
ATOM     59  C   UNL A   1      40.081  33.270  35.547  1.00  0.00     0.173 A 
ATOM     60  C   UNL A   1      38.663  31.493  36.327  1.00  0.00     0.173 A 
ATOM     61  F   UNL A   1      41.013  33.750  34.709  1.00  0.00    -0.203 F 
ATOM     62  C   UNL A   1      39.580  34.106  36.541  1.00  0.00     0.198 A 
ATOM     63  C   UNL A   1      38.147  32.339  37.306  1.00  0.00     0.198 A 
ATOM     64  F   UNL A   1      38.196  30.239  36.247  1.00  0.00    -0.203 F 
ATOM     65  F   UNL A   1      40.037  35.361  36.654  1.00  0.00    -0.200 F 
ATOM     66  C   UNL A   1      38.606  33.643  37.414  1.00  0.00     0.200 A 
ATOM     67  F   UNL A   1      37.196  31.896  38.139  1.00  0.00    -0.200 F 
ATOM     68  F   UNL A   1      38.111  34.455  38.359  1.00  0.00    -0.200 F 
ENDBRANCH  44  58
BRANCH  45  69
ATOM     69  C   UNL A   1      42.508  26.208  27.759  1.00  0.00     0.064 A 
ATOM     70  C   UNL A   1      41.938  24.938  27.611  1.00  0.00     0.173 A 
ATOM     71  C   UNL A   1      43.438  26.625  26.795  1.00  0.00     0.173 A 
ATOM     72  F   UNL A   1      41.055  24.491  28.517  1.00  0.00    -0.203 F 
ATOM     73  C   UNL A   1      42.286  24.113  26.544  1.00  0.00     0.198 A 
ATOM     74  C   UNL A   1      43.767  25.810  25.716  1.00  0.00     0.198 A 
ATOM     75  F   UNL A   1      44.007  27.836  26.891  1.00  0.00    -0.203 F 
ATOM     76  F   UNL A   1      41.746  22.891  26.440  1.00  0.00    -0.200 F 
ATOM     77  C   UNL A   1      43.194  24.553  25.593  1.00  0.00     0.200 A 
ATOM     78  F   UNL A   1      44.635  26.244  24.792  1.00  0.00    -0.200 F 
ATOM     79  F   UNL A   1      43.520  23.764  24.560  1.00  0.00    -0.200 F 
ENDBRANCH  45  69
BRANCH  57  80
ATOM     80  C   UNL A   1      45.096  27.446  34.120  1.00  0.00     0.064 A 
ATOM     81  C   UNL A   1      46.302  28.159  34.098  1.00  0.00     0.173 A 
ATOM     82  C   UNL A   1      45.029  26.287  34.908  1.00  0.00     0.173 A 
ATOM     83  F   UNL A   1      46.418  29.266  33.350  1.00  0.00    -0.203 F 
ATOM     84  C   UNL A   1      47.403  27.725  34.833  1.00  0.00     0.198 A 
ATOM     85  C   UNL A   1      46.123  25.869  35.660  1.00  0.00     0.198 A 
ATOM     86  F   UNL A   1      43.894  25.574  34.966  1.00  0.00    -0.203 F 
ATOM     87  F   UNL A   1      48.555  28.406  34.776  1.00  0.00    -0.200 F 
ATOM     88  C   UNL A   1      47.308  26.587  35.621  1.00  0.00     0.200 A 
ATOM     89  F   UNL A   1      46.026  24.777  36.432  1.00  0.00    -0.200 F 
ATOM     90  F   UNL A   1      48.362  26.181  36.341  1.00  0.00    -0.200 F 
ENDBRANCH  57  80
ENDBRANCH  31  32
ENDBRANCH  24  26
ENDBRANCH  23  24
ENDBRANCH  22  23
ENDBRANCH   1  22
TORSDOF 13
ENDMDL
MODEL 3
REMARK VINA RESULT:     -12.4      1.453      2.120
REMARK SMILES Cc1c(C)c2cc(Cl)c(O[C@@H](C)C(=O)OCCOC(=O)c3ccc(-c4c5nc(c(-c6c(F)c(F)c(F)c(F)c6F)c6ccc([nH]6)c(-c6c(F)c(F)c(F)c(F)c6F)c6nc(c(-c7c(F)c(F)c(F)c(F)c7F)c7ccc4[nH]7)C=C6)C=C5)cc3)cc2oc1=O
REMARK SMILES IDX 16 1 15 2 13 3 14 4 11 5 12 6 10 7 9 8 1 9 2 10 3 11 87 12
REMARK SMILES IDX 4 13 5 14 86 15 88 16 6 17 85 18 7 19 84 20 8 21 17 22 18 23
REMARK SMILES IDX 19 24 20 25 21 26 22 27 83 28 23 29 82 30 24 31 25 32 26 33
REMARK SMILES IDX 76 34 27 35 81 36 75 37 77 38 28 39 80 40 74 41 73 42 29 44
REMARK SMILES IDX 61 45 41 46 60 47 42 48 45 49 59 50 78 51 43 52 44 53 58 55
REMARK SMILES IDX 79 56 46 57 30 58 31 59 39 60 32 61 33 62 37 63 40 64 34 65
REMARK SMILES IDX 35 66 38 67 36 68 62 69 63 70 71 71 64 72 65 73 69 74 72 75
REMARK SMILES IDX 66 76 67 77 70 78 68 79 47 80 48 81 56 82 49 83 50 84 54 85
REMARK SMILES IDX 57 86 51 87 52 88 55 89 53 90
REMARK H PARENT 77 43 45 54
REMARK Flexibility Score: inf
ROOT
ATOM      1  C   UNL A   1      31.669  28.599  26.856  1.00  0.00     0.274 C 
ENDROOT
BRANCH   1   2
ATOM      2  O   UNL A   1      32.502  27.497  26.449  1.00  0.00    -0.459 OA
BRANCH   2   3
ATOM      3  C   UNL A   1      31.908  26.347  26.051  1.00  0.00     0.347 C 
ATOM      4  O   UNL A   1      31.092  25.722  26.722  1.00  0.00    -0.248 OA
BRANCH   3   5
ATOM      5  C   UNL A   1      32.357  25.887  24.638  1.00  0.00     0.279 C 
ATOM      6  C   UNL A   1      31.636  26.681  23.548  1.00  0.00     0.066 C 
BRANCH   5   7
ATOM      7  O   UNL A   1      32.539  24.542  24.223  1.00  0.00    -0.477 OA
BRANCH   7   8
ATOM      8  C   UNL A   1      33.640  23.811  24.549  1.00  0.00     0.142 A 
ATOM      9  C   UNL A   1      39.577  21.428  25.976  1.00  0.00     0.052 C 
ATOM     10  C   UNL A   1      38.241  22.082  25.751  1.00  0.00     0.038 A 
ATOM     11  C   UNL A   1      37.179  21.436  25.221  1.00  0.00    -0.030 A 
ATOM     12  C   UNL A   1      38.163  23.515  26.148  1.00  0.00     0.339 A 
ATOM     13  C   UNL A   1      37.195  19.976  24.848  1.00  0.00     0.046 C 
ATOM     14  C   UNL A   1      35.934  22.189  24.989  1.00  0.00     0.023 A 
ATOM     15  O   UNL A   1      36.910  24.099  26.145  1.00  0.00    -0.422 OA
ATOM     16  O   UNL A   1      39.149  24.154  26.501  1.00  0.00    -0.246 OA
ATOM     17  C   UNL A   1      34.835  21.694  24.278  1.00  0.00     0.036 A 
ATOM     18  C   UNL A   1      35.834  23.481  25.492  1.00  0.00     0.142 A 
ATOM     19  C   UNL A   1      33.707  22.499  24.052  1.00  0.00     0.083 A 
ATOM     20  C   UNL A   1      34.696  24.273  25.325  1.00  0.00     0.096 A 
ATOM     21  Cl  UNL A   1      32.414  21.826  23.118  1.00  0.00    -0.080 Cl
ENDBRANCH   7   8
ENDBRANCH   5   7
ENDBRANCH   3   5
ENDBRANCH   2   3
ENDBRANCH   1   2
BRANCH   1  22
ATOM     22  C   UNL A   1      31.917  29.801  25.943  1.00  0.00     0.275 C 
BRANCH  22  23
ATOM     23  O   UNL A   1      33.275  30.256  26.067  1.00  0.00    -0.458 OA
BRANCH  23  24
ATOM     24  C   UNL A   1      33.478  31.248  26.968  1.00  0.00     0.338 C 
ATOM     25  O   UNL A   1      32.725  32.157  27.251  1.00  0.00    -0.246 OA
BRANCH  24  26
ATOM     26  C   UNL A   1      34.720  30.957  27.709  1.00  0.00     0.060 A 
ATOM     27  C   UNL A   1      35.674  31.950  27.941  1.00  0.00     0.016 A 
ATOM     28  C   UNL A   1      34.924  29.652  28.170  1.00  0.00     0.016 A 
ATOM     29  C   UNL A   1      36.846  31.626  28.622  1.00  0.00     0.010 A 
ATOM     30  C   UNL A   1      36.097  29.328  28.848  1.00  0.00     0.010 A 
ATOM     31  C   UNL A   1      37.066  30.314  29.074  1.00  0.00    -0.014 A 
BRANCH  31  32
ATOM     32  C   UNL A   1      38.289  29.996  29.843  1.00  0.00     0.031 A 
ATOM     33  C   UNL A   1      38.488  30.533  31.226  1.00  0.00     0.074 A 
ATOM     34  C   UNL A   1      39.215  29.203  29.275  1.00  0.00     0.049 A 
ATOM     35  N   UNL A   1      39.440  30.263  32.082  1.00  0.00    -0.248 NA
ATOM     36  C   UNL A   1      37.498  31.505  31.711  1.00  0.00     0.031 C 
ATOM     37  C   UNL A   1      39.135  28.666  27.915  1.00  0.00     0.029 A 
ATOM     38  N   UNL A   1      40.391  28.701  29.767  1.00  0.00    -0.354 N 
ATOM     39  C   UNL A   1      39.152  31.010  33.215  1.00  0.00     0.074 A 
ATOM     40  C   UNL A   1      37.967  31.788  32.919  1.00  0.00     0.031 C 
ATOM     41  C   UNL A   1      40.201  27.880  27.694  1.00  0.00     0.029 A 
ATOM     42  C   UNL A   1      41.039  27.869  28.890  1.00  0.00     0.049 A 
ATOM     43  H   UNL A   1      40.737  28.917  30.663  1.00  0.00     0.167 HD
ATOM     44  C   UNL A   1      39.806  31.020  34.401  1.00  0.00     0.037 A 
ATOM     45  C   UNL A   1      42.175  27.162  29.042  1.00  0.00     0.037 A 
ATOM     46  C   UNL A   1      40.988  30.246  34.678  1.00  0.00     0.049 A 
ATOM     47  C   UNL A   1      42.897  27.216  30.359  1.00  0.00     0.074 A 
ATOM     48  C   UNL A   1      41.700  30.152  35.862  1.00  0.00     0.029 A 
ATOM     49  N   UNL A   1      41.640  29.440  33.755  1.00  0.00    -0.354 N 
ATOM     50  N   UNL A   1      42.569  27.855  31.455  1.00  0.00    -0.248 NA
ATOM     51  C   UNL A   1      44.142  26.443  30.464  1.00  0.00     0.031 C 
ATOM     52  C   UNL A   1      42.806  29.324  35.642  1.00  0.00     0.029 A 
ATOM     53  C   UNL A   1      42.760  28.867  34.335  1.00  0.00     0.049 A 
ATOM     54  H   UNL A   1      41.348  29.297  32.825  1.00  0.00     0.167 HD
ATOM     55  C   UNL A   1      43.553  27.551  32.384  1.00  0.00     0.074 A 
ATOM     56  C   UNL A   1      44.483  26.655  31.729  1.00  0.00     0.031 C 
ATOM     57  C   UNL A   1      43.675  27.979  33.664  1.00  0.00     0.037 A 
BRANCH  44  58
ATOM     58  C   UNL A   1      39.249  31.872  35.503  1.00  0.00     0.064 A 
ATOM     59  C   UNL A   1      38.363  31.343  36.451  1.00  0.00     0.173 A 
ATOM     60  C   UNL A   1      39.668  33.201  35.663  1.00  0.00     0.173 A 
ATOM     61  F   UNL A   1      37.930  30.078  36.339  1.00  0.00    -0.203 F 
ATOM     62  C   UNL A   1      37.907  32.115  37.515  1.00  0.00     0.198 A 
ATOM     63  C   UNL A   1      39.228  33.964  36.743  1.00  0.00     0.198 A 
ATOM     64  F   UNL A   1      40.522  33.753  34.789  1.00  0.00    -0.203 F 
ATOM     65  F   UNL A   1      37.042  31.595  38.398  1.00  0.00    -0.200 F 
ATOM     66  C   UNL A   1      38.346  33.422  37.666  1.00  0.00     0.200 A 
ATOM     67  F   UNL A   1      39.665  35.221  36.895  1.00  0.00    -0.200 F 
ATOM     68  F   UNL A   1      37.921  34.159  38.701  1.00  0.00    -0.200 F 
ENDBRANCH  44  58
BRANCH  45  69
ATOM     69  C   UNL A   1      42.655  26.302  27.932  1.00  0.00     0.064 A 
ATOM     70  C   UNL A   1      43.526  26.809  26.961  1.00  0.00     0.173 A 
ATOM     71  C   UNL A   1      42.283  24.953  27.840  1.00  0.00     0.173 A 
ATOM     72  F   UNL A   1      43.897  28.098  27.000  1.00  0.00    -0.203 F 
ATOM     73  C   UNL A   1      44.005  26.001  25.933  1.00  0.00     0.198 A 
ATOM     74  C   UNL A   1      42.781  24.140  26.826  1.00  0.00     0.198 A 
ATOM     75  F   UNL A   1      41.455  24.420  28.751  1.00  0.00    -0.203 F 
ATOM     76  F   UNL A   1      44.817  26.516  24.999  1.00  0.00    -0.200 F 
ATOM     77  C   UNL A   1      43.639  24.664  25.870  1.00  0.00     0.200 A 
ATOM     78  F   UNL A   1      42.436  22.845  26.777  1.00  0.00    -0.200 F 
ATOM     79  F   UNL A   1      44.109  23.883  24.888  1.00  0.00    -0.200 F 
ENDBRANCH  45  69
BRANCH  57  80
ATOM     80  C   UNL A   1      44.855  27.487  34.447  1.00  0.00     0.064 A 
ATOM     81  C   UNL A   1      44.803  26.283  35.163  1.00  0.00     0.173 A 
ATOM     82  C   UNL A   1      46.073  28.182  34.415  1.00  0.00     0.173 A 
ATOM     83  F   UNL A   1      43.656  25.589  35.233  1.00  0.00    -0.203 F 
ATOM     84  C   UNL A   1      45.926  25.796  35.827  1.00  0.00     0.198 A 
ATOM     85  C   UNL A   1      47.201  27.681  35.059  1.00  0.00     0.198 A 
ATOM     86  F   UNL A   1      46.175  29.336  33.738  1.00  0.00    -0.203 F 
ATOM     87  F   UNL A   1      45.846  24.657  36.528  1.00  0.00    -0.200 F 
ATOM     88  C   UNL A   1      47.126  26.490  35.765  1.00  0.00     0.200 A 
ATOM     89  F   UNL A   1      48.362  28.345  34.987  1.00  0.00    -0.200 F 
ATOM     90  F   UNL A   1      48.210  26.011  36.389  1.00  0.00    -0.200 F 
ENDBRANCH  57  80
ENDBRANCH  31  32
ENDBRANCH  24  26
ENDBRANCH  23  24
ENDBRANCH  22  23
ENDBRANCH   1  22
TORSDOF 13
ENDMDL
