MODEL 1
REMARK VINA RESULT:     -11.4      0.000      0.000
REMARK SMILES O=C(CNS(=O)(=O)c1ccc(F)c(F)c1)OCCOC(=O)c1ccc(-c2c3nc(c(-c4c(F)c(F)c(F)c(F)c4F)c4ccc([nH]4)c(-c4c(F)c(F)c(F)c(F)c4F)c4nc(c(-c5c(F)c(F)c(F)c(F)c5F)c5ccc2[nH]5)C=C4)C=C3)cc1
REMARK SMILES IDX 17 1 16 2 2 3 1 4 3 5 4 6 5 8 6 9 7 10 8 11 9 12 15 13 10 14
REMARK SMILES IDX 13 15 11 16 14 17 12 18 18 19 19 20 20 21 21 22 22 23 23 24
REMARK SMILES IDX 84 25 24 26 83 27 25 28 26 29 27 30 77 31 28 32 82 33 76 34
REMARK SMILES IDX 78 35 29 36 81 37 75 38 74 39 30 41 62 42 42 43 61 44 43 45
REMARK SMILES IDX 46 46 60 47 79 48 44 49 45 50 59 52 80 53 47 54 31 55 32 56
REMARK SMILES IDX 40 57 33 58 34 59 38 60 41 61 35 62 36 63 39 64 37 65 63 66
REMARK SMILES IDX 64 67 72 68 65 69 66 70 70 71 73 72 67 73 68 74 71 75 69 76
REMARK SMILES IDX 48 77 49 78 57 79 50 80 51 81 55 82 58 83 52 84 53 85 56 86
REMARK SMILES IDX 54 87
REMARK H PARENT 4 7 78 40 46 51
REMARK Flexibility Score: inf
ROOT
ATOM      1  C   UNL A   1      45.352  21.548  24.411  1.00  0.00     0.274 C 
ENDROOT
BRANCH   1   2
ATOM      2  O   UNL A   1      44.745  20.264  24.166  1.00  0.00    -0.461 OA
BRANCH   2   3
ATOM      3  C   UNL A   1      43.921  19.593  25.002  1.00  0.00     0.321 C 
ATOM      4  O   UNL A   1      43.704  18.397  24.809  1.00  0.00    -0.251 OA
BRANCH   3   5
ATOM      5  C   UNL A   1      43.224  20.318  26.130  1.00  0.00     0.221 C 
BRANCH   5   6
ATOM      6  N   UNL A   1      41.978  21.030  25.814  1.00  0.00    -0.200 NA
ATOM      7  H   UNL A   1      41.869  21.035  24.800  1.00  0.00     0.142 HD
BRANCH   6   8
ATOM      8  S   UNL A   1      40.572  20.376  26.485  1.00  0.00     0.241 S 
ATOM      9  O   UNL A   1      40.236  19.198  25.725  1.00  0.00    -0.207 OA
ATOM     10  O   UNL A   1      40.783  20.345  27.916  1.00  0.00    -0.207 OA
BRANCH   8  11
ATOM     11  C   UNL A   1      39.345  21.621  26.172  1.00  0.00     0.085 A 
ATOM     12  C   UNL A   1      38.232  21.321  25.377  1.00  0.00     0.025 A 
ATOM     13  C   UNL A   1      39.502  22.895  26.727  1.00  0.00     0.064 A 
ATOM     14  C   UNL A   1      37.248  22.292  25.167  1.00  0.00     0.044 A 
ATOM     15  C   UNL A   1      38.520  23.854  26.499  1.00  0.00     0.160 A 
ATOM     16  C   UNL A   1      37.397  23.553  25.736  1.00  0.00     0.158 A 
ATOM     17  F   UNL A   1      38.648  25.066  27.058  1.00  0.00    -0.204 F 
ATOM     18  F   UNL A   1      36.442  24.474  25.549  1.00  0.00    -0.204 F 
ENDBRANCH   8  11
ENDBRANCH   6   8
ENDBRANCH   5   6
ENDBRANCH   3   5
ENDBRANCH   2   3
ENDBRANCH   1   2
BRANCH   1  19
ATOM     19  C   UNL A   1      44.545  22.698  23.808  1.00  0.00     0.275 C 
BRANCH  19  20
ATOM     20  O   UNL A   1      43.951  23.498  24.846  1.00  0.00    -0.458 OA
BRANCH  20  21
ATOM     21  C   UNL A   1      44.649  24.609  25.199  1.00  0.00     0.338 C 
ATOM     22  O   UNL A   1      45.611  25.082  24.623  1.00  0.00    -0.246 OA
BRANCH  21  23
ATOM     23  C   UNL A   1      43.919  25.301  26.283  1.00  0.00     0.060 A 
ATOM     24  C   UNL A   1      44.244  26.637  26.544  1.00  0.00     0.016 A 
ATOM     25  C   UNL A   1      42.885  24.680  26.988  1.00  0.00     0.016 A 
ATOM     26  C   UNL A   1      43.546  27.345  27.524  1.00  0.00     0.010 A 
ATOM     27  C   UNL A   1      42.169  25.401  27.952  1.00  0.00     0.010 A 
ATOM     28  C   UNL A   1      42.514  26.730  28.249  1.00  0.00    -0.014 A 
BRANCH  28  29
ATOM     29  C   UNL A   1      41.897  27.447  29.396  1.00  0.00     0.031 A 
ATOM     30  C   UNL A   1      42.576  27.415  30.738  1.00  0.00     0.074 A 
ATOM     31  C   UNL A   1      40.773  28.173  29.238  1.00  0.00     0.049 A 
ATOM     32  N   UNL A   1      42.276  28.064  31.835  1.00  0.00    -0.248 NA
ATOM     33  C   UNL A   1      43.744  26.530  30.865  1.00  0.00     0.031 C 
ATOM     34  C   UNL A   1      40.006  28.280  27.999  1.00  0.00     0.029 A 
ATOM     35  N   UNL A   1      40.092  28.970  30.127  1.00  0.00    -0.354 N 
ATOM     36  C   UNL A   1      43.224  27.676  32.772  1.00  0.00     0.074 A 
ATOM     37  C   UNL A   1      44.069  26.689  32.138  1.00  0.00     0.031 C 
ATOM     38  C   UNL A   1      38.978  29.123  28.196  1.00  0.00     0.029 A 
ATOM     39  C   UNL A   1      39.001  29.599  29.580  1.00  0.00     0.049 A 
ATOM     40  H   UNL A   1      40.361  29.080  31.068  1.00  0.00     0.167 HD
ATOM     41  C   UNL A   1      43.395  28.122  34.038  1.00  0.00     0.037 A 
ATOM     42  C   UNL A   1      38.126  30.470  30.126  1.00  0.00     0.037 A 
ATOM     43  C   UNL A   1      42.561  29.107  34.673  1.00  0.00     0.049 A 
ATOM     44  C   UNL A   1      38.301  30.915  31.555  1.00  0.00     0.074 A 
ATOM     45  C   UNL A   1      42.687  29.651  35.939  1.00  0.00     0.029 A 
ATOM     46  N   UNL A   1      41.440  29.685  34.097  1.00  0.00    -0.354 N 
ATOM     47  N   UNL A   1      39.245  30.601  32.408  1.00  0.00    -0.248 NA
ATOM     48  C   UNL A   1      37.296  31.844  32.097  1.00  0.00     0.031 C 
ATOM     49  C   UNL A   1      41.608  30.510  36.154  1.00  0.00     0.029 A 
ATOM     50  C   UNL A   1      40.844  30.553  34.997  1.00  0.00     0.049 A 
ATOM     51  H   UNL A   1      41.115  29.505  33.186  1.00  0.00     0.167 HD
ATOM     52  C   UNL A   1      38.968  31.311  33.570  1.00  0.00     0.074 A 
ATOM     53  C   UNL A   1      37.766  32.076  33.317  1.00  0.00     0.031 C 
ATOM     54  C   UNL A   1      39.656  31.325  34.737  1.00  0.00     0.037 A 
BRANCH  41  55
ATOM     55  C   UNL A   1      44.533  27.550  34.831  1.00  0.00     0.064 A 
ATOM     56  C   UNL A   1      45.804  28.143  34.784  1.00  0.00     0.173 A 
ATOM     57  C   UNL A   1      44.382  26.380  35.591  1.00  0.00     0.173 A 
ATOM     58  F   UNL A   1      46.003  29.259  34.066  1.00  0.00    -0.203 F 
ATOM     59  C   UNL A   1      46.881  27.581  35.462  1.00  0.00     0.198 A 
ATOM     60  C   UNL A   1      45.455  25.839  36.294  1.00  0.00     0.198 A 
ATOM     61  F   UNL A   1      43.186  25.780  35.676  1.00  0.00    -0.203 F 
ATOM     62  F   UNL A   1      48.093  28.148  35.378  1.00  0.00    -0.200 F 
ATOM     63  C   UNL A   1      46.705  26.435  36.221  1.00  0.00     0.200 A 
ATOM     64  F   UNL A   1      45.276  24.746  37.049  1.00  0.00    -0.200 F 
ATOM     65  F   UNL A   1      47.740  25.904  36.887  1.00  0.00    -0.200 F 
ENDBRANCH  41  55
BRANCH  42  66
ATOM     66  C   UNL A   1      37.025  31.014  29.287  1.00  0.00     0.064 A 
ATOM     67  C   UNL A   1      37.043  32.339  28.828  1.00  0.00     0.173 A 
ATOM     68  C   UNL A   1      35.911  30.227  28.962  1.00  0.00     0.173 A 
ATOM     69  F   UNL A   1      38.089  33.130  29.107  1.00  0.00    -0.203 F 
ATOM     70  C   UNL A   1      35.977  32.865  28.102  1.00  0.00     0.198 A 
ATOM     71  C   UNL A   1      34.856  30.746  28.214  1.00  0.00     0.198 A 
ATOM     72  F   UNL A   1      35.859  28.945  29.354  1.00  0.00    -0.203 F 
ATOM     73  F   UNL A   1      36.004  34.145  27.706  1.00  0.00    -0.200 F 
ATOM     74  C   UNL A   1      34.885  32.068  27.795  1.00  0.00     0.200 A 
ATOM     75  F   UNL A   1      33.814  29.966  27.897  1.00  0.00    -0.200 F 
ATOM     76  F   UNL A   1      33.861  32.572  27.092  1.00  0.00    -0.200 F 
ENDBRANCH  42  66
BRANCH  54  77
ATOM     77  C   UNL A   1      39.166  32.210  35.849  1.00  0.00     0.064 A 
ATOM     78  C   UNL A   1      39.688  33.506  36.002  1.00  0.00     0.173 A 
ATOM     79  C   UNL A   1      38.298  31.732  36.838  1.00  0.00     0.173 A 
ATOM     80  F   UNL A   1      40.533  34.006  35.087  1.00  0.00    -0.203 F 
ATOM     81  C   UNL A   1      39.385  34.274  37.122  1.00  0.00     0.198 A 
ATOM     82  C   UNL A   1      37.975  32.514  37.946  1.00  0.00     0.198 A 
ATOM     83  F   UNL A   1      37.766  30.505  36.735  1.00  0.00    -0.203 F 
ATOM     84  F   UNL A   1      39.940  35.485  37.274  1.00  0.00    -0.200 F 
ATOM     85  C   UNL A   1      38.531  33.777  38.094  1.00  0.00     0.200 A 
ATOM     86  F   UNL A   1      37.136  32.041  38.877  1.00  0.00    -0.200 F 
ATOM     87  F   UNL A   1      38.247  34.513  39.178  1.00  0.00    -0.200 F 
ENDBRANCH  54  77
ENDBRANCH  28  29
ENDBRANCH  21  23
ENDBRANCH  20  21
ENDBRANCH  19  20
ENDBRANCH   1  19
TORSDOF 14
ENDMDL
MODEL 2
REMARK VINA RESULT:     -10.9      5.211     11.045
REMARK SMILES O=C(CNS(=O)(=O)c1ccc(F)c(F)c1)OCCOC(=O)c1ccc(-c2c3nc(c(-c4c(F)c(F)c(F)c(F)c4F)c4ccc([nH]4)c(-c4c(F)c(F)c(F)c(F)c4F)c4nc(c(-c5c(F)c(F)c(F)c(F)c5F)c5ccc2[nH]5)C=C4)C=C3)cc1
REMARK SMILES IDX 17 1 16 2 2 3 1 4 3 5 4 6 5 8 6 9 7 10 8 11 9 12 15 13 10 14
REMARK SMILES IDX 13 15 11 16 14 17 12 18 18 19 19 20 20 21 21 22 22 23 23 24
REMARK SMILES IDX 84 25 24 26 83 27 25 28 26 29 27 30 77 31 28 32 82 33 76 34
REMARK SMILES IDX 78 35 29 36 81 37 75 38 74 39 30 41 62 42 42 43 61 44 43 45
REMARK SMILES IDX 46 46 60 47 79 48 44 49 45 50 59 52 80 53 47 54 31 55 32 56
REMARK SMILES IDX 40 57 33 58 34 59 38 60 41 61 35 62 36 63 39 64 37 65 63 66
REMARK SMILES IDX 64 67 72 68 65 69 66 70 70 71 73 72 67 73 68 74 71 75 69 76
REMARK SMILES IDX 48 77 49 78 57 79 50 80 51 81 55 82 58 83 52 84 53 85 56 86
REMARK SMILES IDX 54 87
REMARK H PARENT 4 7 78 40 46 51
REMARK Flexibility Score: inf
ROOT
ATOM      1  C   UNL A   1      33.681  34.582  28.834  1.00  0.00     0.274 C 
ENDROOT
BRANCH   1   2
ATOM      2  O   UNL A   1      32.748  34.769  29.917  1.00  0.00    -0.461 OA
BRANCH   2   3
ATOM      3  C   UNL A   1      32.812  35.722  30.874  1.00  0.00     0.321 C 
ATOM      4  O   UNL A   1      32.926  36.903  30.548  1.00  0.00    -0.251 OA
BRANCH   3   5
ATOM      5  C   UNL A   1      32.805  35.336  32.335  1.00  0.00     0.221 C 
BRANCH   5   6
ATOM      6  N   UNL A   1      34.100  35.247  33.022  1.00  0.00    -0.200 NA
ATOM      7  H   UNL A   1      33.972  35.583  33.976  1.00  0.00     0.142 HD
BRANCH   6   8
ATOM      8  S   UNL A   1      34.780  33.702  33.101  1.00  0.00     0.241 S 
ATOM      9  O   UNL A   1      35.153  33.462  34.474  1.00  0.00    -0.207 OA
ATOM     10  O   UNL A   1      33.885  32.828  32.375  1.00  0.00    -0.207 OA
BRANCH   8  11
ATOM     11  C   UNL A   1      36.260  33.849  32.130  1.00  0.00     0.085 A 
ATOM     12  C   UNL A   1      36.245  33.490  30.777  1.00  0.00     0.025 A 
ATOM     13  C   UNL A   1      37.430  34.326  32.730  1.00  0.00     0.064 A 
ATOM     14  C   UNL A   1      37.402  33.646  30.007  1.00  0.00     0.044 A 
ATOM     15  C   UNL A   1      38.575  34.465  31.953  1.00  0.00     0.160 A 
ATOM     16  C   UNL A   1      38.560  34.139  30.601  1.00  0.00     0.158 A 
ATOM     17  F   UNL A   1      39.690  34.955  32.514  1.00  0.00    -0.204 F 
ATOM     18  F   UNL A   1      39.660  34.306  29.854  1.00  0.00    -0.204 F 
ENDBRANCH   8  11
ENDBRANCH   6   8
ENDBRANCH   5   6
ENDBRANCH   3   5
ENDBRANCH   2   3
ENDBRANCH   1   2
BRANCH   1  19
ATOM     19  C   UNL A   1      33.385  33.321  28.023  1.00  0.00     0.275 C 
BRANCH  19  20
ATOM     20  O   UNL A   1      34.588  32.558  27.817  1.00  0.00    -0.458 OA
BRANCH  20  21
ATOM     21  C   UNL A   1      34.457  31.212  27.949  1.00  0.00     0.338 C 
ATOM     22  O   UNL A   1      33.495  30.537  27.636  1.00  0.00    -0.246 OA
BRANCH  21  23
ATOM     23  C   UNL A   1      35.768  30.646  28.333  1.00  0.00     0.060 A 
ATOM     24  C   UNL A   1      35.854  29.955  29.546  1.00  0.00     0.016 A 
ATOM     25  C   UNL A   1      36.880  30.725  27.491  1.00  0.00     0.016 A 
ATOM     26  C   UNL A   1      37.058  29.360  29.926  1.00  0.00     0.010 A 
ATOM     27  C   UNL A   1      38.079  30.105  27.861  1.00  0.00     0.010 A 
ATOM     28  C   UNL A   1      38.187  29.443  29.096  1.00  0.00    -0.014 A 
BRANCH  28  29
ATOM     29  C   UNL A   1      39.498  28.946  29.592  1.00  0.00     0.031 A 
ATOM     30  C   UNL A   1      40.144  29.621  30.771  1.00  0.00     0.074 A 
ATOM     31  C   UNL A   1      40.086  27.868  29.039  1.00  0.00     0.049 A 
ATOM     32  N   UNL A   1      41.220  29.279  31.436  1.00  0.00    -0.248 NA
ATOM     33  C   UNL A   1      39.499  30.846  31.266  1.00  0.00     0.031 C 
ATOM     34  C   UNL A   1      39.578  27.130  27.886  1.00  0.00     0.029 A 
ATOM     35  N   UNL A   1      41.236  27.200  29.389  1.00  0.00    -0.354 N 
ATOM     36  C   UNL A   1      41.368  30.236  32.429  1.00  0.00     0.074 A 
ATOM     37  C   UNL A   1      40.313  31.207  32.245  1.00  0.00     0.031 C 
ATOM     38  C   UNL A   1      40.394  26.089  27.643  1.00  0.00     0.029 A 
ATOM     39  C   UNL A   1      41.493  26.099  28.610  1.00  0.00     0.049 A 
ATOM     40  H   UNL A   1      41.819  27.483  30.129  1.00  0.00     0.167 HD
ATOM     41  C   UNL A   1      42.282  30.287  33.426  1.00  0.00     0.037 A 
ATOM     42  C   UNL A   1      42.491  25.193  28.673  1.00  0.00     0.037 A 
ATOM     43  C   UNL A   1      43.331  29.321  33.619  1.00  0.00     0.049 A 
ATOM     44  C   UNL A   1      43.531  25.296  29.759  1.00  0.00     0.074 A 
ATOM     45  C   UNL A   1      44.276  29.271  34.628  1.00  0.00     0.029 A 
ATOM     46  N   UNL A   1      43.581  28.247  32.779  1.00  0.00    -0.354 N 
ATOM     47  N   UNL A   1      43.618  26.162  30.740  1.00  0.00    -0.248 NA
ATOM     48  C   UNL A   1      44.608  24.294  29.754  1.00  0.00     0.031 C 
ATOM     49  C   UNL A   1      45.137  28.203  34.366  1.00  0.00     0.029 A 
ATOM     50  C   UNL A   1      44.689  27.548  33.229  1.00  0.00     0.049 A 
ATOM     51  H   UNL A   1      43.051  28.015  31.983  1.00  0.00     0.167 HD
ATOM     52  C   UNL A   1      44.734  25.793  31.482  1.00  0.00     0.074 A 
ATOM     53  C   UNL A   1      45.296  24.623  30.842  1.00  0.00     0.031 C 
ATOM     54  C   UNL A   1      45.237  26.375  32.597  1.00  0.00     0.037 A 
BRANCH  41  55
ATOM     55  C   UNL A   1      42.193  31.429  34.395  1.00  0.00     0.064 A 
ATOM     56  C   UNL A   1      41.398  31.327  35.547  1.00  0.00     0.173 A 
ATOM     57  C   UNL A   1      42.847  32.647  34.155  1.00  0.00     0.173 A 
ATOM     58  F   UNL A   1      40.746  30.186  35.819  1.00  0.00    -0.203 F 
ATOM     59  C   UNL A   1      41.256  32.404  36.416  1.00  0.00     0.198 A 
ATOM     60  C   UNL A   1      42.728  33.712  35.044  1.00  0.00     0.198 A 
ATOM     61  F   UNL A   1      43.627  32.793  33.073  1.00  0.00    -0.203 F 
ATOM     62  F   UNL A   1      40.467  32.293  37.494  1.00  0.00    -0.200 F 
ATOM     63  C   UNL A   1      41.926  33.592  36.169  1.00  0.00     0.200 A 
ATOM     64  F   UNL A   1      43.398  34.850  34.816  1.00  0.00    -0.200 F 
ATOM     65  F   UNL A   1      41.801  34.623  37.016  1.00  0.00    -0.200 F 
ENDBRANCH  41  55
BRANCH  42  66
ATOM     66  C   UNL A   1      42.520  24.075  27.694  1.00  0.00     0.064 A 
ATOM     67  C   UNL A   1      42.053  22.796  28.031  1.00  0.00     0.173 A 
ATOM     68  C   UNL A   1      43.053  24.256  26.410  1.00  0.00     0.173 A 
ATOM     69  F   UNL A   1      41.528  22.573  29.245  1.00  0.00    -0.203 F 
ATOM     70  C   UNL A   1      42.146  21.735  27.134  1.00  0.00     0.198 A 
ATOM     71  C   UNL A   1      43.123  23.199  25.504  1.00  0.00     0.198 A 
ATOM     72  F   UNL A   1      43.487  25.467  26.030  1.00  0.00    -0.203 F 
ATOM     73  F   UNL A   1      41.726  20.514  27.496  1.00  0.00    -0.200 F 
ATOM     74  C   UNL A   1      42.681  21.937  25.871  1.00  0.00     0.200 A 
ATOM     75  F   UNL A   1      43.616  23.404  24.275  1.00  0.00    -0.200 F 
ATOM     76  F   UNL A   1      42.767  20.918  25.006  1.00  0.00    -0.200 F 
ENDBRANCH  42  66
BRANCH  54  77
ATOM     77  C   UNL A   1      46.449  25.763  33.242  1.00  0.00     0.064 A 
ATOM     78  C   UNL A   1      47.737  26.122  32.808  1.00  0.00     0.173 A 
ATOM     79  C   UNL A   1      46.338  24.725  34.176  1.00  0.00     0.173 A 
ATOM     80  F   UNL A   1      47.897  27.101  31.905  1.00  0.00    -0.203 F 
ATOM     81  C   UNL A   1      48.863  25.441  33.262  1.00  0.00     0.198 A 
ATOM     82  C   UNL A   1      47.470  24.063  34.649  1.00  0.00     0.198 A 
ATOM     83  F   UNL A   1      45.132  24.350  34.629  1.00  0.00    -0.203 F 
ATOM     84  F   UNL A   1      50.076  25.764  32.791  1.00  0.00    -0.200 F 
ATOM     85  C   UNL A   1      48.728  24.411  34.179  1.00  0.00     0.200 A 
ATOM     86  F   UNL A   1      47.341  23.080  35.549  1.00  0.00    -0.200 F 
ATOM     87  F   UNL A   1      49.812  23.749  34.609  1.00  0.00    -0.200 F 
ENDBRANCH  54  77
ENDBRANCH  28  29
ENDBRANCH  21  23
ENDBRANCH  20  21
ENDBRANCH  19  20
ENDBRANCH   1  19
TORSDOF 14
ENDMDL
MODEL 3
REMARK VINA RESULT:     -10.9      5.082     10.972
REMARK SMILES O=C(CNS(=O)(=O)c1ccc(F)c(F)c1)OCCOC(=O)c1ccc(-c2c3nc(c(-c4c(F)c(F)c(F)c(F)c4F)c4ccc([nH]4)c(-c4c(F)c(F)c(F)c(F)c4F)c4nc(c(-c5c(F)c(F)c(F)c(F)c5F)c5ccc2[nH]5)C=C4)C=C3)cc1
REMARK SMILES IDX 17 1 16 2 2 3 1 4 3 5 4 6 5 8 6 9 7 10 8 11 9 12 15 13 10 14
REMARK SMILES IDX 13 15 11 16 14 17 12 18 18 19 19 20 20 21 21 22 22 23 23 24
REMARK SMILES IDX 84 25 24 26 83 27 25 28 26 29 27 30 77 31 28 32 82 33 76 34
REMARK SMILES IDX 78 35 29 36 81 37 75 38 74 39 30 41 62 42 42 43 61 44 43 45
REMARK SMILES IDX 46 46 60 47 79 48 44 49 45 50 59 52 80 53 47 54 31 55 32 56
REMARK SMILES IDX 40 57 33 58 34 59 38 60 41 61 35 62 36 63 39 64 37 65 63 66
REMARK SMILES IDX 64 67 72 68 65 69 66 70 70 71 73 72 67 73 68 74 71 75 69 76
REMARK SMILES IDX 48 77 49 78 57 79 50 80 51 81 55 82 58 83 52 84 53 85 56 86
REMARK SMILES IDX 54 87
REMARK H PARENT 4 7 78 40 46 51
REMARK Flexibility Score: inf
ROOT
ATOM      1  C   UNL A   1      33.649  34.518  28.718  1.00  0.00     0.274 C 
ENDROOT
BRANCH   1   2
ATOM      2  O   UNL A   1      32.625  34.914  29.652  1.00  0.00    -0.461 OA
BRANCH   2   3
ATOM      3  C   UNL A   1      32.770  35.772  30.687  1.00  0.00     0.321 C 
ATOM      4  O   UNL A   1      32.902  36.976  30.463  1.00  0.00    -0.251 OA
BRANCH   3   5
ATOM      5  C   UNL A   1      32.832  35.254  32.104  1.00  0.00     0.221 C 
BRANCH   5   6
ATOM      6  N   UNL A   1      34.157  35.139  32.730  1.00  0.00    -0.200 NA
ATOM      7  H   UNL A   1      34.064  35.402  33.710  1.00  0.00     0.142 HD
BRANCH   6   8
ATOM      8  S   UNL A   1      34.864  33.605  32.667  1.00  0.00     0.241 S 
ATOM      9  O   UNL A   1      35.167  33.213  34.021  1.00  0.00    -0.207 OA
ATOM     10  O   UNL A   1      34.028  32.810  31.795  1.00  0.00    -0.207 OA
BRANCH   8  11
ATOM     11  C   UNL A   1      36.390  33.886  31.804  1.00  0.00     0.085 A 
ATOM     12  C   UNL A   1      37.498  34.397  32.492  1.00  0.00     0.025 A 
ATOM     13  C   UNL A   1      36.471  33.592  30.439  1.00  0.00     0.064 A 
ATOM     14  C   UNL A   1      38.709  34.578  31.817  1.00  0.00     0.044 A 
ATOM     15  C   UNL A   1      37.680  33.789  29.779  1.00  0.00     0.160 A 
ATOM     16  C   UNL A   1      38.793  34.266  30.463  1.00  0.00     0.158 A 
ATOM     17  F   UNL A   1      37.774  33.475  28.479  1.00  0.00    -0.204 F 
ATOM     18  F   UNL A   1      39.961  34.422  29.825  1.00  0.00    -0.204 F 
ENDBRANCH   8  11
ENDBRANCH   6   8
ENDBRANCH   5   6
ENDBRANCH   3   5
ENDBRANCH   2   3
ENDBRANCH   1   2
BRANCH   1  19
ATOM     19  C   UNL A   1      33.311  33.212  28.002  1.00  0.00     0.275 C 
BRANCH  19  20
ATOM     20  O   UNL A   1      34.507  32.466  27.717  1.00  0.00    -0.458 OA
BRANCH  20  21
ATOM     21  C   UNL A   1      34.405  31.119  27.860  1.00  0.00     0.338 C 
ATOM     22  O   UNL A   1      33.473  30.415  27.521  1.00  0.00    -0.246 OA
BRANCH  21  23
ATOM     23  C   UNL A   1      35.715  30.590  28.298  1.00  0.00     0.060 A 
ATOM     24  C   UNL A   1      35.776  29.925  29.528  1.00  0.00     0.016 A 
ATOM     25  C   UNL A   1      36.852  30.678  27.491  1.00  0.00     0.016 A 
ATOM     26  C   UNL A   1      36.981  29.366  29.958  1.00  0.00     0.010 A 
ATOM     27  C   UNL A   1      38.052  30.092  27.912  1.00  0.00     0.010 A 
ATOM     28  C   UNL A   1      38.134  29.458  29.163  1.00  0.00    -0.014 A 
BRANCH  28  29
ATOM     29  C   UNL A   1      39.439  29.001  29.711  1.00  0.00     0.031 A 
ATOM     30  C   UNL A   1      39.988  29.654  30.950  1.00  0.00     0.074 A 
ATOM     31  C   UNL A   1      40.107  27.975  29.150  1.00  0.00     0.049 A 
ATOM     32  N   UNL A   1      41.042  29.334  31.660  1.00  0.00    -0.248 NA
ATOM     33  C   UNL A   1      39.259  30.827  31.456  1.00  0.00     0.031 C 
ATOM     34  C   UNL A   1      39.697  27.263  27.942  1.00  0.00     0.029 A 
ATOM     35  N   UNL A   1      41.266  27.345  29.537  1.00  0.00    -0.354 N 
ATOM     36  C   UNL A   1      41.090  30.254  32.697  1.00  0.00     0.074 A 
ATOM     37  C   UNL A   1      40.002  31.184  32.492  1.00  0.00     0.031 C 
ATOM     38  C   UNL A   1      40.573  26.272  27.704  1.00  0.00     0.029 A 
ATOM     39  C   UNL A   1      41.617  26.291  28.730  1.00  0.00     0.049 A 
ATOM     40  H   UNL A   1      41.795  27.624  30.319  1.00  0.00     0.167 HD
ATOM     41  C   UNL A   1      41.946  30.306  33.744  1.00  0.00     0.037 A 
ATOM     42  C   UNL A   1      42.653  25.430  28.813  1.00  0.00     0.037 A 
ATOM     43  C   UNL A   1      43.028  29.381  33.956  1.00  0.00     0.049 A 
ATOM     44  C   UNL A   1      43.627  25.535  29.958  1.00  0.00     0.074 A 
ATOM     45  C   UNL A   1      43.919  29.331  35.014  1.00  0.00     0.029 A 
ATOM     46  N   UNL A   1      43.374  28.355  33.090  1.00  0.00    -0.354 N 
ATOM     47  N   UNL A   1      43.620  26.361  30.976  1.00  0.00    -0.248 NA
ATOM     48  C   UNL A   1      44.750  24.583  29.974  1.00  0.00     0.031 C 
ATOM     49  C   UNL A   1      44.842  28.316  34.758  1.00  0.00     0.029 A 
ATOM     50  C   UNL A   1      44.488  27.690  33.573  1.00  0.00     0.049 A 
ATOM     51  H   UNL A   1      42.899  28.134  32.258  1.00  0.00     0.167 HD
ATOM     52  C   UNL A   1      44.711  26.013  31.764  1.00  0.00     0.074 A 
ATOM     53  C   UNL A   1      45.361  24.898  31.110  1.00  0.00     0.031 C 
ATOM     54  C   UNL A   1      45.125  26.570  32.927  1.00  0.00     0.037 A 
BRANCH  41  55
ATOM     55  C   UNL A   1      41.751  31.401  34.751  1.00  0.00     0.064 A 
ATOM     56  C   UNL A   1      40.768  31.288  35.745  1.00  0.00     0.173 A 
ATOM     57  C   UNL A   1      42.496  32.589  34.696  1.00  0.00     0.173 A 
ATOM     58  F   UNL A   1      40.022  30.176  35.836  1.00  0.00    -0.203 F 
ATOM     59  C   UNL A   1      40.534  32.327  36.641  1.00  0.00     0.198 A 
ATOM     60  C   UNL A   1      42.281  33.612  35.614  1.00  0.00     0.198 A 
ATOM     61  F   UNL A   1      43.455  32.742  33.770  1.00  0.00    -0.203 F 
ATOM     62  F   UNL A   1      39.568  32.209  37.564  1.00  0.00    -0.200 F 
ATOM     63  C   UNL A   1      41.294  33.484  36.580  1.00  0.00     0.200 A 
ATOM     64  F   UNL A   1      43.036  34.719  35.570  1.00  0.00    -0.200 F 
ATOM     65  F   UNL A   1      41.079  34.476  37.455  1.00  0.00    -0.200 F 
ENDBRANCH  41  55
BRANCH  42  66
ATOM     66  C   UNL A   1      42.788  24.356  27.794  1.00  0.00     0.064 A 
ATOM     67  C   UNL A   1      42.382  23.040  28.061  1.00  0.00     0.173 A 
ATOM     68  C   UNL A   1      43.362  24.619  26.543  1.00  0.00     0.173 A 
ATOM     69  F   UNL A   1      41.821  22.738  29.241  1.00  0.00    -0.203 F 
ATOM     70  C   UNL A   1      42.575  22.023  27.129  1.00  0.00     0.198 A 
ATOM     71  C   UNL A   1      43.531  23.606  25.600  1.00  0.00     0.198 A 
ATOM     72  F   UNL A   1      43.740  25.867  26.229  1.00  0.00    -0.203 F 
ATOM     73  F   UNL A   1      42.212  20.767  27.424  1.00  0.00    -0.200 F 
ATOM     74  C   UNL A   1      43.149  22.307  25.899  1.00  0.00     0.200 A 
ATOM     75  F   UNL A   1      44.062  23.889  24.403  1.00  0.00    -0.200 F 
ATOM     76  F   UNL A   1      43.330  21.330  25.000  1.00  0.00    -0.200 F 
ENDBRANCH  42  66
BRANCH  54  77
ATOM     77  C   UNL A   1      46.329  25.987  33.613  1.00  0.00     0.064 A 
ATOM     78  C   UNL A   1      46.171  24.973  34.574  1.00  0.00     0.173 A 
ATOM     79  C   UNL A   1      47.609  26.525  33.431  1.00  0.00     0.173 A 
ATOM     80  F   UNL A   1      44.963  24.434  34.795  1.00  0.00    -0.203 F 
ATOM     81  C   UNL A   1      47.246  24.546  35.348  1.00  0.00     0.198 A 
ATOM     82  C   UNL A   1      48.689  26.075  34.189  1.00  0.00     0.198 A 
ATOM     83  F   UNL A   1      47.814  27.489  32.520  1.00  0.00    -0.203 F 
ATOM     84  F   UNL A   1      47.060  23.618  36.298  1.00  0.00    -0.200 F 
ATOM     85  C   UNL A   1      48.503  25.099  35.158  1.00  0.00     0.200 A 
ATOM     86  F   UNL A   1      49.907  26.597  33.993  1.00  0.00    -0.200 F 
ATOM     87  F   UNL A   1      49.535  24.694  35.911  1.00  0.00    -0.200 F 
ENDBRANCH  54  77
ENDBRANCH  28  29
ENDBRANCH  21  23
ENDBRANCH  20  21
ENDBRANCH  19  20
ENDBRANCH   1  19
TORSDOF 14
ENDMDL
