MODEL 1
REMARK VINA RESULT:     -12.9      0.000      0.000
REMARK SMILES CCOC(=O)[C@H]1CCCN(c2cc(C(=O)OCCOC(=O)c3ccc(-c4c5nc(c(-c6c(F)c(F)c(F)c(F)c6F)c6ccc([nH]6)c(-c6c(F)c(F)c(F)c(F)c6F)c6nc(c(-c7c(F)c(F)c(F)c(F)c7F)c7ccc4[nH]7)C=C6)C=C5)cc3)c3cc(NC(=O)c4ccc(Cl)cc4)ccc3n2)C1
REMARK SMILES IDX 17 1 16 2 14 3 15 4 13 5 11 6 12 7 101 8 100 9 85 10 99 11
REMARK SMILES IDX 86 12 98 13 87 14 10 15 6 16 7 17 102 18 8 19 9 20 4 21 5 22
REMARK SMILES IDX 3 23 2 24 1 25 88 26 89 27 90 29 91 30 92 31 97 32 93 33
REMARK SMILES IDX 96 34 94 35 95 36 18 37 19 38 20 39 21 40 22 41 23 42 84 43
REMARK SMILES IDX 24 44 83 45 25 46 26 47 27 48 77 49 28 50 82 51 76 52 78 53
REMARK SMILES IDX 29 54 81 55 75 56 74 57 30 59 62 60 42 61 61 62 43 63 46 64
REMARK SMILES IDX 60 65 79 66 44 67 45 68 59 70 80 71 47 72 31 73 32 74 40 75
REMARK SMILES IDX 33 76 34 77 38 78 41 79 35 80 36 81 39 82 37 83 63 84 64 85
REMARK SMILES IDX 72 86 65 87 66 88 70 89 73 90 67 91 68 92 71 93 69 94 48 95
REMARK SMILES IDX 49 96 57 97 50 98 51 99 55 100 58 101 52 102 53 103 56 104
REMARK SMILES IDX 54 105
REMARK H PARENT 88 28 78 58 46 69
REMARK Flexibility Score: inf
ROOT
ATOM      1  C   UNL A   1      31.795  29.477  27.566  1.00  0.00     0.275 C 
ENDROOT
BRANCH   1   2
ATOM      2  O   UNL A   1      32.721  28.436  27.195  1.00  0.00    -0.458 OA
BRANCH   2   3
ATOM      3  C   UNL A   1      32.159  27.249  26.863  1.00  0.00     0.339 C 
ATOM      4  O   UNL A   1      31.725  26.406  27.630  1.00  0.00    -0.246 OA
BRANCH   3   5
ATOM      5  C   UNL A   1      32.048  27.106  25.397  1.00  0.00     0.073 A 
ATOM      6  C   UNL A   1      30.656  27.411  23.470  1.00  0.00     0.130 A 
ATOM      7  C   UNL A   1      30.922  27.665  24.800  1.00  0.00     0.063 A 
ATOM      8  N   UNL A   1      31.430  26.567  22.760  1.00  0.00    -0.231 NA
ATOM      9  C   UNL A   1      32.517  26.011  23.334  1.00  0.00     0.074 A 
ATOM     10  C   UNL A   1      32.902  26.272  24.660  1.00  0.00     0.017 A 
ATOM     11  C   UNL A   1      33.284  25.111  22.605  1.00  0.00     0.031 A 
ATOM     12  C   UNL A   1      34.062  25.656  25.193  1.00  0.00     0.037 A 
ATOM     13  C   UNL A   1      34.393  24.455  23.162  1.00  0.00     0.028 A 
ATOM     14  C   UNL A   1      34.778  24.708  24.477  1.00  0.00     0.042 A 
BRANCH   6  15
ATOM     15  N   UNL A   1      29.520  27.941  22.907  1.00  0.00    -0.356 N 
ATOM     16  C   UNL A   1      28.560  30.119  22.334  1.00  0.00     0.118 C 
ATOM     17  C   UNL A   1      27.180  29.524  22.667  1.00  0.00     0.019 C 
ATOM     18  C   UNL A   1      29.568  29.032  21.937  1.00  0.00     0.133 C 
ATOM     19  C   UNL A   1      27.278  28.355  23.646  1.00  0.00     0.022 C 
ATOM     20  C   UNL A   1      28.246  27.286  23.134  1.00  0.00     0.118 C 
BRANCH  16  21
ATOM     21  C   UNL A   1      28.383  31.205  21.291  1.00  0.00     0.310 C 
ATOM     22  O   UNL A   1      27.705  31.047  20.284  1.00  0.00    -0.252 OA
BRANCH  21  23
ATOM     23  O   UNL A   1      29.023  32.359  21.613  1.00  0.00    -0.466 OA
BRANCH  23  24
ATOM     24  C   UNL A   1      28.488  33.054  22.750  1.00  0.00     0.229 C 
ATOM     25  C   UNL A   1      29.550  33.830  23.502  1.00  0.00     0.049 C 
ENDBRANCH  23  24
ENDBRANCH  21  23
ENDBRANCH  16  21
ENDBRANCH   6  15
BRANCH  14  26
ATOM     26  N   UNL A   1      35.890  24.017  24.983  1.00  0.00    -0.322 N 
ATOM     27  C   UNL A   1      36.066  22.743  25.478  1.00  0.00     0.255 C 
ATOM     28  H   UNL A   1      36.716  24.553  24.985  1.00  0.00     0.170 HD
ATOM     29  O   UNL A   1      37.085  22.495  26.124  1.00  0.00    -0.269 OA
BRANCH  27  30
ATOM     30  C   UNL A   1      35.130  21.621  25.221  1.00  0.00     0.040 A 
ATOM     31  C   UNL A   1      33.760  21.844  25.430  1.00  0.00     0.015 A 
ATOM     32  C   UNL A   1      35.576  20.337  24.878  1.00  0.00     0.015 A 
ATOM     33  C   UNL A   1      32.843  20.803  25.269  1.00  0.00     0.021 A 
ATOM     34  C   UNL A   1      34.653  19.303  24.689  1.00  0.00     0.021 A 
ATOM     35  C   UNL A   1      33.293  19.537  24.895  1.00  0.00     0.041 A 
ATOM     36  Cl  UNL A   1      32.156  18.272  24.632  1.00  0.00    -0.084 Cl
ENDBRANCH  27  30
ENDBRANCH  14  26
ENDBRANCH   3   5
ENDBRANCH   2   3
ENDBRANCH   1   2
BRANCH   1  37
ATOM     37  C   UNL A   1      31.956  30.707  26.670  1.00  0.00     0.275 C 
BRANCH  37  38
ATOM     38  O   UNL A   1      33.355  30.995  26.532  1.00  0.00    -0.458 OA
BRANCH  38  39
ATOM     39  C   UNL A   1      33.802  31.943  27.377  1.00  0.00     0.338 C 
ATOM     40  O   UNL A   1      33.165  32.839  27.912  1.00  0.00    -0.246 OA
BRANCH  39  41
ATOM     41  C   UNL A   1      35.135  31.539  27.827  1.00  0.00     0.060 A 
ATOM     42  C   UNL A   1      35.330  30.173  27.997  1.00  0.00     0.016 A 
ATOM     43  C   UNL A   1      36.135  32.447  28.152  1.00  0.00     0.016 A 
ATOM     44  C   UNL A   1      36.483  29.698  28.595  1.00  0.00     0.010 A 
ATOM     45  C   UNL A   1      37.321  31.964  28.719  1.00  0.00     0.010 A 
ATOM     46  C   UNL A   1      37.474  30.591  29.006  1.00  0.00    -0.014 A 
BRANCH  46  47
ATOM     47  C   UNL A   1      38.554  30.106  29.908  1.00  0.00     0.031 A 
ATOM     48  C   UNL A   1      39.548  29.107  29.366  1.00  0.00     0.074 A 
ATOM     49  C   UNL A   1      38.727  30.631  31.138  1.00  0.00     0.049 A 
ATOM     50  N   UNL A   1      40.496  28.448  29.984  1.00  0.00    -0.248 NA
ATOM     51  C   UNL A   1      39.472  28.817  27.922  1.00  0.00     0.031 C 
ATOM     52  C   UNL A   1      37.900  31.678  31.739  1.00  0.00     0.029 A 
ATOM     53  N   UNL A   1      39.672  30.366  32.098  1.00  0.00    -0.354 N 
ATOM     54  C   UNL A   1      41.123  27.682  29.008  1.00  0.00     0.074 A 
ATOM     55  C   UNL A   1      40.398  27.882  27.775  1.00  0.00     0.031 C 
ATOM     56  C   UNL A   1      38.381  31.976  32.956  1.00  0.00     0.029 A 
ATOM     57  C   UNL A   1      39.496  31.082  33.257  1.00  0.00     0.049 A 
ATOM     58  H   UNL A   1      40.407  29.724  31.968  1.00  0.00     0.167 HD
ATOM     59  C   UNL A   1      42.256  26.948  29.111  1.00  0.00     0.037 A 
ATOM     60  C   UNL A   1      40.124  30.988  34.445  1.00  0.00     0.037 A 
ATOM     61  C   UNL A   1      43.025  26.823  30.320  1.00  0.00     0.049 A 
ATOM     62  C   UNL A   1      41.229  29.978  34.600  1.00  0.00     0.074 A 
ATOM     63  C   UNL A   1      44.188  26.105  30.533  1.00  0.00     0.029 A 
ATOM     64  N   UNL A   1      42.717  27.453  31.518  1.00  0.00    -0.354 N 
ATOM     65  N   UNL A   1      41.775  29.201  33.696  1.00  0.00    -0.248 NA
ATOM     66  C   UNL A   1      41.790  29.811  35.949  1.00  0.00     0.031 C 
ATOM     67  C   UNL A   1      44.555  26.258  31.874  1.00  0.00     0.029 A 
ATOM     68  C   UNL A   1      43.644  27.102  32.487  1.00  0.00     0.049 A 
ATOM     69  H   UNL A   1      41.954  28.058  31.660  1.00  0.00     0.167 HD
ATOM     70  C   UNL A   1      42.759  28.477  34.354  1.00  0.00     0.074 A 
ATOM     71  C   UNL A   1      42.739  28.910  35.737  1.00  0.00     0.031 C 
ATOM     72  C   UNL A   1      43.604  27.540  33.859  1.00  0.00     0.037 A 
BRANCH  59  73
ATOM     73  C   UNL A   1      42.743  26.240  27.880  1.00  0.00     0.064 A 
ATOM     74  C   UNL A   1      43.642  26.845  26.989  1.00  0.00     0.173 A 
ATOM     75  C   UNL A   1      42.340  24.926  27.607  1.00  0.00     0.173 A 
ATOM     76  F   UNL A   1      44.046  28.107  27.189  1.00  0.00    -0.203 F 
ATOM     77  C   UNL A   1      44.107  26.170  25.863  1.00  0.00     0.198 A 
ATOM     78  C   UNL A   1      42.823  24.244  26.492  1.00  0.00     0.198 A 
ATOM     79  F   UNL A   1      41.482  24.298  28.426  1.00  0.00    -0.203 F 
ATOM     80  F   UNL A   1      44.935  26.786  25.010  1.00  0.00    -0.200 F 
ATOM     81  C   UNL A   1      43.702  24.868  25.619  1.00  0.00     0.200 A 
ATOM     82  F   UNL A   1      42.436  22.982  26.261  1.00  0.00    -0.200 F 
ATOM     83  F   UNL A   1      44.153  24.216  24.539  1.00  0.00    -0.200 F 
ENDBRANCH  59  73
BRANCH  60  84
ATOM     84  C   UNL A   1      39.655  31.797  35.605  1.00  0.00     0.064 A 
ATOM     85  C   UNL A   1      38.600  31.372  36.423  1.00  0.00     0.173 A 
ATOM     86  C   UNL A   1      40.241  33.039  35.900  1.00  0.00     0.173 A 
ATOM     87  F   UNL A   1      37.976  30.213  36.167  1.00  0.00    -0.203 F 
ATOM     88  C   UNL A   1      38.147  32.159  37.483  1.00  0.00     0.198 A 
ATOM     89  C   UNL A   1      39.814  33.807  36.979  1.00  0.00     0.198 A 
ATOM     90  F   UNL A   1      41.244  33.507  35.140  1.00  0.00    -0.203 F 
ATOM     91  F   UNL A   1      37.104  31.751  38.220  1.00  0.00    -0.200 F 
ATOM     92  C   UNL A   1      38.760  33.370  37.766  1.00  0.00     0.200 A 
ATOM     93  F   UNL A   1      40.419  34.970  37.253  1.00  0.00    -0.200 F 
ATOM     94  F   UNL A   1      38.330  34.121  38.788  1.00  0.00    -0.200 F 
ENDBRANCH  60  84
BRANCH  72  95
ATOM     95  C   UNL A   1      44.592  26.940  34.817  1.00  0.00     0.064 A 
ATOM     96  C   UNL A   1      45.818  27.563  35.088  1.00  0.00     0.173 A 
ATOM     97  C   UNL A   1      44.298  25.744  35.490  1.00  0.00     0.173 A 
ATOM     98  F   UNL A   1      46.154  28.698  34.455  1.00  0.00    -0.203 F 
ATOM     99  C   UNL A   1      46.726  26.997  35.978  1.00  0.00     0.198 A 
ATOM    100  C   UNL A   1      45.194  25.199  36.405  1.00  0.00     0.198 A 
ATOM    101  F   UNL A   1      43.135  25.112  35.272  1.00  0.00    -0.203 F 
ATOM    102  F   UNL A   1      47.914  27.583  36.184  1.00  0.00    -0.200 F 
ATOM    103  C   UNL A   1      46.411  25.820  36.642  1.00  0.00     0.200 A 
ATOM    104  F   UNL A   1      44.880  24.071  37.055  1.00  0.00    -0.200 F 
ATOM    105  F   UNL A   1      47.283  25.281  37.504  1.00  0.00    -0.200 F 
ENDBRANCH  72  95
ENDBRANCH  46  47
ENDBRANCH  39  41
ENDBRANCH  38  39
ENDBRANCH  37  38
ENDBRANCH   1  37
TORSDOF 17
ENDMDL
MODEL 2
REMARK VINA RESULT:     -12.7      2.683      7.259
REMARK SMILES CCOC(=O)[C@H]1CCCN(c2cc(C(=O)OCCOC(=O)c3ccc(-c4c5nc(c(-c6c(F)c(F)c(F)c(F)c6F)c6ccc([nH]6)c(-c6c(F)c(F)c(F)c(F)c6F)c6nc(c(-c7c(F)c(F)c(F)c(F)c7F)c7ccc4[nH]7)C=C6)C=C5)cc3)c3cc(NC(=O)c4ccc(Cl)cc4)ccc3n2)C1
REMARK SMILES IDX 17 1 16 2 14 3 15 4 13 5 11 6 12 7 101 8 100 9 85 10 99 11
REMARK SMILES IDX 86 12 98 13 87 14 10 15 6 16 7 17 102 18 8 19 9 20 4 21 5 22
REMARK SMILES IDX 3 23 2 24 1 25 88 26 89 27 90 29 91 30 92 31 97 32 93 33
REMARK SMILES IDX 96 34 94 35 95 36 18 37 19 38 20 39 21 40 22 41 23 42 84 43
REMARK SMILES IDX 24 44 83 45 25 46 26 47 27 48 77 49 28 50 82 51 76 52 78 53
REMARK SMILES IDX 29 54 81 55 75 56 74 57 30 59 62 60 42 61 61 62 43 63 46 64
REMARK SMILES IDX 60 65 79 66 44 67 45 68 59 70 80 71 47 72 31 73 32 74 40 75
REMARK SMILES IDX 33 76 34 77 38 78 41 79 35 80 36 81 39 82 37 83 63 84 64 85
REMARK SMILES IDX 72 86 65 87 66 88 70 89 73 90 67 91 68 92 71 93 69 94 48 95
REMARK SMILES IDX 49 96 57 97 50 98 51 99 55 100 58 101 52 102 53 103 56 104
REMARK SMILES IDX 54 105
REMARK H PARENT 88 28 78 58 46 69
REMARK Flexibility Score: inf
ROOT
ATOM      1  C   UNL A   1      33.367  29.848  26.373  1.00  0.00     0.275 C 
ENDROOT
BRANCH   1   2
ATOM      2  O   UNL A   1      33.436  28.580  27.055  1.00  0.00    -0.458 OA
BRANCH   2   3
ATOM      3  C   UNL A   1      32.351  27.782  26.910  1.00  0.00     0.339 C 
ATOM      4  O   UNL A   1      31.590  27.416  27.790  1.00  0.00    -0.246 OA
BRANCH   3   5
ATOM      5  C   UNL A   1      32.126  27.445  25.490  1.00  0.00     0.073 A 
ATOM      6  C   UNL A   1      30.589  27.507  23.651  1.00  0.00     0.130 A 
ATOM      7  C   UNL A   1      30.958  27.934  24.911  1.00  0.00     0.063 A 
ATOM      8  N   UNL A   1      31.304  26.566  23.004  1.00  0.00    -0.231 NA
ATOM      9  C   UNL A   1      32.431  26.078  23.563  1.00  0.00     0.074 A 
ATOM     10  C   UNL A   1      32.918  26.508  24.808  1.00  0.00     0.017 A 
ATOM     11  C   UNL A   1      33.136  25.078  22.905  1.00  0.00     0.031 A 
ATOM     12  C   UNL A   1      34.114  25.954  25.329  1.00  0.00     0.037 A 
ATOM     13  C   UNL A   1      34.283  24.488  23.458  1.00  0.00     0.028 A 
ATOM     14  C   UNL A   1      34.770  24.910  24.694  1.00  0.00     0.042 A 
BRANCH   6  15
ATOM     15  N   UNL A   1      29.414  27.972  23.111  1.00  0.00    -0.356 N 
ATOM     16  C   UNL A   1      28.307  30.093  22.591  1.00  0.00     0.118 C 
ATOM     17  C   UNL A   1      26.973  29.402  22.926  1.00  0.00     0.019 C 
ATOM     18  C   UNL A   1      29.379  29.082  22.162  1.00  0.00     0.133 C 
ATOM     19  C   UNL A   1      27.159  28.223  23.881  1.00  0.00     0.022 C 
ATOM     20  C   UNL A   1      28.189  27.231  23.338  1.00  0.00     0.118 C 
BRANCH  16  21
ATOM     21  C   UNL A   1      28.046  31.185  21.571  1.00  0.00     0.310 C 
ATOM     22  O   UNL A   1      27.841  30.945  20.388  1.00  0.00    -0.252 OA
BRANCH  21  23
ATOM     23  O   UNL A   1      28.035  32.428  22.118  1.00  0.00    -0.466 OA
BRANCH  23  24
ATOM     24  C   UNL A   1      28.785  32.565  23.333  1.00  0.00     0.229 C 
ATOM     25  C   UNL A   1      29.484  33.906  23.431  1.00  0.00     0.049 C 
ENDBRANCH  23  24
ENDBRANCH  21  23
ENDBRANCH  16  21
ENDBRANCH   6  15
BRANCH  14  26
ATOM     26  N   UNL A   1      35.916  24.278  25.201  1.00  0.00    -0.322 N 
ATOM     27  C   UNL A   1      36.138  23.050  25.786  1.00  0.00     0.255 C 
ATOM     28  H   UNL A   1      36.731  24.826  25.124  1.00  0.00     0.170 HD
ATOM     29  O   UNL A   1      37.189  22.870  26.403  1.00  0.00    -0.269 OA
BRANCH  27  30
ATOM     30  C   UNL A   1      35.213  21.897  25.660  1.00  0.00     0.040 A 
ATOM     31  C   UNL A   1      35.665  20.760  24.974  1.00  0.00     0.015 A 
ATOM     32  C   UNL A   1      33.886  21.950  26.111  1.00  0.00     0.015 A 
ATOM     33  C   UNL A   1      34.811  19.674  24.767  1.00  0.00     0.021 A 
ATOM     34  C   UNL A   1      33.041  20.849  25.929  1.00  0.00     0.021 A 
ATOM     35  C   UNL A   1      33.503  19.722  25.250  1.00  0.00     0.041 A 
ATOM     36  Cl  UNL A   1      32.473  18.358  25.053  1.00  0.00    -0.084 Cl
ENDBRANCH  27  30
ENDBRANCH  14  26
ENDBRANCH   3   5
ENDBRANCH   2   3
ENDBRANCH   1   2
BRANCH   1  37
ATOM     37  C   UNL A   1      33.334  31.011  27.366  1.00  0.00     0.275 C 
BRANCH  37  38
ATOM     38  O   UNL A   1      34.663  31.537  27.502  1.00  0.00    -0.458 OA
BRANCH  38  39
ATOM     39  C   UNL A   1      35.134  31.509  28.764  1.00  0.00     0.338 C 
ATOM     40  O   UNL A   1      34.572  31.870  29.788  1.00  0.00    -0.246 OA
BRANCH  39  41
ATOM     41  C   UNL A   1      36.326  30.661  28.770  1.00  0.00     0.060 A 
ATOM     42  C   UNL A   1      36.629  30.047  29.981  1.00  0.00     0.016 A 
ATOM     43  C   UNL A   1      37.168  30.525  27.673  1.00  0.00     0.016 A 
ATOM     44  C   UNL A   1      37.829  29.382  30.149  1.00  0.00     0.010 A 
ATOM     45  C   UNL A   1      38.365  29.815  27.830  1.00  0.00     0.010 A 
ATOM     46  C   UNL A   1      38.734  29.295  29.088  1.00  0.00    -0.014 A 
BRANCH  46  47
ATOM     47  C   UNL A   1      40.127  28.850  29.363  1.00  0.00     0.031 A 
ATOM     48  C   UNL A   1      41.005  29.726  30.225  1.00  0.00     0.074 A 
ATOM     49  C   UNL A   1      40.567  27.640  28.964  1.00  0.00     0.049 A 
ATOM     50  N   UNL A   1      42.279  29.619  30.505  1.00  0.00    -0.248 NA
ATOM     51  C   UNL A   1      40.352  30.879  30.873  1.00  0.00     0.031 C 
ATOM     52  C   UNL A   1      39.783  26.655  28.215  1.00  0.00     0.029 A 
ATOM     53  N   UNL A   1      41.779  27.023  29.150  1.00  0.00    -0.354 N 
ATOM     54  C   UNL A   1      42.570  30.677  31.358  1.00  0.00     0.074 A 
ATOM     55  C   UNL A   1      41.369  31.469  31.482  1.00  0.00     0.031 C 
ATOM     56  C   UNL A   1      40.527  25.556  28.020  1.00  0.00     0.029 A 
ATOM     57  C   UNL A   1      41.867  25.789  28.551  1.00  0.00     0.049 A 
ATOM     58  H   UNL A   1      42.516  27.426  29.664  1.00  0.00     0.167 HD
ATOM     59  C   UNL A   1      43.710  30.915  32.048  1.00  0.00     0.037 A 
ATOM     60  C   UNL A   1      42.923  24.967  28.398  1.00  0.00     0.037 A 
ATOM     61  C   UNL A   1      44.874  30.072  31.991  1.00  0.00     0.049 A 
ATOM     62  C   UNL A   1      44.251  25.382  28.972  1.00  0.00     0.074 A 
ATOM     63  C   UNL A   1      46.081  30.222  32.649  1.00  0.00     0.029 A 
ATOM     64  N   UNL A   1      44.967  28.906  31.244  1.00  0.00    -0.354 N 
ATOM     65  N   UNL A   1      44.545  26.419  29.719  1.00  0.00    -0.248 NA
ATOM     66  C   UNL A   1      45.405  24.525  28.661  1.00  0.00     0.031 C 
ATOM     67  C   UNL A   1      46.923  29.175  32.260  1.00  0.00     0.029 A 
ATOM     68  C   UNL A   1      46.228  28.351  31.391  1.00  0.00     0.049 A 
ATOM     69  H   UNL A   1      44.244  28.529  30.692  1.00  0.00     0.167 HD
ATOM     70  C   UNL A   1      45.902  26.327  29.991  1.00  0.00     0.074 A 
ATOM     71  C   UNL A   1      46.377  25.127  29.332  1.00  0.00     0.031 C 
ATOM     72  C   UNL A   1      46.684  27.158  30.722  1.00  0.00     0.037 A 
BRANCH  59  73
ATOM     73  C   UNL A   1      43.747  32.122  32.939  1.00  0.00     0.064 A 
ATOM     74  C   UNL A   1      43.410  32.046  34.299  1.00  0.00     0.173 A 
ATOM     75  C   UNL A   1      44.164  33.364  32.440  1.00  0.00     0.173 A 
ATOM     76  F   UNL A   1      42.986  30.889  34.826  1.00  0.00    -0.203 F 
ATOM     77  C   UNL A   1      43.472  33.168  35.123  1.00  0.00     0.198 A 
ATOM     78  C   UNL A   1      44.246  34.481  33.270  1.00  0.00     0.198 A 
ATOM     79  F   UNL A   1      44.498  33.495  31.148  1.00  0.00    -0.203 F 
ATOM     80  F   UNL A   1      43.109  33.072  36.408  1.00  0.00    -0.200 F 
ATOM     81  C   UNL A   1      43.897  34.382  34.609  1.00  0.00     0.200 A 
ATOM     82  F   UNL A   1      44.663  35.653  32.774  1.00  0.00    -0.200 F 
ATOM     83  F   UNL A   1      43.962  35.460  35.402  1.00  0.00    -0.200 F 
ENDBRANCH  59  73
BRANCH  60  84
ATOM     84  C   UNL A   1      42.793  23.726  27.583  1.00  0.00     0.064 A 
ATOM     85  C   UNL A   1      42.408  22.506  28.154  1.00  0.00     0.173 A 
ATOM     86  C   UNL A   1      43.087  23.733  26.210  1.00  0.00     0.173 A 
ATOM     87  F   UNL A   1      42.151  22.430  29.468  1.00  0.00    -0.203 F 
ATOM     88  C   UNL A   1      42.327  21.344  27.385  1.00  0.00     0.198 A 
ATOM     89  C   UNL A   1      42.972  22.582  25.436  1.00  0.00     0.198 A 
ATOM     90  F   UNL A   1      43.480  24.868  25.612  1.00  0.00    -0.203 F 
ATOM     91  F   UNL A   1      42.002  20.181  27.966  1.00  0.00    -0.200 F 
ATOM     92  C   UNL A   1      42.599  21.385  26.026  1.00  0.00     0.200 A 
ATOM     93  F   UNL A   1      43.226  22.632  24.122  1.00  0.00    -0.200 F 
ATOM     94  F   UNL A   1      42.515  20.271  25.288  1.00  0.00    -0.200 F 
ENDBRANCH  60  84
BRANCH  72  95
ATOM     95  C   UNL A   1      48.129  26.782  30.865  1.00  0.00     0.064 A 
ATOM     96  C   UNL A   1      49.112  27.322  30.023  1.00  0.00     0.173 A 
ATOM     97  C   UNL A   1      48.540  25.894  31.872  1.00  0.00     0.173 A 
ATOM     98  F   UNL A   1      48.767  28.161  29.034  1.00  0.00    -0.203 F 
ATOM     99  C   UNL A   1      50.450  26.966  30.166  1.00  0.00     0.198 A 
ATOM    100  C   UNL A   1      49.883  25.567  32.033  1.00  0.00     0.198 A 
ATOM    101  F   UNL A   1      47.641  25.356  32.708  1.00  0.00    -0.203 F 
ATOM    102  F   UNL A   1      51.366  27.454  29.317  1.00  0.00    -0.200 F 
ATOM    103  C   UNL A   1      50.836  26.095  31.175  1.00  0.00     0.200 A 
ATOM    104  F   UNL A   1      50.255  24.737  33.016  1.00  0.00    -0.200 F 
ATOM    105  F   UNL A   1      52.125  25.759  31.315  1.00  0.00    -0.200 F 
ENDBRANCH  72  95
ENDBRANCH  46  47
ENDBRANCH  39  41
ENDBRANCH  38  39
ENDBRANCH  37  38
ENDBRANCH   1  37
TORSDOF 17
ENDMDL
MODEL 3
REMARK VINA RESULT:     -12.6      1.302      2.045
REMARK SMILES CCOC(=O)[C@H]1CCCN(c2cc(C(=O)OCCOC(=O)c3ccc(-c4c5nc(c(-c6c(F)c(F)c(F)c(F)c6F)c6ccc([nH]6)c(-c6c(F)c(F)c(F)c(F)c6F)c6nc(c(-c7c(F)c(F)c(F)c(F)c7F)c7ccc4[nH]7)C=C6)C=C5)cc3)c3cc(NC(=O)c4ccc(Cl)cc4)ccc3n2)C1
REMARK SMILES IDX 17 1 16 2 14 3 15 4 13 5 11 6 12 7 101 8 100 9 85 10 99 11
REMARK SMILES IDX 86 12 98 13 87 14 10 15 6 16 7 17 102 18 8 19 9 20 4 21 5 22
REMARK SMILES IDX 3 23 2 24 1 25 88 26 89 27 90 29 91 30 92 31 97 32 93 33
REMARK SMILES IDX 96 34 94 35 95 36 18 37 19 38 20 39 21 40 22 41 23 42 84 43
REMARK SMILES IDX 24 44 83 45 25 46 26 47 27 48 77 49 28 50 82 51 76 52 78 53
REMARK SMILES IDX 29 54 81 55 75 56 74 57 30 59 62 60 42 61 61 62 43 63 46 64
REMARK SMILES IDX 60 65 79 66 44 67 45 68 59 70 80 71 47 72 31 73 32 74 40 75
REMARK SMILES IDX 33 76 34 77 38 78 41 79 35 80 36 81 39 82 37 83 63 84 64 85
REMARK SMILES IDX 72 86 65 87 66 88 70 89 73 90 67 91 68 92 71 93 69 94 48 95
REMARK SMILES IDX 49 96 57 97 50 98 51 99 55 100 58 101 52 102 53 103 56 104
REMARK SMILES IDX 54 105
REMARK H PARENT 88 28 78 58 46 69
REMARK Flexibility Score: inf
ROOT
ATOM      1  C   UNL A   1      33.494  30.028  26.475  1.00  0.00     0.275 C 
ENDROOT
BRANCH   1   2
ATOM      2  O   UNL A   1      33.511  28.743  27.127  1.00  0.00    -0.458 OA
BRANCH   2   3
ATOM      3  C   UNL A   1      32.392  27.995  26.970  1.00  0.00     0.339 C 
ATOM      4  O   UNL A   1      31.582  27.702  27.833  1.00  0.00    -0.246 OA
BRANCH   3   5
ATOM      5  C   UNL A   1      32.203  27.616  25.555  1.00  0.00     0.073 A 
ATOM      6  C   UNL A   1      30.721  27.645  23.671  1.00  0.00     0.130 A 
ATOM      7  C   UNL A   1      31.061  28.106  24.927  1.00  0.00     0.063 A 
ATOM      8  N   UNL A   1      31.436  26.670  23.077  1.00  0.00    -0.231 NA
ATOM      9  C   UNL A   1      32.537  26.181  23.684  1.00  0.00     0.074 A 
ATOM     10  C   UNL A   1      32.996  26.643  24.928  1.00  0.00     0.017 A 
ATOM     11  C   UNL A   1      33.242  25.147  23.080  1.00  0.00     0.031 A 
ATOM     12  C   UNL A   1      34.165  26.085  25.502  1.00  0.00     0.037 A 
ATOM     13  C   UNL A   1      34.360  24.555  23.686  1.00  0.00     0.028 A 
ATOM     14  C   UNL A   1      34.819  25.009  24.920  1.00  0.00     0.042 A 
BRANCH   6  15
ATOM     15  N   UNL A   1      29.571  28.113  23.081  1.00  0.00    -0.356 N 
ATOM     16  C   UNL A   1      28.530  30.234  22.440  1.00  0.00     0.118 C 
ATOM     17  C   UNL A   1      27.172  29.592  22.773  1.00  0.00     0.019 C 
ATOM     18  C   UNL A   1      29.586  29.179  22.083  1.00  0.00     0.133 C 
ATOM     19  C   UNL A   1      27.306  28.453  23.784  1.00  0.00     0.022 C 
ATOM     20  C   UNL A   1      28.322  27.413  23.312  1.00  0.00     0.118 C 
BRANCH  16  21
ATOM     21  C   UNL A   1      28.321  31.284  21.366  1.00  0.00     0.310 C 
ATOM     22  O   UNL A   1      27.600  31.098  20.394  1.00  0.00    -0.252 OA
BRANCH  21  23
ATOM     23  O   UNL A   1      28.988  32.440  21.619  1.00  0.00    -0.466 OA
BRANCH  23  24
ATOM     24  C   UNL A   1      28.501  33.189  22.743  1.00  0.00     0.229 C 
ATOM     25  C   UNL A   1      29.620  33.852  23.520  1.00  0.00     0.049 C 
ENDBRANCH  23  24
ENDBRANCH  21  23
ENDBRANCH  16  21
ENDBRANCH   6  15
BRANCH  14  26
ATOM     26  N   UNL A   1      35.939  24.373  25.482  1.00  0.00    -0.322 N 
ATOM     27  C   UNL A   1      36.130  23.143  26.072  1.00  0.00     0.255 C 
ATOM     28  H   UNL A   1      36.756  24.920  25.447  1.00  0.00     0.170 HD
ATOM     29  O   UNL A   1      37.148  22.958  26.740  1.00  0.00    -0.269 OA
BRANCH  27  30
ATOM     30  C   UNL A   1      35.210  21.992  25.896  1.00  0.00     0.040 A 
ATOM     31  C   UNL A   1      35.500  21.065  24.883  1.00  0.00     0.015 A 
ATOM     32  C   UNL A   1      34.025  21.861  26.634  1.00  0.00     0.015 A 
ATOM     33  C   UNL A   1      34.630  20.001  24.629  1.00  0.00     0.021 A 
ATOM     34  C   UNL A   1      33.170  20.778  26.398  1.00  0.00     0.021 A 
ATOM     35  C   UNL A   1      33.471  19.860  25.392  1.00  0.00     0.041 A 
ATOM     36  Cl  UNL A   1      32.435  18.513  25.124  1.00  0.00    -0.084 Cl
ENDBRANCH  27  30
ENDBRANCH  14  26
ENDBRANCH   3   5
ENDBRANCH   2   3
ENDBRANCH   1   2
BRANCH   1  37
ATOM     37  C   UNL A   1      33.020  31.127  27.427  1.00  0.00     0.275 C 
BRANCH  37  38
ATOM     38  O   UNL A   1      33.547  32.384  26.976  1.00  0.00    -0.458 OA
BRANCH  38  39
ATOM     39  C   UNL A   1      33.438  33.377  27.880  1.00  0.00     0.338 C 
ATOM     40  O   UNL A   1      32.501  34.143  28.052  1.00  0.00    -0.246 OA
BRANCH  39  41
ATOM     41  C   UNL A   1      34.503  33.192  28.867  1.00  0.00     0.060 A 
ATOM     42  C   UNL A   1      35.796  33.443  28.420  1.00  0.00     0.016 A 
ATOM     43  C   UNL A   1      34.274  32.715  30.152  1.00  0.00     0.016 A 
ATOM     44  C   UNL A   1      36.885  33.119  29.207  1.00  0.00     0.010 A 
ATOM     45  C   UNL A   1      35.376  32.426  30.966  1.00  0.00     0.010 A 
ATOM     46  C   UNL A   1      36.690  32.564  30.474  1.00  0.00    -0.014 A 
BRANCH  46  47
ATOM     47  C   UNL A   1      37.848  31.947  31.177  1.00  0.00     0.031 A 
ATOM     48  C   UNL A   1      38.611  30.847  30.478  1.00  0.00     0.074 A 
ATOM     49  C   UNL A   1      38.293  32.434  32.352  1.00  0.00     0.049 A 
ATOM     50  N   UNL A   1      39.570  30.077  30.926  1.00  0.00    -0.248 NA
ATOM     51  C   UNL A   1      38.250  30.585  29.072  1.00  0.00     0.031 C 
ATOM     52  C   UNL A   1      37.709  33.562  33.081  1.00  0.00     0.029 A 
ATOM     53  N   UNL A   1      39.355  32.051  33.134  1.00  0.00    -0.354 N 
ATOM     54  C   UNL A   1      39.924  29.255  29.862  1.00  0.00     0.074 A 
ATOM     55  C   UNL A   1      39.023  29.551  28.774  1.00  0.00     0.031 C 
ATOM     56  C   UNL A   1      38.427  33.789  34.192  1.00  0.00     0.029 A 
ATOM     57  C   UNL A   1      39.467  32.770  34.300  1.00  0.00     0.049 A 
ATOM     58  H   UNL A   1      39.977  31.331  32.884  1.00  0.00     0.167 HD
ATOM     59  C   UNL A   1      40.965  28.395  29.772  1.00  0.00     0.037 A 
ATOM     60  C   UNL A   1      40.278  32.590  35.361  1.00  0.00     0.037 A 
ATOM     61  C   UNL A   1      41.915  28.169  30.828  1.00  0.00     0.049 A 
ATOM     62  C   UNL A   1      41.270  31.458  35.329  1.00  0.00     0.074 A 
ATOM     63  C   UNL A   1      43.006  27.320  30.840  1.00  0.00     0.029 A 
ATOM     64  N   UNL A   1      41.896  28.815  32.056  1.00  0.00    -0.354 N 
ATOM     65  N   UNL A   1      41.557  30.634  34.350  1.00  0.00    -0.248 NA
ATOM     66  C   UNL A   1      42.035  31.212  36.560  1.00  0.00     0.031 C 
ATOM     67  C   UNL A   1      43.618  27.413  32.095  1.00  0.00     0.029 A 
ATOM     68  C   UNL A   1      42.931  28.350  32.850  1.00  0.00     0.049 A 
ATOM     69  H   UNL A   1      41.244  29.502  32.324  1.00  0.00     0.167 HD
ATOM     70  C   UNL A   1      42.551  29.795  34.832  1.00  0.00     0.074 A 
ATOM     71  C   UNL A   1      42.822  30.211  36.193  1.00  0.00     0.031 C 
ATOM     72  C   UNL A   1      43.182  28.773  34.205  1.00  0.00     0.037 A 
BRANCH  59  73
ATOM     73  C   UNL A   1      41.145  27.650  28.480  1.00  0.00     0.064 A 
ATOM     74  C   UNL A   1      41.995  28.123  27.469  1.00  0.00     0.173 A 
ATOM     75  C   UNL A   1      40.493  26.428  28.265  1.00  0.00     0.173 A 
ATOM     76  F   UNL A   1      42.628  29.295  27.611  1.00  0.00    -0.203 F 
ATOM     77  C   UNL A   1      42.173  27.411  26.285  1.00  0.00     0.198 A 
ATOM     78  C   UNL A   1      40.689  25.707  27.090  1.00  0.00     0.198 A 
ATOM     79  F   UNL A   1      39.669  25.929  29.199  1.00  0.00    -0.203 F 
ATOM     80  F   UNL A   1      42.962  27.905  25.321  1.00  0.00    -0.200 F 
ATOM     81  C   UNL A   1      41.526  26.200  26.099  1.00  0.00     0.200 A 
ATOM     82  F   UNL A   1      40.068  24.533  26.914  1.00  0.00    -0.200 F 
ATOM     83  F   UNL A   1      41.701  25.513  24.963  1.00  0.00    -0.200 F 
ENDBRANCH  59  73
BRANCH  60  84
ATOM     84  C   UNL A   1      40.116  33.434  36.578  1.00  0.00     0.064 A 
ATOM     85  C   UNL A   1      39.207  33.102  37.591  1.00  0.00     0.173 A 
ATOM     86  C   UNL A   1      40.854  34.619  36.736  1.00  0.00     0.173 A 
ATOM     87  F   UNL A   1      38.447  32.002  37.477  1.00  0.00    -0.203 F 
ATOM     88  C   UNL A   1      39.039  33.922  38.707  1.00  0.00     0.198 A 
ATOM     89  C   UNL A   1      40.712  35.418  37.867  1.00  0.00     0.198 A 
ATOM     90  F   UNL A   1      41.727  34.998  35.790  1.00  0.00    -0.203 F 
ATOM     91  F   UNL A   1      38.127  33.605  39.638  1.00  0.00    -0.200 F 
ATOM     92  C   UNL A   1      39.798  35.074  38.849  1.00  0.00     0.200 A 
ATOM     93  F   UNL A   1      41.458  36.523  38.001  1.00  0.00    -0.200 F 
ATOM     94  F   UNL A   1      39.641  35.857  39.924  1.00  0.00    -0.200 F 
ENDBRANCH  60  84
BRANCH  72  95
ATOM     95  C   UNL A   1      44.247  28.052  34.980  1.00  0.00     0.064 A 
ATOM     96  C   UNL A   1      43.964  26.876  35.688  1.00  0.00     0.173 A 
ATOM     97  C   UNL A   1      45.567  28.527  34.991  1.00  0.00     0.173 A 
ATOM     98  F   UNL A   1      42.713  26.392  35.724  1.00  0.00    -0.203 F 
ATOM     99  C   UNL A   1      44.959  26.216  36.403  1.00  0.00     0.198 A 
ATOM    100  C   UNL A   1      46.567  27.846  35.680  1.00  0.00     0.198 A 
ATOM    101  F   UNL A   1      45.891  29.644  34.323  1.00  0.00    -0.203 F 
ATOM    102  F   UNL A   1      44.657  25.121  37.116  1.00  0.00    -0.200 F 
ATOM    103  C   UNL A   1      46.261  26.696  36.392  1.00  0.00     0.200 A 
ATOM    104  F   UNL A   1      47.825  28.304  35.655  1.00  0.00    -0.200 F 
ATOM    105  F   UNL A   1      47.219  26.055  37.075  1.00  0.00    -0.200 F 
ENDBRANCH  72  95
ENDBRANCH  46  47
ENDBRANCH  39  41
ENDBRANCH  38  39
ENDBRANCH  37  38
ENDBRANCH   1  37
TORSDOF 17
ENDMDL
