MODEL 1
REMARK VINA RESULT:     -12.5      0.000      0.000
REMARK SMILES O=C(C[C@@H]1C(=O)NCCN1C(=O)OCC1c2ccccc2-c2ccccc21)OCCOC(=O)c1ccc(-c2c3nc(c(-c4c(F)c(F)c(F)c(F)c4F)c4ccc([nH]4)c(-c4c(F)c(F)c(F)c(F)c4F)c4nc(c(-c5c(F)c(F)c(F)c(F)c5F)c5ccc2[nH]5)C=C4)C=C3)cc1
REMARK SMILES IDX 28 1 2 2 1 3 3 4 4 5 5 6 10 7 6 8 7 9 9 10 8 11 11 13 12 14
REMARK SMILES IDX 13 15 14 16 15 17 16 18 27 19 17 20 21 21 22 22 26 23 18 24
REMARK SMILES IDX 20 25 23 26 25 27 19 28 24 29 29 30 30 31 31 32 32 33 33 34
REMARK SMILES IDX 34 35 35 36 96 37 36 38 95 39 37 40 38 41 39 42 89 43 40 44
REMARK SMILES IDX 94 45 88 46 90 47 41 48 93 49 87 50 86 51 42 53 74 54 54 55
REMARK SMILES IDX 73 56 55 57 58 58 72 59 91 60 56 61 57 62 71 64 92 65 59 66
REMARK SMILES IDX 43 67 44 68 52 69 45 70 46 71 50 72 53 73 47 74 48 75 51 76
REMARK SMILES IDX 49 77 75 78 76 79 84 80 77 81 78 82 82 83 85 84 79 85 80 86
REMARK SMILES IDX 83 87 81 88 60 89 61 90 69 91 62 92 63 93 67 94 70 95 64 96
REMARK SMILES IDX 65 97 68 98 66 99
REMARK H PARENT 7 12 90 52 58 63
REMARK Flexibility Score: inf
ROOT
ATOM      1  O   UNL A   1      36.964  21.992  24.654  1.00  0.00    -0.462 OA
ENDROOT
BRANCH   1   2
ATOM      2  C   UNL A   1      36.151  22.503  23.711  1.00  0.00     0.308 C 
ATOM      3  O   UNL A   1      36.597  23.282  22.867  1.00  0.00    -0.252 OA
BRANCH   2   4
ATOM      4  C   UNL A   1      34.661  22.275  23.783  1.00  0.00     0.158 C 
BRANCH   4   5
ATOM      5  C   UNL A   1      33.805  22.650  25.002  1.00  0.00     0.189 C 
ATOM      6  C   UNL A   1      32.970  21.433  25.472  1.00  0.00     0.243 C 
ATOM      7  N   UNL A   1      33.033  23.958  24.951  1.00  0.00    -0.294 N 
ATOM      8  O   UNL A   1      33.454  20.314  25.625  1.00  0.00    -0.273 OA
ATOM      9  N   UNL A   1      31.664  21.634  25.810  1.00  0.00    -0.353 N 
ATOM     10  C   UNL A   1      31.926  24.068  25.887  1.00  0.00     0.145 C 
ATOM     11  C   UNL A   1      30.985  22.898  25.626  1.00  0.00     0.137 C 
ATOM     12  H   UNL A   1      31.159  20.884  26.197  1.00  0.00     0.163 HD
BRANCH   7  13
ATOM     13  C   UNL A   1      33.285  25.047  24.128  1.00  0.00     0.410 C 
ATOM     14  O   UNL A   1      32.806  25.244  23.024  1.00  0.00    -0.224 OA
BRANCH  13  15
ATOM     15  O   UNL A   1      34.179  25.820  24.719  1.00  0.00    -0.448 OA
BRANCH  15  16
ATOM     16  C   UNL A   1      34.049  27.066  25.407  1.00  0.00     0.248 C 
BRANCH  16  17
ATOM     17  C   UNL A   1      32.800  27.528  26.257  1.00  0.00     0.088 C 
ATOM     18  C   UNL A   1      33.254  28.844  26.887  1.00  0.00    -0.029 A 
ATOM     19  C   UNL A   1      31.318  27.840  25.534  1.00  0.00    -0.029 A 
ATOM     20  C   UNL A   1      34.444  28.951  27.628  1.00  0.00     0.005 A 
ATOM     21  C   UNL A   1      32.517  29.966  26.464  1.00  0.00    -0.014 A 
ATOM     22  C   UNL A   1      31.432  29.575  25.566  1.00  0.00    -0.014 A 
ATOM     23  C   UNL A   1      29.972  26.948  24.196  1.00  0.00     0.005 A 
ATOM     24  C   UNL A   1      34.942  30.210  27.911  1.00  0.00     0.000 A 
ATOM     25  C   UNL A   1      32.956  31.214  26.878  1.00  0.00     0.009 A 
ATOM     26  C   UNL A   1      30.530  30.382  24.393  1.00  0.00     0.009 A 
ATOM     27  C   UNL A   1      29.075  27.937  23.126  1.00  0.00     0.000 A 
ATOM     28  C   UNL A   1      34.182  31.333  27.570  1.00  0.00     0.001 A 
ATOM     29  C   UNL A   1      29.429  29.587  23.222  1.00  0.00     0.001 A 
ENDBRANCH  16  17
ENDBRANCH  15  16
ENDBRANCH  13  15
ENDBRANCH   7  13
ENDBRANCH   4   5
ENDBRANCH   2   4
ENDBRANCH   1   2
BRANCH   1  30
ATOM     30  C   UNL A   1      37.042  20.603  25.003  1.00  0.00     0.274 C 
BRANCH  30  31
ATOM     31  C   UNL A   1      38.464  20.176  25.370  1.00  0.00     0.275 C 
BRANCH  31  32
ATOM     32  O   UNL A   1      39.368  21.297  25.495  1.00  0.00    -0.458 OA
BRANCH  32  33
ATOM     33  C   UNL A   1      39.938  21.447  26.722  1.00  0.00     0.338 C 
ATOM     34  O   UNL A   1      40.430  20.558  27.396  1.00  0.00    -0.246 OA
BRANCH  33  35
ATOM     35  C   UNL A   1      40.029  22.883  27.108  1.00  0.00     0.060 A 
ATOM     36  C   UNL A   1      41.043  23.251  28.001  1.00  0.00     0.016 A 
ATOM     37  C   UNL A   1      39.167  23.871  26.612  1.00  0.00     0.016 A 
ATOM     38  C   UNL A   1      41.208  24.594  28.374  1.00  0.00     0.010 A 
ATOM     39  C   UNL A   1      39.345  25.225  26.975  1.00  0.00     0.010 A 
ATOM     40  C   UNL A   1      40.400  25.611  27.822  1.00  0.00    -0.014 A 
BRANCH  40  41
ATOM     41  C   UNL A   1      40.762  27.024  28.177  1.00  0.00     0.031 A 
ATOM     42  C   UNL A   1      42.174  27.422  28.104  1.00  0.00     0.074 A 
ATOM     43  C   UNL A   1      39.872  27.877  28.745  1.00  0.00     0.049 A 
ATOM     44  N   UNL A   1      42.715  28.550  28.460  1.00  0.00    -0.248 NA
ATOM     45  C   UNL A   1      43.112  26.349  27.743  1.00  0.00     0.031 C 
ATOM     46  C   UNL A   1      38.902  27.182  30.258  1.00  0.00     0.029 A 
ATOM     47  N   UNL A   1      39.578  29.703  28.643  1.00  0.00    -0.354 N 
ATOM     48  C   UNL A   1      44.065  28.345  28.304  1.00  0.00     0.074 A 
ATOM     49  C   UNL A   1      44.265  26.948  27.974  1.00  0.00     0.031 C 
ATOM     50  C   UNL A   1      38.002  28.398  30.964  1.00  0.00     0.029 A 
ATOM     51  C   UNL A   1      38.394  30.272  30.013  1.00  0.00     0.049 A 
ATOM     52  H   UNL A   1      39.981  30.297  27.970  1.00  0.00     0.167 HD
ATOM     53  C   UNL A   1      45.053  29.256  28.374  1.00  0.00     0.037 A 
ATOM     54  C   UNL A   1      38.188  31.706  30.269  1.00  0.00     0.037 A 
ATOM     55  C   UNL A   1      44.890  30.609  28.818  1.00  0.00     0.049 A 
ATOM     56  C   UNL A   1      39.546  32.525  30.226  1.00  0.00     0.074 A 
ATOM     57  C   UNL A   1      45.874  31.570  28.915  1.00  0.00     0.029 A 
ATOM     58  N   UNL A   1      43.703  31.184  29.277  1.00  0.00    -0.354 N 
ATOM     59  N   UNL A   1      40.784  32.184  29.902  1.00  0.00    -0.248 NA
ATOM     60  C   UNL A   1      39.477  33.882  30.804  1.00  0.00     0.031 C 
ATOM     61  C   UNL A   1      45.312  32.699  29.506  1.00  0.00     0.029 A 
ATOM     62  C   UNL A   1      43.947  32.493  29.674  1.00  0.00     0.049 A 
ATOM     63  H   UNL A   1      42.830  30.732  29.314  1.00  0.00     0.167 HD
ATOM     64  C   UNL A   1      41.617  33.263  30.251  1.00  0.00     0.074 A 
ATOM     65  C   UNL A   1      40.741  34.273  30.805  1.00  0.00     0.031 C 
ATOM     66  C   UNL A   1      42.970  33.442  30.169  1.00  0.00     0.037 A 
BRANCH  53  67
ATOM     67  C   UNL A   1      46.386  28.768  27.904  1.00  0.00     0.064 A 
ATOM     68  C   UNL A   1      46.701  28.786  26.532  1.00  0.00     0.173 A 
ATOM     69  C   UNL A   1      47.312  28.213  28.792  1.00  0.00     0.173 A 
ATOM     70  F   UNL A   1      45.823  29.275  25.642  1.00  0.00    -0.203 F 
ATOM     71  C   UNL A   1      47.876  28.215  26.063  1.00  0.00     0.198 A 
ATOM     72  C   UNL A   1      48.511  27.689  28.322  1.00  0.00     0.198 A 
ATOM     73  F   UNL A   1      47.044  28.155  30.104  1.00  0.00    -0.203 F 
ATOM     74  F   UNL A   1      48.106  28.148  24.746  1.00  0.00    -0.200 F 
ATOM     75  C   UNL A   1      48.784  27.674  26.961  1.00  0.00     0.200 A 
ATOM     76  F   UNL A   1      49.394  27.171  29.186  1.00  0.00    -0.200 F 
ATOM     77  F   UNL A   1      49.916  27.118  26.509  1.00  0.00    -0.200 F 
ENDBRANCH  53  67
BRANCH  54  78
ATOM     78  C   UNL A   1      36.913  32.595  30.941  1.00  0.00     0.064 A 
ATOM     79  C   UNL A   1      36.069  33.342  30.087  1.00  0.00     0.173 A 
ATOM     80  C   UNL A   1      36.494  32.771  32.302  1.00  0.00     0.173 A 
ATOM     81  F   UNL A   1      36.439  33.556  28.816  1.00  0.00    -0.203 F 
ATOM     82  C   UNL A   1      34.876  33.991  30.528  1.00  0.00     0.198 A 
ATOM     83  C   UNL A   1      35.224  33.221  32.713  1.00  0.00     0.198 A 
ATOM     84  F   UNL A   1      37.316  32.651  33.345  1.00  0.00    -0.203 F 
ATOM     85  F   UNL A   1      34.190  34.784  29.693  1.00  0.00    -0.200 F 
ATOM     86  C   UNL A   1      34.406  33.845  31.820  1.00  0.00     0.200 A 
ATOM     87  F   UNL A   1      34.849  33.083  33.996  1.00  0.00    -0.200 F 
ATOM     88  F   UNL A   1      33.239  34.369  32.222  1.00  0.00    -0.200 F 
ENDBRANCH  54  78
BRANCH  66  89
ATOM     89  C   UNL A   1      43.515  34.819  30.537  1.00  0.00     0.064 A 
ATOM     90  C   UNL A   1      43.566  35.896  29.637  1.00  0.00     0.173 A 
ATOM     91  C   UNL A   1      43.983  35.054  31.844  1.00  0.00     0.173 A 
ATOM     92  F   UNL A   1      43.114  35.752  28.382  1.00  0.00    -0.203 F 
ATOM     93  C   UNL A   1      44.145  37.116  30.003  1.00  0.00     0.198 A 
ATOM     94  C   UNL A   1      44.505  36.290  32.222  1.00  0.00     0.198 A 
ATOM     95  F   UNL A   1      43.912  34.087  32.771  1.00  0.00    -0.203 F 
ATOM     96  F   UNL A   1      44.278  38.092  29.094  1.00  0.00    -0.200 F 
ATOM     97  C   UNL A   1      44.615  37.310  31.293  1.00  0.00     0.200 A 
ATOM     98  F   UNL A   1      44.913  36.486  33.484  1.00  0.00    -0.200 F 
ATOM     99  F   UNL A   1      45.184  38.473  31.637  1.00  0.00    -0.200 F 
ENDBRANCH  66  89
ENDBRANCH  40  41
ENDBRANCH  33  35
ENDBRANCH  32  33
ENDBRANCH  31  32
ENDBRANCH  30  31
ENDBRANCH   1  30
TORSDOF 16
ENDMDL
MODEL 2
REMARK VINA RESULT:     -12.5      0.972      2.147
REMARK SMILES O=C(C[C@@H]1C(=O)NCCN1C(=O)OCC1c2ccccc2-c2ccccc21)OCCOC(=O)c1ccc(-c2c3nc(c(-c4c(F)c(F)c(F)c(F)c4F)c4ccc([nH]4)c(-c4c(F)c(F)c(F)c(F)c4F)c4nc(c(-c5c(F)c(F)c(F)c(F)c5F)c5ccc2[nH]5)C=C4)C=C3)cc1
REMARK SMILES IDX 28 1 2 2 1 3 3 4 4 5 5 6 10 7 6 8 7 9 9 10 8 11 11 13 12 14
REMARK SMILES IDX 13 15 14 16 15 17 16 18 27 19 17 20 21 21 22 22 26 23 18 24
REMARK SMILES IDX 20 25 23 26 25 27 19 28 24 29 29 30 30 31 31 32 32 33 33 34
REMARK SMILES IDX 34 35 35 36 96 37 36 38 95 39 37 40 38 41 39 42 89 43 40 44
REMARK SMILES IDX 94 45 88 46 90 47 41 48 93 49 87 50 86 51 42 53 74 54 54 55
REMARK SMILES IDX 73 56 55 57 58 58 72 59 91 60 56 61 57 62 71 64 92 65 59 66
REMARK SMILES IDX 43 67 44 68 52 69 45 70 46 71 50 72 53 73 47 74 48 75 51 76
REMARK SMILES IDX 49 77 75 78 76 79 84 80 77 81 78 82 82 83 85 84 79 85 80 86
REMARK SMILES IDX 83 87 81 88 60 89 61 90 69 91 62 92 63 93 67 94 70 95 64 96
REMARK SMILES IDX 65 97 68 98 66 99
REMARK H PARENT 7 12 90 52 58 63
REMARK Flexibility Score: inf
ROOT
ATOM      1  O   UNL A   1      36.947  22.851  24.483  1.00  0.00    -0.462 OA
ENDROOT
BRANCH   1   2
ATOM      2  C   UNL A   1      35.856  23.402  23.920  1.00  0.00     0.308 C 
ATOM      3  O   UNL A   1      35.557  23.129  22.756  1.00  0.00    -0.252 OA
BRANCH   2   4
ATOM      4  C   UNL A   1      35.095  24.489  24.637  1.00  0.00     0.158 C 
BRANCH   4   5
ATOM      5  C   UNL A   1      33.562  24.588  24.643  1.00  0.00     0.189 C 
ATOM      6  C   UNL A   1      32.937  23.269  25.162  1.00  0.00     0.243 C 
ATOM      7  N   UNL A   1      32.883  25.162  23.412  1.00  0.00    -0.294 N 
ATOM      8  O   UNL A   1      33.327  22.704  26.181  1.00  0.00    -0.273 OA
ATOM      9  N   UNL A   1      31.854  22.763  24.505  1.00  0.00    -0.353 N 
ATOM     10  C   UNL A   1      31.472  24.842  23.268  1.00  0.00     0.145 C 
ATOM     11  C   UNL A   1      31.342  23.323  23.274  1.00  0.00     0.137 C 
ATOM     12  H   UNL A   1      31.399  21.978  24.886  1.00  0.00     0.163 HD
BRANCH   7  13
ATOM     13  C   UNL A   1      33.458  25.963  22.435  1.00  0.00     0.410 C 
ATOM     14  O   UNL A   1      33.427  25.769  21.231  1.00  0.00    -0.224 OA
BRANCH  13  15
ATOM     15  O   UNL A   1      34.100  26.953  23.030  1.00  0.00    -0.448 OA
BRANCH  15  16
ATOM     16  C   UNL A   1      33.627  28.101  23.738  1.00  0.00     0.248 C 
BRANCH  16  17
ATOM     17  C   UNL A   1      32.540  28.096  24.886  1.00  0.00     0.088 C 
ATOM     18  C   UNL A   1      33.204  28.878  26.018  1.00  0.00    -0.029 A 
ATOM     19  C   UNL A   1      31.029  28.790  24.661  1.00  0.00    -0.029 A 
ATOM     20  C   UNL A   1      34.476  28.543  26.518  1.00  0.00     0.005 A 
ATOM     21  C   UNL A   1      32.551  30.081  26.345  1.00  0.00    -0.014 A 
ATOM     22  C   UNL A   1      31.335  30.250  25.553  1.00  0.00    -0.014 A 
ATOM     23  C   UNL A   1      29.449  28.770  23.281  1.00  0.00     0.005 A 
ATOM     24  C   UNL A   1      35.138  29.454  27.320  1.00  0.00     0.000 A 
ATOM     25  C   UNL A   1      33.168  30.916  27.262  1.00  0.00     0.009 A 
ATOM     26  C   UNL A   1      30.399  31.580  25.110  1.00  0.00     0.009 A 
ATOM     27  C   UNL A   1      28.549  30.201  23.017  1.00  0.00     0.000 A 
ATOM     28  C   UNL A   1      34.471  30.616  27.720  1.00  0.00     0.001 A 
ATOM     29  C   UNL A   1      29.090  31.548  23.882  1.00  0.00     0.001 A 
ENDBRANCH  16  17
ENDBRANCH  15  16
ENDBRANCH  13  15
ENDBRANCH   7  13
ENDBRANCH   4   5
ENDBRANCH   2   4
ENDBRANCH   1   2
BRANCH   1  30
ATOM     30  C   UNL A   1      37.311  21.467  24.382  1.00  0.00     0.274 C 
BRANCH  30  31
ATOM     31  C   UNL A   1      38.080  20.979  25.611  1.00  0.00     0.275 C 
BRANCH  31  32
ATOM     32  O   UNL A   1      39.465  21.394  25.603  1.00  0.00    -0.458 OA
BRANCH  32  33
ATOM     33  C   UNL A   1      40.029  21.552  26.832  1.00  0.00     0.338 C 
ATOM     34  O   UNL A   1      40.556  20.675  27.495  1.00  0.00    -0.246 OA
BRANCH  33  35
ATOM     35  C   UNL A   1      40.064  22.985  27.235  1.00  0.00     0.060 A 
ATOM     36  C   UNL A   1      41.094  23.392  28.092  1.00  0.00     0.016 A 
ATOM     37  C   UNL A   1      39.134  23.935  26.788  1.00  0.00     0.016 A 
ATOM     38  C   UNL A   1      41.207  24.737  28.478  1.00  0.00     0.010 A 
ATOM     39  C   UNL A   1      39.259  25.292  27.164  1.00  0.00     0.010 A 
ATOM     40  C   UNL A   1      40.327  25.720  27.974  1.00  0.00    -0.014 A 
BRANCH  40  41
ATOM     41  C   UNL A   1      40.632  27.145  28.335  1.00  0.00     0.031 A 
ATOM     42  C   UNL A   1      42.037  27.575  28.348  1.00  0.00     0.074 A 
ATOM     43  C   UNL A   1      39.687  27.981  28.833  1.00  0.00     0.049 A 
ATOM     44  N   UNL A   1      42.527  28.719  28.726  1.00  0.00    -0.248 NA
ATOM     45  C   UNL A   1      43.021  26.521  28.062  1.00  0.00     0.031 C 
ATOM     46  C   UNL A   1      38.637  27.279  30.287  1.00  0.00     0.029 A 
ATOM     47  N   UNL A   1      39.358  29.799  28.691  1.00  0.00    -0.354 N 
ATOM     48  C   UNL A   1      43.888  28.545  28.661  1.00  0.00     0.074 A 
ATOM     49  C   UNL A   1      44.142  27.150  28.361  1.00  0.00     0.031 C 
ATOM     50  C   UNL A   1      37.665  28.481  30.919  1.00  0.00     0.029 A 
ATOM     51  C   UNL A   1      38.074  30.354  29.974  1.00  0.00     0.049 A 
ATOM     52  H   UNL A   1      39.790  30.395  28.038  1.00  0.00     0.167 HD
ATOM     53  C   UNL A   1      44.849  29.481  28.783  1.00  0.00     0.037 A 
ATOM     54  C   UNL A   1      37.819  31.785  30.198  1.00  0.00     0.037 A 
ATOM     55  C   UNL A   1      44.625  30.834  29.200  1.00  0.00     0.049 A 
ATOM     56  C   UNL A   1      39.157  32.636  30.234  1.00  0.00     0.074 A 
ATOM     57  C   UNL A   1      45.579  31.819  29.349  1.00  0.00     0.029 A 
ATOM     58  N   UNL A   1      43.398  31.385  29.574  1.00  0.00    -0.354 N 
ATOM     59  N   UNL A   1      40.422  32.321  29.995  1.00  0.00    -0.248 NA
ATOM     60  C   UNL A   1      39.019  33.997  30.790  1.00  0.00     0.031 C 
ATOM     61  C   UNL A   1      44.953  32.941  29.889  1.00  0.00     0.029 A 
ATOM     62  C   UNL A   1      43.585  32.703  29.970  1.00  0.00     0.049 A 
ATOM     63  H   UNL A   1      42.535  30.913  29.559  1.00  0.00     0.167 HD
ATOM     64  C   UNL A   1      41.205  33.424  30.385  1.00  0.00     0.074 A 
ATOM     65  C   UNL A   1      40.272  34.418  30.869  1.00  0.00     0.031 C 
ATOM     66  C   UNL A   1      42.556  33.633  30.389  1.00  0.00     0.037 A 
BRANCH  53  67
ATOM     67  C   UNL A   1      46.220  29.019  28.407  1.00  0.00     0.064 A 
ATOM     68  C   UNL A   1      47.161  28.711  29.407  1.00  0.00     0.173 A 
ATOM     69  C   UNL A   1      46.626  28.958  27.070  1.00  0.00     0.173 A 
ATOM     70  F   UNL A   1      46.823  28.795  30.703  1.00  0.00    -0.203 F 
ATOM     71  C   UNL A   1      48.476  28.412  29.080  1.00  0.00     0.198 A 
ATOM     72  C   UNL A   1      47.931  28.606  26.746  1.00  0.00     0.198 A 
ATOM     73  F   UNL A   1      45.768  29.265  26.086  1.00  0.00    -0.203 F 
ATOM     74  F   UNL A   1      49.380  28.227  30.051  1.00  0.00    -0.200 F 
ATOM     75  C   UNL A   1      48.857  28.351  27.749  1.00  0.00     0.200 A 
ATOM     76  F   UNL A   1      48.303  28.541  25.461  1.00  0.00    -0.200 F 
ATOM     77  F   UNL A   1      50.127  28.066  27.431  1.00  0.00    -0.200 F 
ENDBRANCH  53  67
BRANCH  54  78
ATOM     78  C   UNL A   1      36.483  32.650  30.776  1.00  0.00     0.064 A 
ATOM     79  C   UNL A   1      36.121  32.529  32.138  1.00  0.00     0.173 A 
ATOM     80  C   UNL A   1      35.566  33.532  30.112  1.00  0.00     0.173 A 
ATOM     81  F   UNL A   1      36.654  31.547  32.878  1.00  0.00    -0.203 F 
ATOM     82  C   UNL A   1      35.118  33.334  32.761  1.00  0.00     0.198 A 
ATOM     83  C   UNL A   1      34.732  34.471  30.750  1.00  0.00     0.198 A 
ATOM     84  F   UNL A   1      35.302  33.471  28.807  1.00  0.00    -0.203 F 
ATOM     85  F   UNL A   1      34.738  33.082  34.021  1.00  0.00    -0.200 F 
ATOM     86  C   UNL A   1      34.498  34.369  32.088  1.00  0.00     0.200 A 
ATOM     87  F   UNL A   1      34.128  35.428  30.026  1.00  0.00    -0.200 F 
ATOM     88  F   UNL A   1      33.626  35.193  32.687  1.00  0.00    -0.200 F 
ENDBRANCH  54  78
BRANCH  66  89
ATOM     89  C   UNL A   1      43.044  35.027  30.775  1.00  0.00     0.064 A 
ATOM     90  C   UNL A   1      43.373  35.394  32.091  1.00  0.00     0.173 A 
ATOM     91  C   UNL A   1      43.198  36.010  29.779  1.00  0.00     0.173 A 
ATOM     92  F   UNL A   1      43.275  34.501  33.086  1.00  0.00    -0.203 F 
ATOM     93  C   UNL A   1      43.743  36.706  32.403  1.00  0.00     0.198 A 
ATOM     94  C   UNL A   1      43.624  37.301  30.086  1.00  0.00     0.198 A 
ATOM     95  F   UNL A   1      42.955  35.713  28.494  1.00  0.00    -0.203 F 
ATOM     96  F   UNL A   1      43.949  37.057  33.680  1.00  0.00    -0.200 F 
ATOM     97  C   UNL A   1      43.867  37.657  31.401  1.00  0.00     0.200 A 
ATOM     98  F   UNL A   1      43.787  38.202  29.106  1.00  0.00    -0.200 F 
ATOM     99  F   UNL A   1      44.206  38.917  31.704  1.00  0.00    -0.200 F 
ENDBRANCH  66  89
ENDBRANCH  40  41
ENDBRANCH  33  35
ENDBRANCH  32  33
ENDBRANCH  31  32
ENDBRANCH  30  31
ENDBRANCH   1  30
TORSDOF 16
ENDMDL
MODEL 3
REMARK VINA RESULT:     -12.3      3.614      9.543
REMARK SMILES O=C(C[C@@H]1C(=O)NCCN1C(=O)OCC1c2ccccc2-c2ccccc21)OCCOC(=O)c1ccc(-c2c3nc(c(-c4c(F)c(F)c(F)c(F)c4F)c4ccc([nH]4)c(-c4c(F)c(F)c(F)c(F)c4F)c4nc(c(-c5c(F)c(F)c(F)c(F)c5F)c5ccc2[nH]5)C=C4)C=C3)cc1
REMARK SMILES IDX 28 1 2 2 1 3 3 4 4 5 5 6 10 7 6 8 7 9 9 10 8 11 11 13 12 14
REMARK SMILES IDX 13 15 14 16 15 17 16 18 27 19 17 20 21 21 22 22 26 23 18 24
REMARK SMILES IDX 20 25 23 26 25 27 19 28 24 29 29 30 30 31 31 32 32 33 33 34
REMARK SMILES IDX 34 35 35 36 96 37 36 38 95 39 37 40 38 41 39 42 89 43 40 44
REMARK SMILES IDX 94 45 88 46 90 47 41 48 93 49 87 50 86 51 42 53 74 54 54 55
REMARK SMILES IDX 73 56 55 57 58 58 72 59 91 60 56 61 57 62 71 64 92 65 59 66
REMARK SMILES IDX 43 67 44 68 52 69 45 70 46 71 50 72 53 73 47 74 48 75 51 76
REMARK SMILES IDX 49 77 75 78 76 79 84 80 77 81 78 82 82 83 85 84 79 85 80 86
REMARK SMILES IDX 83 87 81 88 60 89 61 90 69 91 62 92 63 93 67 94 70 95 64 96
REMARK SMILES IDX 65 97 68 98 66 99
REMARK H PARENT 7 12 90 52 58 63
REMARK Flexibility Score: inf
ROOT
ATOM      1  O   UNL A   1      33.378  28.366  27.047  1.00  0.00    -0.462 OA
ENDROOT
BRANCH   1   2
ATOM      2  C   UNL A   1      32.048  28.185  26.959  1.00  0.00     0.308 C 
ATOM      3  O   UNL A   1      31.372  28.058  27.982  1.00  0.00    -0.252 OA
BRANCH   2   4
ATOM      4  C   UNL A   1      31.396  27.957  25.617  1.00  0.00     0.158 C 
BRANCH   4   5
ATOM      5  C   UNL A   1      32.151  27.426  24.388  1.00  0.00     0.189 C 
ATOM      6  C   UNL A   1      31.626  28.103  23.098  1.00  0.00     0.243 C 
ATOM      7  N   UNL A   1      32.351  25.925  24.272  1.00  0.00    -0.294 N 
ATOM      8  O   UNL A   1      31.465  29.318  23.002  1.00  0.00    -0.273 OA
ATOM      9  N   UNL A   1      31.416  27.325  21.997  1.00  0.00    -0.353 N 
ATOM     10  C   UNL A   1      32.658  25.435  22.939  1.00  0.00     0.145 C 
ATOM     11  C   UNL A   1      31.532  25.883  22.013  1.00  0.00     0.137 C 
ATOM     12  H   UNL A   1      31.173  27.765  21.151  1.00  0.00     0.163 HD
BRANCH   7  13
ATOM     13  C   UNL A   1      32.289  24.990  25.297  1.00  0.00     0.410 C 
ATOM     14  O   UNL A   1      31.348  24.257  25.550  1.00  0.00    -0.224 OA
BRANCH  13  15
ATOM     15  O   UNL A   1      33.408  25.061  25.997  1.00  0.00    -0.448 OA
BRANCH  15  16
ATOM     16  C   UNL A   1      34.597  24.268  25.969  1.00  0.00     0.248 C 
BRANCH  16  17
ATOM     17  C   UNL A   1      35.222  23.584  24.689  1.00  0.00     0.088 C 
ATOM     18  C   UNL A   1      36.632  23.199  25.134  1.00  0.00    -0.029 A 
ATOM     19  C   UNL A   1      34.548  22.200  24.021  1.00  0.00    -0.029 A 
ATOM     20  C   UNL A   1      37.521  24.129  25.702  1.00  0.00     0.005 A 
ATOM     21  C   UNL A   1      36.870  21.812  25.150  1.00  0.00    -0.014 A 
ATOM     22  C   UNL A   1      35.710  21.074  24.656  1.00  0.00    -0.014 A 
ATOM     23  C   UNL A   1      32.683  21.472  23.395  1.00  0.00     0.005 A 
ATOM     24  C   UNL A   1      38.651  23.663  26.349  1.00  0.00     0.000 A 
ATOM     25  C   UNL A   1      38.075  21.374  25.676  1.00  0.00     0.009 A 
ATOM     26  C   UNL A   1      35.159  19.491  24.840  1.00  0.00     0.009 A 
ATOM     27  C   UNL A   1      32.325  19.810  23.587  1.00  0.00     0.000 A 
ATOM     28  C   UNL A   1      38.944  22.296  26.302  1.00  0.00     0.001 A 
ATOM     29  C   UNL A   1      33.536  18.908  24.349  1.00  0.00     0.001 A 
ENDBRANCH  16  17
ENDBRANCH  15  16
ENDBRANCH  13  15
ENDBRANCH   7  13
ENDBRANCH   4   5
ENDBRANCH   2   4
ENDBRANCH   1   2
BRANCH   1  30
ATOM     30  C   UNL A   1      34.045  29.627  26.907  1.00  0.00     0.274 C 
BRANCH  30  31
ATOM     31  C   UNL A   1      33.257  30.774  27.541  1.00  0.00     0.275 C 
BRANCH  31  32
ATOM     32  O   UNL A   1      33.982  32.025  27.527  1.00  0.00    -0.458 OA
BRANCH  32  33
ATOM     33  C   UNL A   1      34.395  32.468  28.746  1.00  0.00     0.338 C 
ATOM     34  O   UNL A   1      33.728  33.115  29.536  1.00  0.00    -0.246 OA
BRANCH  33  35
ATOM     35  C   UNL A   1      35.744  31.939  29.089  1.00  0.00     0.060 A 
ATOM     36  C   UNL A   1      35.814  30.902  30.028  1.00  0.00     0.016 A 
ATOM     37  C   UNL A   1      36.929  32.415  28.510  1.00  0.00     0.016 A 
ATOM     38  C   UNL A   1      37.052  30.333  30.366  1.00  0.00     0.010 A 
ATOM     39  C   UNL A   1      38.173  31.829  28.838  1.00  0.00     0.010 A 
ATOM     40  C   UNL A   1      38.244  30.745  29.734  1.00  0.00    -0.014 A 
BRANCH  40  41
ATOM     41  C   UNL A   1      39.485  29.966  30.062  1.00  0.00     0.031 A 
ATOM     42  C   UNL A   1      40.456  30.560  30.991  1.00  0.00     0.074 A 
ATOM     43  C   UNL A   1      39.829  28.839  29.389  1.00  0.00     0.049 A 
ATOM     44  N   UNL A   1      41.628  30.111  31.330  1.00  0.00    -0.248 NA
ATOM     45  C   UNL A   1      40.131  31.915  31.460  1.00  0.00     0.031 C 
ATOM     46  C   UNL A   1      39.778  28.968  27.468  1.00  0.00     0.029 A 
ATOM     47  N   UNL A   1      40.680  27.260  29.853  1.00  0.00    -0.354 N 
ATOM     48  C   UNL A   1      42.162  31.106  32.112  1.00  0.00     0.074 A 
ATOM     49  C   UNL A   1      41.257  32.237  32.069  1.00  0.00     0.031 C 
ATOM     50  C   UNL A   1      40.412  27.582  26.788  1.00  0.00     0.029 A 
ATOM     51  C   UNL A   1      41.169  26.278  28.304  1.00  0.00     0.049 A 
ATOM     52  H   UNL A   1      40.854  26.970  30.777  1.00  0.00     0.167 HD
ATOM     53  C   UNL A   1      43.285  31.063  32.854  1.00  0.00     0.037 A 
ATOM     54  C   UNL A   1      42.049  25.105  28.415  1.00  0.00     0.037 A 
ATOM     55  C   UNL A   1      44.252  30.006  32.814  1.00  0.00     0.049 A 
ATOM     56  C   UNL A   1      43.255  25.351  29.415  1.00  0.00     0.074 A 
ATOM     57  C   UNL A   1      45.419  29.927  33.545  1.00  0.00     0.029 A 
ATOM     58  N   UNL A   1      44.205  28.882  31.987  1.00  0.00    -0.354 N 
ATOM     59  N   UNL A   1      43.549  26.353  30.231  1.00  0.00    -0.248 NA
ATOM     60  C   UNL A   1      44.356  24.371  29.321  1.00  0.00     0.031 C 
ATOM     61  C   UNL A   1      46.121  28.805  33.110  1.00  0.00     0.029 A 
ATOM     62  C   UNL A   1      45.344  28.111  32.189  1.00  0.00     0.049 A 
ATOM     63  H   UNL A   1      43.479  28.668  31.359  1.00  0.00     0.167 HD
ATOM     64  C   UNL A   1      44.850  26.126  30.717  1.00  0.00     0.074 A 
ATOM     65  C   UNL A   1      45.286  24.887  30.109  1.00  0.00     0.031 C 
ATOM     66  C   UNL A   1      45.653  26.845  31.556  1.00  0.00     0.037 A 
BRANCH  53  67
ATOM     67  C   UNL A   1      43.457  32.214  33.792  1.00  0.00     0.064 A 
ATOM     68  C   UNL A   1      42.856  32.184  35.065  1.00  0.00     0.173 A 
ATOM     69  C   UNL A   1      44.143  33.370  33.409  1.00  0.00     0.173 A 
ATOM     70  F   UNL A   1      42.155  31.108  35.457  1.00  0.00    -0.203 F 
ATOM     71  C   UNL A   1      42.891  33.294  35.896  1.00  0.00     0.198 A 
ATOM     72  C   UNL A   1      44.220  34.461  34.267  1.00  0.00     0.198 A 
ATOM     73  F   UNL A   1      44.713  33.451  32.197  1.00  0.00    -0.203 F 
ATOM     74  F   UNL A   1      42.222  33.281  37.056  1.00  0.00    -0.200 F 
ATOM     75  C   UNL A   1      43.581  34.429  35.499  1.00  0.00     0.200 A 
ATOM     76  F   UNL A   1      44.891  35.557  33.890  1.00  0.00    -0.200 F 
ATOM     77  F   UNL A   1      43.613  35.503  36.299  1.00  0.00    -0.200 F 
ENDBRANCH  53  67
BRANCH  54  78
ATOM     78  C   UNL A   1      42.264  23.720  27.465  1.00  0.00     0.064 A 
ATOM     79  C   UNL A   1      42.773  23.858  26.152  1.00  0.00     0.173 A 
ATOM     80  C   UNL A   1      41.999  22.336  27.734  1.00  0.00     0.173 A 
ATOM     81  F   UNL A   1      42.822  25.072  25.587  1.00  0.00    -0.203 F 
ATOM     82  C   UNL A   1      43.143  22.749  25.330  1.00  0.00     0.198 A 
ATOM     83  C   UNL A   1      42.550  21.248  27.028  1.00  0.00     0.198 A 
ATOM     84  F   UNL A   1      41.087  21.919  28.612  1.00  0.00    -0.203 F 
ATOM     85  F   UNL A   1      43.501  22.946  24.054  1.00  0.00    -0.200 F 
ATOM     86  C   UNL A   1      43.123  21.453  25.809  1.00  0.00     0.200 A 
ATOM     87  F   UNL A   1      42.458  20.007  27.535  1.00  0.00    -0.200 F 
ATOM     88  F   UNL A   1      43.558  20.414  25.082  1.00  0.00    -0.200 F 
ENDBRANCH  54  78
BRANCH  66  89
ATOM     89  C   UNL A   1      46.982  26.213  31.962  1.00  0.00     0.064 A 
ATOM     90  C   UNL A   1      48.166  26.358  31.220  1.00  0.00     0.173 A 
ATOM     91  C   UNL A   1      47.057  25.453  33.145  1.00  0.00     0.173 A 
ATOM     92  F   UNL A   1      48.175  27.089  30.096  1.00  0.00    -0.203 F 
ATOM     93  C   UNL A   1      49.339  25.695  31.596  1.00  0.00     0.198 A 
ATOM     94  C   UNL A   1      48.243  24.842  33.548  1.00  0.00     0.198 A 
ATOM     95  F   UNL A   1      45.979  25.320  33.931  1.00  0.00    -0.203 F 
ATOM     96  F   UNL A   1      50.425  25.763  30.814  1.00  0.00    -0.200 F 
ATOM     97  C   UNL A   1      49.375  24.938  32.757  1.00  0.00     0.200 A 
ATOM     98  F   UNL A   1      48.284  24.152  34.696  1.00  0.00    -0.200 F 
ATOM     99  F   UNL A   1      50.495  24.290  33.106  1.00  0.00    -0.200 F 
ENDBRANCH  66  89
ENDBRANCH  40  41
ENDBRANCH  33  35
ENDBRANCH  32  33
ENDBRANCH  31  32
ENDBRANCH  30  31
ENDBRANCH   1  30
TORSDOF 16
ENDMDL
