MODEL 1
REMARK VINA RESULT:     -11.9      0.000      0.000
REMARK SMILES O=C(CCCN1C(=O)/C(=C\c2ccc(O)c(O)c2)SC1=S)OCCOC(=O)c1ccc(-c2c3nc(c(-c4c(F)c(F)c(F)c(F)c4F)c4ccc([nH]4)c(-c4c(F)c(F)c(F)c(F)c4F)c4nc(c(-c5c(F)c(F)c(F)c(F)c5F)c5ccc2[nH]5)C=C4)C=C3)cc1
REMARK SMILES IDX 22 1 2 2 1 3 3 4 4 5 5 6 6 7 7 8 20 9 8 10 9 11 19 12 21 13
REMARK SMILES IDX 10 14 11 15 12 16 18 17 13 18 16 19 14 20 17 21 15 23 23 25
REMARK SMILES IDX 24 26 25 27 26 28 27 29 28 30 29 31 90 32 30 33 89 34 31 35
REMARK SMILES IDX 32 36 33 37 83 38 34 39 88 40 82 41 84 42 35 43 87 44 81 45
REMARK SMILES IDX 80 46 36 48 68 49 48 50 67 51 49 52 52 53 66 54 85 55 50 56
REMARK SMILES IDX 51 57 65 59 86 60 53 61 37 62 38 63 46 64 39 65 40 66 44 67
REMARK SMILES IDX 47 68 41 69 42 70 45 71 43 72 69 73 70 74 78 75 71 76 72 77
REMARK SMILES IDX 76 78 79 79 73 80 74 81 77 82 75 83 54 84 55 85 63 86 56 87
REMARK SMILES IDX 57 88 61 89 64 90 58 91 59 92 62 93 60 94
REMARK H PARENT 17 22 15 24 84 47 52 58
REMARK Flexibility Score: inf
ROOT
ATOM      1  O   UNL A   1      37.765  21.846  24.258  1.00  0.00    -0.462 OA
ENDROOT
BRANCH   1   2
ATOM      2  C   UNL A   1      36.783  22.711  23.894  1.00  0.00     0.305 C 
ATOM      3  O   UNL A   1      36.302  22.790  22.770  1.00  0.00    -0.252 OA
BRANCH   2   4
ATOM      4  C   UNL A   1      36.550  23.761  24.956  1.00  0.00     0.124 C 
BRANCH   4   5
ATOM      5  C   UNL A   1      35.799  23.420  26.239  1.00  0.00     0.034 C 
BRANCH   5   6
ATOM      6  C   UNL A   1      34.295  23.149  26.237  1.00  0.00     0.128 C 
BRANCH   6   7
ATOM      7  N   UNL A   1      33.514  22.636  25.101  1.00  0.00    -0.293 N 
ATOM      8  C   UNL A   1      33.282  21.263  25.174  1.00  0.00     0.266 C 
ATOM      9  C   UNL A   1      32.986  23.245  23.991  1.00  0.00     0.148 C 
ATOM     10  O   UNL A   1      33.682  20.552  26.088  1.00  0.00    -0.268 OA
ATOM     11  C   UNL A   1      32.468  20.779  24.024  1.00  0.00     0.081 C 
ATOM     12  S   UNL A   1      31.893  22.137  23.145  1.00  0.00    -0.054 SA
ATOM     13  S   UNL A   1      33.279  24.749  23.359  1.00  0.00    -0.052 S 
ATOM     14  C   UNL A   1      32.271  19.509  23.635  1.00  0.00     0.029 C 
BRANCH  14  15
ATOM     15  C   UNL A   1      33.003  18.379  24.215  1.00  0.00    -0.020 A 
ATOM     16  C   UNL A   1      34.271  17.996  23.751  1.00  0.00     0.012 A 
ATOM     17  C   UNL A   1      32.339  17.583  25.157  1.00  0.00     0.058 A 
ATOM     18  C   UNL A   1      34.827  16.773  24.142  1.00  0.00     0.051 A 
ATOM     19  C   UNL A   1      32.905  16.381  25.549  1.00  0.00     0.157 A 
ATOM     20  C   UNL A   1      34.126  15.963  25.027  1.00  0.00     0.157 A 
BRANCH  19  21
ATOM     21  O   UNL A   1      32.222  15.578  26.417  1.00  0.00    -0.504 OA
ATOM     22  H   UNL A   1      32.150  14.659  26.247  1.00  0.00     0.293 HD
ENDBRANCH  19  21
BRANCH  20  23
ATOM     23  O   UNL A   1      34.583  14.726  25.389  1.00  0.00    -0.504 OA
ATOM     24  H   UNL A   1      34.687  14.512  26.295  1.00  0.00     0.293 HD
ENDBRANCH  20  23
ENDBRANCH  14  15
ENDBRANCH   6   7
ENDBRANCH   5   6
ENDBRANCH   4   5
ENDBRANCH   2   4
ENDBRANCH   1   2
BRANCH   1  25
ATOM     25  C   UNL A   1      37.305  20.535  24.627  1.00  0.00     0.274 C 
BRANCH  25  26
ATOM     26  C   UNL A   1      38.467  19.775  25.281  1.00  0.00     0.275 C 
BRANCH  26  27
ATOM     27  O   UNL A   1      38.957  20.494  26.432  1.00  0.00    -0.458 OA
BRANCH  27  28
ATOM     28  C   UNL A   1      40.288  20.541  26.653  1.00  0.00     0.338 C 
ATOM     29  O   UNL A   1      41.095  19.639  26.537  1.00  0.00    -0.246 OA
BRANCH  28  30
ATOM     30  C   UNL A   1      40.608  21.931  27.043  1.00  0.00     0.060 A 
ATOM     31  C   UNL A   1      39.876  22.999  26.516  1.00  0.00     0.016 A 
ATOM     32  C   UNL A   1      41.619  22.171  27.974  1.00  0.00     0.016 A 
ATOM     33  C   UNL A   1      40.186  24.315  26.898  1.00  0.00     0.010 A 
ATOM     34  C   UNL A   1      41.885  23.478  28.395  1.00  0.00     0.010 A 
ATOM     35  C   UNL A   1      41.211  24.572  27.824  1.00  0.00    -0.014 A 
BRANCH  35  36
ATOM     36  C   UNL A   1      41.701  25.962  28.077  1.00  0.00     0.031 A 
ATOM     37  C   UNL A   1      43.070  26.356  27.569  1.00  0.00     0.074 A 
ATOM     38  C   UNL A   1      40.975  26.873  28.756  1.00  0.00     0.049 A 
ATOM     39  N   UNL A   1      43.699  27.503  27.660  1.00  0.00    -0.248 NA
ATOM     40  C   UNL A   1      43.847  25.306  26.891  1.00  0.00     0.031 C 
ATOM     41  C   UNL A   1      39.665  26.642  29.358  1.00  0.00     0.029 A 
ATOM     42  N   UNL A   1      41.255  28.188  29.066  1.00  0.00    -0.354 N 
ATOM     43  C   UNL A   1      44.938  27.303  27.063  1.00  0.00     0.074 A 
ATOM     44  C   UNL A   1      45.005  25.910  26.684  1.00  0.00     0.031 C 
ATOM     45  C   UNL A   1      39.250  27.774  29.956  1.00  0.00     0.029 A 
ATOM     46  C   UNL A   1      40.268  28.811  29.792  1.00  0.00     0.049 A 
ATOM     47  H   UNL A   1      42.086  28.638  28.791  1.00  0.00     0.167 HD
ATOM     48  C   UNL A   1      45.922  28.199  26.809  1.00  0.00     0.037 A 
ATOM     49  C   UNL A   1      40.193  30.073  30.267  1.00  0.00     0.037 A 
ATOM     50  C   UNL A   1      45.863  29.593  27.147  1.00  0.00     0.049 A 
ATOM     51  C   UNL A   1      41.303  31.057  29.982  1.00  0.00     0.074 A 
ATOM     52  C   UNL A   1      46.777  30.590  26.855  1.00  0.00     0.029 A 
ATOM     53  N   UNL A   1      44.835  30.186  27.861  1.00  0.00    -0.354 N 
ATOM     54  N   UNL A   1      42.417  30.880  29.315  1.00  0.00    -0.248 NA
ATOM     55  C   UNL A   1      41.135  32.423  30.505  1.00  0.00     0.031 C 
ATOM     56  C   UNL A   1      46.327  31.779  27.436  1.00  0.00     0.029 A 
ATOM     57  C   UNL A   1      45.107  31.532  28.046  1.00  0.00     0.049 A 
ATOM     58  H   UNL A   1      44.032  29.721  28.190  1.00  0.00     0.167 HD
ATOM     59  C   UNL A   1      43.062  32.113  29.310  1.00  0.00     0.074 A 
ATOM     60  C   UNL A   1      42.212  33.035  30.032  1.00  0.00     0.031 C 
ATOM     61  C   UNL A   1      44.251  32.449  28.752  1.00  0.00     0.037 A 
BRANCH  48  62
ATOM     62  C   UNL A   1      47.150  27.689  26.112  1.00  0.00     0.064 A 
ATOM     63  C   UNL A   1      48.256  27.212  26.833  1.00  0.00     0.173 A 
ATOM     64  C   UNL A   1      47.215  27.660  24.712  1.00  0.00     0.173 A 
ATOM     65  F   UNL A   1      48.248  27.229  28.174  1.00  0.00    -0.203 F 
ATOM     66  C   UNL A   1      49.399  26.763  26.175  1.00  0.00     0.198 A 
ATOM     67  C   UNL A   1      48.348  27.179  24.059  1.00  0.00     0.198 A 
ATOM     68  F   UNL A   1      46.182  28.098  23.976  1.00  0.00    -0.203 F 
ATOM     69  F   UNL A   1      50.466  26.368  26.885  1.00  0.00    -0.200 F 
ATOM     70  C   UNL A   1      49.442  26.742  24.790  1.00  0.00     0.200 A 
ATOM     71  F   UNL A   1      48.382  27.147  22.719  1.00  0.00    -0.200 F 
ATOM     72  F   UNL A   1      50.540  26.306  24.159  1.00  0.00    -0.200 F 
ENDBRANCH  48  62
BRANCH  49  73
ATOM     73  C   UNL A   1      39.000  30.506  31.047  1.00  0.00     0.064 A 
ATOM     74  C   UNL A   1      37.880  31.060  30.409  1.00  0.00     0.173 A 
ATOM     75  C   UNL A   1      38.971  30.409  32.445  1.00  0.00     0.173 A 
ATOM     76  F   UNL A   1      37.873  31.203  29.076  1.00  0.00    -0.203 F 
ATOM     77  C   UNL A   1      36.786  31.517  31.141  1.00  0.00     0.198 A 
ATOM     78  C   UNL A   1      37.865  30.843  33.174  1.00  0.00     0.198 A 
ATOM     79  F   UNL A   1      40.019  29.894  33.105  1.00  0.00    -0.203 F 
ATOM     80  F   UNL A   1      35.751  32.087  30.510  1.00  0.00    -0.200 F 
ATOM     81  C   UNL A   1      36.777  31.403  32.523  1.00  0.00     0.200 A 
ATOM     82  F   UNL A   1      37.857  30.726  34.510  1.00  0.00    -0.200 F 
ATOM     83  F   UNL A   1      35.725  31.843  33.227  1.00  0.00    -0.200 F 
ENDBRANCH  49  73
BRANCH  61  84
ATOM     84  C   UNL A   1      44.702  33.878  28.860  1.00  0.00     0.064 A 
ATOM     85  C   UNL A   1      45.561  34.305  29.882  1.00  0.00     0.173 A 
ATOM     86  C   UNL A   1      44.328  34.815  27.882  1.00  0.00     0.173 A 
ATOM     87  F   UNL A   1      45.939  33.452  30.845  1.00  0.00    -0.203 F 
ATOM     88  C   UNL A   1      46.016  35.621  29.932  1.00  0.00     0.198 A 
ATOM     89  C   UNL A   1      44.808  36.121  27.920  1.00  0.00     0.198 A 
ATOM     90  F   UNL A   1      43.515  34.456  26.878  1.00  0.00    -0.203 F 
ATOM     91  F   UNL A   1      46.809  36.016  30.937  1.00  0.00    -0.200 F 
ATOM     92  C   UNL A   1      45.647  36.524  28.947  1.00  0.00     0.200 A 
ATOM     93  F   UNL A   1      44.462  36.989  26.958  1.00  0.00    -0.200 F 
ATOM     94  F   UNL A   1      46.098  37.785  28.988  1.00  0.00    -0.200 F 
ENDBRANCH  61  84
ENDBRANCH  35  36
ENDBRANCH  28  30
ENDBRANCH  27  28
ENDBRANCH  26  27
ENDBRANCH  25  26
ENDBRANCH   1  25
TORSDOF 17
ENDMDL
MODEL 2
REMARK VINA RESULT:     -11.5      6.187     11.425
REMARK SMILES O=C(CCCN1C(=O)/C(=C\c2ccc(O)c(O)c2)SC1=S)OCCOC(=O)c1ccc(-c2c3nc(c(-c4c(F)c(F)c(F)c(F)c4F)c4ccc([nH]4)c(-c4c(F)c(F)c(F)c(F)c4F)c4nc(c(-c5c(F)c(F)c(F)c(F)c5F)c5ccc2[nH]5)C=C4)C=C3)cc1
REMARK SMILES IDX 22 1 2 2 1 3 3 4 4 5 5 6 6 7 7 8 20 9 8 10 9 11 19 12 21 13
REMARK SMILES IDX 10 14 11 15 12 16 18 17 13 18 16 19 14 20 17 21 15 23 23 25
REMARK SMILES IDX 24 26 25 27 26 28 27 29 28 30 29 31 90 32 30 33 89 34 31 35
REMARK SMILES IDX 32 36 33 37 83 38 34 39 88 40 82 41 84 42 35 43 87 44 81 45
REMARK SMILES IDX 80 46 36 48 68 49 48 50 67 51 49 52 52 53 66 54 85 55 50 56
REMARK SMILES IDX 51 57 65 59 86 60 53 61 37 62 38 63 46 64 39 65 40 66 44 67
REMARK SMILES IDX 47 68 41 69 42 70 45 71 43 72 69 73 70 74 78 75 71 76 72 77
REMARK SMILES IDX 76 78 79 79 73 80 74 81 77 82 75 83 54 84 55 85 63 86 56 87
REMARK SMILES IDX 57 88 61 89 64 90 58 91 59 92 62 93 60 94
REMARK H PARENT 17 22 15 24 84 47 52 58
REMARK Flexibility Score: inf
ROOT
ATOM      1  O   UNL A   1      34.015  31.194  27.619  1.00  0.00    -0.462 OA
ENDROOT
BRANCH   1   2
ATOM      2  C   UNL A   1      34.346  29.938  27.225  1.00  0.00     0.305 C 
ATOM      3  O   UNL A   1      35.369  29.348  27.553  1.00  0.00    -0.252 OA
BRANCH   2   4
ATOM      4  C   UNL A   1      33.451  29.455  26.106  1.00  0.00     0.124 C 
BRANCH   4   5
ATOM      5  C   UNL A   1      33.729  28.132  25.400  1.00  0.00     0.034 C 
BRANCH   5   6
ATOM      6  C   UNL A   1      32.918  27.690  24.183  1.00  0.00     0.128 C 
BRANCH   6   7
ATOM      7  N   UNL A   1      31.496  27.310  24.187  1.00  0.00    -0.293 N 
ATOM      8  C   UNL A   1      30.707  28.141  23.394  1.00  0.00     0.266 C 
ATOM      9  C   UNL A   1      30.809  26.308  24.825  1.00  0.00     0.148 C 
ATOM     10  O   UNL A   1      31.144  29.090  22.755  1.00  0.00    -0.268 OA
ATOM     11  C   UNL A   1      29.280  27.715  23.399  1.00  0.00     0.081 C 
ATOM     12  S   UNL A   1      29.161  26.194  24.186  1.00  0.00    -0.054 SA
ATOM     13  S   UNL A   1      31.277  25.320  26.070  1.00  0.00    -0.052 S 
ATOM     14  C   UNL A   1      28.214  28.408  22.967  1.00  0.00     0.029 C 
BRANCH  14  15
ATOM     15  C   UNL A   1      28.293  29.817  22.569  1.00  0.00    -0.020 A 
ATOM     16  C   UNL A   1      28.459  30.848  23.506  1.00  0.00     0.012 A 
ATOM     17  C   UNL A   1      28.048  30.132  21.227  1.00  0.00     0.058 A 
ATOM     18  C   UNL A   1      28.275  32.182  23.130  1.00  0.00     0.051 A 
ATOM     19  C   UNL A   1      27.881  31.458  20.861  1.00  0.00     0.157 A 
ATOM     20  C   UNL A   1      27.967  32.476  21.807  1.00  0.00     0.157 A 
BRANCH  19  21
ATOM     21  O   UNL A   1      27.576  31.755  19.563  1.00  0.00    -0.504 OA
ATOM     22  H   UNL A   1      28.183  32.241  19.039  1.00  0.00     0.293 HD
ENDBRANCH  19  21
BRANCH  20  23
ATOM     23  O   UNL A   1      27.704  33.753  21.393  1.00  0.00    -0.504 OA
ATOM     24  H   UNL A   1      27.501  34.416  22.022  1.00  0.00     0.293 HD
ENDBRANCH  20  23
ENDBRANCH  14  15
ENDBRANCH   6   7
ENDBRANCH   5   6
ENDBRANCH   4   5
ENDBRANCH   2   4
ENDBRANCH   1   2
BRANCH   1  25
ATOM     25  C   UNL A   1      32.679  31.600  27.278  1.00  0.00     0.274 C 
BRANCH  25  26
ATOM     26  C   UNL A   1      32.673  33.117  27.044  1.00  0.00     0.275 C 
BRANCH  26  27
ATOM     27  O   UNL A   1      32.186  33.806  28.214  1.00  0.00    -0.458 OA
BRANCH  27  28
ATOM     28  C   UNL A   1      32.898  34.842  28.705  1.00  0.00     0.338 C 
ATOM     29  O   UNL A   1      32.608  36.023  28.682  1.00  0.00    -0.246 OA
BRANCH  28  30
ATOM     30  C   UNL A   1      34.115  34.272  29.322  1.00  0.00     0.060 A 
ATOM     31  C   UNL A   1      35.380  34.604  28.827  1.00  0.00     0.016 A 
ATOM     32  C   UNL A   1      33.998  33.433  30.429  1.00  0.00     0.016 A 
ATOM     33  C   UNL A   1      36.529  34.060  29.425  1.00  0.00     0.010 A 
ATOM     34  C   UNL A   1      35.147  32.939  31.058  1.00  0.00     0.010 A 
ATOM     35  C   UNL A   1      36.425  33.202  30.533  1.00  0.00    -0.014 A 
BRANCH  35  36
ATOM     36  C   UNL A   1      37.609  32.444  31.043  1.00  0.00     0.031 A 
ATOM     37  C   UNL A   1      38.162  32.790  32.408  1.00  0.00     0.074 A 
ATOM     38  C   UNL A   1      38.213  31.476  30.326  1.00  0.00     0.049 A 
ATOM     39  N   UNL A   1      39.171  32.264  33.060  1.00  0.00    -0.248 NA
ATOM     40  C   UNL A   1      37.507  33.897  33.122  1.00  0.00     0.031 C 
ATOM     41  C   UNL A   1      37.842  31.058  28.976  1.00  0.00     0.029 A 
ATOM     42  N   UNL A   1      39.289  30.672  30.637  1.00  0.00    -0.354 N 
ATOM     43  C   UNL A   1      39.270  32.983  34.246  1.00  0.00     0.074 A 
ATOM     44  C   UNL A   1      38.274  34.029  34.191  1.00  0.00     0.031 C 
ATOM     45  C   UNL A   1      38.668  30.072  28.579  1.00  0.00     0.029 A 
ATOM     46  C   UNL A   1      39.637  29.794  29.639  1.00  0.00     0.049 A 
ATOM     47  H   UNL A   1      39.765  30.723  31.497  1.00  0.00     0.167 HD
ATOM     48  C   UNL A   1      40.083  32.774  35.309  1.00  0.00     0.037 A 
ATOM     49  C   UNL A   1      40.620  28.869  29.586  1.00  0.00     0.037 A 
ATOM     50  C   UNL A   1      41.056  31.723  35.398  1.00  0.00     0.049 A 
ATOM     51  C   UNL A   1      41.523  28.656  30.777  1.00  0.00     0.074 A 
ATOM     52  C   UNL A   1      41.865  31.385  36.469  1.00  0.00     0.029 A 
ATOM     53  N   UNL A   1      41.358  30.841  34.373  1.00  0.00    -0.354 N 
ATOM     54  N   UNL A   1      41.527  29.268  31.936  1.00  0.00    -0.248 NA
ATOM     55  C   UNL A   1      42.550  27.608  30.657  1.00  0.00     0.031 C 
ATOM     56  C   UNL A   1      42.694  30.331  36.075  1.00  0.00     0.029 A 
ATOM     57  C   UNL A   1      42.364  29.979  34.776  1.00  0.00     0.049 A 
ATOM     58  H   UNL A   1      40.924  30.830  33.489  1.00  0.00     0.167 HD
ATOM     59  C   UNL A   1      42.527  28.661  32.689  1.00  0.00     0.074 A 
ATOM     60  C   UNL A   1      43.105  27.625  31.862  1.00  0.00     0.031 C 
ATOM     61  C   UNL A   1      42.926  28.938  33.955  1.00  0.00     0.037 A 
BRANCH  48  62
ATOM     62  C   UNL A   1      39.937  33.707  36.476  1.00  0.00     0.064 A 
ATOM     63  C   UNL A   1      39.035  33.442  37.518  1.00  0.00     0.173 A 
ATOM     64  C   UNL A   1      40.719  34.868  36.564  1.00  0.00     0.173 A 
ATOM     65  F   UNL A   1      38.255  32.351  37.476  1.00  0.00    -0.203 F 
ATOM     66  C   UNL A   1      38.892  34.326  38.584  1.00  0.00     0.198 A 
ATOM     67  C   UNL A   1      40.597  35.732  37.649  1.00  0.00     0.198 A 
ATOM     68  F   UNL A   1      41.602  35.164  35.598  1.00  0.00    -0.203 F 
ATOM     69  F   UNL A   1      37.981  34.081  39.537  1.00  0.00    -0.200 F 
ATOM     70  C   UNL A   1      39.677  35.467  38.652  1.00  0.00     0.200 A 
ATOM     71  F   UNL A   1      41.366  36.828  37.719  1.00  0.00    -0.200 F 
ATOM     72  F   UNL A   1      39.541  36.314  39.680  1.00  0.00    -0.200 F 
ENDBRANCH  48  62
BRANCH  49  73
ATOM     73  C   UNL A   1      40.796  28.037  28.364  1.00  0.00     0.064 A 
ATOM     74  C   UNL A   1      40.159  26.793  28.237  1.00  0.00     0.173 A 
ATOM     75  C   UNL A   1      41.631  28.450  27.316  1.00  0.00     0.173 A 
ATOM     76  F   UNL A   1      39.376  26.340  29.226  1.00  0.00    -0.203 F 
ATOM     77  C   UNL A   1      40.366  25.988  27.119  1.00  0.00     0.198 A 
ATOM     78  C   UNL A   1      41.816  27.655  26.186  1.00  0.00     0.198 A 
ATOM     79  F   UNL A   1      42.269  29.627  27.390  1.00  0.00    -0.203 F 
ATOM     80  F   UNL A   1      39.784  24.783  27.046  1.00  0.00    -0.200 F 
ATOM     81  C   UNL A   1      41.190  26.422  26.091  1.00  0.00     0.200 A 
ATOM     82  F   UNL A   1      42.609  28.080  25.193  1.00  0.00    -0.200 F 
ATOM     83  F   UNL A   1      41.390  25.647  25.017  1.00  0.00    -0.200 F 
ENDBRANCH  49  73
BRANCH  61  84
ATOM     84  C   UNL A   1      44.015  28.094  34.552  1.00  0.00     0.064 A 
ATOM     85  C   UNL A   1      45.356  28.500  34.535  1.00  0.00     0.173 A 
ATOM     86  C   UNL A   1      43.700  26.896  35.216  1.00  0.00     0.173 A 
ATOM     87  F   UNL A   1      45.711  29.629  33.904  1.00  0.00    -0.203 F 
ATOM     88  C   UNL A   1      46.345  27.731  35.145  1.00  0.00     0.198 A 
ATOM     89  C   UNL A   1      44.687  26.147  35.850  1.00  0.00     0.198 A 
ATOM     90  F   UNL A   1      42.431  26.468  35.270  1.00  0.00    -0.203 F 
ATOM     91  F   UNL A   1      47.626  28.122  35.086  1.00  0.00    -0.200 F 
ATOM     92  C   UNL A   1      46.009  26.562  35.810  1.00  0.00     0.200 A 
ATOM     93  F   UNL A   1      44.357  25.024  36.505  1.00  0.00    -0.200 F 
ATOM     94  F   UNL A   1      46.959  25.833  36.410  1.00  0.00    -0.200 F 
ENDBRANCH  61  84
ENDBRANCH  35  36
ENDBRANCH  28  30
ENDBRANCH  27  28
ENDBRANCH  26  27
ENDBRANCH  25  26
ENDBRANCH   1  25
TORSDOF 17
ENDMDL
MODEL 3
REMARK VINA RESULT:     -11.5      6.109     11.342
REMARK SMILES O=C(CCCN1C(=O)/C(=C\c2ccc(O)c(O)c2)SC1=S)OCCOC(=O)c1ccc(-c2c3nc(c(-c4c(F)c(F)c(F)c(F)c4F)c4ccc([nH]4)c(-c4c(F)c(F)c(F)c(F)c4F)c4nc(c(-c5c(F)c(F)c(F)c(F)c5F)c5ccc2[nH]5)C=C4)C=C3)cc1
REMARK SMILES IDX 22 1 2 2 1 3 3 4 4 5 5 6 6 7 7 8 20 9 8 10 9 11 19 12 21 13
REMARK SMILES IDX 10 14 11 15 12 16 18 17 13 18 16 19 14 20 17 21 15 23 23 25
REMARK SMILES IDX 24 26 25 27 26 28 27 29 28 30 29 31 90 32 30 33 89 34 31 35
REMARK SMILES IDX 32 36 33 37 83 38 34 39 88 40 82 41 84 42 35 43 87 44 81 45
REMARK SMILES IDX 80 46 36 48 68 49 48 50 67 51 49 52 52 53 66 54 85 55 50 56
REMARK SMILES IDX 51 57 65 59 86 60 53 61 37 62 38 63 46 64 39 65 40 66 44 67
REMARK SMILES IDX 47 68 41 69 42 70 45 71 43 72 69 73 70 74 78 75 71 76 72 77
REMARK SMILES IDX 76 78 79 79 73 80 74 81 77 82 75 83 54 84 55 85 63 86 56 87
REMARK SMILES IDX 57 88 61 89 64 90 58 91 59 92 62 93 60 94
REMARK H PARENT 17 22 15 24 84 47 52 58
REMARK Flexibility Score: inf
ROOT
ATOM      1  O   UNL A   1      32.855  30.944  27.582  1.00  0.00    -0.462 OA
ENDROOT
BRANCH   1   2
ATOM      2  C   UNL A   1      33.816  30.289  26.881  1.00  0.00     0.305 C 
ATOM      3  O   UNL A   1      35.015  30.329  27.132  1.00  0.00    -0.252 OA
BRANCH   2   4
ATOM      4  C   UNL A   1      33.273  29.735  25.583  1.00  0.00     0.124 C 
BRANCH   4   5
ATOM      5  C   UNL A   1      33.524  28.282  25.190  1.00  0.00     0.034 C 
BRANCH   5   6
ATOM      6  C   UNL A   1      32.746  27.616  24.056  1.00  0.00     0.128 C 
BRANCH   6   7
ATOM      7  N   UNL A   1      31.315  27.272  24.079  1.00  0.00    -0.293 N 
ATOM      8  C   UNL A   1      30.535  28.135  23.311  1.00  0.00     0.266 C 
ATOM      9  C   UNL A   1      30.613  26.279  24.714  1.00  0.00     0.148 C 
ATOM     10  O   UNL A   1      30.986  29.082  22.679  1.00  0.00    -0.268 OA
ATOM     11  C   UNL A   1      29.097  27.746  23.334  1.00  0.00     0.081 C 
ATOM     12  S   UNL A   1      28.951  26.217  24.101  1.00  0.00    -0.054 SA
ATOM     13  S   UNL A   1      31.075  25.261  25.936  1.00  0.00    -0.052 S 
ATOM     14  C   UNL A   1      28.043  28.473  22.931  1.00  0.00     0.029 C 
BRANCH  14  15
ATOM     15  C   UNL A   1      28.152  29.885  22.552  1.00  0.00    -0.020 A 
ATOM     16  C   UNL A   1      28.229  30.909  23.508  1.00  0.00     0.012 A 
ATOM     17  C   UNL A   1      28.027  30.210  21.196  1.00  0.00     0.058 A 
ATOM     18  C   UNL A   1      28.074  32.246  23.126  1.00  0.00     0.051 A 
ATOM     19  C   UNL A   1      27.889  31.538  20.826  1.00  0.00     0.157 A 
ATOM     20  C   UNL A   1      27.885  32.549  21.783  1.00  0.00     0.157 A 
BRANCH  19  21
ATOM     21  O   UNL A   1      27.701  31.845  19.508  1.00  0.00    -0.504 OA
ATOM     22  H   UNL A   1      27.933  32.694  19.187  1.00  0.00     0.293 HD
ENDBRANCH  19  21
BRANCH  20  23
ATOM     23  O   UNL A   1      27.655  33.828  21.357  1.00  0.00    -0.504 OA
ATOM     24  H   UNL A   1      26.947  34.006  20.771  1.00  0.00     0.293 HD
ENDBRANCH  20  23
ENDBRANCH  14  15
ENDBRANCH   6   7
ENDBRANCH   5   6
ENDBRANCH   4   5
ENDBRANCH   2   4
ENDBRANCH   1   2
BRANCH   1  25
ATOM     25  C   UNL A   1      31.892  31.642  26.775  1.00  0.00     0.274 C 
BRANCH  25  26
ATOM     26  C   UNL A   1      32.169  33.148  26.875  1.00  0.00     0.275 C 
BRANCH  26  27
ATOM     27  O   UNL A   1      32.465  33.517  28.238  1.00  0.00    -0.458 OA
BRANCH  27  28
ATOM     28  C   UNL A   1      33.491  34.361  28.477  1.00  0.00     0.338 C 
ATOM     29  O   UNL A   1      33.504  35.571  28.358  1.00  0.00    -0.246 OA
BRANCH  28  30
ATOM     30  C   UNL A   1      34.622  33.535  28.953  1.00  0.00     0.060 A 
ATOM     31  C   UNL A   1      34.400  32.471  29.831  1.00  0.00     0.016 A 
ATOM     32  C   UNL A   1      35.910  33.797  28.487  1.00  0.00     0.016 A 
ATOM     33  C   UNL A   1      35.481  31.691  30.272  1.00  0.00     0.010 A 
ATOM     34  C   UNL A   1      36.976  32.981  28.883  1.00  0.00     0.010 A 
ATOM     35  C   UNL A   1      36.786  31.952  29.822  1.00  0.00    -0.014 A 
BRANCH  35  36
ATOM     36  C   UNL A   1      37.972  31.282  30.442  1.00  0.00     0.031 A 
ATOM     37  C   UNL A   1      38.361  31.651  31.855  1.00  0.00     0.074 A 
ATOM     38  C   UNL A   1      38.717  30.374  29.780  1.00  0.00     0.049 A 
ATOM     39  N   UNL A   1      39.340  31.197  32.600  1.00  0.00    -0.248 NA
ATOM     40  C   UNL A   1      37.554  32.694  32.509  1.00  0.00     0.031 C 
ATOM     41  C   UNL A   1      38.512  29.946  28.399  1.00  0.00     0.029 A 
ATOM     42  N   UNL A   1      39.818  29.652  30.191  1.00  0.00    -0.354 N 
ATOM     43  C   UNL A   1      39.267  31.905  33.794  1.00  0.00     0.074 A 
ATOM     44  C   UNL A   1      38.202  32.871  33.648  1.00  0.00     0.031 C 
ATOM     45  C   UNL A   1      39.448  29.033  28.078  1.00  0.00     0.029 A 
ATOM     46  C   UNL A   1      40.329  28.817  29.226  1.00  0.00     0.049 A 
ATOM     47  H   UNL A   1      40.203  29.728  31.093  1.00  0.00     0.167 HD
ATOM     48  C   UNL A   1      39.987  31.747  34.930  1.00  0.00     0.037 A 
ATOM     49  C   UNL A   1      41.382  27.973  29.263  1.00  0.00     0.037 A 
ATOM     50  C   UNL A   1      41.027  30.773  35.107  1.00  0.00     0.049 A 
ATOM     51  C   UNL A   1      42.180  27.815  30.536  1.00  0.00     0.074 A 
ATOM     52  C   UNL A   1      41.753  30.485  36.250  1.00  0.00     0.029 A 
ATOM     53  N   UNL A   1      41.496  29.932  34.112  1.00  0.00    -0.354 N 
ATOM     54  N   UNL A   1      42.023  28.410  31.694  1.00  0.00    -0.248 NA
ATOM     55  C   UNL A   1      43.293  26.852  30.511  1.00  0.00     0.031 C 
ATOM     56  C   UNL A   1      42.697  29.504  35.933  1.00  0.00     0.029 A 
ATOM     57  C   UNL A   1      42.523  29.145  34.606  1.00  0.00     0.049 A 
ATOM     58  H   UNL A   1      41.151  29.899  33.190  1.00  0.00     0.167 HD
ATOM     59  C   UNL A   1      42.991  27.872  32.537  1.00  0.00     0.074 A 
ATOM     60  C   UNL A   1      43.726  26.895  31.764  1.00  0.00     0.031 C 
ATOM     61  C   UNL A   1      43.242  28.162  33.837  1.00  0.00     0.037 A 
BRANCH  48  62
ATOM     62  C   UNL A   1      39.656  32.650  36.083  1.00  0.00     0.064 A 
ATOM     63  C   UNL A   1      40.341  33.858  36.287  1.00  0.00     0.173 A 
ATOM     64  C   UNL A   1      38.634  32.313  36.981  1.00  0.00     0.173 A 
ATOM     65  F   UNL A   1      41.335  34.220  35.462  1.00  0.00    -0.203 F 
ATOM     66  C   UNL A   1      40.040  34.676  37.373  1.00  0.00     0.198 A 
ATOM     67  C   UNL A   1      38.315  33.151  38.047  1.00  0.00     0.198 A 
ATOM     68  F   UNL A   1      37.944  31.173  36.827  1.00  0.00    -0.203 F 
ATOM     69  F   UNL A   1      40.749  35.795  37.582  1.00  0.00    -0.200 F 
ATOM     70  C   UNL A   1      39.025  34.325  38.249  1.00  0.00     0.200 A 
ATOM     71  F   UNL A   1      37.323  32.817  38.885  1.00  0.00    -0.200 F 
ATOM     72  F   UNL A   1      38.734  35.114  39.291  1.00  0.00    -0.200 F 
ENDBRANCH  48  62
BRANCH  49  73
ATOM     73  C   UNL A   1      41.741  27.174  28.059  1.00  0.00     0.064 A 
ATOM     74  C   UNL A   1      42.626  27.676  27.094  1.00  0.00     0.173 A 
ATOM     75  C   UNL A   1      41.179  25.909  27.832  1.00  0.00     0.173 A 
ATOM     76  F   UNL A   1      43.164  28.894  27.251  1.00  0.00    -0.203 F 
ATOM     77  C   UNL A   1      42.920  26.953  25.940  1.00  0.00     0.198 A 
ATOM     78  C   UNL A   1      41.495  25.176  26.689  1.00  0.00     0.198 A 
ATOM     79  F   UNL A   1      40.321  25.385  28.719  1.00  0.00    -0.203 F 
ATOM     80  F   UNL A   1      43.730  27.479  25.010  1.00  0.00    -0.200 F 
ATOM     81  C   UNL A   1      42.358  25.701  25.740  1.00  0.00     0.200 A 
ATOM     82  F   UNL A   1      40.955  23.964  26.502  1.00  0.00    -0.200 F 
ATOM     83  F   UNL A   1      42.641  25.007  24.630  1.00  0.00    -0.200 F 
ENDBRANCH  49  73
BRANCH  61  84
ATOM     84  C   UNL A   1      44.331  27.398  34.532  1.00  0.00     0.064 A 
ATOM     85  C   UNL A   1      44.090  26.157  35.139  1.00  0.00     0.173 A 
ATOM     86  C   UNL A   1      45.651  27.880  34.526  1.00  0.00     0.173 A 
ATOM     87  F   UNL A   1      42.847  25.657  35.182  1.00  0.00    -0.203 F 
ATOM     88  C   UNL A   1      45.126  25.435  35.728  1.00  0.00     0.198 A 
ATOM     89  C   UNL A   1      46.687  27.141  35.090  1.00  0.00     0.198 A 
ATOM     90  F   UNL A   1      45.937  29.056  33.950  1.00  0.00    -0.203 F 
ATOM     91  F   UNL A   1      44.866  24.267  36.333  1.00  0.00    -0.200 F 
ATOM     92  C   UNL A   1      46.423  25.922  35.695  1.00  0.00     0.200 A 
ATOM     93  F   UNL A   1      47.944  27.607  35.043  1.00  0.00    -0.200 F 
ATOM     94  F   UNL A   1      47.420  25.218  36.248  1.00  0.00    -0.200 F 
ENDBRANCH  61  84
ENDBRANCH  35  36
ENDBRANCH  28  30
ENDBRANCH  27  28
ENDBRANCH  26  27
ENDBRANCH  25  26
ENDBRANCH   1  25
TORSDOF 17
ENDMDL
