MODEL 1
REMARK VINA RESULT:     -12.0      0.000      0.000
REMARK SMILES CC(C)Cc1noc([C@@H]2CC=CC[C@H]2C(=O)OCCOC(=O)c2ccc(-c3c4nc(c(-c5c(F)c(F)c(F)c(F)c5F)c5ccc([nH]5)c(-c5c(F)c(F)c(F)c(F)c5F)c5nc(c(-c6c(F)c(F)c(F)c(F)c6F)c6ccc3[nH]6)C=C5)C=C4)cc2)n1
REMARK SMILES IDX 18 1 17 2 15 3 16 4 14 5 9 6 10 7 11 8 13 9 12 10 8 11 5 12
REMARK SMILES IDX 6 13 86 14 7 15 4 16 2 17 1 18 3 19 19 20 20 21 21 22 22 23
REMARK SMILES IDX 23 24 24 25 85 26 25 27 84 28 26 29 27 30 28 31 78 32 29 33
REMARK SMILES IDX 83 34 77 35 79 36 30 37 82 38 76 39 75 40 31 42 63 43 43 44
REMARK SMILES IDX 62 45 44 46 47 47 61 48 80 49 45 50 46 51 60 53 81 54 48 55
REMARK SMILES IDX 32 56 33 57 41 58 34 59 35 60 39 61 42 62 36 63 37 64 40 65
REMARK SMILES IDX 38 66 64 67 65 68 73 69 66 70 67 71 71 72 74 73 68 74 69 75
REMARK SMILES IDX 72 76 70 77 49 78 50 79 58 80 51 81 52 82 56 83 59 84 53 85
REMARK SMILES IDX 54 86 57 87 55 88
REMARK H PARENT 79 41 47 52
REMARK Flexibility Score: inf
ROOT
ATOM      1  C   UNL A   1      31.796  28.479  27.016  1.00  0.00     0.274 C 
ENDROOT
BRANCH   1   2
ATOM      2  O   UNL A   1      32.597  27.430  26.437  1.00  0.00    -0.462 OA
BRANCH   2   3
ATOM      3  C   UNL A   1      31.922  26.290  26.147  1.00  0.00     0.310 C 
ATOM      4  O   UNL A   1      31.235  25.661  26.948  1.00  0.00    -0.252 OA
BRANCH   3   5
ATOM      5  C   UNL A   1      32.158  25.777  24.744  1.00  0.00     0.116 C 
ATOM      6  C   UNL A   1      31.900  26.763  23.591  1.00  0.00     0.097 C 
ATOM      7  C   UNL A   1      32.267  26.120  22.231  1.00  0.00     0.041 C 
ATOM      8  C   UNL A   1      33.512  25.285  22.254  1.00  0.00    -0.030 C 
ATOM      9  C   UNL A   1      33.607  25.264  24.743  1.00  0.00     0.043 C 
ATOM     10  C   UNL A   1      34.121  24.910  23.385  1.00  0.00    -0.030 C 
BRANCH   6  11
ATOM     11  C   UNL A   1      30.482  27.235  23.518  1.00  0.00     0.230 A 
ATOM     12  C   UNL A   1      28.645  28.169  23.146  1.00  0.00     0.172 A 
ATOM     13  N   UNL A   1      28.286  26.959  23.594  1.00  0.00    -0.062 NA
ATOM     14  N   UNL A   1      30.002  28.380  23.086  1.00  0.00    -0.196 NA
ATOM     15  O   UNL A   1      29.506  26.334  23.843  1.00  0.00    -0.339 OA
BRANCH  12  16
ATOM     16  C   UNL A   1      27.649  29.205  22.760  1.00  0.00     0.084 C 
BRANCH  16  17
ATOM     17  C   UNL A   1      28.255  30.604  22.535  1.00  0.00    -0.010 C 
ATOM     18  C   UNL A   1      28.037  31.108  21.105  1.00  0.00     0.008 C 
ATOM     19  C   UNL A   1      27.647  31.603  23.525  1.00  0.00     0.008 C 
ENDBRANCH  16  17
ENDBRANCH  12  16
ENDBRANCH   6  11
ENDBRANCH   3   5
ENDBRANCH   2   3
ENDBRANCH   1   2
BRANCH   1  20
ATOM     20  C   UNL A   1      31.834  29.740  26.154  1.00  0.00     0.275 C 
BRANCH  20  21
ATOM     21  O   UNL A   1      33.175  30.252  26.102  1.00  0.00    -0.458 OA
BRANCH  21  22
ATOM     22  C   UNL A   1      33.475  31.199  27.017  1.00  0.00     0.338 C 
ATOM     23  O   UNL A   1      32.839  32.209  27.267  1.00  0.00    -0.246 OA
BRANCH  22  24
ATOM     24  C   UNL A   1      34.763  30.878  27.667  1.00  0.00     0.060 A 
ATOM     25  C   UNL A   1      35.112  29.569  28.017  1.00  0.00     0.016 A 
ATOM     26  C   UNL A   1      35.610  31.936  27.994  1.00  0.00     0.016 A 
ATOM     27  C   UNL A   1      36.283  29.322  28.736  1.00  0.00     0.010 A 
ATOM     28  C   UNL A   1      36.811  31.683  28.657  1.00  0.00     0.010 A 
ATOM     29  C   UNL A   1      37.149  30.377  29.052  1.00  0.00    -0.014 A 
BRANCH  29  30
ATOM     30  C   UNL A   1      38.413  30.158  29.800  1.00  0.00     0.031 A 
ATOM     31  C   UNL A   1      39.446  29.215  29.252  1.00  0.00     0.074 A 
ATOM     32  C   UNL A   1      38.593  30.733  31.003  1.00  0.00     0.049 A 
ATOM     33  N   UNL A   1      40.473  28.672  29.854  1.00  0.00    -0.248 NA
ATOM     34  C   UNL A   1      39.291  28.815  27.845  1.00  0.00     0.031 C 
ATOM     35  C   UNL A   1      37.683  31.692  31.628  1.00  0.00     0.029 A 
ATOM     36  N   UNL A   1      39.590  30.563  31.932  1.00  0.00    -0.354 N 
ATOM     37  C   UNL A   1      41.059  27.832  28.916  1.00  0.00     0.074 A 
ATOM     38  C   UNL A   1      40.277  27.939  27.703  1.00  0.00     0.031 C 
ATOM     39  C   UNL A   1      38.153  32.015  32.844  1.00  0.00     0.029 A 
ATOM     40  C   UNL A   1      39.357  31.233  33.108  1.00  0.00     0.049 A 
ATOM     41  H   UNL A   1      40.392  30.016  31.771  1.00  0.00     0.167 HD
ATOM     42  C   UNL A   1      42.149  27.042  29.064  1.00  0.00     0.037 A 
ATOM     43  C   UNL A   1      40.008  31.182  34.285  1.00  0.00     0.037 A 
ATOM     44  C   UNL A   1      42.946  26.971  30.261  1.00  0.00     0.049 A 
ATOM     45  C   UNL A   1      41.200  30.276  34.430  1.00  0.00     0.074 A 
ATOM     46  C   UNL A   1      44.084  26.221  30.497  1.00  0.00     0.029 A 
ATOM     47  N   UNL A   1      42.690  27.688  31.420  1.00  0.00    -0.354 N 
ATOM     48  N   UNL A   1      41.735  29.468  33.550  1.00  0.00    -0.248 NA
ATOM     49  C   UNL A   1      41.871  30.267  35.739  1.00  0.00     0.031 C 
ATOM     50  C   UNL A   1      44.501  26.459  31.812  1.00  0.00     0.029 A 
ATOM     51  C   UNL A   1      43.644  27.388  32.379  1.00  0.00     0.049 A 
ATOM     52  H   UNL A   1      41.942  28.316  31.544  1.00  0.00     0.167 HD
ATOM     53  C   UNL A   1      42.817  28.874  34.184  1.00  0.00     0.074 A 
ATOM     54  C   UNL A   1      42.867  29.420  35.524  1.00  0.00     0.031 C 
ATOM     55  C   UNL A   1      43.689  27.958  33.701  1.00  0.00     0.037 A 
BRANCH  42  56
ATOM     56  C   UNL A   1      42.540  26.166  27.912  1.00  0.00     0.064 A 
ATOM     57  C   UNL A   1      41.911  24.937  27.673  1.00  0.00     0.173 A 
ATOM     58  C   UNL A   1      43.507  26.600  26.993  1.00  0.00     0.173 A 
ATOM     59  F   UNL A   1      40.985  24.474  28.527  1.00  0.00    -0.203 F 
ATOM     60  C   UNL A   1      42.243  24.169  26.558  1.00  0.00     0.198 A 
ATOM     61  C   UNL A   1      43.821  25.841  25.869  1.00  0.00     0.198 A 
ATOM     62  F   UNL A   1      44.134  27.773  27.174  1.00  0.00    -0.203 F 
ATOM     63  F   UNL A   1      41.646  22.986  26.360  1.00  0.00    -0.200 F 
ATOM     64  C   UNL A   1      43.191  24.625  25.654  1.00  0.00     0.200 A 
ATOM     65  F   UNL A   1      44.728  26.289  24.990  1.00  0.00    -0.200 F 
ATOM     66  F   UNL A   1      43.497  23.893  24.575  1.00  0.00    -0.200 F 
ENDBRANCH  42  56
BRANCH  43  67
ATOM     67  C   UNL A   1      39.522  31.989  35.433  1.00  0.00     0.064 A 
ATOM     68  C   UNL A   1      39.973  33.300  35.634  1.00  0.00     0.173 A 
ATOM     69  C   UNL A   1      38.600  31.466  36.352  1.00  0.00     0.173 A 
ATOM     70  F   UNL A   1      40.874  33.833  34.797  1.00  0.00    -0.203 F 
ATOM     71  C   UNL A   1      39.529  34.054  36.718  1.00  0.00     0.198 A 
ATOM     72  C   UNL A   1      38.136  32.230  37.419  1.00  0.00     0.198 A 
ATOM     73  F   UNL A   1      38.139  30.215  36.203  1.00  0.00    -0.203 F 
ATOM     74  F   UNL A   1      40.008  35.290  36.912  1.00  0.00    -0.200 F 
ATOM     75  C   UNL A   1      38.605  33.521  37.606  1.00  0.00     0.200 A 
ATOM     76  F   UNL A   1      37.235  31.715  38.268  1.00  0.00    -0.200 F 
ATOM     77  F   UNL A   1      38.177  34.249  38.646  1.00  0.00    -0.200 F 
ENDBRANCH  43  67
BRANCH  55  78
ATOM     78  C   UNL A   1      44.803  27.526  34.606  1.00  0.00     0.064 A 
ATOM     79  C   UNL A   1      46.014  28.229  34.665  1.00  0.00     0.173 A 
ATOM     80  C   UNL A   1      44.637  26.420  35.453  1.00  0.00     0.173 A 
ATOM     81  F   UNL A   1      46.225  29.282  33.863  1.00  0.00    -0.203 F 
ATOM     82  C   UNL A   1      47.028  27.827  35.531  1.00  0.00     0.198 A 
ATOM     83  C   UNL A   1      45.643  26.037  36.333  1.00  0.00     0.198 A 
ATOM     84  F   UNL A   1      43.492  25.720  35.433  1.00  0.00    -0.203 F 
ATOM     85  F   UNL A   1      48.193  28.489  35.547  1.00  0.00    -0.200 F 
ATOM     86  C   UNL A   1      46.840  26.737  36.367  1.00  0.00     0.200 A 
ATOM     87  F   UNL A   1      45.456  24.989  37.147  1.00  0.00    -0.200 F 
ATOM     88  F   UNL A   1      47.816  26.356  37.204  1.00  0.00    -0.200 F 
ENDBRANCH  55  78
ENDBRANCH  29  30
ENDBRANCH  22  24
ENDBRANCH  21  22
ENDBRANCH  20  21
ENDBRANCH   1  20
TORSDOF 14
ENDMDL
MODEL 2
REMARK VINA RESULT:     -11.9      0.734      2.195
REMARK SMILES CC(C)Cc1noc([C@@H]2CC=CC[C@H]2C(=O)OCCOC(=O)c2ccc(-c3c4nc(c(-c5c(F)c(F)c(F)c(F)c5F)c5ccc([nH]5)c(-c5c(F)c(F)c(F)c(F)c5F)c5nc(c(-c6c(F)c(F)c(F)c(F)c6F)c6ccc3[nH]6)C=C5)C=C4)cc2)n1
REMARK SMILES IDX 18 1 17 2 15 3 16 4 14 5 9 6 10 7 11 8 13 9 12 10 8 11 5 12
REMARK SMILES IDX 6 13 86 14 7 15 4 16 2 17 1 18 3 19 19 20 20 21 21 22 22 23
REMARK SMILES IDX 23 24 24 25 85 26 25 27 84 28 26 29 27 30 28 31 78 32 29 33
REMARK SMILES IDX 83 34 77 35 79 36 30 37 82 38 76 39 75 40 31 42 63 43 43 44
REMARK SMILES IDX 62 45 44 46 47 47 61 48 80 49 45 50 46 51 60 53 81 54 48 55
REMARK SMILES IDX 32 56 33 57 41 58 34 59 35 60 39 61 42 62 36 63 37 64 40 65
REMARK SMILES IDX 38 66 64 67 65 68 73 69 66 70 67 71 71 72 74 73 68 74 69 75
REMARK SMILES IDX 72 76 70 77 49 78 50 79 58 80 51 81 52 82 56 83 59 84 53 85
REMARK SMILES IDX 54 86 57 87 55 88
REMARK H PARENT 79 41 47 52
REMARK Flexibility Score: inf
ROOT
ATOM      1  C   UNL A   1      31.759  28.753  27.268  1.00  0.00     0.274 C 
ENDROOT
BRANCH   1   2
ATOM      2  O   UNL A   1      31.149  27.546  26.767  1.00  0.00    -0.462 OA
BRANCH   2   3
ATOM      3  C   UNL A   1      32.011  26.659  26.210  1.00  0.00     0.310 C 
ATOM      4  O   UNL A   1      33.229  26.806  26.159  1.00  0.00    -0.252 OA
BRANCH   3   5
ATOM      5  C   UNL A   1      31.334  25.478  25.551  1.00  0.00     0.116 C 
ATOM      6  C   UNL A   1      31.311  25.459  24.013  1.00  0.00     0.097 C 
ATOM      7  C   UNL A   1      30.663  24.152  23.493  1.00  0.00     0.041 C 
ATOM      8  C   UNL A   1      31.040  22.923  24.264  1.00  0.00    -0.030 C 
ATOM      9  C   UNL A   1      32.038  24.239  26.127  1.00  0.00     0.043 C 
ATOM     10  C   UNL A   1      31.669  22.962  25.444  1.00  0.00    -0.030 C 
BRANCH   6  11
ATOM     11  C   UNL A   1      30.575  26.616  23.414  1.00  0.00     0.230 A 
ATOM     12  C   UNL A   1      29.305  28.204  22.910  1.00  0.00     0.172 A 
ATOM     13  N   UNL A   1      30.421  28.474  22.219  1.00  0.00    -0.062 NA
ATOM     14  N   UNL A   1      29.362  27.055  23.664  1.00  0.00    -0.196 NA
ATOM     15  O   UNL A   1      31.269  27.420  22.552  1.00  0.00    -0.339 OA
BRANCH  12  16
ATOM     16  C   UNL A   1      28.099  29.072  22.850  1.00  0.00     0.084 C 
BRANCH  16  17
ATOM     17  C   UNL A   1      28.405  30.549  22.532  1.00  0.00    -0.010 C 
ATOM     18  C   UNL A   1      28.030  30.923  21.095  1.00  0.00     0.008 C 
ATOM     19  C   UNL A   1      27.654  31.461  23.507  1.00  0.00     0.008 C 
ENDBRANCH  16  17
ENDBRANCH  12  16
ENDBRANCH   6  11
ENDBRANCH   3   5
ENDBRANCH   2   3
ENDBRANCH   1   2
BRANCH   1  20
ATOM     20  C   UNL A   1      31.789  29.839  26.195  1.00  0.00     0.275 C 
BRANCH  20  21
ATOM     21  O   UNL A   1      33.116  30.381  26.090  1.00  0.00    -0.458 OA
BRANCH  21  22
ATOM     22  C   UNL A   1      33.434  31.328  26.999  1.00  0.00     0.338 C 
ATOM     23  O   UNL A   1      32.811  32.346  27.251  1.00  0.00    -0.246 OA
BRANCH  22  24
ATOM     24  C   UNL A   1      34.724  30.994  27.639  1.00  0.00     0.060 A 
ATOM     25  C   UNL A   1      35.070  29.681  27.972  1.00  0.00     0.016 A 
ATOM     26  C   UNL A   1      35.576  32.046  27.975  1.00  0.00     0.016 A 
ATOM     27  C   UNL A   1      36.244  29.421  28.682  1.00  0.00     0.010 A 
ATOM     28  C   UNL A   1      36.779  31.781  28.629  1.00  0.00     0.010 A 
ATOM     29  C   UNL A   1      37.115  30.469  29.007  1.00  0.00    -0.014 A 
BRANCH  29  30
ATOM     30  C   UNL A   1      38.381  30.237  29.746  1.00  0.00     0.031 A 
ATOM     31  C   UNL A   1      39.419  29.317  29.170  1.00  0.00     0.074 A 
ATOM     32  C   UNL A   1      38.560  30.779  30.965  1.00  0.00     0.049 A 
ATOM     33  N   UNL A   1      40.452  28.763  29.754  1.00  0.00    -0.248 NA
ATOM     34  C   UNL A   1      39.265  28.957  27.751  1.00  0.00     0.031 C 
ATOM     35  C   UNL A   1      37.645  31.713  31.618  1.00  0.00     0.029 A 
ATOM     36  N   UNL A   1      39.560  30.589  31.887  1.00  0.00    -0.354 N 
ATOM     37  C   UNL A   1      41.041  27.956  28.791  1.00  0.00     0.074 A 
ATOM     38  C   UNL A   1      40.256  28.092  27.583  1.00  0.00     0.031 C 
ATOM     39  C   UNL A   1      38.115  32.003  32.843  1.00  0.00     0.029 A 
ATOM     40  C   UNL A   1      39.324  31.223  33.082  1.00  0.00     0.049 A 
ATOM     41  H   UNL A   1      40.365  30.051  31.709  1.00  0.00     0.167 HD
ATOM     42  C   UNL A   1      42.137  27.169  28.914  1.00  0.00     0.037 A 
ATOM     43  C   UNL A   1      39.978  31.141  34.256  1.00  0.00     0.037 A 
ATOM     44  C   UNL A   1      42.936  27.068  30.108  1.00  0.00     0.049 A 
ATOM     45  C   UNL A   1      41.176  30.240  34.374  1.00  0.00     0.074 A 
ATOM     46  C   UNL A   1      44.080  26.319  30.320  1.00  0.00     0.029 A 
ATOM     47  N   UNL A   1      42.678  27.750  31.287  1.00  0.00    -0.354 N 
ATOM     48  N   UNL A   1      41.715  29.461  33.469  1.00  0.00    -0.248 NA
ATOM     49  C   UNL A   1      41.849  30.198  35.680  1.00  0.00     0.031 C 
ATOM     50  C   UNL A   1      44.497  26.522  31.640  1.00  0.00     0.029 A 
ATOM     51  C   UNL A   1      43.636  27.429  32.236  1.00  0.00     0.049 A 
ATOM     52  H   UNL A   1      41.926  28.369  31.430  1.00  0.00     0.167 HD
ATOM     53  C   UNL A   1      42.802  28.857  34.084  1.00  0.00     0.074 A 
ATOM     54  C   UNL A   1      42.851  29.364  35.439  1.00  0.00     0.031 C 
ATOM     55  C   UNL A   1      43.679  27.960  33.573  1.00  0.00     0.037 A 
BRANCH  42  56
ATOM     56  C   UNL A   1      42.531  26.329  27.737  1.00  0.00     0.064 A 
ATOM     57  C   UNL A   1      43.539  26.729  26.849  1.00  0.00     0.173 A 
ATOM     58  C   UNL A   1      41.942  25.070  27.540  1.00  0.00     0.173 A 
ATOM     59  F   UNL A   1      44.127  27.927  26.990  1.00  0.00    -0.203 F 
ATOM     60  C   UNL A   1      43.936  25.903  25.800  1.00  0.00     0.198 A 
ATOM     61  C   UNL A   1      42.357  24.238  26.504  1.00  0.00     0.198 A 
ATOM     62  F   UNL A   1      40.977  24.638  28.367  1.00  0.00    -0.203 F 
ATOM     63  F   UNL A   1      44.886  26.314  24.948  1.00  0.00    -0.200 F 
ATOM     64  C   UNL A   1      43.351  24.656  25.633  1.00  0.00     0.200 A 
ATOM     65  F   UNL A   1      41.799  23.029  26.352  1.00  0.00    -0.200 F 
ATOM     66  F   UNL A   1      43.747  23.857  24.634  1.00  0.00    -0.200 F 
ENDBRANCH  42  56
BRANCH  43  67
ATOM     67  C   UNL A   1      39.488  31.912  35.428  1.00  0.00     0.064 A 
ATOM     68  C   UNL A   1      38.598  31.338  36.345  1.00  0.00     0.173 A 
ATOM     69  C   UNL A   1      39.898  33.235  35.653  1.00  0.00     0.173 A 
ATOM     70  F   UNL A   1      38.158  30.086  36.157  1.00  0.00    -0.203 F 
ATOM     71  C   UNL A   1      38.126  32.064  37.437  1.00  0.00     0.198 A 
ATOM     72  C   UNL A   1      39.448  33.948  36.760  1.00  0.00     0.198 A 
ATOM     73  F   UNL A   1      40.749  33.828  34.802  1.00  0.00    -0.203 F 
ATOM     74  F   UNL A   1      37.242  31.507  38.276  1.00  0.00    -0.200 F 
ATOM     75  C   UNL A   1      38.557  33.366  37.648  1.00  0.00     0.200 A 
ATOM     76  F   UNL A   1      39.875  35.202  36.965  1.00  0.00    -0.200 F 
ATOM     77  F   UNL A   1      38.105  34.061  38.700  1.00  0.00    -0.200 F 
ENDBRANCH  43  67
BRANCH  55  78
ATOM     78  C   UNL A   1      44.797  27.510  34.463  1.00  0.00     0.064 A 
ATOM     79  C   UNL A   1      44.681  26.366  35.264  1.00  0.00     0.173 A 
ATOM     80  C   UNL A   1      46.012  28.211  34.482  1.00  0.00     0.173 A 
ATOM     81  F   UNL A   1      43.534  25.673  35.292  1.00  0.00    -0.203 F 
ATOM     82  C   UNL A   1      45.741  25.948  36.067  1.00  0.00     0.198 A 
ATOM     83  C   UNL A   1      47.075  27.777  35.267  1.00  0.00     0.198 A 
ATOM     84  F   UNL A   1      46.170  29.310  33.728  1.00  0.00    -0.203 F 
ATOM     85  F   UNL A   1      45.599  24.873  36.853  1.00  0.00    -0.200 F 
ATOM     86  C   UNL A   1      46.937  26.650  36.063  1.00  0.00     0.200 A 
ATOM     87  F   UNL A   1      48.234  28.451  35.255  1.00  0.00    -0.200 F 
ATOM     88  F   UNL A   1      47.957  26.243  36.832  1.00  0.00    -0.200 F 
ENDBRANCH  55  78
ENDBRANCH  29  30
ENDBRANCH  22  24
ENDBRANCH  21  22
ENDBRANCH  20  21
ENDBRANCH   1  20
TORSDOF 14
ENDMDL
MODEL 3
REMARK VINA RESULT:     -11.8      4.855      9.935
REMARK SMILES CC(C)Cc1noc([C@@H]2CC=CC[C@H]2C(=O)OCCOC(=O)c2ccc(-c3c4nc(c(-c5c(F)c(F)c(F)c(F)c5F)c5ccc([nH]5)c(-c5c(F)c(F)c(F)c(F)c5F)c5nc(c(-c6c(F)c(F)c(F)c(F)c6F)c6ccc3[nH]6)C=C5)C=C4)cc2)n1
REMARK SMILES IDX 18 1 17 2 15 3 16 4 14 5 9 6 10 7 11 8 13 9 12 10 8 11 5 12
REMARK SMILES IDX 6 13 86 14 7 15 4 16 2 17 1 18 3 19 19 20 20 21 21 22 22 23
REMARK SMILES IDX 23 24 24 25 85 26 25 27 84 28 26 29 27 30 28 31 78 32 29 33
REMARK SMILES IDX 83 34 77 35 79 36 30 37 82 38 76 39 75 40 31 42 63 43 43 44
REMARK SMILES IDX 62 45 44 46 47 47 61 48 80 49 45 50 46 51 60 53 81 54 48 55
REMARK SMILES IDX 32 56 33 57 41 58 34 59 35 60 39 61 42 62 36 63 37 64 40 65
REMARK SMILES IDX 38 66 64 67 65 68 73 69 66 70 67 71 71 72 74 73 68 74 69 75
REMARK SMILES IDX 72 76 70 77 49 78 50 79 58 80 51 81 52 82 56 83 59 84 53 85
REMARK SMILES IDX 54 86 57 87 55 88
REMARK H PARENT 79 41 47 52
REMARK Flexibility Score: inf
ROOT
ATOM      1  C   UNL A   1      36.709  22.589  23.511  1.00  0.00     0.274 C 
ENDROOT
BRANCH   1   2
ATOM      2  O   UNL A   1      35.437  22.962  22.945  1.00  0.00    -0.462 OA
BRANCH   2   3
ATOM      3  C   UNL A   1      34.746  23.889  23.656  1.00  0.00     0.310 C 
ATOM      4  O   UNL A   1      35.204  24.534  24.594  1.00  0.00    -0.252 OA
BRANCH   3   5
ATOM      5  C   UNL A   1      33.293  24.008  23.255  1.00  0.00     0.116 C 
ATOM      6  C   UNL A   1      32.254  23.413  24.222  1.00  0.00     0.097 C 
ATOM      7  C   UNL A   1      30.817  23.690  23.716  1.00  0.00     0.041 C 
ATOM      8  C   UNL A   1      30.616  25.054  23.129  1.00  0.00    -0.030 C 
ATOM      9  C   UNL A   1      33.062  25.510  23.024  1.00  0.00     0.043 C 
ATOM     10  C   UNL A   1      31.627  25.878  22.829  1.00  0.00    -0.030 C 
BRANCH   6  11
ATOM     11  C   UNL A   1      32.403  21.937  24.421  1.00  0.00     0.230 A 
ATOM     12  C   UNL A   1      32.604  19.856  24.289  1.00  0.00     0.172 A 
ATOM     13  N   UNL A   1      33.111  20.136  25.497  1.00  0.00    -0.062 NA
ATOM     14  N   UNL A   1      32.152  20.951  23.590  1.00  0.00    -0.196 NA
ATOM     15  O   UNL A   1      32.979  21.520  25.589  1.00  0.00    -0.339 OA
BRANCH  12  16
ATOM     16  C   UNL A   1      32.525  18.469  23.757  1.00  0.00     0.084 C 
BRANCH  16  17
ATOM     17  C   UNL A   1      33.629  17.532  24.283  1.00  0.00    -0.010 C 
ATOM     18  C   UNL A   1      33.114  16.579  25.366  1.00  0.00     0.008 C 
ATOM     19  C   UNL A   1      34.220  16.719  23.128  1.00  0.00     0.008 C 
ENDBRANCH  16  17
ENDBRANCH  12  16
ENDBRANCH   6  11
ENDBRANCH   3   5
ENDBRANCH   2   3
ENDBRANCH   1   2
BRANCH   1  20
ATOM     20  C   UNL A   1      36.562  21.404  24.463  1.00  0.00     0.275 C 
BRANCH  20  21
ATOM     21  O   UNL A   1      37.097  21.746  25.752  1.00  0.00    -0.458 OA
BRANCH  21  22
ATOM     22  C   UNL A   1      38.417  21.510  25.918  1.00  0.00     0.338 C 
ATOM     23  O   UNL A   1      39.008  20.462  25.721  1.00  0.00    -0.246 OA
BRANCH  22  24
ATOM     24  C   UNL A   1      39.078  22.720  26.451  1.00  0.00     0.060 A 
ATOM     25  C   UNL A   1      38.648  24.009  26.120  1.00  0.00     0.016 A 
ATOM     26  C   UNL A   1      40.207  22.546  27.252  1.00  0.00     0.016 A 
ATOM     27  C   UNL A   1      39.372  25.124  26.548  1.00  0.00     0.010 A 
ATOM     28  C   UNL A   1      40.893  23.661  27.733  1.00  0.00     0.010 A 
ATOM     29  C   UNL A   1      40.495  24.959  27.369  1.00  0.00    -0.014 A 
BRANCH  29  30
ATOM     30  C   UNL A   1      41.284  26.116  27.861  1.00  0.00     0.031 A 
ATOM     31  C   UNL A   1      40.599  27.206  28.636  1.00  0.00     0.074 A 
ATOM     32  C   UNL A   1      42.586  26.231  27.539  1.00  0.00     0.049 A 
ATOM     33  N   UNL A   1      41.021  28.413  28.917  1.00  0.00    -0.248 NA
ATOM     34  C   UNL A   1      39.253  26.902  29.147  1.00  0.00     0.031 C 
ATOM     35  C   UNL A   1      43.372  25.229  26.822  1.00  0.00     0.029 A 
ATOM     36  N   UNL A   1      43.467  27.265  27.744  1.00  0.00    -0.354 N 
ATOM     37  C   UNL A   1      39.977  29.028  29.595  1.00  0.00     0.074 A 
ATOM     38  C   UNL A   1      38.903  28.062  29.688  1.00  0.00     0.031 C 
ATOM     39  C   UNL A   1      44.615  25.701  26.631  1.00  0.00     0.029 A 
ATOM     40  C   UNL A   1      44.689  27.062  27.151  1.00  0.00     0.049 A 
ATOM     41  H   UNL A   1      43.244  28.070  28.265  1.00  0.00     0.167 HD
ATOM     42  C   UNL A   1      39.926  30.289  30.088  1.00  0.00     0.037 A 
ATOM     43  C   UNL A   1      45.732  27.899  26.996  1.00  0.00     0.037 A 
ATOM     44  C   UNL A   1      41.013  31.230  30.026  1.00  0.00     0.049 A 
ATOM     45  C   UNL A   1      45.639  29.302  27.529  1.00  0.00     0.074 A 
ATOM     46  C   UNL A   1      41.066  32.522  30.522  1.00  0.00     0.029 A 
ATOM     47  N   UNL A   1      42.243  30.975  29.441  1.00  0.00    -0.354 N 
ATOM     48  N   UNL A   1      44.643  29.886  28.148  1.00  0.00    -0.248 NA
ATOM     49  C   UNL A   1      46.812  30.166  27.331  1.00  0.00     0.031 C 
ATOM     50  C   UNL A   1      42.318  33.060  30.208  1.00  0.00     0.029 A 
ATOM     51  C   UNL A   1      43.059  32.089  29.553  1.00  0.00     0.049 A 
ATOM     52  H   UNL A   1      42.500  30.128  29.009  1.00  0.00     0.167 HD
ATOM     53  C   UNL A   1      45.074  31.173  28.436  1.00  0.00     0.074 A 
ATOM     54  C   UNL A   1      46.426  31.284  27.930  1.00  0.00     0.031 C 
ATOM     55  C   UNL A   1      44.409  32.173  29.061  1.00  0.00     0.037 A 
BRANCH  42  56
ATOM     56  C   UNL A   1      38.644  30.742  30.720  1.00  0.00     0.064 A 
ATOM     57  C   UNL A   1      38.465  30.737  32.109  1.00  0.00     0.173 A 
ATOM     58  C   UNL A   1      37.610  31.258  29.924  1.00  0.00     0.173 A 
ATOM     59  F   UNL A   1      39.420  30.246  32.913  1.00  0.00    -0.203 F 
ATOM     60  C   UNL A   1      37.290  31.225  32.680  1.00  0.00     0.198 A 
ATOM     61  C   UNL A   1      36.448  31.764  30.498  1.00  0.00     0.198 A 
ATOM     62  F   UNL A   1      37.736  31.291  28.588  1.00  0.00    -0.203 F 
ATOM     63  F   UNL A   1      37.129  31.190  34.010  1.00  0.00    -0.200 F 
ATOM     64  C   UNL A   1      36.287  31.745  31.875  1.00  0.00     0.200 A 
ATOM     65  F   UNL A   1      35.485  32.279  29.720  1.00  0.00    -0.200 F 
ATOM     66  F   UNL A   1      35.166  32.229  32.427  1.00  0.00    -0.200 F 
ENDBRANCH  42  56
BRANCH  43  67
ATOM     67  C   UNL A   1      46.943  27.441  26.269  1.00  0.00     0.064 A 
ATOM     68  C   UNL A   1      48.019  26.863  26.956  1.00  0.00     0.173 A 
ATOM     69  C   UNL A   1      47.050  27.572  24.876  1.00  0.00     0.173 A 
ATOM     70  F   UNL A   1      47.973  26.741  28.289  1.00  0.00    -0.203 F 
ATOM     71  C   UNL A   1      49.162  26.445  26.277  1.00  0.00     0.198 A 
ATOM     72  C   UNL A   1      48.182  27.129  24.197  1.00  0.00     0.198 A 
ATOM     73  F   UNL A   1      46.047  28.120  24.174  1.00  0.00    -0.203 F 
ATOM     74  F   UNL A   1      50.195  25.935  26.962  1.00  0.00    -0.200 F 
ATOM     75  C   UNL A   1      49.240  26.572  24.898  1.00  0.00     0.200 A 
ATOM     76  F   UNL A   1      48.248  27.243  22.863  1.00  0.00    -0.200 F 
ATOM     77  F   UNL A   1      50.339  26.166  24.247  1.00  0.00    -0.200 F 
ENDBRANCH  43  67
BRANCH  55  78
ATOM     78  C   UNL A   1      45.150  33.457  29.281  1.00  0.00     0.064 A 
ATOM     79  C   UNL A   1      45.087  34.508  28.356  1.00  0.00     0.173 A 
ATOM     80  C   UNL A   1      45.898  33.650  30.452  1.00  0.00     0.173 A 
ATOM     81  F   UNL A   1      44.398  34.364  27.215  1.00  0.00    -0.203 F 
ATOM     82  C   UNL A   1      45.762  35.704  28.590  1.00  0.00     0.198 A 
ATOM     83  C   UNL A   1      46.552  34.854  30.693  1.00  0.00     0.198 A 
ATOM     84  F   UNL A   1      45.983  32.673  31.368  1.00  0.00    -0.203 F 
ATOM     85  F   UNL A   1      45.720  36.684  27.677  1.00  0.00    -0.200 F 
ATOM     86  C   UNL A   1      46.488  35.878  29.759  1.00  0.00     0.200 A 
ATOM     87  F   UNL A   1      47.245  35.024  31.827  1.00  0.00    -0.200 F 
ATOM     88  F   UNL A   1      47.132  37.031  29.983  1.00  0.00    -0.200 F 
ENDBRANCH  55  78
ENDBRANCH  29  30
ENDBRANCH  22  24
ENDBRANCH  21  22
ENDBRANCH  20  21
ENDBRANCH   1  20
TORSDOF 14
ENDMDL
