MODEL 1
REMARK VINA RESULT:     -10.7      0.000      0.000
REMARK SMILES C[C@H](NC(=O)OCc1ccccc1)C(=O)NCC(=O)N1CCC[C@H]1C(=O)OCCOC(=O)c1ccc(-c2c3nc(c(-c4c(F)c(F)c(F)c(F)c4F)c4ccc([nH]4)c(-c4c(F)c(F)c(F)c(F)c4F)c4nc(c(-c5c(F)c(F)c(F)c(F)c5F)c5ccc2[nH]5)C=C4)C=C3)cc1
REMARK SMILES IDX 20 1 21 2 22 3 23 4 24 5 18 6 19 7 17 8 16 9 14 10 15 11
REMARK SMILES IDX 2 13 1 14 3 15 4 16 5 18 6 19 7 20 8 21 9 22 13 23 10 24
REMARK SMILES IDX 12 25 11 26 25 27 26 28 27 29 28 30 29 31 30 32 31 33 32 34
REMARK SMILES IDX 33 35 34 36 95 37 35 38 94 39 36 40 37 41 38 42 88 43 39 44
REMARK SMILES IDX 93 45 87 46 89 47 40 48 92 49 86 50 85 51 41 53 73 54 53 55
REMARK SMILES IDX 72 56 54 57 57 58 71 59 90 60 55 61 56 62 70 64 91 65 58 66
REMARK SMILES IDX 42 67 43 68 51 69 44 70 45 71 49 72 52 73 46 74 47 75 50 76
REMARK SMILES IDX 48 77 74 78 75 79 83 80 76 81 77 82 81 83 84 84 78 85 79 86
REMARK SMILES IDX 82 87 80 88 59 89 60 90 68 91 61 92 62 93 66 94 69 95 63 96
REMARK SMILES IDX 64 97 67 98 65 99
REMARK H PARENT 16 12 3 17 89 52 57 63
REMARK Flexibility Score: inf
ROOT
ATOM      1  N   UNL A   1      46.637  21.854  37.927  1.00  0.00    -0.327 N 
ATOM      2  C   UNL A   1      45.882  23.021  37.548  1.00  0.00     0.120 C 
ATOM      3  C   UNL A   1      45.237  22.587  36.247  1.00  0.00     0.024 C 
ATOM      4  C   UNL A   1      46.294  21.703  35.593  1.00  0.00     0.039 C 
ATOM      5  C   UNL A   1      47.105  21.105  36.758  1.00  0.00     0.195 C 
ENDROOT
BRANCH   1   6
ATOM      6  C   UNL A   1      46.957  21.594  39.237  1.00  0.00     0.242 C 
ATOM      7  O   UNL A   1      47.392  22.475  39.975  1.00  0.00    -0.273 OA
BRANCH   6   8
ATOM      8  C   UNL A   1      46.376  20.301  39.829  1.00  0.00     0.216 C 
BRANCH   8   9
ATOM      9  N   UNL A   1      47.504  19.373  39.925  1.00  0.00    -0.345 N 
ATOM     10  C   UNL A   1      47.640  18.114  40.430  1.00  0.00     0.242 C 
ATOM     11  O   UNL A   1      48.782  17.649  40.490  1.00  0.00    -0.273 OA
ATOM     12  H   UNL A   1      48.338  19.732  39.544  1.00  0.00     0.164 HD
BRANCH  10  13
ATOM     13  C   UNL A   1      46.420  17.227  40.728  1.00  0.00     0.171 C 
ATOM     14  C   UNL A   1      46.879  16.103  41.655  1.00  0.00     0.042 C 
BRANCH  13  15
ATOM     15  N   UNL A   1      45.827  16.746  39.491  1.00  0.00    -0.310 N 
ATOM     16  C   UNL A   1      44.527  16.463  39.246  1.00  0.00     0.408 C 
ATOM     17  H   UNL A   1      46.448  16.610  38.740  1.00  0.00     0.167 HD
ATOM     18  O   UNL A   1      44.210  15.862  38.226  1.00  0.00    -0.225 OA
BRANCH  16  19
ATOM     19  O   UNL A   1      43.690  16.946  40.187  1.00  0.00    -0.445 OA
BRANCH  19  20
ATOM     20  C   UNL A   1      42.393  16.339  40.236  1.00  0.00     0.270 C 
BRANCH  20  21
ATOM     21  C   UNL A   1      42.352  15.035  41.004  1.00  0.00    -0.011 A 
ATOM     22  C   UNL A   1      41.761  13.911  40.406  1.00  0.00     0.007 A 
ATOM     23  C   UNL A   1      42.790  14.923  42.332  1.00  0.00     0.007 A 
ATOM     24  C   UNL A   1      41.619  12.716  41.115  1.00  0.00     0.000 A 
ATOM     25  C   UNL A   1      42.643  13.731  43.043  1.00  0.00     0.000 A 
ATOM     26  C   UNL A   1      42.055  12.628  42.434  1.00  0.00     0.000 A 
ENDBRANCH  20  21
ENDBRANCH  19  20
ENDBRANCH  16  19
ENDBRANCH  13  15
ENDBRANCH  10  13
ENDBRANCH   8   9
ENDBRANCH   6   8
ENDBRANCH   1   6
BRANCH   5  27
ATOM     27  C   UNL A   1      48.577  21.237  36.330  1.00  0.00     0.328 C 
ATOM     28  O   UNL A   1      49.149  20.342  35.714  1.00  0.00    -0.250 OA
BRANCH  27  29
ATOM     29  O   UNL A   1      49.097  22.475  36.557  1.00  0.00    -0.461 OA
BRANCH  29  30
ATOM     30  C   UNL A   1      49.544  23.187  35.382  1.00  0.00     0.274 C 
BRANCH  30  31
ATOM     31  C   UNL A   1      49.549  24.686  35.650  1.00  0.00     0.275 C 
BRANCH  31  32
ATOM     32  O   UNL A   1      48.222  25.081  36.033  1.00  0.00    -0.458 OA
BRANCH  32  33
ATOM     33  C   UNL A   1      48.049  26.415  36.186  1.00  0.00     0.338 C 
ATOM     34  O   UNL A   1      48.714  27.166  36.880  1.00  0.00    -0.246 OA
BRANCH  33  35
ATOM     35  C   UNL A   1      46.863  26.859  35.424  1.00  0.00     0.060 A 
ATOM     36  C   UNL A   1      46.872  28.009  34.630  1.00  0.00     0.016 A 
ATOM     37  C   UNL A   1      45.682  26.141  35.586  1.00  0.00     0.016 A 
ATOM     38  C   UNL A   1      45.686  28.486  34.071  1.00  0.00     0.010 A 
ATOM     39  C   UNL A   1      44.520  26.557  34.932  1.00  0.00     0.010 A 
ATOM     40  C   UNL A   1      44.500  27.748  34.188  1.00  0.00    -0.014 A 
BRANCH  40  41
ATOM     41  C   UNL A   1      43.249  28.182  33.507  1.00  0.00     0.031 A 
ATOM     42  C   UNL A   1      42.985  27.807  32.071  1.00  0.00     0.074 A 
ATOM     43  C   UNL A   1      42.371  28.969  34.162  1.00  0.00     0.049 A 
ATOM     44  N   UNL A   1      42.047  28.235  31.263  1.00  0.00    -0.248 NA
ATOM     45  C   UNL A   1      43.903  26.833  31.456  1.00  0.00     0.031 C 
ATOM     46  C   UNL A   1      42.498  29.404  35.554  1.00  0.00     0.029 A 
ATOM     47  N   UNL A   1      41.206  29.560  33.738  1.00  0.00    -0.354 N 
ATOM     48  C   UNL A   1      42.289  27.626  30.038  1.00  0.00     0.074 A 
ATOM     49  C   UNL A   1      43.465  26.798  30.204  1.00  0.00     0.031 C 
ATOM     50  C   UNL A   1      41.451  30.179  35.872  1.00  0.00     0.029 A 
ATOM     51  C   UNL A   1      40.624  30.367  34.687  1.00  0.00     0.049 A 
ATOM     52  H   UNL A   1      40.825  29.421  32.841  1.00  0.00     0.167 HD
ATOM     53  C   UNL A   1      41.596  27.755  28.881  1.00  0.00     0.037 A 
ATOM     54  C   UNL A   1      39.577  31.208  34.606  1.00  0.00     0.037 A 
ATOM     55  C   UNL A   1      40.402  28.548  28.728  1.00  0.00     0.049 A 
ATOM     56  C   UNL A   1      38.846  31.348  33.300  1.00  0.00     0.074 A 
ATOM     57  C   UNL A   1      39.592  28.678  27.611  1.00  0.00     0.029 A 
ATOM     58  N   UNL A   1      39.850  29.350  29.714  1.00  0.00    -0.354 N 
ATOM     59  N   UNL A   1      39.066  30.743  32.159  1.00  0.00    -0.248 NA
ATOM     60  C   UNL A   1      37.722  32.294  33.270  1.00  0.00     0.031 C 
ATOM     61  C   UNL A   1      38.587  29.605  27.903  1.00  0.00     0.029 A 
ATOM     62  C   UNL A   1      38.731  30.005  29.221  1.00  0.00     0.049 A 
ATOM     63  H   UNL A   1      40.200  29.442  30.630  1.00  0.00     0.167 HD
ATOM     64  C   UNL A   1      38.098  31.217  31.284  1.00  0.00     0.074 A 
ATOM     65  C   UNL A   1      37.274  32.140  32.034  1.00  0.00     0.031 C 
ATOM     66  C   UNL A   1      37.913  30.919  29.975  1.00  0.00     0.037 A 
BRANCH  53  67
ATOM     67  C   UNL A   1      42.113  27.047  27.660  1.00  0.00     0.064 A 
ATOM     68  C   UNL A   1      43.059  27.630  26.806  1.00  0.00     0.173 A 
ATOM     69  C   UNL A   1      41.721  25.723  27.400  1.00  0.00     0.173 A 
ATOM     70  F   UNL A   1      43.462  28.893  27.006  1.00  0.00    -0.203 F 
ATOM     71  C   UNL A   1      43.587  26.917  25.731  1.00  0.00     0.198 A 
ATOM     72  C   UNL A   1      42.272  25.005  26.343  1.00  0.00     0.198 A 
ATOM     73  F   UNL A   1      40.825  25.115  28.192  1.00  0.00    -0.203 F 
ATOM     74  F   UNL A   1      44.473  27.502  24.913  1.00  0.00    -0.200 F 
ATOM     75  C   UNL A   1      43.203  25.603  25.507  1.00  0.00     0.200 A 
ATOM     76  F   UNL A   1      41.912  23.730  26.141  1.00  0.00    -0.200 F 
ATOM     77  F   UNL A   1      43.731  24.912  24.487  1.00  0.00    -0.200 F 
ENDBRANCH  53  67
BRANCH  54  78
ATOM     78  C   UNL A   1      39.180  32.021  35.786  1.00  0.00     0.064 A 
ATOM     79  C   UNL A   1      38.310  31.510  36.758  1.00  0.00     0.173 A 
ATOM     80  C   UNL A   1      39.642  33.336  35.952  1.00  0.00     0.173 A 
ATOM     81  F   UNL A   1      37.823  30.266  36.632  1.00  0.00    -0.203 F 
ATOM     82  C   UNL A   1      37.894  32.291  37.834  1.00  0.00     0.198 A 
ATOM     83  C   UNL A   1      39.256  34.103  37.049  1.00  0.00     0.198 A 
ATOM     84  F   UNL A   1      40.479  33.874  35.052  1.00  0.00    -0.203 F 
ATOM     85  F   UNL A   1      37.012  31.798  38.714  1.00  0.00    -0.200 F 
ATOM     86  C   UNL A   1      38.371  33.584  37.982  1.00  0.00     0.200 A 
ATOM     87  F   UNL A   1      39.734  35.346  37.197  1.00  0.00    -0.200 F 
ATOM     88  F   UNL A   1      37.970  34.335  39.017  1.00  0.00    -0.200 F 
ENDBRANCH  54  78
BRANCH  66  89
ATOM     89  C   UNL A   1      36.748  31.566  29.283  1.00  0.00     0.064 A 
ATOM     90  C   UNL A   1      36.741  32.935  28.971  1.00  0.00     0.173 A 
ATOM     91  C   UNL A   1      35.626  30.805  28.920  1.00  0.00     0.173 A 
ATOM     92  F   UNL A   1      37.781  33.710  29.313  1.00  0.00    -0.203 F 
ATOM     93  C   UNL A   1      35.641  33.523  28.354  1.00  0.00     0.198 A 
ATOM     94  C   UNL A   1      34.542  31.390  28.270  1.00  0.00     0.198 A 
ATOM     95  F   UNL A   1      35.583  29.493  29.189  1.00  0.00    -0.203 F 
ATOM     96  F   UNL A   1      35.630  34.843  28.123  1.00  0.00    -0.200 F 
ATOM     97  C   UNL A   1      34.545  32.750  27.999  1.00  0.00     0.200 A 
ATOM     98  F   UNL A   1      33.491  30.639  27.915  1.00  0.00    -0.200 F 
ATOM     99  F   UNL A   1      33.487  33.318  27.404  1.00  0.00    -0.200 F 
ENDBRANCH  66  89
ENDBRANCH  40  41
ENDBRANCH  33  35
ENDBRANCH  32  33
ENDBRANCH  31  32
ENDBRANCH  30  31
ENDBRANCH  29  30
ENDBRANCH  27  29
ENDBRANCH   5  27
TORSDOF 19
ENDMDL
MODEL 2
REMARK VINA RESULT:     -10.7      9.599     14.668
REMARK SMILES C[C@H](NC(=O)OCc1ccccc1)C(=O)NCC(=O)N1CCC[C@H]1C(=O)OCCOC(=O)c1ccc(-c2c3nc(c(-c4c(F)c(F)c(F)c(F)c4F)c4ccc([nH]4)c(-c4c(F)c(F)c(F)c(F)c4F)c4nc(c(-c5c(F)c(F)c(F)c(F)c5F)c5ccc2[nH]5)C=C4)C=C3)cc1
REMARK SMILES IDX 20 1 21 2 22 3 23 4 24 5 18 6 19 7 17 8 16 9 14 10 15 11
REMARK SMILES IDX 2 13 1 14 3 15 4 16 5 18 6 19 7 20 8 21 9 22 13 23 10 24
REMARK SMILES IDX 12 25 11 26 25 27 26 28 27 29 28 30 29 31 30 32 31 33 32 34
REMARK SMILES IDX 33 35 34 36 95 37 35 38 94 39 36 40 37 41 38 42 88 43 39 44
REMARK SMILES IDX 93 45 87 46 89 47 40 48 92 49 86 50 85 51 41 53 73 54 53 55
REMARK SMILES IDX 72 56 54 57 57 58 71 59 90 60 55 61 56 62 70 64 91 65 58 66
REMARK SMILES IDX 42 67 43 68 51 69 44 70 45 71 49 72 52 73 46 74 47 75 50 76
REMARK SMILES IDX 48 77 74 78 75 79 83 80 76 81 77 82 81 83 84 84 78 85 79 86
REMARK SMILES IDX 82 87 80 88 59 89 60 90 68 91 61 92 62 93 66 94 69 95 63 96
REMARK SMILES IDX 64 97 67 98 65 99
REMARK H PARENT 16 12 3 17 89 52 57 63
REMARK Flexibility Score: inf
ROOT
ATOM      1  N   UNL A   1      35.457  30.062  27.999  1.00  0.00    -0.327 N 
ATOM      2  C   UNL A   1      36.838  29.654  27.968  1.00  0.00     0.120 C 
ATOM      3  C   UNL A   1      37.200  29.609  29.439  1.00  0.00     0.024 C 
ATOM      4  C   UNL A   1      36.410  30.765  30.045  1.00  0.00     0.039 C 
ATOM      5  C   UNL A   1      35.170  30.929  29.145  1.00  0.00     0.195 C 
ENDROOT
BRANCH   1   6
ATOM      6  C   UNL A   1      34.588  29.752  26.981  1.00  0.00     0.242 C 
ATOM      7  O   UNL A   1      34.865  28.897  26.143  1.00  0.00    -0.273 OA
BRANCH   6   8
ATOM      8  C   UNL A   1      33.134  30.210  27.171  1.00  0.00     0.216 C 
BRANCH   8   9
ATOM      9  N   UNL A   1      32.384  29.001  27.514  1.00  0.00    -0.345 N 
ATOM     10  C   UNL A   1      31.658  28.111  26.782  1.00  0.00     0.242 C 
ATOM     11  O   UNL A   1      31.014  27.259  27.402  1.00  0.00    -0.273 OA
ATOM     12  H   UNL A   1      32.411  28.785  28.475  1.00  0.00     0.164 HD
BRANCH  10  13
ATOM     13  C   UNL A   1      31.781  28.033  25.251  1.00  0.00     0.171 C 
ATOM     14  C   UNL A   1      30.950  29.171  24.660  1.00  0.00     0.042 C 
BRANCH  13  15
ATOM     15  N   UNL A   1      31.378  26.720  24.776  1.00  0.00    -0.310 N 
ATOM     16  C   UNL A   1      32.162  25.742  24.265  1.00  0.00     0.408 C 
ATOM     17  H   UNL A   1      30.417  26.517  24.832  1.00  0.00     0.167 HD
ATOM     18  O   UNL A   1      31.656  24.776  23.708  1.00  0.00    -0.225 OA
BRANCH  16  19
ATOM     19  O   UNL A   1      33.477  25.944  24.487  1.00  0.00    -0.445 OA
BRANCH  19  20
ATOM     20  C   UNL A   1      34.048  25.194  25.567  1.00  0.00     0.270 C 
BRANCH  20  21
ATOM     21  C   UNL A   1      35.089  24.184  25.132  1.00  0.00    -0.011 A 
ATOM     22  C   UNL A   1      35.239  23.906  23.765  1.00  0.00     0.007 A 
ATOM     23  C   UNL A   1      35.846  23.435  26.046  1.00  0.00     0.007 A 
ATOM     24  C   UNL A   1      36.121  22.914  23.330  1.00  0.00     0.000 A 
ATOM     25  C   UNL A   1      36.722  22.439  25.613  1.00  0.00     0.000 A 
ATOM     26  C   UNL A   1      36.857  22.178  24.254  1.00  0.00     0.000 A 
ENDBRANCH  20  21
ENDBRANCH  19  20
ENDBRANCH  16  19
ENDBRANCH  13  15
ENDBRANCH  10  13
ENDBRANCH   8   9
ENDBRANCH   6   8
ENDBRANCH   1   6
BRANCH   5  27
ATOM     27  C   UNL A   1      35.038  32.445  28.918  1.00  0.00     0.328 C 
ATOM     28  O   UNL A   1      35.578  33.001  27.965  1.00  0.00    -0.250 OA
BRANCH  27  29
ATOM     29  O   UNL A   1      34.154  33.042  29.764  1.00  0.00    -0.461 OA
BRANCH  29  30
ATOM     30  C   UNL A   1      34.613  34.265  30.382  1.00  0.00     0.274 C 
BRANCH  30  31
ATOM     31  C   UNL A   1      34.690  34.089  31.892  1.00  0.00     0.275 C 
BRANCH  31  32
ATOM     32  O   UNL A   1      35.849  33.296  32.197  1.00  0.00    -0.458 OA
BRANCH  32  33
ATOM     33  C   UNL A   1      36.931  34.002  32.599  1.00  0.00     0.338 C 
ATOM     34  O   UNL A   1      36.937  34.997  33.303  1.00  0.00    -0.246 OA
BRANCH  33  35
ATOM     35  C   UNL A   1      38.156  33.430  32.000  1.00  0.00     0.060 A 
ATOM     36  C   UNL A   1      38.519  33.666  30.671  1.00  0.00     0.016 A 
ATOM     37  C   UNL A   1      38.913  32.561  32.780  1.00  0.00     0.016 A 
ATOM     38  C   UNL A   1      39.584  32.968  30.100  1.00  0.00     0.010 A 
ATOM     39  C   UNL A   1      40.047  31.951  32.239  1.00  0.00     0.010 A 
ATOM     40  C   UNL A   1      40.383  32.126  30.886  1.00  0.00    -0.014 A 
BRANCH  40  41
ATOM     41  C   UNL A   1      41.589  31.457  30.324  1.00  0.00     0.031 A 
ATOM     42  C   UNL A   1      42.875  32.222  30.137  1.00  0.00     0.074 A 
ATOM     43  C   UNL A   1      41.513  30.172  29.921  1.00  0.00     0.049 A 
ATOM     44  N   UNL A   1      43.966  31.864  29.506  1.00  0.00    -0.248 NA
ATOM     45  C   UNL A   1      42.940  33.571  30.723  1.00  0.00     0.031 C 
ATOM     46  C   UNL A   1      40.335  29.313  30.046  1.00  0.00     0.029 A 
ATOM     47  N   UNL A   1      42.442  29.369  29.306  1.00  0.00    -0.354 N 
ATOM     48  C   UNL A   1      44.823  32.955  29.575  1.00  0.00     0.074 A 
ATOM     49  C   UNL A   1      44.128  33.991  30.309  1.00  0.00     0.031 C 
ATOM     50  C   UNL A   1      40.613  28.103  29.539  1.00  0.00     0.029 A 
ATOM     51  C   UNL A   1      41.957  28.126  28.976  1.00  0.00     0.049 A 
ATOM     52  H   UNL A   1      43.365  29.655  29.118  1.00  0.00     0.167 HD
ATOM     53  C   UNL A   1      46.073  33.079  29.067  1.00  0.00     0.037 A 
ATOM     54  C   UNL A   1      42.504  27.130  28.253  1.00  0.00     0.037 A 
ATOM     55  C   UNL A   1      46.779  32.031  28.373  1.00  0.00     0.049 A 
ATOM     56  C   UNL A   1      43.882  27.309  27.679  1.00  0.00     0.074 A 
ATOM     57  C   UNL A   1      48.077  32.043  27.887  1.00  0.00     0.029 A 
ATOM     58  N   UNL A   1      46.249  30.789  28.058  1.00  0.00    -0.354 N 
ATOM     59  N   UNL A   1      44.693  28.334  27.779  1.00  0.00    -0.248 NA
ATOM     60  C   UNL A   1      44.417  26.195  26.886  1.00  0.00     0.031 C 
ATOM     61  C   UNL A   1      48.310  30.833  27.226  1.00  0.00     0.029 A 
ATOM     62  C   UNL A   1      47.181  30.041  27.354  1.00  0.00     0.049 A 
ATOM     63  H   UNL A   1      45.345  30.483  28.299  1.00  0.00     0.167 HD
ATOM     64  C   UNL A   1      45.841  27.978  27.083  1.00  0.00     0.074 A 
ATOM     65  C   UNL A   1      45.630  26.635  26.588  1.00  0.00     0.031 C 
ATOM     66  C   UNL A   1      46.966  28.703  26.868  1.00  0.00     0.037 A 
BRANCH  53  67
ATOM     67  C   UNL A   1      46.770  34.402  29.207  1.00  0.00     0.064 A 
ATOM     68  C   UNL A   1      47.613  34.688  30.291  1.00  0.00     0.173 A 
ATOM     69  C   UNL A   1      46.665  35.361  28.186  1.00  0.00     0.173 A 
ATOM     70  F   UNL A   1      47.743  33.810  31.296  1.00  0.00    -0.203 F 
ATOM     71  C   UNL A   1      48.316  35.890  30.351  1.00  0.00     0.198 A 
ATOM     72  C   UNL A   1      47.392  36.547  28.237  1.00  0.00     0.198 A 
ATOM     73  F   UNL A   1      45.880  35.133  27.123  1.00  0.00    -0.203 F 
ATOM     74  F   UNL A   1      49.098  36.153  31.408  1.00  0.00    -0.200 F 
ATOM     75  C   UNL A   1      48.215  36.812  29.320  1.00  0.00     0.200 A 
ATOM     76  F   UNL A   1      47.306  37.427  27.230  1.00  0.00    -0.200 F 
ATOM     77  F   UNL A   1      48.912  37.955  29.370  1.00  0.00    -0.200 F 
ENDBRANCH  53  67
BRANCH  54  78
ATOM     78  C   UNL A   1      41.731  25.887  27.991  1.00  0.00     0.064 A 
ATOM     79  C   UNL A   1      42.066  24.680  28.618  1.00  0.00     0.173 A 
ATOM     80  C   UNL A   1      40.657  25.875  27.086  1.00  0.00     0.173 A 
ATOM     81  F   UNL A   1      43.099  24.635  29.474  1.00  0.00    -0.203 F 
ATOM     82  C   UNL A   1      41.378  23.504  28.330  1.00  0.00     0.198 A 
ATOM     83  C   UNL A   1      39.946  24.706  26.828  1.00  0.00     0.198 A 
ATOM     84  F   UNL A   1      40.293  27.003  26.459  1.00  0.00    -0.203 F 
ATOM     85  F   UNL A   1      41.761  22.352  28.897  1.00  0.00    -0.200 F 
ATOM     86  C   UNL A   1      40.315  23.519  27.440  1.00  0.00     0.200 A 
ATOM     87  F   UNL A   1      38.907  24.730  25.981  1.00  0.00    -0.200 F 
ATOM     88  F   UNL A   1      39.654  22.386  27.164  1.00  0.00    -0.200 F 
ENDBRANCH  54  78
BRANCH  66  89
ATOM     89  C   UNL A   1      48.072  28.040  26.098  1.00  0.00     0.064 A 
ATOM     90  C   UNL A   1      48.025  27.912  24.701  1.00  0.00     0.173 A 
ATOM     91  C   UNL A   1      49.196  27.532  26.767  1.00  0.00     0.173 A 
ATOM     92  F   UNL A   1      46.964  28.364  24.016  1.00  0.00    -0.203 F 
ATOM     93  C   UNL A   1      49.047  27.269  24.007  1.00  0.00     0.198 A 
ATOM     94  C   UNL A   1      50.233  26.922  26.066  1.00  0.00     0.198 A 
ATOM     95  F   UNL A   1      49.294  27.633  28.100  1.00  0.00    -0.203 F 
ATOM     96  F   UNL A   1      48.951  27.102  22.681  1.00  0.00    -0.200 F 
ATOM     97  C   UNL A   1      50.152  26.780  24.688  1.00  0.00     0.200 A 
ATOM     98  F   UNL A   1      51.306  26.463  26.724  1.00  0.00    -0.200 F 
ATOM     99  F   UNL A   1      51.135  26.163  24.019  1.00  0.00    -0.200 F 
ENDBRANCH  66  89
ENDBRANCH  40  41
ENDBRANCH  33  35
ENDBRANCH  32  33
ENDBRANCH  31  32
ENDBRANCH  30  31
ENDBRANCH  29  30
ENDBRANCH  27  29
ENDBRANCH   5  27
TORSDOF 19
ENDMDL
MODEL 3
REMARK VINA RESULT:     -10.6     10.791     19.079
REMARK SMILES C[C@H](NC(=O)OCc1ccccc1)C(=O)NCC(=O)N1CCC[C@H]1C(=O)OCCOC(=O)c1ccc(-c2c3nc(c(-c4c(F)c(F)c(F)c(F)c4F)c4ccc([nH]4)c(-c4c(F)c(F)c(F)c(F)c4F)c4nc(c(-c5c(F)c(F)c(F)c(F)c5F)c5ccc2[nH]5)C=C4)C=C3)cc1
REMARK SMILES IDX 20 1 21 2 22 3 23 4 24 5 18 6 19 7 17 8 16 9 14 10 15 11
REMARK SMILES IDX 2 13 1 14 3 15 4 16 5 18 6 19 7 20 8 21 9 22 13 23 10 24
REMARK SMILES IDX 12 25 11 26 25 27 26 28 27 29 28 30 29 31 30 32 31 33 32 34
REMARK SMILES IDX 33 35 34 36 95 37 35 38 94 39 36 40 37 41 38 42 88 43 39 44
REMARK SMILES IDX 93 45 87 46 89 47 40 48 92 49 86 50 85 51 41 53 73 54 53 55
REMARK SMILES IDX 72 56 54 57 57 58 71 59 90 60 55 61 56 62 70 64 91 65 58 66
REMARK SMILES IDX 42 67 43 68 51 69 44 70 45 71 49 72 52 73 46 74 47 75 50 76
REMARK SMILES IDX 48 77 74 78 75 79 83 80 76 81 77 82 81 83 84 84 78 85 79 86
REMARK SMILES IDX 82 87 80 88 59 89 60 90 68 91 61 92 62 93 66 94 69 95 63 96
REMARK SMILES IDX 64 97 67 98 65 99
REMARK H PARENT 16 12 3 17 89 52 57 63
REMARK Flexibility Score: inf
ROOT
ATOM      1  N   UNL A   1      45.488  44.030  24.551  1.00  0.00    -0.327 N 
ATOM      2  C   UNL A   1      45.555  44.863  25.724  1.00  0.00     0.120 C 
ATOM      3  C   UNL A   1      46.836  44.395  26.386  1.00  0.00     0.024 C 
ATOM      4  C   UNL A   1      46.869  42.897  26.100  1.00  0.00     0.039 C 
ATOM      5  C   UNL A   1      46.095  42.716  24.780  1.00  0.00     0.195 C 
ENDROOT
BRANCH   1   6
ATOM      6  C   UNL A   1      44.810  44.423  23.423  1.00  0.00     0.242 C 
ATOM      7  O   UNL A   1      44.037  45.377  23.443  1.00  0.00    -0.273 OA
BRANCH   6   8
ATOM      8  C   UNL A   1      45.359  43.897  22.088  1.00  0.00     0.216 C 
BRANCH   8   9
ATOM      9  N   UNL A   1      44.544  42.725  21.764  1.00  0.00    -0.345 N 
ATOM     10  C   UNL A   1      43.398  42.551  21.047  1.00  0.00     0.242 C 
ATOM     11  O   UNL A   1      42.873  41.435  21.082  1.00  0.00    -0.273 OA
ATOM     12  H   UNL A   1      44.898  41.887  22.142  1.00  0.00     0.164 HD
BRANCH  10  13
ATOM     13  C   UNL A   1      42.882  43.626  20.076  1.00  0.00     0.171 C 
ATOM     14  C   UNL A   1      41.366  43.463  19.967  1.00  0.00     0.042 C 
BRANCH  13  15
ATOM     15  N   UNL A   1      43.564  43.524  18.797  1.00  0.00    -0.310 N 
ATOM     16  C   UNL A   1      43.504  44.380  17.750  1.00  0.00     0.408 C 
ATOM     17  H   UNL A   1      44.141  42.736  18.677  1.00  0.00     0.167 HD
ATOM     18  O   UNL A   1      43.961  44.054  16.661  1.00  0.00    -0.225 OA
BRANCH  16  19
ATOM     19  O   UNL A   1      42.958  45.572  18.068  1.00  0.00    -0.445 OA
BRANCH  19  20
ATOM     20  C   UNL A   1      43.425  46.693  17.308  1.00  0.00     0.270 C 
BRANCH  20  21
ATOM     21  C   UNL A   1      43.758  47.910  18.145  1.00  0.00    -0.011 A 
ATOM     22  C   UNL A   1      44.598  47.761  19.259  1.00  0.00     0.007 A 
ATOM     23  C   UNL A   1      43.182  49.169  17.914  1.00  0.00     0.007 A 
ATOM     24  C   UNL A   1      44.854  48.838  20.110  1.00  0.00     0.000 A 
ATOM     25  C   UNL A   1      43.432  50.244  18.767  1.00  0.00     0.000 A 
ATOM     26  C   UNL A   1      44.266  50.077  19.867  1.00  0.00     0.000 A 
ENDBRANCH  20  21
ENDBRANCH  19  20
ENDBRANCH  16  19
ENDBRANCH  13  15
ENDBRANCH  10  13
ENDBRANCH   8   9
ENDBRANCH   6   8
ENDBRANCH   1   6
BRANCH   5  27
ATOM     27  C   UNL A   1      45.178  41.503  25.017  1.00  0.00     0.328 C 
ATOM     28  O   UNL A   1      44.006  41.504  24.653  1.00  0.00    -0.250 OA
BRANCH  27  29
ATOM     29  O   UNL A   1      45.837  40.415  25.503  1.00  0.00    -0.461 OA
BRANCH  29  30
ATOM     30  C   UNL A   1      45.047  39.524  26.322  1.00  0.00     0.274 C 
BRANCH  30  31
ATOM     31  C   UNL A   1      45.512  39.596  27.770  1.00  0.00     0.275 C 
BRANCH  31  32
ATOM     32  O   UNL A   1      45.258  38.325  28.390  1.00  0.00    -0.458 OA
BRANCH  32  33
ATOM     33  C   UNL A   1      46.346  37.531  28.524  1.00  0.00     0.338 C 
ATOM     34  O   UNL A   1      47.503  37.889  28.658  1.00  0.00    -0.246 OA
BRANCH  33  35
ATOM     35  C   UNL A   1      45.948  36.111  28.421  1.00  0.00     0.060 A 
ATOM     36  C   UNL A   1      45.235  35.612  27.327  1.00  0.00     0.016 A 
ATOM     37  C   UNL A   1      46.227  35.279  29.501  1.00  0.00     0.016 A 
ATOM     38  C   UNL A   1      44.730  34.311  27.352  1.00  0.00     0.010 A 
ATOM     39  C   UNL A   1      45.819  33.944  29.473  1.00  0.00     0.010 A 
ATOM     40  C   UNL A   1      45.044  33.449  28.411  1.00  0.00    -0.014 A 
BRANCH  40  41
ATOM     41  C   UNL A   1      44.608  32.025  28.405  1.00  0.00     0.031 A 
ATOM     42  C   UNL A   1      45.407  30.980  27.670  1.00  0.00     0.074 A 
ATOM     43  C   UNL A   1      43.455  31.678  29.012  1.00  0.00     0.049 A 
ATOM     44  N   UNL A   1      45.096  29.735  27.406  1.00  0.00    -0.248 NA
ATOM     45  C   UNL A   1      46.723  31.388  27.151  1.00  0.00     0.031 C 
ATOM     46  C   UNL A   1      42.585  32.585  29.764  1.00  0.00     0.029 A 
ATOM     47  N   UNL A   1      42.803  30.470  29.077  1.00  0.00    -0.354 N 
ATOM     48  C   UNL A   1      46.146  29.229  26.651  1.00  0.00     0.074 A 
ATOM     49  C   UNL A   1      47.107  30.301  26.496  1.00  0.00     0.031 C 
ATOM     50  C   UNL A   1      41.526  31.904  30.224  1.00  0.00     0.029 A 
ATOM     51  C   UNL A   1      41.595  30.534  29.730  1.00  0.00     0.049 A 
ATOM     52  H   UNL A   1      43.166  29.639  28.693  1.00  0.00     0.167 HD
ATOM     53  C   UNL A   1      46.290  27.986  26.131  1.00  0.00     0.037 A 
ATOM     54  C   UNL A   1      40.621  29.616  29.872  1.00  0.00     0.037 A 
ATOM     55  C   UNL A   1      45.351  26.909  26.321  1.00  0.00     0.049 A 
ATOM     56  C   UNL A   1      40.799  28.255  29.260  1.00  0.00     0.074 A 
ATOM     57  C   UNL A   1      45.450  25.595  25.893  1.00  0.00     0.029 A 
ATOM     58  N   UNL A   1      44.140  27.019  26.986  1.00  0.00    -0.354 N 
ATOM     59  N   UNL A   1      41.811  27.781  28.576  1.00  0.00    -0.248 NA
ATOM     60  C   UNL A   1      39.694  27.303  29.435  1.00  0.00     0.031 C 
ATOM     61  C   UNL A   1      44.273  24.928  26.245  1.00  0.00     0.029 A 
ATOM     62  C   UNL A   1      43.467  25.806  26.949  1.00  0.00     0.049 A 
ATOM     63  H   UNL A   1      43.806  27.837  27.421  1.00  0.00     0.167 HD
ATOM     64  C   UNL A   1      41.476  26.471  28.260  1.00  0.00     0.074 A 
ATOM     65  C   UNL A   1      40.178  26.219  28.848  1.00  0.00     0.031 C 
ATOM     66  C   UNL A   1      42.177  25.562  27.541  1.00  0.00     0.037 A 
BRANCH  53  67
ATOM     67  C   UNL A   1      47.493  27.708  25.275  1.00  0.00     0.064 A 
ATOM     68  C   UNL A   1      48.693  27.223  25.814  1.00  0.00     0.173 A 
ATOM     69  C   UNL A   1      47.405  27.838  23.879  1.00  0.00     0.173 A 
ATOM     70  F   UNL A   1      48.832  27.086  27.140  1.00  0.00    -0.203 F 
ATOM     71  C   UNL A   1      49.764  26.889  24.986  1.00  0.00     0.198 A 
ATOM     72  C   UNL A   1      48.466  27.476  23.055  1.00  0.00     0.198 A 
ATOM     73  F   UNL A   1      46.275  28.289  23.313  1.00  0.00    -0.203 F 
ATOM     74  F   UNL A   1      50.911  26.450  25.524  1.00  0.00    -0.200 F 
ATOM     75  C   UNL A   1      49.646  27.005  23.609  1.00  0.00     0.200 A 
ATOM     76  F   UNL A   1      48.342  27.572  21.724  1.00  0.00    -0.200 F 
ATOM     77  F   UNL A   1      50.669  26.659  22.815  1.00  0.00    -0.200 F 
ENDBRANCH  53  67
BRANCH  54  78
ATOM     78  C   UNL A   1      39.366  29.965  30.589  1.00  0.00     0.064 A 
ATOM     79  C   UNL A   1      38.287  30.555  29.916  1.00  0.00     0.173 A 
ATOM     80  C   UNL A   1      39.228  29.740  31.968  1.00  0.00     0.173 A 
ATOM     81  F   UNL A   1      38.379  30.812  28.602  1.00  0.00    -0.203 F 
ATOM     82  C   UNL A   1      37.133  30.933  30.598  1.00  0.00     0.198 A 
ATOM     83  C   UNL A   1      38.059  30.083  32.641  1.00  0.00     0.198 A 
ATOM     84  F   UNL A   1      40.229  29.175  32.660  1.00  0.00    -0.203 F 
ATOM     85  F   UNL A   1      36.144  31.554  29.942  1.00  0.00    -0.200 F 
ATOM     86  C   UNL A   1      37.018  30.692  31.959  1.00  0.00     0.200 A 
ATOM     87  F   UNL A   1      37.945  29.830  33.952  1.00  0.00    -0.200 F 
ATOM     88  F   UNL A   1      35.907  31.056  32.614  1.00  0.00    -0.200 F 
ENDBRANCH  54  78
BRANCH  66  89
ATOM     89  C   UNL A   1      41.573  24.195  27.388  1.00  0.00     0.064 A 
ATOM     90  C   UNL A   1      42.130  23.067  28.010  1.00  0.00     0.173 A 
ATOM     91  C   UNL A   1      40.417  24.013  26.613  1.00  0.00     0.173 A 
ATOM     92  F   UNL A   1      43.245  23.184  28.747  1.00  0.00    -0.203 F 
ATOM     93  C   UNL A   1      41.572  21.804  27.834  1.00  0.00     0.198 A 
ATOM     94  C   UNL A   1      39.841  22.754  26.468  1.00  0.00     0.198 A 
ATOM     95  F   UNL A   1      39.841  25.058  26.001  1.00  0.00    -0.203 F 
ATOM     96  F   UNL A   1      42.157  20.732  28.386  1.00  0.00    -0.200 F 
ATOM     97  C   UNL A   1      40.425  21.649  27.068  1.00  0.00     0.200 A 
ATOM     98  F   UNL A   1      38.726  22.609  25.740  1.00  0.00    -0.200 F 
ATOM     99  F   UNL A   1      39.889  20.432  26.900  1.00  0.00    -0.200 F 
ENDBRANCH  66  89
ENDBRANCH  40  41
ENDBRANCH  33  35
ENDBRANCH  32  33
ENDBRANCH  31  32
ENDBRANCH  30  31
ENDBRANCH  29  30
ENDBRANCH  27  29
ENDBRANCH   5  27
TORSDOF 19
ENDMDL
