MODEL 1
REMARK VINA RESULT:     -10.7      0.000      0.000
REMARK SMILES NC(=O)CC[C@H](NC(=O)CC1CC1)C(=O)OCCOC(=O)c1ccc(-c2c3nc(c(-c4c(F)c(F)c(F)c(F)c4F)c4ccc([nH]4)c(-c4c(F)c(F)c(F)c(F)c4F)c4nc(c(-c5c(F)c(F)c(F)c(F)c5F)c5ccc2[nH]5)C=C4)C=C3)cc1
REMARK SMILES IDX 17 1 16 2 14 3 15 4 6 5 5 6 4 7 2 8 1 9 3 12 7 13 8 14 9 16
REMARK SMILES IDX 10 17 11 18 12 19 13 20 18 21 19 22 20 23 21 24 22 25 23 26
REMARK SMILES IDX 84 27 24 28 83 29 25 30 26 31 27 32 77 33 28 34 82 35 76 36
REMARK SMILES IDX 78 37 29 38 81 39 75 40 74 41 30 43 62 44 42 45 61 46 43 47
REMARK SMILES IDX 46 48 60 49 79 50 44 51 45 52 59 54 80 55 47 56 31 57 32 58
REMARK SMILES IDX 40 59 33 60 34 61 38 62 41 63 35 64 36 65 39 66 37 67 63 68
REMARK SMILES IDX 64 69 72 70 65 71 66 72 70 73 73 74 67 75 68 76 71 77 69 78
REMARK SMILES IDX 48 79 49 80 57 81 50 82 51 83 55 84 58 85 52 86 53 87 56 88
REMARK SMILES IDX 54 89
REMARK H PARENT 1 10 1 11 7 15 78 42 46 53
REMARK Flexibility Score: inf
ROOT
ATOM      1  C   UNL A   1      31.306  31.288  25.996  1.00  0.00     0.274 C 
ENDROOT
BRANCH   1   2
ATOM      2  O   UNL A   1      31.994  30.092  26.420  1.00  0.00    -0.461 OA
BRANCH   2   3
ATOM      3  C   UNL A   1      32.304  29.200  25.441  1.00  0.00     0.328 C 
ATOM      4  O   UNL A   1      33.278  29.288  24.698  1.00  0.00    -0.250 OA
BRANCH   3   5
ATOM      5  C   UNL A   1      31.208  28.150  25.210  1.00  0.00     0.192 C 
BRANCH   5   6
ATOM      6  C   UNL A   1      31.168  27.186  26.413  1.00  0.00     0.047 C 
BRANCH   6   7
ATOM      7  C   UNL A   1      31.975  25.895  26.221  1.00  0.00     0.102 C 
BRANCH   7   8
ATOM      8  C   UNL A   1      31.237  24.589  26.459  1.00  0.00     0.217 C 
ATOM      9  N   UNL A   1      30.081  24.359  25.785  1.00  0.00    -0.370 N 
ATOM     10  H   UNL A   1      29.588  23.519  25.926  1.00  0.00     0.159 HD
ATOM     11  H   UNL A   1      29.735  25.033  25.156  1.00  0.00     0.159 HD
ATOM     12  O   UNL A   1      31.618  23.775  27.296  1.00  0.00    -0.275 OA
ENDBRANCH   7   8
ENDBRANCH   6   7
ENDBRANCH   5   6
BRANCH   5  13
ATOM     13  N   UNL A   1      31.321  27.413  23.952  1.00  0.00    -0.343 N 
ATOM     14  C   UNL A   1      30.894  27.752  22.701  1.00  0.00     0.220 C 
ATOM     15  H   UNL A   1      31.771  26.540  24.018  1.00  0.00     0.164 HD
ATOM     16  O   UNL A   1      31.059  26.940  21.789  1.00  0.00    -0.275 OA
BRANCH  14  17
ATOM     17  C   UNL A   1      30.282  29.118  22.429  1.00  0.00     0.103 C 
BRANCH  17  18
ATOM     18  C   UNL A   1      28.797  29.223  22.648  1.00  0.00    -0.002 C 
ATOM     19  C   UNL A   1      28.215  30.521  23.163  1.00  0.00     0.004 C 
ATOM     20  C   UNL A   1      27.949  30.093  21.752  1.00  0.00     0.004 C 
ENDBRANCH  17  18
ENDBRANCH  14  17
ENDBRANCH   5  13
ENDBRANCH   3   5
ENDBRANCH   2   3
ENDBRANCH   1   2
BRANCH   1  21
ATOM     21  C   UNL A   1      31.734  32.519  26.798  1.00  0.00     0.275 C 
BRANCH  21  22
ATOM     22  O   UNL A   1      32.768  32.207  27.750  1.00  0.00    -0.458 OA
BRANCH  22  23
ATOM     23  C   UNL A   1      33.732  33.151  27.834  1.00  0.00     0.338 C 
ATOM     24  O   UNL A   1      33.580  34.362  27.858  1.00  0.00    -0.246 OA
BRANCH  23  25
ATOM     25  C   UNL A   1      35.047  32.542  28.063  1.00  0.00     0.060 A 
ATOM     26  C   UNL A   1      35.074  31.156  28.230  1.00  0.00     0.016 A 
ATOM     27  C   UNL A   1      36.188  33.307  28.294  1.00  0.00     0.016 A 
ATOM     28  C   UNL A   1      36.213  30.527  28.707  1.00  0.00     0.010 A 
ATOM     29  C   UNL A   1      37.343  32.675  28.766  1.00  0.00     0.010 A 
ATOM     30  C   UNL A   1      37.341  31.289  29.021  1.00  0.00    -0.014 A 
BRANCH  30  31
ATOM     31  C   UNL A   1      38.441  30.649  29.777  1.00  0.00     0.031 A 
ATOM     32  C   UNL A   1      38.622  30.993  31.229  1.00  0.00     0.074 A 
ATOM     33  C   UNL A   1      39.210  29.711  29.199  1.00  0.00     0.049 A 
ATOM     34  N   UNL A   1      39.552  30.608  32.065  1.00  0.00    -0.248 NA
ATOM     35  C   UNL A   1      37.615  31.890  31.820  1.00  0.00     0.031 C 
ATOM     36  C   UNL A   1      39.070  29.234  27.824  1.00  0.00     0.029 A 
ATOM     37  N   UNL A   1      40.257  28.983  29.704  1.00  0.00    -0.354 N 
ATOM     38  C   UNL A   1      39.260  31.238  33.268  1.00  0.00     0.074 A 
ATOM     39  C   UNL A   1      38.071  32.034  33.055  1.00  0.00     0.031 C 
ATOM     40  C   UNL A   1      39.998  28.289  27.595  1.00  0.00     0.029 A 
ATOM     41  C   UNL A   1      40.821  28.130  28.791  1.00  0.00     0.049 A 
ATOM     42  H   UNL A   1      40.572  29.066  30.633  1.00  0.00     0.167 HD
ATOM     43  C   UNL A   1      39.928  31.158  34.443  1.00  0.00     0.037 A 
ATOM     44  C   UNL A   1      41.898  27.329  28.905  1.00  0.00     0.037 A 
ATOM     45  C   UNL A   1      41.094  30.344  34.655  1.00  0.00     0.049 A 
ATOM     46  C   UNL A   1      42.647  27.289  30.209  1.00  0.00     0.074 A 
ATOM     47  C   UNL A   1      41.863  30.213  35.798  1.00  0.00     0.029 A 
ATOM     48  N   UNL A   1      41.652  29.510  33.697  1.00  0.00    -0.354 N 
ATOM     49  N   UNL A   1      42.399  27.929  31.326  1.00  0.00    -0.248 NA
ATOM     50  C   UNL A   1      43.829  26.417  30.266  1.00  0.00     0.031 C 
ATOM     51  C   UNL A   1      42.903  29.316  35.523  1.00  0.00     0.029 A 
ATOM     52  C   UNL A   1      42.758  28.862  34.222  1.00  0.00     0.049 A 
ATOM     53  H   UNL A   1      41.313  29.395  32.780  1.00  0.00     0.167 HD
ATOM     54  C   UNL A   1      43.377  27.524  32.224  1.00  0.00     0.074 A 
ATOM     55  C   UNL A   1      44.217  26.572  31.525  1.00  0.00     0.031 C 
ATOM     56  C   UNL A   1      43.567  27.908  33.510  1.00  0.00     0.037 A 
BRANCH  43  57
ATOM     57  C   UNL A   1      39.430  32.004  35.576  1.00  0.00     0.064 A 
ATOM     58  C   UNL A   1      39.853  33.329  35.750  1.00  0.00     0.173 A 
ATOM     59  C   UNL A   1      38.506  31.481  36.493  1.00  0.00     0.173 A 
ATOM     60  F   UNL A   1      40.752  33.867  34.912  1.00  0.00    -0.203 F 
ATOM     61  C   UNL A   1      39.384  34.095  36.815  1.00  0.00     0.198 A 
ATOM     62  C   UNL A   1      38.021  32.257  37.542  1.00  0.00     0.198 A 
ATOM     63  F   UNL A   1      38.071  30.218  36.369  1.00  0.00    -0.203 F 
ATOM     64  F   UNL A   1      39.833  35.345  36.988  1.00  0.00    -0.200 F 
ATOM     65  C   UNL A   1      38.465  33.560  37.707  1.00  0.00     0.200 A 
ATOM     66  F   UNL A   1      37.129  31.741  38.398  1.00  0.00    -0.200 F 
ATOM     67  F   UNL A   1      38.013  34.298  38.730  1.00  0.00    -0.200 F 
ENDBRANCH  43  57
BRANCH  44  68
ATOM     68  C   UNL A   1      42.341  26.518  27.743  1.00  0.00     0.064 A 
ATOM     69  C   UNL A   1      43.311  26.999  26.854  1.00  0.00     0.173 A 
ATOM     70  C   UNL A   1      41.803  25.246  27.499  1.00  0.00     0.173 A 
ATOM     71  F   UNL A   1      43.837  28.220  27.031  1.00  0.00    -0.203 F 
ATOM     72  C   UNL A   1      43.717  26.242  25.755  1.00  0.00     0.198 A 
ATOM     73  C   UNL A   1      42.229  24.480  26.417  1.00  0.00     0.198 A 
ATOM     74  F   UNL A   1      40.872  24.742  28.323  1.00  0.00    -0.203 F 
ATOM     75  F   UNL A   1      44.617  26.741  24.898  1.00  0.00    -0.200 F 
ATOM     76  C   UNL A   1      43.180  24.981  25.542  1.00  0.00     0.200 A 
ATOM     77  F   UNL A   1      41.716  23.258  26.222  1.00  0.00    -0.200 F 
ATOM     78  F   UNL A   1      43.575  24.252  24.490  1.00  0.00    -0.200 F 
ENDBRANCH  44  68
BRANCH  56  79
ATOM     79  C   UNL A   1      44.700  27.267  34.252  1.00  0.00     0.064 A 
ATOM     80  C   UNL A   1      45.974  27.851  34.293  1.00  0.00     0.173 A 
ATOM     81  C   UNL A   1      44.497  26.074  34.962  1.00  0.00     0.173 A 
ATOM     82  F   UNL A   1      46.218  28.984  33.617  1.00  0.00    -0.203 F 
ATOM     83  C   UNL A   1      47.012  27.250  35.000  1.00  0.00     0.198 A 
ATOM     84  C   UNL A   1      45.531  25.489  35.686  1.00  0.00     0.198 A 
ATOM     85  F   UNL A   1      43.294  25.481  34.957  1.00  0.00    -0.203 F 
ATOM     86  F   UNL A   1      48.232  27.804  34.993  1.00  0.00    -0.200 F 
ATOM     87  C   UNL A   1      46.788  26.074  35.700  1.00  0.00     0.200 A 
ATOM     88  F   UNL A   1      45.311  24.356  36.369  1.00  0.00    -0.200 F 
ATOM     89  F   UNL A   1      47.788  25.498  36.382  1.00  0.00    -0.200 F 
ENDBRANCH  56  79
ENDBRANCH  30  31
ENDBRANCH  23  25
ENDBRANCH  22  23
ENDBRANCH  21  22
ENDBRANCH   1  21
TORSDOF 17
ENDMDL
MODEL 2
REMARK VINA RESULT:     -10.6      1.399      8.031
REMARK SMILES NC(=O)CC[C@H](NC(=O)CC1CC1)C(=O)OCCOC(=O)c1ccc(-c2c3nc(c(-c4c(F)c(F)c(F)c(F)c4F)c4ccc([nH]4)c(-c4c(F)c(F)c(F)c(F)c4F)c4nc(c(-c5c(F)c(F)c(F)c(F)c5F)c5ccc2[nH]5)C=C4)C=C3)cc1
REMARK SMILES IDX 17 1 16 2 14 3 15 4 6 5 5 6 4 7 2 8 1 9 3 12 7 13 8 14 9 16
REMARK SMILES IDX 10 17 11 18 12 19 13 20 18 21 19 22 20 23 21 24 22 25 23 26
REMARK SMILES IDX 84 27 24 28 83 29 25 30 26 31 27 32 77 33 28 34 82 35 76 36
REMARK SMILES IDX 78 37 29 38 81 39 75 40 74 41 30 43 62 44 42 45 61 46 43 47
REMARK SMILES IDX 46 48 60 49 79 50 44 51 45 52 59 54 80 55 47 56 31 57 32 58
REMARK SMILES IDX 40 59 33 60 34 61 38 62 41 63 35 64 36 65 39 66 37 67 63 68
REMARK SMILES IDX 64 69 72 70 65 71 66 72 70 73 73 74 67 75 68 76 71 77 69 78
REMARK SMILES IDX 48 79 49 80 57 81 50 82 51 83 55 84 58 85 52 86 53 87 56 88
REMARK SMILES IDX 54 89
REMARK H PARENT 1 10 1 11 7 15 78 42 46 53
REMARK Flexibility Score: inf
ROOT
ATOM      1  C   UNL A   1      32.241  28.127  26.675  1.00  0.00     0.274 C 
ENDROOT
BRANCH   1   2
ATOM      2  O   UNL A   1      30.965  27.503  26.419  1.00  0.00    -0.461 OA
BRANCH   2   3
ATOM      3  C   UNL A   1      30.812  26.930  25.196  1.00  0.00     0.328 C 
ATOM      4  O   UNL A   1      30.392  27.512  24.199  1.00  0.00    -0.250 OA
BRANCH   3   5
ATOM      5  C   UNL A   1      31.034  25.411  25.207  1.00  0.00     0.192 C 
BRANCH   5   6
ATOM      6  C   UNL A   1      30.731  24.845  23.804  1.00  0.00     0.047 C 
BRANCH   6   7
ATOM      7  C   UNL A   1      31.975  24.542  22.958  1.00  0.00     0.102 C 
BRANCH   7   8
ATOM      8  C   UNL A   1      32.467  25.656  22.050  1.00  0.00     0.217 C 
ATOM      9  N   UNL A   1      31.584  26.602  21.637  1.00  0.00    -0.370 N 
ATOM     10  H   UNL A   1      31.885  27.331  21.048  1.00  0.00     0.159 HD
ATOM     11  H   UNL A   1      30.644  26.557  21.926  1.00  0.00     0.159 HD
ATOM     12  O   UNL A   1      33.618  25.679  21.622  1.00  0.00    -0.275 OA
ENDBRANCH   7   8
ENDBRANCH   6   7
ENDBRANCH   5   6
BRANCH   5  13
ATOM     13  N   UNL A   1      30.287  24.689  26.235  1.00  0.00    -0.343 N 
ATOM     14  C   UNL A   1      30.486  23.437  26.741  1.00  0.00     0.220 C 
ATOM     15  H   UNL A   1      29.524  25.179  26.620  1.00  0.00     0.164 HD
ATOM     16  O   UNL A   1      29.690  23.014  27.580  1.00  0.00    -0.275 OA
BRANCH  14  17
ATOM     17  C   UNL A   1      31.691  22.609  26.320  1.00  0.00     0.103 C 
BRANCH  17  18
ATOM     18  C   UNL A   1      32.958  22.859  27.094  1.00  0.00    -0.002 C 
ATOM     19  C   UNL A   1      34.243  22.204  26.640  1.00  0.00     0.004 C 
ATOM     20  C   UNL A   1      34.071  23.685  26.495  1.00  0.00     0.004 C 
ENDBRANCH  17  18
ENDBRANCH  14  17
ENDBRANCH   5  13
ENDBRANCH   3   5
ENDBRANCH   2   3
ENDBRANCH   1   2
BRANCH   1  21
ATOM     21  C   UNL A   1      32.101  29.604  27.051  1.00  0.00     0.275 C 
BRANCH  21  22
ATOM     22  O   UNL A   1      33.122  30.413  26.438  1.00  0.00    -0.458 OA
BRANCH  22  23
ATOM     23  C   UNL A   1      33.619  31.370  27.252  1.00  0.00     0.338 C 
ATOM     24  O   UNL A   1      33.017  32.315  27.737  1.00  0.00    -0.246 OA
BRANCH  23  25
ATOM     25  C   UNL A   1      34.999  31.062  27.646  1.00  0.00     0.060 A 
ATOM     26  C   UNL A   1      35.309  29.714  27.836  1.00  0.00     0.016 A 
ATOM     27  C   UNL A   1      35.909  32.056  28.000  1.00  0.00     0.016 A 
ATOM     28  C   UNL A   1      36.493  29.345  28.456  1.00  0.00     0.010 A 
ATOM     29  C   UNL A   1      37.109  31.687  28.617  1.00  0.00     0.010 A 
ATOM     30  C   UNL A   1      37.380  30.333  28.891  1.00  0.00    -0.014 A 
BRANCH  30  31
ATOM     31  C   UNL A   1      38.495  29.941  29.782  1.00  0.00     0.031 A 
ATOM     32  C   UNL A   1      39.551  29.007  29.259  1.00  0.00     0.074 A 
ATOM     33  C   UNL A   1      38.610  30.480  31.008  1.00  0.00     0.049 A 
ATOM     34  N   UNL A   1      40.575  28.480  29.879  1.00  0.00    -0.248 NA
ATOM     35  C   UNL A   1      39.438  28.619  27.844  1.00  0.00     0.031 C 
ATOM     36  C   UNL A   1      37.695  31.461  31.588  1.00  0.00     0.029 A 
ATOM     37  N   UNL A   1      39.554  30.282  31.982  1.00  0.00    -0.354 N 
ATOM     38  C   UNL A   1      41.209  27.676  28.941  1.00  0.00     0.074 A 
ATOM     39  C   UNL A   1      40.455  27.780  27.711  1.00  0.00     0.031 C 
ATOM     40  C   UNL A   1      38.125  31.783  32.819  1.00  0.00     0.029 A 
ATOM     41  C   UNL A   1      39.317  30.997  33.128  1.00  0.00     0.049 A 
ATOM     42  H   UNL A   1      40.329  29.684  31.869  1.00  0.00     0.167 HD
ATOM     43  C   UNL A   1      42.321  26.920  29.095  1.00  0.00     0.037 A 
ATOM     44  C   UNL A   1      39.976  30.995  34.301  1.00  0.00     0.037 A 
ATOM     45  C   UNL A   1      43.082  26.842  30.313  1.00  0.00     0.049 A 
ATOM     46  C   UNL A   1      41.186  30.115  34.462  1.00  0.00     0.074 A 
ATOM     47  C   UNL A   1      44.208  26.085  30.585  1.00  0.00     0.029 A 
ATOM     48  N   UNL A   1      42.796  27.563  31.463  1.00  0.00    -0.354 N 
ATOM     49  N   UNL A   1      41.748  29.315  33.588  1.00  0.00    -0.248 NA
ATOM     50  C   UNL A   1      41.851  30.134  35.773  1.00  0.00     0.031 C 
ATOM     51  C   UNL A   1      44.589  26.330  31.909  1.00  0.00     0.029 A 
ATOM     52  C   UNL A   1      43.723  27.267  32.449  1.00  0.00     0.049 A 
ATOM     53  H   UNL A   1      42.046  28.193  31.563  1.00  0.00     0.167 HD
ATOM     54  C   UNL A   1      42.842  28.752  34.233  1.00  0.00     0.074 A 
ATOM     55  C   UNL A   1      42.872  29.313  35.569  1.00  0.00     0.031 C 
ATOM     56  C   UNL A   1      43.739  27.851  33.765  1.00  0.00     0.037 A 
BRANCH  43  57
ATOM     57  C   UNL A   1      42.756  26.088  27.926  1.00  0.00     0.064 A 
ATOM     58  C   UNL A   1      43.692  26.555  26.993  1.00  0.00     0.173 A 
ATOM     59  C   UNL A   1      42.234  24.797  27.747  1.00  0.00     0.173 A 
ATOM     60  F   UNL A   1      44.202  27.790  27.110  1.00  0.00    -0.203 F 
ATOM     61  C   UNL A   1      44.075  25.768  25.910  1.00  0.00     0.198 A 
ATOM     62  C   UNL A   1      42.638  24.005  26.676  1.00  0.00     0.198 A 
ATOM     63  F   UNL A   1      41.335  24.305  28.613  1.00  0.00    -0.203 F 
ATOM     64  F   UNL A   1      44.939  26.250  25.006  1.00  0.00    -0.200 F 
ATOM     65  C   UNL A   1      43.552  24.492  25.755  1.00  0.00     0.200 A 
ATOM     66  F   UNL A   1      42.136  22.770  26.533  1.00  0.00    -0.200 F 
ATOM     67  F   UNL A   1      43.923  23.736  24.713  1.00  0.00    -0.200 F 
ENDBRANCH  43  57
BRANCH  44  68
ATOM     68  C   UNL A   1      39.493  31.840  35.422  1.00  0.00     0.064 A 
ATOM     69  C   UNL A   1      39.934  33.162  35.572  1.00  0.00     0.173 A 
ATOM     70  C   UNL A   1      38.583  31.343  36.366  1.00  0.00     0.173 A 
ATOM     71  F   UNL A   1      40.822  33.675  34.709  1.00  0.00    -0.203 F 
ATOM     72  C   UNL A   1      39.489  33.951  36.633  1.00  0.00     0.198 A 
ATOM     73  C   UNL A   1      38.120  32.140  37.410  1.00  0.00     0.198 A 
ATOM     74  F   UNL A   1      38.133  30.083  36.264  1.00  0.00    -0.203 F 
ATOM     75  F   UNL A   1      39.955  35.199  36.777  1.00  0.00    -0.200 F 
ATOM     76  C   UNL A   1      38.578  33.441  37.547  1.00  0.00     0.200 A 
ATOM     77  F   UNL A   1      37.232  31.647  38.283  1.00  0.00    -0.200 F 
ATOM     78  F   UNL A   1      38.148  34.201  38.562  1.00  0.00    -0.200 F 
ENDBRANCH  44  68
BRANCH  56  79
ATOM     79  C   UNL A   1      44.847  27.448  34.689  1.00  0.00     0.064 A 
ATOM     80  C   UNL A   1      44.736  26.325  35.522  1.00  0.00     0.173 A 
ATOM     81  C   UNL A   1      46.047  28.172  34.713  1.00  0.00     0.173 A 
ATOM     82  F   UNL A   1      43.601  25.611  35.543  1.00  0.00    -0.203 F 
ATOM     83  C   UNL A   1      45.781  25.956  36.364  1.00  0.00     0.198 A 
ATOM     84  C   UNL A   1      47.098  27.787  35.539  1.00  0.00     0.198 A 
ATOM     85  F   UNL A   1      46.202  29.250  33.930  1.00  0.00    -0.203 F 
ATOM     86  F   UNL A   1      45.640  24.904  37.182  1.00  0.00    -0.200 F 
ATOM     87  C   UNL A   1      46.962  26.683  36.368  1.00  0.00     0.200 A 
ATOM     88  F   UNL A   1      48.243  28.485  35.536  1.00  0.00    -0.200 F 
ATOM     89  F   UNL A   1      47.969  26.325  37.178  1.00  0.00    -0.200 F 
ENDBRANCH  56  79
ENDBRANCH  30  31
ENDBRANCH  23  25
ENDBRANCH  22  23
ENDBRANCH  21  22
ENDBRANCH   1  21
TORSDOF 17
ENDMDL
MODEL 3
REMARK VINA RESULT:     -10.6      1.503      8.029
REMARK SMILES NC(=O)CC[C@H](NC(=O)CC1CC1)C(=O)OCCOC(=O)c1ccc(-c2c3nc(c(-c4c(F)c(F)c(F)c(F)c4F)c4ccc([nH]4)c(-c4c(F)c(F)c(F)c(F)c4F)c4nc(c(-c5c(F)c(F)c(F)c(F)c5F)c5ccc2[nH]5)C=C4)C=C3)cc1
REMARK SMILES IDX 17 1 16 2 14 3 15 4 6 5 5 6 4 7 2 8 1 9 3 12 7 13 8 14 9 16
REMARK SMILES IDX 10 17 11 18 12 19 13 20 18 21 19 22 20 23 21 24 22 25 23 26
REMARK SMILES IDX 84 27 24 28 83 29 25 30 26 31 27 32 77 33 28 34 82 35 76 36
REMARK SMILES IDX 78 37 29 38 81 39 75 40 74 41 30 43 62 44 42 45 61 46 43 47
REMARK SMILES IDX 46 48 60 49 79 50 44 51 45 52 59 54 80 55 47 56 31 57 32 58
REMARK SMILES IDX 40 59 33 60 34 61 38 62 41 63 35 64 36 65 39 66 37 67 63 68
REMARK SMILES IDX 64 69 72 70 65 71 66 72 70 73 73 74 67 75 68 76 71 77 69 78
REMARK SMILES IDX 48 79 49 80 57 81 50 82 51 83 55 84 58 85 52 86 53 87 56 88
REMARK SMILES IDX 54 89
REMARK H PARENT 1 10 1 11 7 15 78 42 46 53
REMARK Flexibility Score: inf
ROOT
ATOM      1  C   UNL A   1      31.725  28.531  27.053  1.00  0.00     0.274 C 
ENDROOT
BRANCH   1   2
ATOM      2  O   UNL A   1      31.191  27.838  25.906  1.00  0.00    -0.461 OA
BRANCH   2   3
ATOM      3  C   UNL A   1      31.301  26.482  25.919  1.00  0.00     0.328 C 
ATOM      4  O   UNL A   1      31.019  25.767  26.877  1.00  0.00    -0.250 OA
BRANCH   3   5
ATOM      5  C   UNL A   1      32.002  25.920  24.675  1.00  0.00     0.192 C 
BRANCH   5   6
ATOM      6  C   UNL A   1      31.392  26.567  23.414  1.00  0.00     0.047 C 
BRANCH   6   7
ATOM      7  C   UNL A   1      32.406  26.878  22.305  1.00  0.00     0.102 C 
BRANCH   7   8
ATOM      8  C   UNL A   1      32.807  25.721  21.406  1.00  0.00     0.217 C 
ATOM      9  N   UNL A   1      32.228  25.614  20.182  1.00  0.00    -0.370 N 
ATOM     10  H   UNL A   1      32.475  24.871  19.585  1.00  0.00     0.159 HD
ATOM     11  H   UNL A   1      31.561  26.277  19.893  1.00  0.00     0.159 HD
ATOM     12  O   UNL A   1      33.580  24.847  21.786  1.00  0.00    -0.275 OA
ENDBRANCH   7   8
ENDBRANCH   6   7
ENDBRANCH   5   6
BRANCH   5  13
ATOM     13  N   UNL A   1      31.992  24.462  24.571  1.00  0.00    -0.343 N 
ATOM     14  C   UNL A   1      32.914  23.551  24.999  1.00  0.00     0.220 C 
ATOM     15  H   UNL A   1      31.202  24.079  24.125  1.00  0.00     0.164 HD
ATOM     16  O   UNL A   1      32.713  22.360  24.756  1.00  0.00    -0.275 OA
BRANCH  14  17
ATOM     17  C   UNL A   1      34.130  23.989  25.801  1.00  0.00     0.103 C 
BRANCH  17  18
ATOM     18  C   UNL A   1      35.361  24.310  24.998  1.00  0.00    -0.002 C 
ATOM     19  C   UNL A   1      36.672  23.645  25.355  1.00  0.00     0.004 C 
ATOM     20  C   UNL A   1      35.972  23.275  24.084  1.00  0.00     0.004 C 
ENDBRANCH  17  18
ENDBRANCH  14  17
ENDBRANCH   5  13
ENDBRANCH   3   5
ENDBRANCH   2   3
ENDBRANCH   1   2
BRANCH   1  21
ATOM     21  C   UNL A   1      31.784  30.046  26.842  1.00  0.00     0.275 C 
BRANCH  21  22
ATOM     22  O   UNL A   1      33.098  30.481  26.443  1.00  0.00    -0.458 OA
BRANCH  22  23
ATOM     23  C   UNL A   1      33.614  31.446  27.235  1.00  0.00     0.338 C 
ATOM     24  O   UNL A   1      33.029  32.410  27.703  1.00  0.00    -0.246 OA
BRANCH  23  25
ATOM     25  C   UNL A   1      34.991  31.124  27.628  1.00  0.00     0.060 A 
ATOM     26  C   UNL A   1      35.290  29.773  27.807  1.00  0.00     0.016 A 
ATOM     27  C   UNL A   1      35.908  32.109  27.991  1.00  0.00     0.016 A 
ATOM     28  C   UNL A   1      36.471  29.389  28.426  1.00  0.00     0.010 A 
ATOM     29  C   UNL A   1      37.105  31.726  28.606  1.00  0.00     0.010 A 
ATOM     30  C   UNL A   1      37.365  30.367  28.869  1.00  0.00    -0.014 A 
BRANCH  30  31
ATOM     31  C   UNL A   1      38.476  29.959  29.759  1.00  0.00     0.031 A 
ATOM     32  C   UNL A   1      39.522  29.018  29.231  1.00  0.00     0.074 A 
ATOM     33  C   UNL A   1      38.596  30.490  30.987  1.00  0.00     0.049 A 
ATOM     34  N   UNL A   1      40.541  28.478  29.848  1.00  0.00    -0.248 NA
ATOM     35  C   UNL A   1      39.407  28.638  27.813  1.00  0.00     0.031 C 
ATOM     36  C   UNL A   1      37.690  31.477  31.572  1.00  0.00     0.029 A 
ATOM     37  N   UNL A   1      39.538  30.278  31.960  1.00  0.00    -0.354 N 
ATOM     38  C   UNL A   1      41.168  27.673  28.905  1.00  0.00     0.074 A 
ATOM     39  C   UNL A   1      40.415  27.790  27.676  1.00  0.00     0.031 C 
ATOM     40  C   UNL A   1      38.123  31.788  32.805  1.00  0.00     0.029 A 
ATOM     41  C   UNL A   1      39.307  30.989  33.110  1.00  0.00     0.049 A 
ATOM     42  H   UNL A   1      40.307  29.673  31.844  1.00  0.00     0.167 HD
ATOM     43  C   UNL A   1      42.272  26.904  29.056  1.00  0.00     0.037 A 
ATOM     44  C   UNL A   1      39.967  30.974  34.284  1.00  0.00     0.037 A 
ATOM     45  C   UNL A   1      43.032  26.812  30.273  1.00  0.00     0.049 A 
ATOM     46  C   UNL A   1      41.168  30.081  34.439  1.00  0.00     0.074 A 
ATOM     47  C   UNL A   1      44.150  26.043  30.541  1.00  0.00     0.029 A 
ATOM     48  N   UNL A   1      42.753  27.530  31.427  1.00  0.00    -0.354 N 
ATOM     49  N   UNL A   1      41.722  29.280  33.561  1.00  0.00    -0.248 NA
ATOM     50  C   UNL A   1      41.832  30.087  35.751  1.00  0.00     0.031 C 
ATOM     51  C   UNL A   1      44.534  26.277  31.867  1.00  0.00     0.029 A 
ATOM     52  C   UNL A   1      43.676  27.220  32.411  1.00  0.00     0.049 A 
ATOM     53  H   UNL A   1      42.009  28.167  31.531  1.00  0.00     0.167 HD
ATOM     54  C   UNL A   1      42.810  28.704  34.203  1.00  0.00     0.074 A 
ATOM     55  C   UNL A   1      42.845  29.256  35.542  1.00  0.00     0.031 C 
ATOM     56  C   UNL A   1      43.698  27.796  33.731  1.00  0.00     0.037 A 
BRANCH  43  57
ATOM     57  C   UNL A   1      42.699  26.074  27.882  1.00  0.00     0.064 A 
ATOM     58  C   UNL A   1      42.199  24.782  27.671  1.00  0.00     0.173 A 
ATOM     59  C   UNL A   1      43.612  26.589  26.950  1.00  0.00     0.173 A 
ATOM     60  F   UNL A   1      41.341  24.238  28.547  1.00  0.00    -0.203 F 
ATOM     61  C   UNL A   1      42.616  24.025  26.578  1.00  0.00     0.198 A 
ATOM     62  C   UNL A   1      44.007  25.839  25.846  1.00  0.00     0.198 A 
ATOM     63  F   UNL A   1      44.118  27.821  27.109  1.00  0.00    -0.203 F 
ATOM     64  F   UNL A   1      42.159  22.776  26.417  1.00  0.00    -0.200 F 
ATOM     65  C   UNL A   1      43.515  24.556  25.664  1.00  0.00     0.200 A 
ATOM     66  F   UNL A   1      44.870  26.357  24.961  1.00  0.00    -0.200 F 
ATOM     67  F   UNL A   1      43.913  23.828  24.612  1.00  0.00    -0.200 F 
ENDBRANCH  43  57
BRANCH  44  68
ATOM     68  C   UNL A   1      39.492  31.818  35.409  1.00  0.00     0.064 A 
ATOM     69  C   UNL A   1      39.957  33.129  35.576  1.00  0.00     0.173 A 
ATOM     70  C   UNL A   1      38.563  31.330  36.340  1.00  0.00     0.173 A 
ATOM     71  F   UNL A   1      40.863  33.632  34.725  1.00  0.00    -0.203 F 
ATOM     72  C   UNL A   1      39.521  33.916  36.641  1.00  0.00     0.198 A 
ATOM     73  C   UNL A   1      38.108  32.126  37.388  1.00  0.00     0.198 A 
ATOM     74  F   UNL A   1      38.089  30.081  36.223  1.00  0.00    -0.203 F 
ATOM     75  F   UNL A   1      40.010  35.152  36.801  1.00  0.00    -0.200 F 
ATOM     76  C   UNL A   1      38.592  33.416  37.542  1.00  0.00     0.200 A 
ATOM     77  F   UNL A   1      37.203  31.642  38.249  1.00  0.00    -0.200 F 
ATOM     78  F   UNL A   1      38.169  34.174  38.561  1.00  0.00    -0.200 F 
ENDBRANCH  44  68
BRANCH  56  79
ATOM     79  C   UNL A   1      44.802  27.377  34.653  1.00  0.00     0.064 A 
ATOM     80  C   UNL A   1      46.011  28.085  34.720  1.00  0.00     0.173 A 
ATOM     81  C   UNL A   1      44.633  26.276  35.506  1.00  0.00     0.173 A 
ATOM     82  F   UNL A   1      46.222  29.135  33.913  1.00  0.00    -0.203 F 
ATOM     83  C   UNL A   1      47.020  27.691  35.594  1.00  0.00     0.198 A 
ATOM     84  C   UNL A   1      45.635  25.900  36.393  1.00  0.00     0.198 A 
ATOM     85  F   UNL A   1      43.492  25.572  35.481  1.00  0.00    -0.203 F 
ATOM     86  F   UNL A   1      48.183  28.357  35.614  1.00  0.00    -0.200 F 
ATOM     87  C   UNL A   1      46.830  26.603  36.433  1.00  0.00     0.200 A 
ATOM     88  F   UNL A   1      45.447  24.853  37.210  1.00  0.00    -0.200 F 
ATOM     89  F   UNL A   1      47.803  26.226  37.275  1.00  0.00    -0.200 F 
ENDBRANCH  56  79
ENDBRANCH  30  31
ENDBRANCH  23  25
ENDBRANCH  22  23
ENDBRANCH  21  22
ENDBRANCH   1  21
TORSDOF 17
ENDMDL
