MODEL 1
REMARK VINA RESULT:     -13.1      0.000      0.000
REMARK SMILES CC(C)c1ccc(NC(=O)C(=O)N/N=C/c2ccccc2C(=O)OCCOC(=O)c2ccc(-c3c4nc(c(-c5c(F)c(F)c(F)c(F)c5F)c5ccc([nH]5)c(-c5c(F)c(F)c(F)c(F)c5F)c5nc(c(-c6c(F)c(F)c(F)c(F)c6F)c6ccc3[nH]6)C=C5)C=C4)cc2)cc1
REMARK SMILES IDX 24 1 22 2 23 3 21 4 16 5 17 6 18 7 20 8 19 9 15 10 14 11
REMARK SMILES IDX 13 12 11 13 12 14 9 16 8 17 10 19 7 20 4 21 5 22 94 23 6 24
REMARK SMILES IDX 93 25 2 26 1 27 3 28 25 29 26 30 27 31 28 32 29 33 30 34
REMARK SMILES IDX 31 35 92 36 32 37 91 38 33 39 34 40 35 41 85 42 36 43 90 44
REMARK SMILES IDX 84 45 86 46 37 47 89 48 83 49 82 50 38 52 70 53 50 54 69 55
REMARK SMILES IDX 51 56 54 57 68 58 87 59 52 60 53 61 67 63 88 64 55 65 39 66
REMARK SMILES IDX 40 67 48 68 41 69 42 70 46 71 49 72 43 73 44 74 47 75 45 76
REMARK SMILES IDX 71 77 72 78 80 79 73 80 74 81 78 82 81 83 75 84 76 85 79 86
REMARK SMILES IDX 77 87 56 88 57 89 65 90 58 91 59 92 63 93 66 94 60 95 61 96
REMARK SMILES IDX 64 97 62 98
REMARK H PARENT 13 15 8 18 86 51 54 62
REMARK Flexibility Score: inf
ROOT
ATOM      1  O   UNL A   1      32.346  28.705  24.599  1.00  0.00    -0.458 OA
ENDROOT
BRANCH   1   2
ATOM      2  C   UNL A   1      31.854  27.869  23.651  1.00  0.00     0.338 C 
ATOM      3  O   UNL A   1      32.375  26.847  23.253  1.00  0.00    -0.246 OA
BRANCH   2   4
ATOM      4  C   UNL A   1      30.496  28.310  23.210  1.00  0.00     0.068 A 
ATOM      5  C   UNL A   1      29.334  27.654  23.619  1.00  0.00     0.009 A 
ATOM      6  C   UNL A   1      28.065  28.079  23.224  1.00  0.00     0.010 A 
ATOM      7  C   UNL A   1      27.953  29.165  22.360  1.00  0.00     0.001 A 
ATOM      8  C   UNL A   1      30.364  29.430  22.382  1.00  0.00     0.016 A 
ATOM      9  C   UNL A   1      29.101  29.828  21.925  1.00  0.00     0.001 A 
BRANCH   5  10
ATOM     10  C   UNL A   1      29.461  26.350  24.236  1.00  0.00     0.142 C 
ATOM     11  N   UNL A   1      29.781  26.134  25.471  1.00  0.00    -0.180 NA
BRANCH  11  12
ATOM     12  N   UNL A   1      29.901  24.793  25.750  1.00  0.00    -0.239 N 
ATOM     13  C   UNL A   1      30.941  24.229  26.477  1.00  0.00     0.329 C 
ATOM     14  O   UNL A   1      30.748  23.344  27.302  1.00  0.00    -0.262 OA
ATOM     15  H   UNL A   1      29.200  24.191  25.411  1.00  0.00     0.194 HD
BRANCH  13  16
ATOM     16  C   UNL A   1      32.367  24.740  26.161  1.00  0.00     0.315 C 
ATOM     17  N   UNL A   1      33.271  23.909  25.546  1.00  0.00    -0.318 N 
ATOM     18  H   UNL A   1      34.170  24.298  25.443  1.00  0.00     0.170 HD
ATOM     19  O   UNL A   1      32.746  25.852  26.519  1.00  0.00    -0.263 OA
BRANCH  17  20
ATOM     20  C   UNL A   1      33.148  22.613  25.038  1.00  0.00     0.041 A 
ATOM     21  C   UNL A   1      32.899  19.916  24.232  1.00  0.00    -0.045 A 
ATOM     22  C   UNL A   1      32.447  20.957  23.417  1.00  0.00     0.006 A 
ATOM     23  C   UNL A   1      33.491  20.253  25.459  1.00  0.00     0.006 A 
ATOM     24  C   UNL A   1      32.590  22.290  23.807  1.00  0.00     0.026 A 
ATOM     25  C   UNL A   1      33.630  21.585  25.849  1.00  0.00     0.026 A 
BRANCH  21  26
ATOM     26  C   UNL A   1      32.789  18.453  23.833  1.00  0.00     0.013 C 
ATOM     27  C   UNL A   1      32.296  18.211  22.400  1.00  0.00     0.012 C 
ATOM     28  C   UNL A   1      34.138  17.751  24.024  1.00  0.00     0.012 C 
ENDBRANCH  21  26
ENDBRANCH  17  20
ENDBRANCH  13  16
ENDBRANCH  11  12
ENDBRANCH   5  10
ENDBRANCH   2   4
ENDBRANCH   1   2
BRANCH   1  29
ATOM     29  C   UNL A   1      31.524  29.020  25.745  1.00  0.00     0.275 C 
BRANCH  29  30
ATOM     30  C   UNL A   1      31.827  30.428  26.262  1.00  0.00     0.275 C 
BRANCH  30  31
ATOM     31  O   UNL A   1      33.251  30.610  26.354  1.00  0.00    -0.458 OA
BRANCH  31  32
ATOM     32  C   UNL A   1      33.633  31.626  27.159  1.00  0.00     0.338 C 
ATOM     33  O   UNL A   1      32.965  32.566  27.555  1.00  0.00    -0.246 OA
BRANCH  32  34
ATOM     34  C   UNL A   1      34.966  31.337  27.691  1.00  0.00     0.060 A 
ATOM     35  C   UNL A   1      35.214  30.021  28.061  1.00  0.00     0.016 A 
ATOM     36  C   UNL A   1      35.886  32.335  27.986  1.00  0.00     0.016 A 
ATOM     37  C   UNL A   1      36.328  29.696  28.816  1.00  0.00     0.010 A 
ATOM     38  C   UNL A   1      37.065  31.991  28.660  1.00  0.00     0.010 A 
ATOM     39  C   UNL A   1      37.281  30.674  29.113  1.00  0.00    -0.014 A 
BRANCH  39  40
ATOM     40  C   UNL A   1      38.469  30.309  29.933  1.00  0.00     0.031 A 
ATOM     41  C   UNL A   1      39.528  29.407  29.363  1.00  0.00     0.074 A 
ATOM     42  C   UNL A   1      38.617  30.814  31.175  1.00  0.00     0.049 A 
ATOM     43  N   UNL A   1      40.542  28.835  29.962  1.00  0.00    -0.248 NA
ATOM     44  C   UNL A   1      39.426  29.092  27.930  1.00  0.00     0.031 C 
ATOM     45  C   UNL A   1      37.695  31.749  31.825  1.00  0.00     0.029 A 
ATOM     46  N   UNL A   1      39.600  30.618  32.113  1.00  0.00    -0.354 N 
ATOM     47  C   UNL A   1      41.156  28.044  28.999  1.00  0.00     0.074 A 
ATOM     48  C   UNL A   1      40.398  28.205  27.777  1.00  0.00     0.031 C 
ATOM     49  C   UNL A   1      38.174  32.073  33.034  1.00  0.00     0.029 A 
ATOM     50  C   UNL A   1      39.373  31.287  33.291  1.00  0.00     0.049 A 
ATOM     51  H   UNL A   1      40.392  30.053  31.956  1.00  0.00     0.167 HD
ATOM     52  C   UNL A   1      42.247  27.253  29.131  1.00  0.00     0.037 A 
ATOM     53  C   UNL A   1      40.020  31.231  34.470  1.00  0.00     0.037 A 
ATOM     54  C   UNL A   1      43.021  27.145  30.342  1.00  0.00     0.049 A 
ATOM     55  C   UNL A   1      41.199  30.312  34.606  1.00  0.00     0.074 A 
ATOM     56  C   UNL A   1      44.160  26.396  30.576  1.00  0.00     0.029 A 
ATOM     57  N   UNL A   1      42.733  27.812  31.527  1.00  0.00    -0.354 N 
ATOM     58  N   UNL A   1      41.747  29.534  33.706  1.00  0.00    -0.248 NA
ATOM     59  C   UNL A   1      41.840  30.252  35.926  1.00  0.00     0.031 C 
ATOM     60  C   UNL A   1      44.528  26.563  31.915  1.00  0.00     0.029 A 
ATOM     61  C   UNL A   1      43.659  27.469  32.501  1.00  0.00     0.049 A 
ATOM     62  H   UNL A   1      41.983  28.435  31.655  1.00  0.00     0.167 HD
ATOM     63  C   UNL A   1      42.805  28.900  34.342  1.00  0.00     0.074 A 
ATOM     64  C   UNL A   1      42.835  29.405  35.700  1.00  0.00     0.031 C 
ATOM     65  C   UNL A   1      43.671  27.981  33.848  1.00  0.00     0.037 A 
BRANCH  52  66
ATOM     66  C   UNL A   1      42.641  26.402  27.955  1.00  0.00     0.064 A 
ATOM     67  C   UNL A   1      42.130  25.111  27.757  1.00  0.00     0.173 A 
ATOM     68  C   UNL A   1      43.538  26.903  26.998  1.00  0.00     0.173 A 
ATOM     69  F   UNL A   1      41.280  24.576  28.646  1.00  0.00    -0.203 F 
ATOM     70  C   UNL A   1      42.530  24.342  26.665  1.00  0.00     0.198 A 
ATOM     71  C   UNL A   1      43.908  26.145  25.889  1.00  0.00     0.198 A 
ATOM     72  F   UNL A   1      44.053  28.135  27.133  1.00  0.00    -0.203 F 
ATOM     73  F   UNL A   1      42.075  23.088  26.528  1.00  0.00    -0.200 F 
ATOM     74  C   UNL A   1      43.412  24.861  25.729  1.00  0.00     0.200 A 
ATOM     75  F   UNL A   1      44.747  26.657  24.980  1.00  0.00    -0.200 F 
ATOM     76  F   UNL A   1      43.791  24.121  24.679  1.00  0.00    -0.200 F 
ENDBRANCH  52  66
BRANCH  53  77
ATOM     77  C   UNL A   1      39.521  32.029  35.622  1.00  0.00     0.064 A 
ATOM     78  C   UNL A   1      38.570  31.506  36.508  1.00  0.00     0.173 A 
ATOM     79  C   UNL A   1      40.004  33.324  35.876  1.00  0.00     0.173 A 
ATOM     80  F   UNL A   1      38.058  30.285  36.297  1.00  0.00    -0.203 F 
ATOM     81  C   UNL A   1      38.116  32.249  37.597  1.00  0.00     0.198 A 
ATOM     82  C   UNL A   1      39.577  34.050  36.984  1.00  0.00     0.198 A 
ATOM     83  F   UNL A   1      40.915  33.872  35.058  1.00  0.00    -0.203 F 
ATOM     84  F   UNL A   1      37.176  31.740  38.405  1.00  0.00    -0.200 F 
ATOM     85  C   UNL A   1      38.628  33.515  37.840  1.00  0.00     0.200 A 
ATOM     86  F   UNL A   1      40.090  35.264  37.225  1.00  0.00    -0.200 F 
ATOM     87  F   UNL A   1      38.203  34.220  38.897  1.00  0.00    -0.200 F 
ENDBRANCH  53  77
BRANCH  65  88
ATOM     88  C   UNL A   1      44.746  27.492  34.774  1.00  0.00     0.064 A 
ATOM     89  C   UNL A   1      44.575  26.346  35.565  1.00  0.00     0.173 A 
ATOM     90  C   UNL A   1      45.974  28.166  34.852  1.00  0.00     0.173 A 
ATOM     91  F   UNL A   1      43.413  25.676  35.541  1.00  0.00    -0.203 F 
ATOM     92  C   UNL A   1      45.583  25.911  36.422  1.00  0.00     0.198 A 
ATOM     93  C   UNL A   1      46.993  27.708  35.683  1.00  0.00     0.198 A 
ATOM     94  F   UNL A   1      46.191  29.264  34.112  1.00  0.00    -0.203 F 
ATOM     95  F   UNL A   1      45.376  24.847  37.211  1.00  0.00    -0.200 F 
ATOM     96  C   UNL A   1      46.793  26.587  36.474  1.00  0.00     0.200 A 
ATOM     97  F   UNL A   1      48.165  28.355  35.720  1.00  0.00    -0.200 F 
ATOM     98  F   UNL A   1      47.763  26.165  37.295  1.00  0.00    -0.200 F 
ENDBRANCH  65  88
ENDBRANCH  39  40
ENDBRANCH  32  34
ENDBRANCH  31  32
ENDBRANCH  30  31
ENDBRANCH  29  30
ENDBRANCH   1  29
TORSDOF 16
ENDMDL
MODEL 2
REMARK VINA RESULT:     -13.0      4.317     10.027
REMARK SMILES CC(C)c1ccc(NC(=O)C(=O)N/N=C/c2ccccc2C(=O)OCCOC(=O)c2ccc(-c3c4nc(c(-c5c(F)c(F)c(F)c(F)c5F)c5ccc([nH]5)c(-c5c(F)c(F)c(F)c(F)c5F)c5nc(c(-c6c(F)c(F)c(F)c(F)c6F)c6ccc3[nH]6)C=C5)C=C4)cc2)cc1
REMARK SMILES IDX 24 1 22 2 23 3 21 4 16 5 17 6 18 7 20 8 19 9 15 10 14 11
REMARK SMILES IDX 13 12 11 13 12 14 9 16 8 17 10 19 7 20 4 21 5 22 94 23 6 24
REMARK SMILES IDX 93 25 2 26 1 27 3 28 25 29 26 30 27 31 28 32 29 33 30 34
REMARK SMILES IDX 31 35 92 36 32 37 91 38 33 39 34 40 35 41 85 42 36 43 90 44
REMARK SMILES IDX 84 45 86 46 37 47 89 48 83 49 82 50 38 52 70 53 50 54 69 55
REMARK SMILES IDX 51 56 54 57 68 58 87 59 52 60 53 61 67 63 88 64 55 65 39 66
REMARK SMILES IDX 40 67 48 68 41 69 42 70 46 71 49 72 43 73 44 74 47 75 45 76
REMARK SMILES IDX 71 77 72 78 80 79 73 80 74 81 78 82 81 83 75 84 76 85 79 86
REMARK SMILES IDX 77 87 56 88 57 89 65 90 58 91 59 92 63 93 66 94 60 95 61 96
REMARK SMILES IDX 64 97 62 98
REMARK H PARENT 13 15 8 18 86 51 54 62
REMARK Flexibility Score: inf
ROOT
ATOM      1  O   UNL A   1      34.815  21.666  25.332  1.00  0.00    -0.458 OA
ENDROOT
BRANCH   1   2
ATOM      2  C   UNL A   1      33.906  20.774  25.799  1.00  0.00     0.338 C 
ATOM      3  O   UNL A   1      33.486  20.703  26.936  1.00  0.00    -0.246 OA
BRANCH   2   4
ATOM      4  C   UNL A   1      33.381  19.924  24.688  1.00  0.00     0.068 A 
ATOM      5  C   UNL A   1      32.610  20.451  23.651  1.00  0.00     0.009 A 
ATOM      6  C   UNL A   1      32.138  19.660  22.602  1.00  0.00     0.010 A 
ATOM      7  C   UNL A   1      32.406  18.294  22.611  1.00  0.00     0.001 A 
ATOM      8  C   UNL A   1      33.683  18.557  24.655  1.00  0.00     0.016 A 
ATOM      9  C   UNL A   1      33.161  17.741  23.645  1.00  0.00     0.001 A 
BRANCH   5  10
ATOM     10  C   UNL A   1      32.061  21.781  23.809  1.00  0.00     0.142 C 
ATOM     11  N   UNL A   1      31.839  22.619  22.848  1.00  0.00    -0.180 NA
BRANCH  11  12
ATOM     12  N   UNL A   1      31.388  23.833  23.311  1.00  0.00    -0.239 N 
ATOM     13  C   UNL A   1      31.458  25.023  22.599  1.00  0.00     0.329 C 
ATOM     14  O   UNL A   1      30.536  25.831  22.596  1.00  0.00    -0.262 OA
ATOM     15  H   UNL A   1      30.987  23.859  24.209  1.00  0.00     0.194 HD
BRANCH  13  16
ATOM     16  C   UNL A   1      32.780  25.306  21.845  1.00  0.00     0.315 C 
ATOM     17  N   UNL A   1      33.732  26.115  22.413  1.00  0.00    -0.318 N 
ATOM     18  H   UNL A   1      34.510  26.288  21.834  1.00  0.00     0.170 HD
ATOM     19  O   UNL A   1      32.972  24.888  20.707  1.00  0.00    -0.263 OA
BRANCH  17  20
ATOM     20  C   UNL A   1      33.800  26.736  23.663  1.00  0.00     0.041 A 
ATOM     21  C   UNL A   1      33.835  28.179  26.092  1.00  0.00    -0.045 A 
ATOM     22  C   UNL A   1      33.844  26.781  26.083  1.00  0.00     0.006 A 
ATOM     23  C   UNL A   1      33.819  28.844  24.857  1.00  0.00     0.006 A 
ATOM     24  C   UNL A   1      33.849  26.070  24.882  1.00  0.00     0.026 A 
ATOM     25  C   UNL A   1      33.819  28.132  23.657  1.00  0.00     0.026 A 
BRANCH  21  26
ATOM     26  C   UNL A   1      33.858  28.991  27.377  1.00  0.00     0.013 C 
ATOM     27  C   UNL A   1      35.242  29.512  27.787  1.00  0.00     0.012 C 
ATOM     28  C   UNL A   1      32.889  30.175  27.269  1.00  0.00     0.012 C 
ENDBRANCH  21  26
ENDBRANCH  17  20
ENDBRANCH  13  16
ENDBRANCH  11  12
ENDBRANCH   5  10
ENDBRANCH   2   4
ENDBRANCH   1   2
BRANCH   1  29
ATOM     29  C   UNL A   1      36.108  21.742  25.971  1.00  0.00     0.275 C 
BRANCH  29  30
ATOM     30  C   UNL A   1      37.159  20.976  25.166  1.00  0.00     0.275 C 
BRANCH  30  31
ATOM     31  O   UNL A   1      38.393  21.717  25.157  1.00  0.00    -0.458 OA
BRANCH  31  32
ATOM     32  C   UNL A   1      39.269  21.354  26.120  1.00  0.00     0.338 C 
ATOM     33  O   UNL A   1      39.697  20.240  26.369  1.00  0.00    -0.246 OA
BRANCH  32  34
ATOM     34  C   UNL A   1      39.828  22.559  26.735  1.00  0.00     0.060 A 
ATOM     35  C   UNL A   1      39.400  23.775  26.215  1.00  0.00     0.016 A 
ATOM     36  C   UNL A   1      40.862  22.516  27.661  1.00  0.00     0.016 A 
ATOM     37  C   UNL A   1      40.058  24.951  26.532  1.00  0.00     0.010 A 
ATOM     38  C   UNL A   1      41.461  23.717  28.063  1.00  0.00     0.010 A 
ATOM     39  C   UNL A   1      41.089  24.943  27.475  1.00  0.00    -0.014 A 
BRANCH  39  40
ATOM     40  C   UNL A   1      41.792  26.215  27.798  1.00  0.00     0.031 A 
ATOM     41  C   UNL A   1      41.100  27.270  28.617  1.00  0.00     0.074 A 
ATOM     42  C   UNL A   1      43.062  26.412  27.389  1.00  0.00     0.049 A 
ATOM     43  N   UNL A   1      41.465  28.503  28.861  1.00  0.00    -0.248 NA
ATOM     44  C   UNL A   1      39.818  26.893  29.232  1.00  0.00     0.031 C 
ATOM     45  C   UNL A   1      43.870  25.445  26.641  1.00  0.00     0.029 A 
ATOM     46  N   UNL A   1      43.901  27.487  27.548  1.00  0.00    -0.354 N 
ATOM     47  C   UNL A   1      40.430  29.066  29.598  1.00  0.00     0.074 A 
ATOM     48  C   UNL A   1      39.421  28.042  29.758  1.00  0.00     0.031 C 
ATOM     49  C   UNL A   1      45.094  25.953  26.441  1.00  0.00     0.029 A 
ATOM     50  C   UNL A   1      45.123  27.321  26.945  1.00  0.00     0.049 A 
ATOM     51  H   UNL A   1      43.650  28.299  28.047  1.00  0.00     0.167 HD
ATOM     52  C   UNL A   1      40.336  30.325  30.088  1.00  0.00     0.037 A 
ATOM     53  C   UNL A   1      46.136  28.188  26.760  1.00  0.00     0.037 A 
ATOM     54  C   UNL A   1      41.374  31.317  29.965  1.00  0.00     0.049 A 
ATOM     55  C   UNL A   1      45.989  29.592  27.272  1.00  0.00     0.074 A 
ATOM     56  C   UNL A   1      41.392  32.613  30.449  1.00  0.00     0.029 A 
ATOM     57  N   UNL A   1      42.583  31.118  29.311  1.00  0.00    -0.354 N 
ATOM     58  N   UNL A   1      44.991  30.131  27.928  1.00  0.00    -0.248 NA
ATOM     59  C   UNL A   1      47.101  30.511  27.003  1.00  0.00     0.031 C 
ATOM     60  C   UNL A   1      42.586  33.217  30.039  1.00  0.00     0.029 A 
ATOM     61  C   UNL A   1      43.343  32.278  29.357  1.00  0.00     0.049 A 
ATOM     62  H   UNL A   1      42.860  30.279  28.880  1.00  0.00     0.167 HD
ATOM     63  C   UNL A   1      45.357  31.448  28.164  1.00  0.00     0.074 A 
ATOM     64  C   UNL A   1      46.681  31.619  27.601  1.00  0.00     0.031 C 
ATOM     65  C   UNL A   1      44.658  32.429  28.788  1.00  0.00     0.037 A 
BRANCH  52  66
ATOM     66  C   UNL A   1      39.047  30.721  30.756  1.00  0.00     0.064 A 
ATOM     67  C   UNL A   1      38.849  30.600  32.139  1.00  0.00     0.173 A 
ATOM     68  C   UNL A   1      37.995  31.247  29.989  1.00  0.00     0.173 A 
ATOM     69  F   UNL A   1      39.814  30.091  32.919  1.00  0.00    -0.203 F 
ATOM     70  C   UNL A   1      37.635  30.959  32.723  1.00  0.00     0.198 A 
ATOM     71  C   UNL A   1      36.796  31.638  30.582  1.00  0.00     0.198 A 
ATOM     72  F   UNL A   1      38.130  31.391  28.662  1.00  0.00    -0.203 F 
ATOM     73  F   UNL A   1      37.448  30.780  34.039  1.00  0.00    -0.200 F 
ATOM     74  C   UNL A   1      36.613  31.484  31.946  1.00  0.00     0.200 A 
ATOM     75  F   UNL A   1      35.818  32.159  29.829  1.00  0.00    -0.200 F 
ATOM     76  F   UNL A   1      35.449  31.832  32.511  1.00  0.00    -0.200 F 
ENDBRANCH  52  66
BRANCH  53  77
ATOM     77  C   UNL A   1      47.346  27.759  26.008  1.00  0.00     0.064 A 
ATOM     78  C   UNL A   1      48.492  27.309  26.676  1.00  0.00     0.173 A 
ATOM     79  C   UNL A   1      47.371  27.766  24.604  1.00  0.00     0.173 A 
ATOM     80  F   UNL A   1      48.529  27.305  28.017  1.00  0.00    -0.203 F 
ATOM     81  C   UNL A   1      49.619  26.891  25.970  1.00  0.00     0.198 A 
ATOM     82  C   UNL A   1      48.484  27.314  23.899  1.00  0.00     0.198 A 
ATOM     83  F   UNL A   1      46.300  28.188  23.915  1.00  0.00    -0.203 F 
ATOM     84  F   UNL A   1      50.716  26.503  26.634  1.00  0.00    -0.200 F 
ATOM     85  C   UNL A   1      49.609  26.883  24.583  1.00  0.00     0.200 A 
ATOM     86  F   UNL A   1      48.461  27.290  22.560  1.00  0.00    -0.200 F 
ATOM     87  F   UNL A   1      50.687  26.465  23.905  1.00  0.00    -0.200 F 
ENDBRANCH  53  77
BRANCH  65  88
ATOM     88  C   UNL A   1      45.333  33.763  28.925  1.00  0.00     0.064 A 
ATOM     89  C   UNL A   1      46.169  34.060  30.011  1.00  0.00     0.173 A 
ATOM     90  C   UNL A   1      45.159  34.748  27.941  1.00  0.00     0.173 A 
ATOM     91  F   UNL A   1      46.354  33.159  30.988  1.00  0.00    -0.203 F 
ATOM     92  C   UNL A   1      46.782  35.306  30.122  1.00  0.00     0.198 A 
ATOM     93  C   UNL A   1      45.801  35.980  28.037  1.00  0.00     0.198 A 
ATOM     94  F   UNL A   1      44.373  34.513  26.879  1.00  0.00    -0.203 F 
ATOM     95  F   UNL A   1      47.530  35.588  31.198  1.00  0.00    -0.200 F 
ATOM     96  C   UNL A   1      46.604  36.261  29.132  1.00  0.00     0.200 A 
ATOM     97  F   UNL A   1      45.638  36.894  27.072  1.00  0.00    -0.200 F 
ATOM     98  F   UNL A   1      47.198  37.457  29.238  1.00  0.00    -0.200 F 
ENDBRANCH  65  88
ENDBRANCH  39  40
ENDBRANCH  32  34
ENDBRANCH  31  32
ENDBRANCH  30  31
ENDBRANCH  29  30
ENDBRANCH   1  29
TORSDOF 16
ENDMDL
MODEL 3
REMARK VINA RESULT:     -12.9      4.202      9.932
REMARK SMILES CC(C)c1ccc(NC(=O)C(=O)N/N=C/c2ccccc2C(=O)OCCOC(=O)c2ccc(-c3c4nc(c(-c5c(F)c(F)c(F)c(F)c5F)c5ccc([nH]5)c(-c5c(F)c(F)c(F)c(F)c5F)c5nc(c(-c6c(F)c(F)c(F)c(F)c6F)c6ccc3[nH]6)C=C5)C=C4)cc2)cc1
REMARK SMILES IDX 24 1 22 2 23 3 21 4 16 5 17 6 18 7 20 8 19 9 15 10 14 11
REMARK SMILES IDX 13 12 11 13 12 14 9 16 8 17 10 19 7 20 4 21 5 22 94 23 6 24
REMARK SMILES IDX 93 25 2 26 1 27 3 28 25 29 26 30 27 31 28 32 29 33 30 34
REMARK SMILES IDX 31 35 92 36 32 37 91 38 33 39 34 40 35 41 85 42 36 43 90 44
REMARK SMILES IDX 84 45 86 46 37 47 89 48 83 49 82 50 38 52 70 53 50 54 69 55
REMARK SMILES IDX 51 56 54 57 68 58 87 59 52 60 53 61 67 63 88 64 55 65 39 66
REMARK SMILES IDX 40 67 48 68 41 69 42 70 46 71 49 72 43 73 44 74 47 75 45 76
REMARK SMILES IDX 71 77 72 78 80 79 73 80 74 81 78 82 81 83 75 84 76 85 79 86
REMARK SMILES IDX 77 87 56 88 57 89 65 90 58 91 59 92 63 93 66 94 60 95 61 96
REMARK SMILES IDX 64 97 62 98
REMARK H PARENT 13 15 8 18 86 51 54 62
REMARK Flexibility Score: inf
ROOT
ATOM      1  O   UNL A   1      34.706  22.234  25.462  1.00  0.00    -0.458 OA
ENDROOT
BRANCH   1   2
ATOM      2  C   UNL A   1      33.358  22.084  25.454  1.00  0.00     0.338 C 
ATOM      3  O   UNL A   1      32.540  22.910  25.806  1.00  0.00    -0.246 OA
BRANCH   2   4
ATOM      4  C   UNL A   1      32.975  20.776  24.842  1.00  0.00     0.068 A 
ATOM      5  C   UNL A   1      32.618  20.662  23.498  1.00  0.00     0.009 A 
ATOM      6  C   UNL A   1      32.281  19.436  22.921  1.00  0.00     0.010 A 
ATOM      7  C   UNL A   1      32.258  18.297  23.720  1.00  0.00     0.001 A 
ATOM      8  C   UNL A   1      32.995  19.612  25.619  1.00  0.00     0.016 A 
ATOM      9  C   UNL A   1      32.596  18.387  25.070  1.00  0.00     0.001 A 
BRANCH   5  10
ATOM     10  C   UNL A   1      32.325  21.872  22.759  1.00  0.00     0.142 C 
ATOM     11  N   UNL A   1      33.205  22.647  22.210  1.00  0.00    -0.180 NA
BRANCH  11  12
ATOM     12  N   UNL A   1      32.636  23.763  21.646  1.00  0.00    -0.239 N 
ATOM     13  C   UNL A   1      33.101  25.060  21.820  1.00  0.00     0.329 C 
ATOM     14  O   UNL A   1      33.144  25.862  20.894  1.00  0.00    -0.262 OA
ATOM     15  H   UNL A   1      31.842  23.634  21.078  1.00  0.00     0.194 HD
BRANCH  13  16
ATOM     16  C   UNL A   1      33.522  25.461  23.254  1.00  0.00     0.315 C 
ATOM     17  N   UNL A   1      32.840  26.451  23.916  1.00  0.00    -0.318 N 
ATOM     18  H   UNL A   1      33.218  26.681  24.796  1.00  0.00     0.170 HD
ATOM     19  O   UNL A   1      34.510  24.970  23.795  1.00  0.00    -0.263 OA
BRANCH  17  20
ATOM     20  C   UNL A   1      31.706  27.191  23.570  1.00  0.00     0.041 A 
ATOM     21  C   UNL A   1      29.302  28.580  23.046  1.00  0.00    -0.045 A 
ATOM     22  C   UNL A   1      30.540  29.118  22.685  1.00  0.00     0.006 A 
ATOM     23  C   UNL A   1      29.290  27.322  23.668  1.00  0.00     0.006 A 
ATOM     24  C   UNL A   1      31.725  28.422  22.924  1.00  0.00     0.026 A 
ATOM     25  C   UNL A   1      30.475  26.628  23.911  1.00  0.00     0.026 A 
BRANCH  21  26
ATOM     26  C   UNL A   1      27.986  29.293  22.778  1.00  0.00     0.013 C 
ATOM     27  C   UNL A   1      26.737  28.544  23.260  1.00  0.00     0.012 C 
ATOM     28  C   UNL A   1      28.007  30.691  23.407  1.00  0.00     0.012 C 
ENDBRANCH  21  26
ENDBRANCH  17  20
ENDBRANCH  13  16
ENDBRANCH  11  12
ENDBRANCH   5  10
ENDBRANCH   2   4
ENDBRANCH   1   2
BRANCH   1  29
ATOM     29  C   UNL A   1      35.506  21.388  24.607  1.00  0.00     0.275 C 
BRANCH  29  30
ATOM     30  C   UNL A   1      36.751  20.890  25.345  1.00  0.00     0.275 C 
BRANCH  30  31
ATOM     31  O   UNL A   1      37.618  22.002  25.630  1.00  0.00    -0.458 OA
BRANCH  31  32
ATOM     32  C   UNL A   1      38.843  21.653  26.080  1.00  0.00     0.338 C 
ATOM     33  O   UNL A   1      39.461  20.623  25.866  1.00  0.00    -0.246 OA
BRANCH  32  34
ATOM     34  C   UNL A   1      39.461  22.812  26.729  1.00  0.00     0.060 A 
ATOM     35  C   UNL A   1      39.030  24.062  26.304  1.00  0.00     0.016 A 
ATOM     36  C   UNL A   1      40.543  22.697  27.591  1.00  0.00     0.016 A 
ATOM     37  C   UNL A   1      39.728  25.207  26.648  1.00  0.00     0.010 A 
ATOM     38  C   UNL A   1      41.188  23.863  28.026  1.00  0.00     0.010 A 
ATOM     39  C   UNL A   1      40.810  25.127  27.530  1.00  0.00    -0.014 A 
BRANCH  39  40
ATOM     40  C   UNL A   1      41.555  26.366  27.883  1.00  0.00     0.031 A 
ATOM     41  C   UNL A   1      40.896  27.428  28.718  1.00  0.00     0.074 A 
ATOM     42  C   UNL A   1      42.835  26.524  27.487  1.00  0.00     0.049 A 
ATOM     43  N   UNL A   1      41.302  28.642  28.990  1.00  0.00    -0.248 NA
ATOM     44  C   UNL A   1      39.596  27.086  29.316  1.00  0.00     0.031 C 
ATOM     45  C   UNL A   1      43.613  25.544  26.726  1.00  0.00     0.029 A 
ATOM     46  N   UNL A   1      43.710  27.565  27.674  1.00  0.00    -0.354 N 
ATOM     47  C   UNL A   1      40.283  29.228  29.731  1.00  0.00     0.074 A 
ATOM     48  C   UNL A   1      39.236  28.238  29.862  1.00  0.00     0.031 C 
ATOM     49  C   UNL A   1      44.856  26.011  26.545  1.00  0.00     0.029 A 
ATOM     50  C   UNL A   1      44.931  27.367  27.077  1.00  0.00     0.049 A 
ATOM     51  H   UNL A   1      43.485  28.375  28.187  1.00  0.00     0.167 HD
ATOM     52  C   UNL A   1      40.230  30.479  30.245  1.00  0.00     0.037 A 
ATOM     53  C   UNL A   1      45.976  28.200  26.917  1.00  0.00     0.037 A 
ATOM     54  C   UNL A   1      41.304  31.436  30.149  1.00  0.00     0.049 A 
ATOM     55  C   UNL A   1      45.875  29.598  27.456  1.00  0.00     0.074 A 
ATOM     56  C   UNL A   1      41.366  32.720  30.660  1.00  0.00     0.029 A 
ATOM     57  N   UNL A   1      42.511  31.206  29.500  1.00  0.00    -0.354 N 
ATOM     58  N   UNL A   1      44.893  30.160  28.115  1.00  0.00    -0.248 NA
ATOM     59  C   UNL A   1      47.022  30.481  27.214  1.00  0.00     0.031 C 
ATOM     60  C   UNL A   1      42.583  33.288  30.271  1.00  0.00     0.029 A 
ATOM     61  C   UNL A   1      43.312  32.336  29.575  1.00  0.00     0.049 A 
ATOM     62  H   UNL A   1      42.761  30.366  29.054  1.00  0.00     0.167 HD
ATOM     63  C   UNL A   1      45.304  31.458  28.381  1.00  0.00     0.074 A 
ATOM     64  C   UNL A   1      46.638  31.591  27.830  1.00  0.00     0.031 C 
ATOM     65  C   UNL A   1      44.636  32.450  29.019  1.00  0.00     0.037 A 
BRANCH  52  66
ATOM     66  C   UNL A   1      38.951  30.908  30.911  1.00  0.00     0.064 A 
ATOM     67  C   UNL A   1      38.749  30.795  32.294  1.00  0.00     0.173 A 
ATOM     68  C   UNL A   1      37.913  31.459  30.143  1.00  0.00     0.173 A 
ATOM     69  F   UNL A   1      39.701  30.264  33.076  1.00  0.00    -0.203 F 
ATOM     70  C   UNL A   1      37.544  31.185  32.877  1.00  0.00     0.198 A 
ATOM     71  C   UNL A   1      36.724  31.880  30.734  1.00  0.00     0.198 A 
ATOM     72  F   UNL A   1      38.053  31.597  28.815  1.00  0.00    -0.203 F 
ATOM     73  F   UNL A   1      37.352  31.014  34.193  1.00  0.00    -0.200 F 
ATOM     74  C   UNL A   1      36.536  31.734  32.099  1.00  0.00     0.200 A 
ATOM     75  F   UNL A   1      35.759  32.424  29.979  1.00  0.00    -0.200 F 
ATOM     76  F   UNL A   1      35.381  32.112  32.662  1.00  0.00    -0.200 F 
ENDBRANCH  52  66
BRANCH  53  77
ATOM     77  C   UNL A   1      47.175  27.742  26.166  1.00  0.00     0.064 A 
ATOM     78  C   UNL A   1      48.303  27.245  26.833  1.00  0.00     0.173 A 
ATOM     79  C   UNL A   1      47.210  27.769  24.762  1.00  0.00     0.173 A 
ATOM     80  F   UNL A   1      48.331  27.221  28.173  1.00  0.00    -0.203 F 
ATOM     81  C   UNL A   1      49.419  26.801  26.126  1.00  0.00     0.198 A 
ATOM     82  C   UNL A   1      48.310  27.291  24.056  1.00  0.00     0.198 A 
ATOM     83  F   UNL A   1      46.157  28.236  24.073  1.00  0.00    -0.203 F 
ATOM     84  F   UNL A   1      50.499  26.368  26.790  1.00  0.00    -0.200 F 
ATOM     85  C   UNL A   1      49.417  26.813  24.739  1.00  0.00     0.200 A 
ATOM     86  F   UNL A   1      48.295  27.287  22.716  1.00  0.00    -0.200 F 
ATOM     87  F   UNL A   1      50.485  26.370  24.062  1.00  0.00    -0.200 F 
ENDBRANCH  53  77
BRANCH  65  88
ATOM     88  C   UNL A   1      45.357  33.757  29.188  1.00  0.00     0.064 A 
ATOM     89  C   UNL A   1      46.181  34.008  30.295  1.00  0.00     0.173 A 
ATOM     90  C   UNL A   1      45.240  34.760  28.215  1.00  0.00     0.173 A 
ATOM     91  F   UNL A   1      46.313  33.087  31.262  1.00  0.00    -0.203 F 
ATOM     92  C   UNL A   1      46.838  35.228  30.435  1.00  0.00     0.198 A 
ATOM     93  C   UNL A   1      45.926  35.965  28.340  1.00  0.00     0.198 A 
ATOM     94  F   UNL A   1      44.469  34.568  27.133  1.00  0.00    -0.203 F 
ATOM     95  F   UNL A   1      47.575  35.467  31.529  1.00  0.00    -0.200 F 
ATOM     96  C   UNL A   1      46.716  36.201  29.455  1.00  0.00     0.200 A 
ATOM     97  F   UNL A   1      45.818  36.898  27.385  1.00  0.00    -0.200 F 
ATOM     98  F   UNL A   1      47.352  37.373  29.589  1.00  0.00    -0.200 F 
ENDBRANCH  65  88
ENDBRANCH  39  40
ENDBRANCH  32  34
ENDBRANCH  31  32
ENDBRANCH  30  31
ENDBRANCH  29  30
ENDBRANCH   1  29
TORSDOF 16
ENDMDL
