MODEL 1
REMARK VINA RESULT:     -11.3      0.000      0.000
REMARK SMILES O=C(Cc1ccc(F)cc1F)N[C@H](CCO)C(=O)OCCOC(=O)c1ccc(-c2c3nc(c(-c4c(F)c(F)c(F)c(F)c4F)c4ccc([nH]4)c(-c4c(F)c(F)c(F)c(F)c4F)c4nc(c(-c5c(F)c(F)c(F)c(F)c5F)c5ccc2[nH]5)C=C4)C=C3)cc1
REMARK SMILES IDX 20 1 19 2 17 3 18 4 13 5 12 6 1 7 2 8 3 10 4 11 5 12 10 13
REMARK SMILES IDX 6 14 9 15 11 16 7 17 8 18 14 19 15 20 16 21 21 23 22 24
REMARK SMILES IDX 23 25 24 26 25 27 26 28 87 29 27 30 86 31 28 32 29 33 30 34
REMARK SMILES IDX 80 35 31 36 85 37 79 38 81 39 32 40 84 41 78 42 77 43 33 45
REMARK SMILES IDX 65 46 45 47 64 48 46 49 49 50 63 51 82 52 47 53 48 54 62 56
REMARK SMILES IDX 83 57 50 58 34 59 35 60 43 61 36 62 37 63 41 64 44 65 38 66
REMARK SMILES IDX 39 67 42 68 40 69 66 70 67 71 75 72 68 73 69 74 73 75 76 76
REMARK SMILES IDX 70 77 71 78 74 79 72 80 51 81 52 82 60 83 53 84 54 85 58 86
REMARK SMILES IDX 61 87 55 88 56 89 59 90 57 91
REMARK H PARENT 12 9 16 22 81 44 49 55
REMARK Flexibility Score: inf
ROOT
ATOM      1  C   UNL A   1      31.448  28.684  24.928  1.00  0.00     0.274 C 
ENDROOT
BRANCH   1   2
ATOM      2  O   UNL A   1      32.263  27.711  25.609  1.00  0.00    -0.461 OA
BRANCH   2   3
ATOM      3  C   UNL A   1      31.665  27.014  26.609  1.00  0.00     0.328 C 
ATOM      4  O   UNL A   1      31.119  27.527  27.584  1.00  0.00    -0.250 OA
BRANCH   3   5
ATOM      5  C   UNL A   1      31.852  25.490  26.499  1.00  0.00     0.194 C 
BRANCH   5   6
ATOM      6  N   UNL A   1      33.132  25.341  25.801  1.00  0.00    -0.342 N 
ATOM      7  O   UNL A   1      34.042  23.514  26.861  1.00  0.00    -0.275 OA
ATOM      8  C   UNL A   1      34.073  24.356  25.971  1.00  0.00     0.225 C 
ATOM      9  H   UNL A   1      33.343  26.029  25.129  1.00  0.00     0.164 HD
BRANCH   8  10
ATOM     10  C   UNL A   1      35.171  24.386  24.924  1.00  0.00     0.138 C 
BRANCH  10  11
ATOM     11  C   UNL A   1      36.407  23.574  25.258  1.00  0.00    -0.003 A 
ATOM     12  C   UNL A   1      37.464  24.048  26.055  1.00  0.00     0.010 A 
ATOM     13  C   UNL A   1      36.509  22.279  24.732  1.00  0.00     0.129 A 
ATOM     14  C   UNL A   1      38.550  23.223  26.357  1.00  0.00     0.040 A 
ATOM     15  C   UNL A   1      37.597  21.460  25.009  1.00  0.00     0.078 A 
ATOM     16  F   UNL A   1      35.531  21.808  23.945  1.00  0.00    -0.207 F 
ATOM     17  C   UNL A   1      38.606  21.938  25.832  1.00  0.00     0.126 A 
ATOM     18  F   UNL A   1      39.651  21.155  26.122  1.00  0.00    -0.207 F 
ENDBRANCH  10  11
ENDBRANCH   8  10
ENDBRANCH   5   6
BRANCH   5  19
ATOM     19  C   UNL A   1      30.630  24.744  25.945  1.00  0.00     0.065 C 
BRANCH  19  20
ATOM     20  C   UNL A   1      30.536  23.328  26.502  1.00  0.00     0.159 C 
BRANCH  20  21
ATOM     21  O   UNL A   1      29.532  23.290  27.515  1.00  0.00    -0.396 OA
ATOM     22  H   UNL A   1      29.879  23.689  28.329  1.00  0.00     0.210 HD
ENDBRANCH  20  21
ENDBRANCH  19  20
ENDBRANCH   5  19
ENDBRANCH   3   5
ENDBRANCH   2   3
ENDBRANCH   1   2
BRANCH   1  23
ATOM     23  C   UNL A   1      31.606  30.057  25.578  1.00  0.00     0.275 C 
BRANCH  23  24
ATOM     24  O   UNL A   1      32.989  30.315  25.886  1.00  0.00    -0.458 OA
BRANCH  24  25
ATOM     25  C   UNL A   1      33.203  31.203  26.885  1.00  0.00     0.338 C 
ATOM     26  O   UNL A   1      32.467  32.095  27.262  1.00  0.00    -0.246 OA
BRANCH  25  27
ATOM     27  C   UNL A   1      34.495  30.905  27.519  1.00  0.00     0.060 A 
ATOM     28  C   UNL A   1      34.814  29.581  27.818  1.00  0.00     0.016 A 
ATOM     29  C   UNL A   1      35.339  31.943  27.907  1.00  0.00     0.016 A 
ATOM     30  C   UNL A   1      35.970  29.284  28.534  1.00  0.00     0.010 A 
ATOM     31  C   UNL A   1      36.517  31.643  28.599  1.00  0.00     0.010 A 
ATOM     32  C   UNL A   1      36.831  30.314  28.932  1.00  0.00    -0.014 A 
BRANCH  32  33
ATOM     33  C   UNL A   1      38.039  30.004  29.736  1.00  0.00     0.031 A 
ATOM     34  C   UNL A   1      39.107  29.115  29.168  1.00  0.00     0.074 A 
ATOM     35  C   UNL A   1      38.183  30.534  30.964  1.00  0.00     0.049 A 
ATOM     36  N   UNL A   1      40.164  28.614  29.753  1.00  0.00    -0.248 NA
ATOM     37  C   UNL A   1      38.967  28.737  27.752  1.00  0.00     0.031 C 
ATOM     38  C   UNL A   1      37.246  31.460  31.600  1.00  0.00     0.029 A 
ATOM     39  N   UNL A   1      39.175  30.367  31.899  1.00  0.00    -0.354 N 
ATOM     40  C   UNL A   1      40.800  27.843  28.790  1.00  0.00     0.074 A 
ATOM     41  C   UNL A   1      40.010  27.934  27.582  1.00  0.00     0.031 C 
ATOM     42  C   UNL A   1      37.712  31.789  32.816  1.00  0.00     0.029 A 
ATOM     43  C   UNL A   1      38.947  31.052  33.067  1.00  0.00     0.049 A 
ATOM     44  H   UNL A   1      39.973  29.811  31.745  1.00  0.00     0.167 HD
ATOM     45  C   UNL A   1      41.943  27.127  28.910  1.00  0.00     0.037 A 
ATOM     46  C   UNL A   1      39.640  31.057  34.222  1.00  0.00     0.037 A 
ATOM     47  C   UNL A   1      42.741  27.063  30.105  1.00  0.00     0.049 A 
ATOM     48  C   UNL A   1      40.873  30.206  34.345  1.00  0.00     0.074 A 
ATOM     49  C   UNL A   1      43.909  26.354  30.324  1.00  0.00     0.029 A 
ATOM     50  N   UNL A   1      42.459  27.744  31.278  1.00  0.00    -0.354 N 
ATOM     51  N   UNL A   1      41.441  29.440  33.445  1.00  0.00    -0.248 NA
ATOM     52  C   UNL A   1      41.555  30.205  35.648  1.00  0.00     0.031 C 
ATOM     53  C   UNL A   1      44.321  26.585  31.640  1.00  0.00     0.029 A 
ATOM     54  C   UNL A   1      43.428  27.466  32.228  1.00  0.00     0.049 A 
ATOM     55  H   UNL A   1      41.686  28.337  31.416  1.00  0.00     0.167 HD
ATOM     56  C   UNL A   1      42.550  28.882  34.064  1.00  0.00     0.074 A 
ATOM     57  C   UNL A   1      42.586  29.407  35.413  1.00  0.00     0.031 C 
ATOM     58  C   UNL A   1      43.455  28.009  33.561  1.00  0.00     0.037 A 
BRANCH  45  59
ATOM     59  C   UNL A   1      42.403  26.336  27.723  1.00  0.00     0.064 A 
ATOM     60  C   UNL A   1      41.908  25.043  27.500  1.00  0.00     0.173 A 
ATOM     61  C   UNL A   1      43.395  26.822  26.860  1.00  0.00     0.173 A 
ATOM     62  F   UNL A   1      40.961  24.534  28.302  1.00  0.00    -0.203 F 
ATOM     63  C   UNL A   1      42.404  24.255  26.465  1.00  0.00     0.198 A 
ATOM     64  C   UNL A   1      43.875  26.037  25.814  1.00  0.00     0.198 A 
ATOM     65  F   UNL A   1      43.890  28.056  27.027  1.00  0.00    -0.203 F 
ATOM     66  F   UNL A   1      41.940  23.010  26.290  1.00  0.00    -0.200 F 
ATOM     67  C   UNL A   1      43.388  24.753  25.624  1.00  0.00     0.200 A 
ATOM     68  F   UNL A   1      44.814  26.525  24.990  1.00  0.00    -0.200 F 
ATOM     69  F   UNL A   1      43.866  23.994  24.629  1.00  0.00    -0.200 F 
ENDBRANCH  45  59
BRANCH  46  70
ATOM     70  C   UNL A   1      39.166  31.880  35.365  1.00  0.00     0.064 A 
ATOM     71  C   UNL A   1      39.531  33.228  35.493  1.00  0.00     0.173 A 
ATOM     72  C   UNL A   1      38.338  31.330  36.352  1.00  0.00     0.173 A 
ATOM     73  F   UNL A   1      40.319  33.801  34.571  1.00  0.00    -0.203 F 
ATOM     74  C   UNL A   1      39.101  33.990  36.576  1.00  0.00     0.198 A 
ATOM     75  C   UNL A   1      37.886  32.101  37.422  1.00  0.00     0.198 A 
ATOM     76  F   UNL A   1      37.941  30.053  36.259  1.00  0.00    -0.203 F 
ATOM     77  F   UNL A   1      39.487  35.269  36.688  1.00  0.00    -0.200 F 
ATOM     78  C   UNL A   1      38.274  33.428  37.536  1.00  0.00     0.200 A 
ATOM     79  F   UNL A   1      37.065  31.563  38.333  1.00  0.00    -0.200 F 
ATOM     80  F   UNL A   1      37.844  34.167  38.568  1.00  0.00    -0.200 F 
ENDBRANCH  46  70
BRANCH  58  81
ATOM     81  C   UNL A   1      44.578  27.584  34.457  1.00  0.00     0.064 A 
ATOM     82  C   UNL A   1      45.767  28.325  34.505  1.00  0.00     0.173 A 
ATOM     83  C   UNL A   1      44.502  26.405  35.212  1.00  0.00     0.173 A 
ATOM     84  F   UNL A   1      45.888  29.457  33.793  1.00  0.00    -0.203 F 
ATOM     85  C   UNL A   1      46.846  27.896  35.271  1.00  0.00     0.198 A 
ATOM     86  C   UNL A   1      45.576  25.990  35.994  1.00  0.00     0.198 A 
ATOM     87  F   UNL A   1      43.379  25.671  35.206  1.00  0.00    -0.203 F 
ATOM     88  F   UNL A   1      47.983  28.606  35.284  1.00  0.00    -0.200 F 
ATOM     89  C   UNL A   1      46.749  26.730  36.017  1.00  0.00     0.200 A 
ATOM     90  F   UNL A   1      45.474  24.875  36.730  1.00  0.00    -0.200 F 
ATOM     91  F   UNL A   1      47.786  26.322  36.760  1.00  0.00    -0.200 F 
ENDBRANCH  58  81
ENDBRANCH  32  33
ENDBRANCH  25  27
ENDBRANCH  24  25
ENDBRANCH  23  24
ENDBRANCH   1  23
TORSDOF 17
ENDMDL
MODEL 2
REMARK VINA RESULT:     -11.1      3.856      9.783
REMARK SMILES O=C(Cc1ccc(F)cc1F)N[C@H](CCO)C(=O)OCCOC(=O)c1ccc(-c2c3nc(c(-c4c(F)c(F)c(F)c(F)c4F)c4ccc([nH]4)c(-c4c(F)c(F)c(F)c(F)c4F)c4nc(c(-c5c(F)c(F)c(F)c(F)c5F)c5ccc2[nH]5)C=C4)C=C3)cc1
REMARK SMILES IDX 20 1 19 2 17 3 18 4 13 5 12 6 1 7 2 8 3 10 4 11 5 12 10 13
REMARK SMILES IDX 6 14 9 15 11 16 7 17 8 18 14 19 15 20 16 21 21 23 22 24
REMARK SMILES IDX 23 25 24 26 25 27 26 28 87 29 27 30 86 31 28 32 29 33 30 34
REMARK SMILES IDX 80 35 31 36 85 37 79 38 81 39 32 40 84 41 78 42 77 43 33 45
REMARK SMILES IDX 65 46 45 47 64 48 46 49 49 50 63 51 82 52 47 53 48 54 62 56
REMARK SMILES IDX 83 57 50 58 34 59 35 60 43 61 36 62 37 63 41 64 44 65 38 66
REMARK SMILES IDX 39 67 42 68 40 69 66 70 67 71 75 72 68 73 69 74 73 75 76 76
REMARK SMILES IDX 70 77 71 78 74 79 72 80 51 81 52 82 60 83 53 84 54 85 58 86
REMARK SMILES IDX 61 87 55 88 56 89 59 90 57 91
REMARK H PARENT 12 9 16 22 81 44 49 55
REMARK Flexibility Score: inf
ROOT
ATOM      1  C   UNL A   1      33.627  34.122  28.199  1.00  0.00     0.274 C 
ENDROOT
BRANCH   1   2
ATOM      2  O   UNL A   1      33.228  34.360  29.562  1.00  0.00    -0.461 OA
BRANCH   2   3
ATOM      3  C   UNL A   1      32.971  35.650  29.901  1.00  0.00     0.328 C 
ATOM      4  O   UNL A   1      32.263  36.413  29.248  1.00  0.00    -0.250 OA
BRANCH   3   5
ATOM      5  C   UNL A   1      33.772  36.139  31.123  1.00  0.00     0.194 C 
BRANCH   5   6
ATOM      6  N   UNL A   1      34.752  35.074  31.352  1.00  0.00    -0.342 N 
ATOM      7  O   UNL A   1      33.635  33.710  32.828  1.00  0.00    -0.275 OA
ATOM      8  C   UNL A   1      34.596  33.936  32.103  1.00  0.00     0.225 C 
ATOM      9  H   UNL A   1      35.627  35.189  30.916  1.00  0.00     0.164 HD
BRANCH   8  10
ATOM     10  C   UNL A   1      35.735  32.946  31.936  1.00  0.00     0.138 C 
BRANCH  10  11
ATOM     11  C   UNL A   1      36.896  33.431  31.092  1.00  0.00    -0.003 A 
ATOM     12  C   UNL A   1      37.049  33.137  29.725  1.00  0.00     0.010 A 
ATOM     13  C   UNL A   1      37.884  34.210  31.711  1.00  0.00     0.129 A 
ATOM     14  C   UNL A   1      38.124  33.661  29.002  1.00  0.00     0.040 A 
ATOM     15  C   UNL A   1      38.969  34.715  31.005  1.00  0.00     0.078 A 
ATOM     16  F   UNL A   1      37.782  34.485  33.019  1.00  0.00    -0.207 F 
ATOM     17  C   UNL A   1      39.072  34.443  29.649  1.00  0.00     0.126 A 
ATOM     18  F   UNL A   1      40.102  34.938  28.951  1.00  0.00    -0.207 F 
ENDBRANCH  10  11
ENDBRANCH   8  10
ENDBRANCH   5   6
BRANCH   5  19
ATOM     19  C   UNL A   1      32.903  36.596  32.303  1.00  0.00     0.065 C 
BRANCH  19  20
ATOM     20  C   UNL A   1      33.704  37.420  33.305  1.00  0.00     0.159 C 
BRANCH  20  21
ATOM     21  O   UNL A   1      34.056  38.667  32.708  1.00  0.00    -0.396 OA
ATOM     22  H   UNL A   1      34.539  38.507  31.882  1.00  0.00     0.210 HD
ENDBRANCH  20  21
ENDBRANCH  19  20
ENDBRANCH   5  19
ENDBRANCH   3   5
ENDBRANCH   2   3
ENDBRANCH   1   2
BRANCH   1  23
ATOM     23  C   UNL A   1      33.395  32.659  27.825  1.00  0.00     0.275 C 
BRANCH  23  24
ATOM     24  O   UNL A   1      34.338  31.809  28.504  1.00  0.00    -0.458 OA
BRANCH  24  25
ATOM     25  C   UNL A   1      34.452  30.557  28.002  1.00  0.00     0.338 C 
ATOM     26  O   UNL A   1      33.628  29.930  27.363  1.00  0.00    -0.246 OA
BRANCH  25  27
ATOM     27  C   UNL A   1      35.792  30.039  28.311  1.00  0.00     0.060 A 
ATOM     28  C   UNL A   1      36.037  29.504  29.575  1.00  0.00     0.016 A 
ATOM     29  C   UNL A   1      36.825  30.178  27.387  1.00  0.00     0.016 A 
ATOM     30  C   UNL A   1      37.328  29.127  29.937  1.00  0.00     0.010 A 
ATOM     31  C   UNL A   1      38.116  29.770  27.738  1.00  0.00     0.010 A 
ATOM     32  C   UNL A   1      38.379  29.258  29.021  1.00  0.00    -0.014 A 
BRANCH  32  33
ATOM     33  C   UNL A   1      39.762  28.902  29.421  1.00  0.00     0.031 A 
ATOM     34  C   UNL A   1      40.531  29.806  30.340  1.00  0.00     0.074 A 
ATOM     35  C   UNL A   1      40.319  27.761  28.974  1.00  0.00     0.049 A 
ATOM     36  N   UNL A   1      41.788  29.748  30.696  1.00  0.00    -0.248 NA
ATOM     37  C   UNL A   1      39.787  30.927  30.938  1.00  0.00     0.031 C 
ATOM     38  C   UNL A   1      39.652  26.771  28.128  1.00  0.00     0.029 A 
ATOM     39  N   UNL A   1      41.575  27.243  29.169  1.00  0.00    -0.354 N 
ATOM     40  C   UNL A   1      41.994  30.835  31.536  1.00  0.00     0.074 A 
ATOM     41  C   UNL A   1      40.736  31.541  31.633  1.00  0.00     0.031 C 
ATOM     42  C   UNL A   1      40.501  25.760  27.885  1.00  0.00     0.029 A 
ATOM     43  C   UNL A   1      41.788  26.058  28.508  1.00  0.00     0.049 A 
ATOM     44  H   UNL A   1      42.257  27.678  29.730  1.00  0.00     0.167 HD
ATOM     45  C   UNL A   1      43.134  31.202  32.167  1.00  0.00     0.037 A 
ATOM     46  C   UNL A   1      42.905  25.316  28.390  1.00  0.00     0.037 A 
ATOM     47  C   UNL A   1      44.375  30.479  32.091  1.00  0.00     0.049 A 
ATOM     48  C   UNL A   1      44.171  25.780  29.055  1.00  0.00     0.074 A 
ATOM     49  C   UNL A   1      45.587  30.782  32.687  1.00  0.00     0.029 A 
ATOM     50  N   UNL A   1      44.559  29.302  31.383  1.00  0.00    -0.354 N 
ATOM     51  N   UNL A   1      44.370  26.835  29.807  1.00  0.00    -0.248 NA
ATOM     52  C   UNL A   1      45.373  24.960  28.843  1.00  0.00     0.031 C 
ATOM     53  C   UNL A   1      46.513  29.802  32.319  1.00  0.00     0.029 A 
ATOM     54  C   UNL A   1      45.868  28.869  31.523  1.00  0.00     0.049 A 
ATOM     55  H   UNL A   1      43.864  28.842  30.860  1.00  0.00     0.167 HD
ATOM     56  C   UNL A   1      45.709  26.798  30.169  1.00  0.00     0.074 A 
ATOM     57  C   UNL A   1      46.273  25.608  29.568  1.00  0.00     0.031 C 
ATOM     58  C   UNL A   1      46.408  27.674  30.929  1.00  0.00     0.037 A 
BRANCH  45  59
ATOM     59  C   UNL A   1      43.107  32.453  32.992  1.00  0.00     0.064 A 
ATOM     60  C   UNL A   1      42.829  32.387  34.366  1.00  0.00     0.173 A 
ATOM     61  C   UNL A   1      43.268  33.717  32.410  1.00  0.00     0.173 A 
ATOM     62  F   UNL A   1      42.663  31.200  34.966  1.00  0.00    -0.203 F 
ATOM     63  C   UNL A   1      42.694  33.547  35.125  1.00  0.00     0.198 A 
ATOM     64  C   UNL A   1      43.151  34.875  33.177  1.00  0.00     0.198 A 
ATOM     65  F   UNL A   1      43.546  33.829  31.104  1.00  0.00    -0.203 F 
ATOM     66  F   UNL A   1      42.396  33.463  36.428  1.00  0.00    -0.200 F 
ATOM     67  C   UNL A   1      42.855  34.789  34.529  1.00  0.00     0.200 A 
ATOM     68  F   UNL A   1      43.323  36.074  32.604  1.00  0.00    -0.200 F 
ATOM     69  F   UNL A   1      42.724  35.905  35.259  1.00  0.00    -0.200 F 
ENDBRANCH  45  59
BRANCH  46  70
ATOM     70  C   UNL A   1      42.880  24.064  27.589  1.00  0.00     0.064 A 
ATOM     71  C   UNL A   1      42.541  22.834  28.170  1.00  0.00     0.173 A 
ATOM     72  C   UNL A   1      43.197  24.079  26.224  1.00  0.00     0.173 A 
ATOM     73  F   UNL A   1      42.225  22.769  29.472  1.00  0.00    -0.203 F 
ATOM     74  C   UNL A   1      42.538  21.660  27.419  1.00  0.00     0.198 A 
ATOM     75  C   UNL A   1      43.168  22.908  25.468  1.00  0.00     0.198 A 
ATOM     76  F   UNL A   1      43.502  25.236  25.619  1.00  0.00    -0.203 F 
ATOM     77  F   UNL A   1      42.236  20.493  28.005  1.00  0.00    -0.200 F 
ATOM     78  C   UNL A   1      42.846  21.700  26.068  1.00  0.00     0.200 A 
ATOM     79  F   UNL A   1      43.439  22.954  24.157  1.00  0.00    -0.200 F 
ATOM     80  F   UNL A   1      42.824  20.574  25.341  1.00  0.00    -0.200 F 
ENDBRANCH  46  70
BRANCH  58  81
ATOM     81  C   UNL A   1      47.854  27.372  31.179  1.00  0.00     0.064 A 
ATOM     82  C   UNL A   1      48.233  26.582  32.274  1.00  0.00     0.173 A 
ATOM     83  C   UNL A   1      48.863  27.922  30.378  1.00  0.00     0.173 A 
ATOM     84  F   UNL A   1      47.302  26.040  33.073  1.00  0.00    -0.203 F 
ATOM     85  C   UNL A   1      49.576  26.361  32.564  1.00  0.00     0.198 A 
ATOM     86  C   UNL A   1      50.205  27.681  30.658  1.00  0.00     0.198 A 
ATOM     87  F   UNL A   1      48.546  28.674  29.313  1.00  0.00    -0.203 F 
ATOM     88  F   UNL A   1      49.920  25.624  33.629  1.00  0.00    -0.200 F 
ATOM     89  C   UNL A   1      50.561  26.909  31.754  1.00  0.00     0.200 A 
ATOM     90  F   UNL A   1      51.156  28.194  29.864  1.00  0.00    -0.200 F 
ATOM     91  F   UNL A   1      51.854  26.690  32.030  1.00  0.00    -0.200 F 
ENDBRANCH  58  81
ENDBRANCH  32  33
ENDBRANCH  25  27
ENDBRANCH  24  25
ENDBRANCH  23  24
ENDBRANCH   1  23
TORSDOF 17
ENDMDL
MODEL 3
REMARK VINA RESULT:     -11.0      1.305      2.224
REMARK SMILES O=C(Cc1ccc(F)cc1F)N[C@H](CCO)C(=O)OCCOC(=O)c1ccc(-c2c3nc(c(-c4c(F)c(F)c(F)c(F)c4F)c4ccc([nH]4)c(-c4c(F)c(F)c(F)c(F)c4F)c4nc(c(-c5c(F)c(F)c(F)c(F)c5F)c5ccc2[nH]5)C=C4)C=C3)cc1
REMARK SMILES IDX 20 1 19 2 17 3 18 4 13 5 12 6 1 7 2 8 3 10 4 11 5 12 10 13
REMARK SMILES IDX 6 14 9 15 11 16 7 17 8 18 14 19 15 20 16 21 21 23 22 24
REMARK SMILES IDX 23 25 24 26 25 27 26 28 87 29 27 30 86 31 28 32 29 33 30 34
REMARK SMILES IDX 80 35 31 36 85 37 79 38 81 39 32 40 84 41 78 42 77 43 33 45
REMARK SMILES IDX 65 46 45 47 64 48 46 49 49 50 63 51 82 52 47 53 48 54 62 56
REMARK SMILES IDX 83 57 50 58 34 59 35 60 43 61 36 62 37 63 41 64 44 65 38 66
REMARK SMILES IDX 39 67 42 68 40 69 66 70 67 71 75 72 68 73 69 74 73 75 76 76
REMARK SMILES IDX 70 77 71 78 74 79 72 80 51 81 52 82 60 83 53 84 54 85 58 86
REMARK SMILES IDX 61 87 55 88 56 89 59 90 57 91
REMARK H PARENT 12 9 16 22 81 44 49 55
REMARK Flexibility Score: inf
ROOT
ATOM      1  C   UNL A   1      31.059  29.082  25.151  1.00  0.00     0.274 C 
ENDROOT
BRANCH   1   2
ATOM      2  O   UNL A   1      31.834  28.043  25.778  1.00  0.00    -0.461 OA
BRANCH   2   3
ATOM      3  C   UNL A   1      31.844  26.836  25.154  1.00  0.00     0.328 C 
ATOM      4  O   UNL A   1      31.381  25.802  25.632  1.00  0.00    -0.250 OA
BRANCH   3   5
ATOM      5  C   UNL A   1      32.627  26.832  23.828  1.00  0.00     0.194 C 
BRANCH   5   6
ATOM      6  N   UNL A   1      32.675  25.416  23.451  1.00  0.00    -0.342 N 
ATOM      7  O   UNL A   1      33.382  25.531  21.265  1.00  0.00    -0.275 OA
ATOM      8  C   UNL A   1      33.104  24.878  22.264  1.00  0.00     0.225 C 
ATOM      9  H   UNL A   1      32.363  24.775  24.129  1.00  0.00     0.164 HD
BRANCH   8  10
ATOM     10  C   UNL A   1      33.229  23.365  22.301  1.00  0.00     0.138 C 
BRANCH  10  11
ATOM     11  C   UNL A   1      34.317  22.828  23.211  1.00  0.00    -0.003 A 
ATOM     12  C   UNL A   1      35.654  23.262  23.177  1.00  0.00     0.010 A 
ATOM     13  C   UNL A   1      33.973  21.831  24.134  1.00  0.00     0.129 A 
ATOM     14  C   UNL A   1      36.589  22.752  24.080  1.00  0.00     0.040 A 
ATOM     15  C   UNL A   1      34.903  21.300  25.020  1.00  0.00     0.078 A 
ATOM     16  F   UNL A   1      32.713  21.374  24.173  1.00  0.00    -0.207 F 
ATOM     17  C   UNL A   1      36.205  21.777  24.991  1.00  0.00     0.126 A 
ATOM     18  F   UNL A   1      37.108  21.290  25.851  1.00  0.00    -0.207 F 
ENDBRANCH  10  11
ENDBRANCH   8  10
ENDBRANCH   5   6
BRANCH   5  19
ATOM     19  C   UNL A   1      33.944  27.619  23.874  1.00  0.00     0.065 C 
BRANCH  19  20
ATOM     20  C   UNL A   1      33.953  28.758  22.859  1.00  0.00     0.159 C 
BRANCH  20  21
ATOM     21  O   UNL A   1      34.114  28.216  21.550  1.00  0.00    -0.396 OA
ATOM     22  H   UNL A   1      33.290  27.784  21.274  1.00  0.00     0.210 HD
ENDBRANCH  20  21
ENDBRANCH  19  20
ENDBRANCH   5  19
ENDBRANCH   3   5
ENDBRANCH   2   3
ENDBRANCH   1   2
BRANCH   1  23
ATOM     23  C   UNL A   1      31.501  30.453  25.657  1.00  0.00     0.275 C 
BRANCH  23  24
ATOM     24  O   UNL A   1      32.845  30.393  26.171  1.00  0.00    -0.458 OA
BRANCH  24  25
ATOM     25  C   UNL A   1      33.199  31.416  26.984  1.00  0.00     0.338 C 
ATOM     26  O   UNL A   1      32.567  32.425  27.234  1.00  0.00    -0.246 OA
BRANCH  25  27
ATOM     27  C   UNL A   1      34.501  31.111  27.594  1.00  0.00     0.060 A 
ATOM     28  C   UNL A   1      34.792  29.794  27.949  1.00  0.00     0.016 A 
ATOM     29  C   UNL A   1      35.385  32.142  27.906  1.00  0.00     0.016 A 
ATOM     30  C   UNL A   1      35.960  29.499  28.645  1.00  0.00     0.010 A 
ATOM     31  C   UNL A   1      36.574  31.842  28.577  1.00  0.00     0.010 A 
ATOM     32  C   UNL A   1      36.862  30.521  28.967  1.00  0.00    -0.014 A 
BRANCH  32  33
ATOM     33  C   UNL A   1      38.084  30.215  29.749  1.00  0.00     0.031 A 
ATOM     34  C   UNL A   1      39.155  29.348  29.153  1.00  0.00     0.074 A 
ATOM     35  C   UNL A   1      38.239  30.729  30.983  1.00  0.00     0.049 A 
ATOM     36  N   UNL A   1      40.227  28.852  29.717  1.00  0.00    -0.248 NA
ATOM     37  C   UNL A   1      39.001  28.989  27.734  1.00  0.00     0.031 C 
ATOM     38  C   UNL A   1      37.300  31.635  31.645  1.00  0.00     0.029 A 
ATOM     39  N   UNL A   1      39.246  30.562  31.901  1.00  0.00    -0.354 N 
ATOM     40  C   UNL A   1      40.859  28.103  28.734  1.00  0.00     0.074 A 
ATOM     41  C   UNL A   1      40.051  28.202  27.538  1.00  0.00     0.031 C 
ATOM     42  C   UNL A   1      37.778  31.951  32.859  1.00  0.00     0.029 A 
ATOM     43  C   UNL A   1      39.026  31.227  33.083  1.00  0.00     0.049 A 
ATOM     44  H   UNL A   1      40.048  30.018  31.729  1.00  0.00     0.167 HD
ATOM     45  C   UNL A   1      42.012  27.400  28.828  1.00  0.00     0.037 A 
ATOM     46  C   UNL A   1      39.734  31.224  34.228  1.00  0.00     0.037 A 
ATOM     47  C   UNL A   1      42.828  27.329  30.011  1.00  0.00     0.049 A 
ATOM     48  C   UNL A   1      40.979  30.387  34.321  1.00  0.00     0.074 A 
ATOM     49  C   UNL A   1      44.008  26.632  30.204  1.00  0.00     0.029 A 
ATOM     50  N   UNL A   1      42.553  27.990  31.198  1.00  0.00    -0.354 N 
ATOM     51  N   UNL A   1      41.545  29.642  33.403  1.00  0.00    -0.248 NA
ATOM     52  C   UNL A   1      41.679  30.377  35.615  1.00  0.00     0.031 C 
ATOM     53  C   UNL A   1      44.435  26.849  31.517  1.00  0.00     0.029 A 
ATOM     54  C   UNL A   1      43.539  27.711  32.131  1.00  0.00     0.049 A 
ATOM     55  H   UNL A   1      41.775  28.571  31.355  1.00  0.00     0.167 HD
ATOM     56  C   UNL A   1      42.669  29.089  33.999  1.00  0.00     0.074 A 
ATOM     57  C   UNL A   1      42.717  29.596  35.354  1.00  0.00     0.031 C 
ATOM     58  C   UNL A   1      43.578  28.235  33.470  1.00  0.00     0.037 A 
BRANCH  45  59
ATOM     59  C   UNL A   1      42.466  26.633  27.623  1.00  0.00     0.064 A 
ATOM     60  C   UNL A   1      42.027  25.316  27.418  1.00  0.00     0.173 A 
ATOM     61  C   UNL A   1      43.399  27.166  26.724  1.00  0.00     0.173 A 
ATOM     62  F   UNL A   1      41.138  24.761  28.255  1.00  0.00    -0.203 F 
ATOM     63  C   UNL A   1      42.523  24.553  26.365  1.00  0.00     0.198 A 
ATOM     64  C   UNL A   1      43.878  26.406  25.660  1.00  0.00     0.198 A 
ATOM     65  F   UNL A   1      43.838  28.424  26.874  1.00  0.00    -0.203 F 
ATOM     66  F   UNL A   1      42.115  23.286  26.206  1.00  0.00    -0.200 F 
ATOM     67  C   UNL A   1      43.447  25.099  25.487  1.00  0.00     0.200 A 
ATOM     68  F   UNL A   1      44.759  26.939  24.802  1.00  0.00    -0.200 F 
ATOM     69  F   UNL A   1      43.925  24.363  24.474  1.00  0.00    -0.200 F 
ENDBRANCH  45  59
BRANCH  46  70
ATOM     70  C   UNL A   1      39.266  32.025  35.389  1.00  0.00     0.064 A 
ATOM     71  C   UNL A   1      39.615  33.376  35.530  1.00  0.00     0.173 A 
ATOM     72  C   UNL A   1      38.459  31.450  36.380  1.00  0.00     0.173 A 
ATOM     73  F   UNL A   1      40.383  33.972  34.606  1.00  0.00    -0.203 F 
ATOM     74  C   UNL A   1      39.191  34.117  36.630  1.00  0.00     0.198 A 
ATOM     75  C   UNL A   1      38.013  32.200  37.466  1.00  0.00     0.198 A 
ATOM     76  F   UNL A   1      38.077  30.169  36.274  1.00  0.00    -0.203 F 
ATOM     77  F   UNL A   1      39.561  35.399  36.755  1.00  0.00    -0.200 F 
ATOM     78  C   UNL A   1      38.385  33.530  37.594  1.00  0.00     0.200 A 
ATOM     79  F   UNL A   1      37.212  31.639  38.381  1.00  0.00    -0.200 F 
ATOM     80  F   UNL A   1      37.960  34.249  38.642  1.00  0.00    -0.200 F 
ENDBRANCH  46  70
BRANCH  58  81
ATOM     81  C   UNL A   1      44.718  27.811  34.344  1.00  0.00     0.064 A 
ATOM     82  C   UNL A   1      44.604  26.673  35.156  1.00  0.00     0.173 A 
ATOM     83  C   UNL A   1      45.893  28.570  34.430  1.00  0.00     0.173 A 
ATOM     84  F   UNL A   1      43.495  25.920  35.113  1.00  0.00    -0.203 F 
ATOM     85  C   UNL A   1      45.625  26.315  36.032  1.00  0.00     0.198 A 
ATOM     86  C   UNL A   1      46.921  28.197  35.291  1.00  0.00     0.198 A 
ATOM     87  F   UNL A   1      46.051  29.659  33.663  1.00  0.00    -0.203 F 
ATOM     88  F   UNL A   1      45.486  25.238  36.818  1.00  0.00    -0.200 F 
ATOM     89  C   UNL A   1      46.783  27.076  36.097  1.00  0.00     0.200 A 
ATOM     90  F   UNL A   1      48.048  28.920  35.339  1.00  0.00    -0.200 F 
ATOM     91  F   UNL A   1      47.768  26.726  36.935  1.00  0.00    -0.200 F 
ENDBRANCH  58  81
ENDBRANCH  32  33
ENDBRANCH  25  27
ENDBRANCH  24  25
ENDBRANCH  23  24
ENDBRANCH   1  23
TORSDOF 17
ENDMDL
