MODEL 1
REMARK VINA RESULT:     -11.7      0.000      0.000
REMARK SMILES C[C@H](NC(=O)NCCc1ccccc1F)C(=O)OCCOC(=O)c1ccc(-c2c3nc(c(-c4c(F)c(F)c(F)c(F)c4F)c4ccc([nH]4)c(-c4c(F)c(F)c(F)c(F)c4F)c4nc(c(-c5c(F)c(F)c(F)c(F)c5F)c5ccc2[nH]5)C=C4)C=C3)cc1
REMARK SMILES IDX 19 1 18 2 16 3 17 4 2 5 1 6 3 7 4 8 5 10 6 11 7 13 8 14 9 15
REMARK SMILES IDX 10 16 14 17 11 18 13 19 15 20 12 21 20 22 21 23 22 24 23 25
REMARK SMILES IDX 24 26 25 27 86 28 26 29 85 30 27 31 28 32 29 33 79 34 30 35
REMARK SMILES IDX 84 36 78 37 80 38 31 39 83 40 77 41 76 42 32 44 64 45 44 46
REMARK SMILES IDX 63 47 45 48 48 49 62 50 81 51 46 52 47 53 61 55 82 56 49 57
REMARK SMILES IDX 33 58 34 59 42 60 35 61 36 62 40 63 43 64 37 65 38 66 41 67
REMARK SMILES IDX 39 68 65 69 66 70 74 71 67 72 68 73 72 74 75 75 69 76 70 77
REMARK SMILES IDX 73 78 71 79 50 80 51 81 59 82 52 83 53 84 57 85 60 86 54 87
REMARK SMILES IDX 55 88 58 89 56 90
REMARK H PARENT 3 9 6 12 80 43 48 54
REMARK Flexibility Score: inf
ROOT
ATOM      1  C   UNL A   1      31.501  31.574  26.521  1.00  0.00     0.274 C 
ENDROOT
BRANCH   1   2
ATOM      2  O   UNL A   1      32.543  30.800  27.147  1.00  0.00    -0.461 OA
BRANCH   2   3
ATOM      3  C   UNL A   1      32.431  29.449  27.013  1.00  0.00     0.328 C 
ATOM      4  O   UNL A   1      31.538  28.770  27.513  1.00  0.00    -0.250 OA
BRANCH   3   5
ATOM      5  C   UNL A   1      33.582  28.827  26.210  1.00  0.00     0.190 C 
ATOM      6  C   UNL A   1      34.889  29.219  26.900  1.00  0.00     0.043 C 
BRANCH   5   7
ATOM      7  N   UNL A   1      33.645  29.216  24.799  1.00  0.00    -0.325 N 
ATOM      8  C   UNL A   1      33.655  28.414  23.713  1.00  0.00     0.315 C 
ATOM      9  H   UNL A   1      33.685  30.184  24.619  1.00  0.00     0.166 HD
ATOM     10  O   UNL A   1      34.314  28.736  22.728  1.00  0.00    -0.249 OA
ATOM     11  N   UNL A   1      32.940  27.268  23.696  1.00  0.00    -0.338 N 
ATOM     12  H   UNL A   1      33.313  26.529  23.164  1.00  0.00     0.165 HD
BRANCH  11  13
ATOM     13  C   UNL A   1      31.686  27.003  24.373  1.00  0.00     0.122 C 
BRANCH  13  14
ATOM     14  C   UNL A   1      30.517  26.767  23.409  1.00  0.00     0.060 C 
BRANCH  14  15
ATOM     15  C   UNL A   1      29.527  27.868  23.109  1.00  0.00    -0.010 A 
ATOM     16  C   UNL A   1      30.041  29.038  22.515  1.00  0.00     0.007 A 
ATOM     17  C   UNL A   1      28.166  27.839  23.414  1.00  0.00     0.126 A 
ATOM     18  C   UNL A   1      29.214  30.125  22.223  1.00  0.00     0.000 A 
ATOM     19  C   UNL A   1      27.335  28.924  23.126  1.00  0.00     0.039 A 
ATOM     20  F   UNL A   1      27.613  26.773  24.007  1.00  0.00    -0.207 F 
ATOM     21  C   UNL A   1      27.857  30.065  22.521  1.00  0.00     0.003 A 
ENDBRANCH  14  15
ENDBRANCH  13  14
ENDBRANCH  11  13
ENDBRANCH   5   7
ENDBRANCH   3   5
ENDBRANCH   2   3
ENDBRANCH   1   2
BRANCH   1  22
ATOM     22  C   UNL A   1      31.631  33.052  26.875  1.00  0.00     0.275 C 
BRANCH  22  23
ATOM     23  O   UNL A   1      33.016  33.393  27.068  1.00  0.00    -0.458 OA
BRANCH  23  24
ATOM     24  C   UNL A   1      33.285  34.092  28.193  1.00  0.00     0.338 C 
ATOM     25  O   UNL A   1      32.659  35.036  28.643  1.00  0.00    -0.246 OA
BRANCH  24  26
ATOM     26  C   UNL A   1      34.479  33.555  28.876  1.00  0.00     0.060 A 
ATOM     27  C   UNL A   1      35.736  34.134  28.695  1.00  0.00     0.016 A 
ATOM     28  C   UNL A   1      34.360  32.347  29.567  1.00  0.00     0.016 A 
ATOM     29  C   UNL A   1      36.879  33.457  29.127  1.00  0.00     0.010 A 
ATOM     30  C   UNL A   1      35.498  31.727  30.091  1.00  0.00     0.010 A 
ATOM     31  C   UNL A   1      36.774  32.261  29.856  1.00  0.00    -0.014 A 
BRANCH  31  32
ATOM     32  C   UNL A   1      37.975  31.629  30.466  1.00  0.00     0.031 A 
ATOM     33  C   UNL A   1      38.709  30.493  29.805  1.00  0.00     0.074 A 
ATOM     34  C   UNL A   1      38.373  32.046  31.685  1.00  0.00     0.049 A 
ATOM     35  N   UNL A   1      39.732  29.807  30.252  1.00  0.00    -0.248 NA
ATOM     36  C   UNL A   1      38.254  30.078  28.471  1.00  0.00     0.031 C 
ATOM     37  C   UNL A   1      37.762  33.137  32.447  1.00  0.00     0.029 A 
ATOM     38  N   UNL A   1      39.357  31.569  32.518  1.00  0.00    -0.354 N 
ATOM     39  C   UNL A   1      40.084  28.934  29.231  1.00  0.00     0.074 A 
ATOM     40  C   UNL A   1      39.117  29.113  28.174  1.00  0.00     0.031 C 
ATOM     41  C   UNL A   1      38.351  33.218  33.647  1.00  0.00     0.029 A 
ATOM     42  C   UNL A   1      39.324  32.138  33.767  1.00  0.00     0.049 A 
ATOM     43  H   UNL A   1      40.017  30.892  32.247  1.00  0.00     0.167 HD
ATOM     44  C   UNL A   1      41.138  28.087  29.173  1.00  0.00     0.037 A 
ATOM     45  C   UNL A   1      39.933  31.783  34.914  1.00  0.00     0.037 A 
ATOM     46  C   UNL A   1      42.050  27.846  30.259  1.00  0.00     0.049 A 
ATOM     47  C   UNL A   1      40.888  30.630  34.921  1.00  0.00     0.074 A 
ATOM     48  C   UNL A   1      43.188  27.059  30.276  1.00  0.00     0.029 A 
ATOM     49  N   UNL A   1      41.886  28.342  31.540  1.00  0.00    -0.354 N 
ATOM     50  N   UNL A   1      41.305  29.906  33.913  1.00  0.00    -0.248 NA
ATOM     51  C   UNL A   1      41.446  30.231  36.221  1.00  0.00     0.031 C 
ATOM     52  C   UNL A   1      43.660  27.006  31.593  1.00  0.00     0.029 A 
ATOM     53  C   UNL A   1      42.840  27.796  32.381  1.00  0.00     0.049 A 
ATOM     54  H   UNL A   1      41.193  28.987  31.813  1.00  0.00     0.167 HD
ATOM     55  C   UNL A   1      42.184  28.977  34.449  1.00  0.00     0.074 A 
ATOM     56  C   UNL A   1      42.241  29.225  35.874  1.00  0.00     0.031 C 
ATOM     57  C   UNL A   1      42.883  28.014  33.803  1.00  0.00     0.037 A 
BRANCH  44  58
ATOM     58  C   UNL A   1      41.397  27.349  27.898  1.00  0.00     0.064 A 
ATOM     59  C   UNL A   1      40.977  26.023  27.738  1.00  0.00     0.173 A 
ATOM     60  C   UNL A   1      42.211  27.911  26.902  1.00  0.00     0.173 A 
ATOM     61  F   UNL A   1      40.202  25.444  28.669  1.00  0.00    -0.203 F 
ATOM     62  C   UNL A   1      41.383  25.273  26.637  1.00  0.00     0.198 A 
ATOM     63  C   UNL A   1      42.611  27.159  25.800  1.00  0.00     0.198 A 
ATOM     64  F   UNL A   1      42.638  29.178  27.011  1.00  0.00    -0.203 F 
ATOM     65  F   UNL A   1      40.996  23.995  26.519  1.00  0.00    -0.200 F 
ATOM     66  C   UNL A   1      42.206  25.838  25.675  1.00  0.00     0.200 A 
ATOM     67  F   UNL A   1      43.403  27.707  24.869  1.00  0.00    -0.200 F 
ATOM     68  F   UNL A   1      42.615  25.107  24.628  1.00  0.00    -0.200 F 
ENDBRANCH  44  58
BRANCH  45  69
ATOM     69  C   UNL A   1      39.551  32.486  36.163  1.00  0.00     0.064 A 
ATOM     70  C   UNL A   1      40.280  33.606  36.599  1.00  0.00     0.173 A 
ATOM     71  C   UNL A   1      38.515  32.020  36.977  1.00  0.00     0.173 A 
ATOM     72  F   UNL A   1      41.283  34.089  35.850  1.00  0.00    -0.203 F 
ATOM     73  C   UNL A   1      40.013  34.204  37.826  1.00  0.00     0.198 A 
ATOM     74  C   UNL A   1      38.230  32.639  38.193  1.00  0.00     0.198 A 
ATOM     75  F   UNL A   1      37.779  30.968  36.589  1.00  0.00    -0.203 F 
ATOM     76  F   UNL A   1      40.761  35.236  38.243  1.00  0.00    -0.200 F 
ATOM     77  C   UNL A   1      38.988  33.721  38.623  1.00  0.00     0.200 A 
ATOM     78  F   UNL A   1      37.226  32.184  38.954  1.00  0.00    -0.200 F 
ATOM     79  F   UNL A   1      38.731  34.295  39.805  1.00  0.00    -0.200 F 
ENDBRANCH  45  69
BRANCH  57  80
ATOM     80  C   UNL A   1      43.767  27.125  34.619  1.00  0.00     0.064 A 
ATOM     81  C   UNL A   1      45.103  27.471  34.863  1.00  0.00     0.173 A 
ATOM     82  C   UNL A   1      43.308  25.888  35.092  1.00  0.00     0.173 A 
ATOM     83  F   UNL A   1      45.590  28.642  34.425  1.00  0.00    -0.203 F 
ATOM     84  C   UNL A   1      45.957  26.599  35.533  1.00  0.00     0.198 A 
ATOM     85  C   UNL A   1      44.158  25.029  35.784  1.00  0.00     0.198 A 
ATOM     86  F   UNL A   1      42.032  25.521  34.898  1.00  0.00    -0.203 F 
ATOM     87  F   UNL A   1      47.241  26.936  35.724  1.00  0.00    -0.200 F 
ATOM     88  C   UNL A   1      45.483  25.381  35.994  1.00  0.00     0.200 A 
ATOM     89  F   UNL A   1      43.694  23.861  36.247  1.00  0.00    -0.200 F 
ATOM     90  F   UNL A   1      46.304  24.544  36.643  1.00  0.00    -0.200 F 
ENDBRANCH  57  80
ENDBRANCH  31  32
ENDBRANCH  24  26
ENDBRANCH  23  24
ENDBRANCH  22  23
ENDBRANCH   1  22
TORSDOF 15
ENDMDL
MODEL 2
REMARK VINA RESULT:     -11.6      0.189      1.630
REMARK SMILES C[C@H](NC(=O)NCCc1ccccc1F)C(=O)OCCOC(=O)c1ccc(-c2c3nc(c(-c4c(F)c(F)c(F)c(F)c4F)c4ccc([nH]4)c(-c4c(F)c(F)c(F)c(F)c4F)c4nc(c(-c5c(F)c(F)c(F)c(F)c5F)c5ccc2[nH]5)C=C4)C=C3)cc1
REMARK SMILES IDX 19 1 18 2 16 3 17 4 2 5 1 6 3 7 4 8 5 10 6 11 7 13 8 14 9 15
REMARK SMILES IDX 10 16 14 17 11 18 13 19 15 20 12 21 20 22 21 23 22 24 23 25
REMARK SMILES IDX 24 26 25 27 86 28 26 29 85 30 27 31 28 32 29 33 79 34 30 35
REMARK SMILES IDX 84 36 78 37 80 38 31 39 83 40 77 41 76 42 32 44 64 45 44 46
REMARK SMILES IDX 63 47 45 48 48 49 62 50 81 51 46 52 47 53 61 55 82 56 49 57
REMARK SMILES IDX 33 58 34 59 42 60 35 61 36 62 40 63 43 64 37 65 38 66 41 67
REMARK SMILES IDX 39 68 65 69 66 70 74 71 67 72 68 73 72 74 75 75 69 76 70 77
REMARK SMILES IDX 73 78 71 79 50 80 51 81 59 82 52 83 53 84 57 85 60 86 54 87
REMARK SMILES IDX 55 88 58 89 56 90
REMARK H PARENT 3 9 6 12 80 43 48 54
REMARK Flexibility Score: inf
ROOT
ATOM      1  C   UNL A   1      31.673  31.689  26.510  1.00  0.00     0.274 C 
ENDROOT
BRANCH   1   2
ATOM      2  O   UNL A   1      32.660  30.804  27.076  1.00  0.00    -0.461 OA
BRANCH   2   3
ATOM      3  C   UNL A   1      32.410  29.474  26.925  1.00  0.00     0.328 C 
ATOM      4  O   UNL A   1      31.433  28.891  27.386  1.00  0.00    -0.250 OA
BRANCH   3   5
ATOM      5  C   UNL A   1      33.517  28.738  26.157  1.00  0.00     0.190 C 
ATOM      6  C   UNL A   1      34.837  29.007  26.879  1.00  0.00     0.043 C 
BRANCH   5   7
ATOM      7  N   UNL A   1      33.654  29.108  24.745  1.00  0.00    -0.325 N 
ATOM      8  C   UNL A   1      33.691  28.293  23.670  1.00  0.00     0.315 C 
ATOM      9  H   UNL A   1      33.729  30.072  24.557  1.00  0.00     0.166 HD
ATOM     10  O   UNL A   1      34.403  28.585  22.713  1.00  0.00    -0.249 OA
ATOM     11  N   UNL A   1      32.946  27.167  23.633  1.00  0.00    -0.338 N 
ATOM     12  H   UNL A   1      33.322  26.411  23.126  1.00  0.00     0.165 HD
BRANCH  11  13
ATOM     13  C   UNL A   1      31.656  26.944  24.255  1.00  0.00     0.122 C 
BRANCH  13  14
ATOM     14  C   UNL A   1      30.518  26.771  23.241  1.00  0.00     0.060 C 
BRANCH  14  15
ATOM     15  C   UNL A   1      29.521  27.880  23.002  1.00  0.00    -0.010 A 
ATOM     16  C   UNL A   1      30.012  29.055  22.400  1.00  0.00     0.007 A 
ATOM     17  C   UNL A   1      28.174  27.852  23.368  1.00  0.00     0.126 A 
ATOM     18  C   UNL A   1      29.178  30.150  22.160  1.00  0.00     0.000 A 
ATOM     19  C   UNL A   1      27.336  28.944  23.132  1.00  0.00     0.039 A 
ATOM     20  F   UNL A   1      27.645  26.781  23.971  1.00  0.00    -0.207 F 
ATOM     21  C   UNL A   1      27.836  30.091  22.519  1.00  0.00     0.003 A 
ENDBRANCH  14  15
ENDBRANCH  13  14
ENDBRANCH  11  13
ENDBRANCH   5   7
ENDBRANCH   3   5
ENDBRANCH   2   3
ENDBRANCH   1   2
BRANCH   1  22
ATOM     22  C   UNL A   1      31.672  33.036  27.227  1.00  0.00     0.275 C 
BRANCH  22  23
ATOM     23  O   UNL A   1      33.005  33.579  27.258  1.00  0.00    -0.458 OA
BRANCH  23  24
ATOM     24  C   UNL A   1      33.316  34.277  28.373  1.00  0.00     0.338 C 
ATOM     25  O   UNL A   1      32.717  35.231  28.839  1.00  0.00    -0.246 OA
BRANCH  24  26
ATOM     26  C   UNL A   1      34.522  33.724  29.023  1.00  0.00     0.060 A 
ATOM     27  C   UNL A   1      35.795  34.195  28.701  1.00  0.00     0.016 A 
ATOM     28  C   UNL A   1      34.378  32.598  29.836  1.00  0.00     0.016 A 
ATOM     29  C   UNL A   1      36.923  33.483  29.118  1.00  0.00     0.010 A 
ATOM     30  C   UNL A   1      35.511  31.952  30.339  1.00  0.00     0.010 A 
ATOM     31  C   UNL A   1      36.797  32.371  29.967  1.00  0.00    -0.014 A 
BRANCH  31  32
ATOM     32  C   UNL A   1      37.998  31.717  30.554  1.00  0.00     0.031 A 
ATOM     33  C   UNL A   1      38.697  30.567  29.879  1.00  0.00     0.074 A 
ATOM     34  C   UNL A   1      38.429  32.128  31.763  1.00  0.00     0.049 A 
ATOM     35  N   UNL A   1      39.716  29.861  30.306  1.00  0.00    -0.248 NA
ATOM     36  C   UNL A   1      38.207  30.159  28.555  1.00  0.00     0.031 C 
ATOM     37  C   UNL A   1      37.854  33.230  32.536  1.00  0.00     0.029 A 
ATOM     38  N   UNL A   1      39.420  31.633  32.577  1.00  0.00    -0.354 N 
ATOM     39  C   UNL A   1      40.030  28.982  29.279  1.00  0.00     0.074 A 
ATOM     40  C   UNL A   1      39.045  29.177  28.242  1.00  0.00     0.031 C 
ATOM     41  C   UNL A   1      38.469  33.302  33.724  1.00  0.00     0.029 A 
ATOM     42  C   UNL A   1      39.424  32.203  33.826  1.00  0.00     0.049 A 
ATOM     43  H   UNL A   1      40.062  30.943  32.293  1.00  0.00     0.167 HD
ATOM     44  C   UNL A   1      41.066  28.114  29.201  1.00  0.00     0.037 A 
ATOM     45  C   UNL A   1      40.049  31.838  34.960  1.00  0.00     0.037 A 
ATOM     46  C   UNL A   1      41.995  27.857  30.268  1.00  0.00     0.049 A 
ATOM     47  C   UNL A   1      40.982  30.667  34.949  1.00  0.00     0.074 A 
ATOM     48  C   UNL A   1      43.119  27.048  30.263  1.00  0.00     0.029 A 
ATOM     49  N   UNL A   1      41.867  28.357  31.551  1.00  0.00    -0.354 N 
ATOM     50  N   UNL A   1      41.364  29.934  33.934  1.00  0.00    -0.248 NA
ATOM     51  C   UNL A   1      41.559  30.258  36.238  1.00  0.00     0.031 C 
ATOM     52  C   UNL A   1      43.616  26.988  31.570  1.00  0.00     0.029 A 
ATOM     53  C   UNL A   1      42.827  27.794  32.373  1.00  0.00     0.049 A 
ATOM     54  H   UNL A   1      41.192  29.016  31.838  1.00  0.00     0.167 HD
ATOM     55  C   UNL A   1      42.236  28.989  34.453  1.00  0.00     0.074 A 
ATOM     56  C   UNL A   1      42.327  29.237  35.876  1.00  0.00     0.031 C 
ATOM     57  C   UNL A   1      42.903  28.012  33.794  1.00  0.00     0.037 A 
BRANCH  44  58
ATOM     58  C   UNL A   1      41.285  27.371  27.921  1.00  0.00     0.064 A 
ATOM     59  C   UNL A   1      40.870  26.040  27.785  1.00  0.00     0.173 A 
ATOM     60  C   UNL A   1      42.058  27.932  26.893  1.00  0.00     0.173 A 
ATOM     61  F   UNL A   1      40.134  25.461  28.746  1.00  0.00    -0.203 F 
ATOM     62  C   UNL A   1      41.243  25.286  26.675  1.00  0.00     0.198 A 
ATOM     63  C   UNL A   1      42.424  27.177  25.782  1.00  0.00     0.198 A 
ATOM     64  F   UNL A   1      42.478  29.203  26.980  1.00  0.00    -0.203 F 
ATOM     65  F   UNL A   1      40.862  24.004  26.578  1.00  0.00    -0.200 F 
ATOM     66  C   UNL A   1      42.026  25.852  25.679  1.00  0.00     0.200 A 
ATOM     67  F   UNL A   1      43.178  27.725  24.820  1.00  0.00    -0.200 F 
ATOM     68  F   UNL A   1      42.402  25.118  24.623  1.00  0.00    -0.200 F 
ENDBRANCH  44  58
BRANCH  45  69
ATOM     69  C   UNL A   1      39.705  32.549  36.216  1.00  0.00     0.064 A 
ATOM     70  C   UNL A   1      38.573  32.169  36.959  1.00  0.00     0.173 A 
ATOM     71  C   UNL A   1      40.439  33.653  36.656  1.00  0.00     0.173 A 
ATOM     72  F   UNL A   1      37.839  31.116  36.574  1.00  0.00    -0.203 F 
ATOM     73  C   UNL A   1      38.167  32.898  38.071  1.00  0.00     0.198 A 
ATOM     74  C   UNL A   1      40.046  34.365  37.789  1.00  0.00     0.198 A 
ATOM     75  F   UNL A   1      41.539  34.036  35.991  1.00  0.00    -0.203 F 
ATOM     76  F   UNL A   1      37.052  32.548  38.728  1.00  0.00    -0.200 F 
ATOM     77  C   UNL A   1      38.903  33.996  38.486  1.00  0.00     0.200 A 
ATOM     78  F   UNL A   1      40.770  35.414  38.201  1.00  0.00    -0.200 F 
ATOM     79  F   UNL A   1      38.512  34.700  39.556  1.00  0.00    -0.200 F 
ENDBRANCH  45  69
BRANCH  57  80
ATOM     80  C   UNL A   1      43.787  27.107  34.593  1.00  0.00     0.064 A 
ATOM     81  C   UNL A   1      43.303  25.889  35.092  1.00  0.00     0.173 A 
ATOM     82  C   UNL A   1      45.093  27.488  34.931  1.00  0.00     0.173 A 
ATOM     83  F   UNL A   1      42.057  25.485  34.799  1.00  0.00    -0.203 F 
ATOM     84  C   UNL A   1      44.088  25.094  35.922  1.00  0.00     0.198 A 
ATOM     85  C   UNL A   1      45.884  26.678  35.742  1.00  0.00     0.198 A 
ATOM     86  F   UNL A   1      45.604  28.636  34.463  1.00  0.00    -0.203 F 
ATOM     87  F   UNL A   1      43.592  23.951  36.417  1.00  0.00    -0.200 F 
ATOM     88  C   UNL A   1      45.378  25.488  36.244  1.00  0.00     0.200 A 
ATOM     89  F   UNL A   1      47.137  27.049  36.036  1.00  0.00    -0.200 F 
ATOM     90  F   UNL A   1      46.134  24.720  37.040  1.00  0.00    -0.200 F 
ENDBRANCH  57  80
ENDBRANCH  31  32
ENDBRANCH  24  26
ENDBRANCH  23  24
ENDBRANCH  22  23
ENDBRANCH   1  22
TORSDOF 15
ENDMDL
MODEL 3
REMARK VINA RESULT:     -11.5      5.014     10.131
REMARK SMILES C[C@H](NC(=O)NCCc1ccccc1F)C(=O)OCCOC(=O)c1ccc(-c2c3nc(c(-c4c(F)c(F)c(F)c(F)c4F)c4ccc([nH]4)c(-c4c(F)c(F)c(F)c(F)c4F)c4nc(c(-c5c(F)c(F)c(F)c(F)c5F)c5ccc2[nH]5)C=C4)C=C3)cc1
REMARK SMILES IDX 19 1 18 2 16 3 17 4 2 5 1 6 3 7 4 8 5 10 6 11 7 13 8 14 9 15
REMARK SMILES IDX 10 16 14 17 11 18 13 19 15 20 12 21 20 22 21 23 22 24 23 25
REMARK SMILES IDX 24 26 25 27 86 28 26 29 85 30 27 31 28 32 29 33 79 34 30 35
REMARK SMILES IDX 84 36 78 37 80 38 31 39 83 40 77 41 76 42 32 44 64 45 44 46
REMARK SMILES IDX 63 47 45 48 48 49 62 50 81 51 46 52 47 53 61 55 82 56 49 57
REMARK SMILES IDX 33 58 34 59 42 60 35 61 36 62 40 63 43 64 37 65 38 66 41 67
REMARK SMILES IDX 39 68 65 69 66 70 74 71 67 72 68 73 72 74 75 75 69 76 70 77
REMARK SMILES IDX 73 78 71 79 50 80 51 81 59 82 52 83 53 84 57 85 60 86 54 87
REMARK SMILES IDX 55 88 58 89 56 90
REMARK H PARENT 3 9 6 12 80 43 48 54
REMARK Flexibility Score: inf
ROOT
ATOM      1  C   UNL A   1      46.487  23.047  24.114  1.00  0.00     0.274 C 
ENDROOT
BRANCH   1   2
ATOM      2  O   UNL A   1      46.356  21.807  24.839  1.00  0.00    -0.461 OA
BRANCH   2   3
ATOM      3  C   UNL A   1      45.261  21.058  24.527  1.00  0.00     0.328 C 
ATOM      4  O   UNL A   1      44.460  21.332  23.638  1.00  0.00    -0.250 OA
BRANCH   3   5
ATOM      5  C   UNL A   1      45.082  19.843  25.448  1.00  0.00     0.190 C 
ATOM      6  C   UNL A   1      46.374  19.027  25.391  1.00  0.00     0.043 C 
BRANCH   5   7
ATOM      7  N   UNL A   1      43.947  18.974  25.126  1.00  0.00    -0.325 N 
ATOM      8  C   UNL A   1      42.952  18.566  25.943  1.00  0.00     0.315 C 
ATOM      9  H   UNL A   1      43.904  18.645  24.199  1.00  0.00     0.166 HD
ATOM     10  O   UNL A   1      42.481  17.440  25.808  1.00  0.00    -0.249 OA
ATOM     11  N   UNL A   1      42.464  19.388  26.897  1.00  0.00    -0.338 N 
ATOM     12  H   UNL A   1      42.134  18.956  27.718  1.00  0.00     0.165 HD
BRANCH  11  13
ATOM     13  C   UNL A   1      42.372  20.834  26.851  1.00  0.00     0.122 C 
BRANCH  13  14
ATOM     14  C   UNL A   1      41.304  21.402  27.794  1.00  0.00     0.060 C 
BRANCH  14  15
ATOM     15  C   UNL A   1      40.329  22.451  27.315  1.00  0.00    -0.010 A 
ATOM     16  C   UNL A   1      40.490  23.751  27.836  1.00  0.00     0.007 A 
ATOM     17  C   UNL A   1      39.261  22.229  26.444  1.00  0.00     0.126 A 
ATOM     18  C   UNL A   1      39.625  24.787  27.479  1.00  0.00     0.000 A 
ATOM     19  C   UNL A   1      38.392  23.261  26.085  1.00  0.00     0.039 A 
ATOM     20  F   UNL A   1      39.028  21.014  25.934  1.00  0.00    -0.207 F 
ATOM     21  C   UNL A   1      38.579  24.544  26.595  1.00  0.00     0.003 A 
ENDBRANCH  14  15
ENDBRANCH  13  14
ENDBRANCH  11  13
ENDBRANCH   5   7
ENDBRANCH   3   5
ENDBRANCH   2   3
ENDBRANCH   1   2
BRANCH   1  22
ATOM     22  C   UNL A   1      46.477  24.239  25.065  1.00  0.00     0.275 C 
BRANCH  22  23
ATOM     23  O   UNL A   1      45.233  24.953  24.949  1.00  0.00    -0.458 OA
BRANCH  23  24
ATOM     24  C   UNL A   1      45.334  26.299  25.017  1.00  0.00     0.338 C 
ATOM     25  O   UNL A   1      46.002  27.027  24.303  1.00  0.00    -0.246 OA
BRANCH  24  26
ATOM     26  C   UNL A   1      44.487  26.838  26.101  1.00  0.00     0.060 A 
ATOM     27  C   UNL A   1      44.703  28.117  26.617  1.00  0.00     0.016 A 
ATOM     28  C   UNL A   1      43.580  25.978  26.724  1.00  0.00     0.016 A 
ATOM     29  C   UNL A   1      44.078  28.497  27.807  1.00  0.00     0.010 A 
ATOM     30  C   UNL A   1      42.878  26.403  27.854  1.00  0.00     0.010 A 
ATOM     31  C   UNL A   1      43.136  27.659  28.425  1.00  0.00    -0.014 A 
BRANCH  31  32
ATOM     32  C   UNL A   1      42.341  28.129  29.592  1.00  0.00     0.031 A 
ATOM     33  C   UNL A   1      41.103  28.970  29.435  1.00  0.00     0.074 A 
ATOM     34  C   UNL A   1      42.789  27.847  30.832  1.00  0.00     0.049 A 
ATOM     35  N   UNL A   1      40.348  29.502  30.365  1.00  0.00    -0.248 NA
ATOM     36  C   UNL A   1      40.638  29.243  28.067  1.00  0.00     0.031 C 
ATOM     37  C   UNL A   1      43.972  27.041  31.141  1.00  0.00     0.029 A 
ATOM     38  N   UNL A   1      42.329  28.247  32.064  1.00  0.00    -0.354 N 
ATOM     39  C   UNL A   1      39.290  30.106  29.701  1.00  0.00     0.074 A 
ATOM     40  C   UNL A   1      39.538  29.954  28.287  1.00  0.00     0.031 C 
ATOM     41  C   UNL A   1      44.171  27.041  32.465  1.00  0.00     0.029 A 
ATOM     42  C   UNL A   1      43.178  27.910  33.089  1.00  0.00     0.049 A 
ATOM     43  H   UNL A   1      41.479  28.725  32.197  1.00  0.00     0.167 HD
ATOM     44  C   UNL A   1      38.196  30.705  30.229  1.00  0.00     0.037 A 
ATOM     45  C   UNL A   1      43.219  28.319  34.371  1.00  0.00     0.037 A 
ATOM     46  C   UNL A   1      37.991  30.933  31.635  1.00  0.00     0.049 A 
ATOM     47  C   UNL A   1      42.161  29.242  34.889  1.00  0.00     0.074 A 
ATOM     48  C   UNL A   1      36.886  31.469  32.273  1.00  0.00     0.029 A 
ATOM     49  N   UNL A   1      38.943  30.698  32.610  1.00  0.00    -0.354 N 
ATOM     50  N   UNL A   1      41.095  29.693  34.276  1.00  0.00    -0.248 NA
ATOM     51  C   UNL A   1      42.314  29.730  36.267  1.00  0.00     0.031 C 
ATOM     52  C   UNL A   1      37.207  31.641  33.625  1.00  0.00     0.029 A 
ATOM     53  C   UNL A   1      38.494  31.172  33.830  1.00  0.00     0.049 A 
ATOM     54  H   UNL A   1      39.812  30.258  32.459  1.00  0.00     0.167 HD
ATOM     55  C   UNL A   1      40.442  30.503  35.192  1.00  0.00     0.074 A 
ATOM     56  C   UNL A   1      41.231  30.485  36.406  1.00  0.00     0.031 C 
ATOM     57  C   UNL A   1      39.284  31.187  35.032  1.00  0.00     0.037 A 
BRANCH  44  58
ATOM     58  C   UNL A   1      37.108  31.156  29.306  1.00  0.00     0.064 A 
ATOM     59  C   UNL A   1      36.925  32.515  29.025  1.00  0.00     0.173 A 
ATOM     60  C   UNL A   1      36.148  30.246  28.838  1.00  0.00     0.173 A 
ATOM     61  F   UNL A   1      37.815  33.421  29.459  1.00  0.00    -0.203 F 
ATOM     62  C   UNL A   1      35.802  32.954  28.328  1.00  0.00     0.198 A 
ATOM     63  C   UNL A   1      35.029  30.688  28.137  1.00  0.00     0.198 A 
ATOM     64  F   UNL A   1      36.282  28.934  29.083  1.00  0.00    -0.203 F 
ATOM     65  F   UNL A   1      35.627  34.263  28.096  1.00  0.00    -0.200 F 
ATOM     66  C   UNL A   1      34.851  32.043  27.892  1.00  0.00     0.200 A 
ATOM     67  F   UNL A   1      34.114  29.807  27.713  1.00  0.00    -0.200 F 
ATOM     68  F   UNL A   1      33.761  32.470  27.242  1.00  0.00    -0.200 F 
ENDBRANCH  44  58
BRANCH  45  69
ATOM     69  C   UNL A   1      44.382  27.922  35.201  1.00  0.00     0.064 A 
ATOM     70  C   UNL A   1      45.561  28.689  35.184  1.00  0.00     0.173 A 
ATOM     71  C   UNL A   1      44.375  26.748  35.958  1.00  0.00     0.173 A 
ATOM     72  F   UNL A   1      45.614  29.824  34.471  1.00  0.00    -0.203 F 
ATOM     73  C   UNL A   1      46.701  28.269  35.860  1.00  0.00     0.198 A 
ATOM     74  C   UNL A   1      45.510  26.344  36.659  1.00  0.00     0.198 A 
ATOM     75  F   UNL A   1      43.265  25.998  36.021  1.00  0.00    -0.203 F 
ATOM     76  F   UNL A   1      47.828  28.990  35.782  1.00  0.00    -0.200 F 
ATOM     77  C   UNL A   1      46.675  27.097  36.598  1.00  0.00     0.200 A 
ATOM     78  F   UNL A   1      45.478  25.220  37.389  1.00  0.00    -0.200 F 
ATOM     79  F   UNL A   1      47.773  26.690  37.248  1.00  0.00    -0.200 F 
ENDBRANCH  45  69
BRANCH  57  80
ATOM     80  C   UNL A   1      38.789  32.003  36.184  1.00  0.00     0.064 A 
ATOM     81  C   UNL A   1      39.184  33.339  36.339  1.00  0.00     0.173 A 
ATOM     82  C   UNL A   1      37.984  31.432  37.179  1.00  0.00     0.173 A 
ATOM     83  F   UNL A   1      39.959  33.927  35.414  1.00  0.00    -0.203 F 
ATOM     84  C   UNL A   1      38.809  34.070  37.463  1.00  0.00     0.198 A 
ATOM     85  C   UNL A   1      37.590  32.173  38.290  1.00  0.00     0.198 A 
ATOM     86  F   UNL A   1      37.567  30.162  37.065  1.00  0.00    -0.203 F 
ATOM     87  F   UNL A   1      39.228  35.335  37.608  1.00  0.00    -0.200 F 
ATOM     88  C   UNL A   1      38.011  33.487  38.436  1.00  0.00     0.200 A 
ATOM     89  F   UNL A   1      36.803  31.616  39.220  1.00  0.00    -0.200 F 
ATOM     90  F   UNL A   1      37.648  34.192  39.515  1.00  0.00    -0.200 F 
ENDBRANCH  57  80
ENDBRANCH  31  32
ENDBRANCH  24  26
ENDBRANCH  23  24
ENDBRANCH  22  23
ENDBRANCH   1  22
TORSDOF 15
ENDMDL
