MODEL 1
REMARK VINA RESULT:      -9.5      0.000      0.000
REMARK SMILES O=C(OCCOC(=O)c1cccc(OCC(F)F)c1)c1ccc(-c2c3nc(c(-c4c(F)c(F)c(F)c(F)c4F)c4ccc([nH]4)c(-c4c(F)c(F)c(F)c(F)c4F)c4nc(c(-c5c(F)c(F)c(F)c(F)c5F)c5ccc2[nH]5)C=C4)C=C3)cc1
REMARK SMILES IDX 5 1 4 2 3 3 2 4 1 5 20 6 21 7 82 8 22 9 81 10 23 11 24 12
REMARK SMILES IDX 25 13 75 14 26 15 80 16 74 17 76 18 27 19 79 20 73 21 72 22
REMARK SMILES IDX 28 24 60 25 40 26 59 27 41 28 44 29 58 30 77 31 42 32 43 33
REMARK SMILES IDX 57 35 78 36 45 37 29 38 30 39 38 40 31 41 32 42 36 43 39 44
REMARK SMILES IDX 33 45 34 46 37 47 35 48 61 49 62 50 70 51 63 52 64 53 68 54
REMARK SMILES IDX 71 55 65 56 66 57 69 58 67 59 46 60 47 61 55 62 48 63 49 64
REMARK SMILES IDX 53 65 56 66 50 67 51 68 54 69 52 70 6 71 7 72 8 73 9 74
REMARK SMILES IDX 10 75 19 76 11 77 13 78 12 79 14 80 15 81 16 82 17 83 18 84
REMARK H PARENT 76 23 44 34
REMARK Flexibility Score: inf
ROOT
ATOM      1  C   UNL A   1      42.318  19.843  26.660  1.00  0.00     0.275 C 
ENDROOT
BRANCH   1   2
ATOM      2  C   UNL A   1      40.939  19.554  26.063  1.00  0.00     0.275 C 
BRANCH   2   3
ATOM      3  O   UNL A   1      39.886  20.316  26.682  1.00  0.00    -0.458 OA
BRANCH   3   4
ATOM      4  C   UNL A   1      39.283  21.473  26.334  1.00  0.00     0.338 C 
ATOM      5  O   UNL A   1      38.260  21.397  25.651  1.00  0.00    -0.246 OA
BRANCH   4   6
ATOM      6  C   UNL A   1      39.760  22.860  26.679  1.00  0.00     0.060 A 
ATOM      7  C   UNL A   1      39.322  24.066  26.128  1.00  0.00     0.016 A 
ATOM      8  C   UNL A   1      40.749  22.938  27.685  1.00  0.00     0.016 A 
ATOM      9  C   UNL A   1      39.857  25.294  26.543  1.00  0.00     0.010 A 
ATOM     10  C   UNL A   1      41.277  24.161  28.115  1.00  0.00     0.010 A 
ATOM     11  C   UNL A   1      40.844  25.349  27.528  1.00  0.00    -0.014 A 
BRANCH  11  12
ATOM     12  C   UNL A   1      41.451  26.654  27.882  1.00  0.00     0.031 A 
ATOM     13  C   UNL A   1      42.778  27.016  27.311  1.00  0.00     0.074 A 
ATOM     14  C   UNL A   1      40.810  27.507  28.697  1.00  0.00     0.049 A 
ATOM     15  N   UNL A   1      43.448  28.128  27.446  1.00  0.00    -0.248 NA
ATOM     16  C   UNL A   1      43.459  25.980  26.525  1.00  0.00     0.031 C 
ATOM     17  C   UNL A   1      39.573  27.180  29.377  1.00  0.00     0.029 A 
ATOM     18  N   UNL A   1      41.070  28.795  29.090  1.00  0.00    -0.354 N 
ATOM     19  C   UNL A   1      44.658  27.908  26.810  1.00  0.00     0.074 A 
ATOM     20  C   UNL A   1      44.621  26.563  26.273  1.00  0.00     0.031 C 
ATOM     21  C   UNL A   1      39.134  28.251  30.052  1.00  0.00     0.029 A 
ATOM     22  C   UNL A   1      40.057  29.351  29.841  1.00  0.00     0.049 A 
ATOM     23  H   UNL A   1      41.897  29.274  28.860  1.00  0.00     0.167 HD
ATOM     24  C   UNL A   1      45.713  28.749  26.726  1.00  0.00     0.037 A 
ATOM     25  C   UNL A   1      39.882  30.616  30.272  1.00  0.00     0.037 A 
ATOM     26  C   UNL A   1      45.724  30.072  27.292  1.00  0.00     0.049 A 
ATOM     27  C   UNL A   1      41.004  31.583  30.026  1.00  0.00     0.074 A 
ATOM     28  C   UNL A   1      46.742  31.008  27.286  1.00  0.00     0.029 A 
ATOM     29  N   UNL A   1      44.658  30.645  27.979  1.00  0.00    -0.354 N 
ATOM     30  N   UNL A   1      42.133  31.381  29.388  1.00  0.00    -0.248 NA
ATOM     31  C   UNL A   1      40.863  32.930  30.592  1.00  0.00     0.031 C 
ATOM     32  C   UNL A   1      46.306  32.129  28.002  1.00  0.00     0.029 A 
ATOM     33  C   UNL A   1      44.999  31.916  28.411  1.00  0.00     0.049 A 
ATOM     34  H   UNL A   1      43.789  30.210  28.134  1.00  0.00     0.167 HD
ATOM     35  C   UNL A   1      42.856  32.554  29.516  1.00  0.00     0.074 A 
ATOM     36  C   UNL A   1      42.004  33.493  30.220  1.00  0.00     0.031 C 
ATOM     37  C   UNL A   1      44.129  32.814  29.130  1.00  0.00     0.037 A 
BRANCH  24  38
ATOM     38  C   UNL A   1      46.948  28.210  26.074  1.00  0.00     0.064 A 
ATOM     39  C   UNL A   1      47.047  28.054  24.684  1.00  0.00     0.173 A 
ATOM     40  C   UNL A   1      48.028  27.783  26.863  1.00  0.00     0.173 A 
ATOM     41  F   UNL A   1      46.028  28.416  23.889  1.00  0.00    -0.203 F 
ATOM     42  C   UNL A   1      48.165  27.452  24.110  1.00  0.00     0.198 A 
ATOM     43  C   UNL A   1      49.156  27.211  26.283  1.00  0.00     0.198 A 
ATOM     44  F   UNL A   1      47.978  27.901  28.197  1.00  0.00    -0.203 F 
ATOM     45  F   UNL A   1      48.206  27.246  22.787  1.00  0.00    -0.200 F 
ATOM     46  C   UNL A   1      49.218  27.034  24.909  1.00  0.00     0.200 A 
ATOM     47  F   UNL A   1      50.173  26.808  27.057  1.00  0.00    -0.200 F 
ATOM     48  F   UNL A   1      50.287  26.443  24.357  1.00  0.00    -0.200 F 
ENDBRANCH  24  38
BRANCH  25  49
ATOM     49  C   UNL A   1      38.610  31.048  30.925  1.00  0.00     0.064 A 
ATOM     50  C   UNL A   1      38.490  31.035  32.324  1.00  0.00     0.173 A 
ATOM     51  C   UNL A   1      37.499  31.488  30.192  1.00  0.00     0.173 A 
ATOM     52  F   UNL A   1      39.514  30.613  33.081  1.00  0.00    -0.203 F 
ATOM     53  C   UNL A   1      37.310  31.426  32.959  1.00  0.00     0.198 A 
ATOM     54  C   UNL A   1      36.333  31.918  30.828  1.00  0.00     0.198 A 
ATOM     55  F   UNL A   1      37.548  31.527  28.852  1.00  0.00    -0.203 F 
ATOM     56  F   UNL A   1      37.214  31.359  34.294  1.00  0.00    -0.200 F 
ATOM     57  C   UNL A   1      36.236  31.878  32.210  1.00  0.00     0.200 A 
ATOM     58  F   UNL A   1      35.305  32.377  30.100  1.00  0.00    -0.200 F 
ATOM     59  F   UNL A   1      35.108  32.270  32.819  1.00  0.00    -0.200 F 
ENDBRANCH  25  49
BRANCH  37  60
ATOM     60  C   UNL A   1      44.676  34.157  29.510  1.00  0.00     0.064 A 
ATOM     61  C   UNL A   1      44.524  35.266  28.665  1.00  0.00     0.173 A 
ATOM     62  C   UNL A   1      45.321  34.342  30.739  1.00  0.00     0.173 A 
ATOM     63  F   UNL A   1      43.931  35.128  27.469  1.00  0.00    -0.203 F 
ATOM     64  C   UNL A   1      45.017  36.513  29.030  1.00  0.00     0.198 A 
ATOM     65  C   UNL A   1      45.789  35.598  31.114  1.00  0.00     0.198 A 
ATOM     66  F   UNL A   1      45.488  33.310  31.579  1.00  0.00    -0.203 F 
ATOM     67  F   UNL A   1      44.902  37.550  28.189  1.00  0.00    -0.200 F 
ATOM     68  C   UNL A   1      45.642  36.680  30.258  1.00  0.00     0.200 A 
ATOM     69  F   UNL A   1      46.383  35.762  32.304  1.00  0.00    -0.200 F 
ATOM     70  F   UNL A   1      46.111  37.885  30.613  1.00  0.00    -0.200 F 
ENDBRANCH  37  60
ENDBRANCH  11  12
ENDBRANCH   4   6
ENDBRANCH   3   4
ENDBRANCH   2   3
ENDBRANCH   1   2
BRANCH   1  71
ATOM     71  O   UNL A   1      42.930  21.009  26.096  1.00  0.00    -0.458 OA
BRANCH  71  72
ATOM     72  C   UNL A   1      43.967  20.781  25.248  1.00  0.00     0.338 C 
ATOM     73  O   UNL A   1      44.066  19.893  24.422  1.00  0.00    -0.246 OA
BRANCH  72  74
ATOM     74  C   UNL A   1      44.944  21.871  25.414  1.00  0.00     0.063 A 
ATOM     75  C   UNL A   1      45.581  22.397  24.288  1.00  0.00     0.016 A 
ATOM     76  C   UNL A   1      45.185  22.394  26.689  1.00  0.00     0.062 A 
ATOM     77  C   UNL A   1      46.454  23.471  24.439  1.00  0.00     0.005 A 
ATOM     78  C   UNL A   1      46.040  23.478  26.843  1.00  0.00     0.120 A 
ATOM     79  C   UNL A   1      46.691  23.997  25.713  1.00  0.00     0.046 A 
BRANCH  78  80
ATOM     80  O   UNL A   1      46.264  24.151  28.012  1.00  0.00    -0.488 OA
BRANCH  80  81
ATOM     81  C   UNL A   1      45.300  24.046  29.069  1.00  0.00     0.302 C 
BRANCH  81  82
ATOM     82  C   UNL A   1      45.141  25.292  29.941  1.00  0.00     0.379 C 
ATOM     83  F   UNL A   1      45.746  26.369  29.383  1.00  0.00    -0.207 F 
ATOM     84  F   UNL A   1      43.820  25.606  30.023  1.00  0.00    -0.207 F 
ENDBRANCH  81  82
ENDBRANCH  80  81
ENDBRANCH  78  80
ENDBRANCH  72  74
ENDBRANCH  71  72
ENDBRANCH   1  71
TORSDOF 14
ENDMDL
MODEL 2
REMARK VINA RESULT:      -9.5      6.026     12.077
REMARK SMILES O=C(OCCOC(=O)c1cccc(OCC(F)F)c1)c1ccc(-c2c3nc(c(-c4c(F)c(F)c(F)c(F)c4F)c4ccc([nH]4)c(-c4c(F)c(F)c(F)c(F)c4F)c4nc(c(-c5c(F)c(F)c(F)c(F)c5F)c5ccc2[nH]5)C=C4)C=C3)cc1
REMARK SMILES IDX 5 1 4 2 3 3 2 4 1 5 20 6 21 7 82 8 22 9 81 10 23 11 24 12
REMARK SMILES IDX 25 13 75 14 26 15 80 16 74 17 76 18 27 19 79 20 73 21 72 22
REMARK SMILES IDX 28 24 60 25 40 26 59 27 41 28 44 29 58 30 77 31 42 32 43 33
REMARK SMILES IDX 57 35 78 36 45 37 29 38 30 39 38 40 31 41 32 42 36 43 39 44
REMARK SMILES IDX 33 45 34 46 37 47 35 48 61 49 62 50 70 51 63 52 64 53 68 54
REMARK SMILES IDX 71 55 65 56 66 57 69 58 67 59 46 60 47 61 55 62 48 63 49 64
REMARK SMILES IDX 53 65 56 66 50 67 51 68 54 69 52 70 6 71 7 72 8 73 9 74
REMARK SMILES IDX 10 75 19 76 11 77 13 78 12 79 14 80 15 81 16 82 17 83 18 84
REMARK H PARENT 76 23 44 34
REMARK Flexibility Score: inf
ROOT
ATOM      1  C   UNL A   1      32.955  29.105  25.008  1.00  0.00     0.275 C 
ENDROOT
BRANCH   1   2
ATOM      2  C   UNL A   1      32.091  29.834  26.040  1.00  0.00     0.275 C 
BRANCH   2   3
ATOM      3  O   UNL A   1      32.469  31.212  26.219  1.00  0.00    -0.458 OA
BRANCH   3   4
ATOM      4  C   UNL A   1      33.177  31.837  27.184  1.00  0.00     0.338 C 
ATOM      5  O   UNL A   1      32.785  32.946  27.548  1.00  0.00    -0.246 OA
BRANCH   4   6
ATOM      6  C   UNL A   1      34.428  31.316  27.842  1.00  0.00     0.060 A 
ATOM      7  C   UNL A   1      34.711  29.994  28.195  1.00  0.00     0.016 A 
ATOM      8  C   UNL A   1      35.427  32.278  28.115  1.00  0.00     0.016 A 
ATOM      9  C   UNL A   1      35.922  29.646  28.808  1.00  0.00     0.010 A 
ATOM     10  C   UNL A   1      36.646  31.935  28.713  1.00  0.00     0.010 A 
ATOM     11  C   UNL A   1      36.891  30.614  29.081  1.00  0.00    -0.014 A 
BRANCH  11  12
ATOM     12  C   UNL A   1      38.123  30.229  29.809  1.00  0.00     0.031 A 
ATOM     13  C   UNL A   1      38.269  30.608  31.242  1.00  0.00     0.074 A 
ATOM     14  C   UNL A   1      39.093  29.535  29.191  1.00  0.00     0.049 A 
ATOM     15  N   UNL A   1      39.235  30.315  32.069  1.00  0.00    -0.248 NA
ATOM     16  C   UNL A   1      37.216  31.463  31.805  1.00  0.00     0.031 C 
ATOM     17  C   UNL A   1      39.073  29.229  27.775  1.00  0.00     0.029 A 
ATOM     18  N   UNL A   1      40.255  28.958  29.636  1.00  0.00    -0.354 N 
ATOM     19  C   UNL A   1      38.939  30.998  33.237  1.00  0.00     0.074 A 
ATOM     20  C   UNL A   1      37.693  31.702  33.016  1.00  0.00     0.031 C 
ATOM     21  C   UNL A   1      40.128  28.462  27.466  1.00  0.00     0.029 A 
ATOM     22  C   UNL A   1      40.896  28.211  28.671  1.00  0.00     0.049 A 
ATOM     23  H   UNL A   1      40.597  29.066  30.551  1.00  0.00     0.167 HD
ATOM     24  C   UNL A   1      39.674  31.053  34.370  1.00  0.00     0.037 A 
ATOM     25  C   UNL A   1      41.961  27.389  28.766  1.00  0.00     0.037 A 
ATOM     26  C   UNL A   1      40.921  30.358  34.547  1.00  0.00     0.049 A 
ATOM     27  C   UNL A   1      42.671  27.342  30.089  1.00  0.00     0.074 A 
ATOM     28  C   UNL A   1      41.762  30.354  35.644  1.00  0.00     0.029 A 
ATOM     29  N   UNL A   1      41.512  29.543  33.587  1.00  0.00    -0.354 N 
ATOM     30  N   UNL A   1      42.364  27.960  31.205  1.00  0.00    -0.248 NA
ATOM     31  C   UNL A   1      43.894  26.535  30.162  1.00  0.00     0.031 C 
ATOM     32  C   UNL A   1      42.880  29.570  35.332  1.00  0.00     0.029 A 
ATOM     33  C   UNL A   1      42.713  29.042  34.061  1.00  0.00     0.049 A 
ATOM     34  H   UNL A   1      41.131  29.351  32.699  1.00  0.00     0.167 HD
ATOM     35  C   UNL A   1      43.377  27.657  32.097  1.00  0.00     0.074 A 
ATOM     36  C   UNL A   1      44.264  26.731  31.420  1.00  0.00     0.031 C 
ATOM     37  C   UNL A   1      43.581  28.139  33.347  1.00  0.00     0.037 A 
BRANCH  24  38
ATOM     38  C   UNL A   1      39.172  31.965  35.448  1.00  0.00     0.064 A 
ATOM     39  C   UNL A   1      39.540  33.317  35.508  1.00  0.00     0.173 A 
ATOM     40  C   UNL A   1      38.361  31.457  36.474  1.00  0.00     0.173 A 
ATOM     41  F   UNL A   1      40.341  33.842  34.568  1.00  0.00    -0.203 F 
ATOM     42  C   UNL A   1      39.146  34.118  36.577  1.00  0.00     0.198 A 
ATOM     43  C   UNL A   1      37.944  32.269  37.525  1.00  0.00     0.198 A 
ATOM     44  F   UNL A   1      37.991  30.168  36.468  1.00  0.00    -0.203 F 
ATOM     45  F   UNL A   1      39.569  35.387  36.652  1.00  0.00    -0.200 F 
ATOM     46  C   UNL A   1      38.347  33.594  37.582  1.00  0.00     0.200 A 
ATOM     47  F   UNL A   1      37.171  31.760  38.495  1.00  0.00    -0.200 F 
ATOM     48  F   UNL A   1      37.981  34.362  38.618  1.00  0.00    -0.200 F 
ENDBRANCH  24  38
BRANCH  25  49
ATOM     49  C   UNL A   1      42.386  26.529  27.623  1.00  0.00     0.064 A 
ATOM     50  C   UNL A   1      43.384  26.968  26.736  1.00  0.00     0.173 A 
ATOM     51  C   UNL A   1      41.831  25.263  27.384  1.00  0.00     0.173 A 
ATOM     52  F   UNL A   1      43.945  28.174  26.904  1.00  0.00    -0.203 F 
ATOM     53  C   UNL A   1      43.794  26.187  25.654  1.00  0.00     0.198 A 
ATOM     54  C   UNL A   1      42.270  24.465  26.326  1.00  0.00     0.198 A 
ATOM     55  F   UNL A   1      40.875  24.785  28.194  1.00  0.00    -0.203 F 
ATOM     56  F   UNL A   1      44.716  26.655  24.803  1.00  0.00    -0.200 F 
ATOM     57  C   UNL A   1      43.244  24.931  25.457  1.00  0.00     0.200 A 
ATOM     58  F   UNL A   1      41.752  23.241  26.153  1.00  0.00    -0.200 F 
ATOM     59  F   UNL A   1      43.648  24.173  24.428  1.00  0.00    -0.200 F 
ENDBRANCH  25  49
BRANCH  37  60
ATOM     60  C   UNL A   1      44.841  27.700  34.030  1.00  0.00     0.064 A 
ATOM     61  C   UNL A   1      46.025  28.444  33.911  1.00  0.00     0.173 A 
ATOM     62  C   UNL A   1      44.855  26.556  34.836  1.00  0.00     0.173 A 
ATOM     63  F   UNL A   1      46.062  29.536  33.133  1.00  0.00    -0.203 F 
ATOM     64  C   UNL A   1      47.186  28.043  34.562  1.00  0.00     0.198 A 
ATOM     65  C   UNL A   1      46.011  26.173  35.508  1.00  0.00     0.198 A 
ATOM     66  F   UNL A   1      43.745  25.815  34.980  1.00  0.00    -0.203 F 
ATOM     67  F   UNL A   1      48.319  28.741  34.400  1.00  0.00    -0.200 F 
ATOM     68  C   UNL A   1      47.177  26.913  35.366  1.00  0.00     0.200 A 
ATOM     69  F   UNL A   1      45.999  25.087  36.293  1.00  0.00    -0.200 F 
ATOM     70  F   UNL A   1      48.295  26.530  35.999  1.00  0.00    -0.200 F 
ENDBRANCH  37  60
ENDBRANCH  11  12
ENDBRANCH   4   6
ENDBRANCH   3   4
ENDBRANCH   2   3
ENDBRANCH   1   2
BRANCH   1  71
ATOM     71  O   UNL A   1      32.391  29.140  23.692  1.00  0.00    -0.458 OA
BRANCH  71  72
ATOM     72  C   UNL A   1      31.940  27.952  23.211  1.00  0.00     0.338 C 
ATOM     73  O   UNL A   1      32.602  26.976  22.910  1.00  0.00    -0.246 OA
BRANCH  72  74
ATOM     74  C   UNL A   1      30.467  27.987  23.209  1.00  0.00     0.063 A 
ATOM     75  C   UNL A   1      29.755  26.908  23.737  1.00  0.00     0.016 A 
ATOM     76  C   UNL A   1      29.804  29.118  22.720  1.00  0.00     0.062 A 
ATOM     77  C   UNL A   1      28.365  26.972  23.794  1.00  0.00     0.005 A 
ATOM     78  C   UNL A   1      28.419  29.194  22.792  1.00  0.00     0.120 A 
ATOM     79  C   UNL A   1      27.703  28.104  23.309  1.00  0.00     0.046 A 
BRANCH  78  80
ATOM     80  O   UNL A   1      27.667  30.288  22.459  1.00  0.00    -0.488 OA
BRANCH  80  81
ATOM     81  C   UNL A   1      27.875  31.515  23.171  1.00  0.00     0.302 C 
BRANCH  81  82
ATOM     82  C   UNL A   1      28.323  32.703  22.318  1.00  0.00     0.379 C 
ATOM     83  F   UNL A   1      29.341  33.379  22.904  1.00  0.00    -0.207 F 
ATOM     84  F   UNL A   1      28.813  32.237  21.138  1.00  0.00    -0.207 F 
ENDBRANCH  81  82
ENDBRANCH  80  81
ENDBRANCH  78  80
ENDBRANCH  72  74
ENDBRANCH  71  72
ENDBRANCH   1  71
TORSDOF 14
ENDMDL
MODEL 3
REMARK VINA RESULT:      -9.5      6.354     10.656
REMARK SMILES O=C(OCCOC(=O)c1cccc(OCC(F)F)c1)c1ccc(-c2c3nc(c(-c4c(F)c(F)c(F)c(F)c4F)c4ccc([nH]4)c(-c4c(F)c(F)c(F)c(F)c4F)c4nc(c(-c5c(F)c(F)c(F)c(F)c5F)c5ccc2[nH]5)C=C4)C=C3)cc1
REMARK SMILES IDX 5 1 4 2 3 3 2 4 1 5 20 6 21 7 82 8 22 9 81 10 23 11 24 12
REMARK SMILES IDX 25 13 75 14 26 15 80 16 74 17 76 18 27 19 79 20 73 21 72 22
REMARK SMILES IDX 28 24 60 25 40 26 59 27 41 28 44 29 58 30 77 31 42 32 43 33
REMARK SMILES IDX 57 35 78 36 45 37 29 38 30 39 38 40 31 41 32 42 36 43 39 44
REMARK SMILES IDX 33 45 34 46 37 47 35 48 61 49 62 50 70 51 63 52 64 53 68 54
REMARK SMILES IDX 71 55 65 56 66 57 69 58 67 59 46 60 47 61 55 62 48 63 49 64
REMARK SMILES IDX 53 65 56 66 50 67 51 68 54 69 52 70 6 71 7 72 8 73 9 74
REMARK SMILES IDX 10 75 19 76 11 77 13 78 12 79 14 80 15 81 16 82 17 83 18 84
REMARK H PARENT 76 23 44 34
REMARK Flexibility Score: inf
ROOT
ATOM      1  C   UNL A   1      32.572  31.365  26.910  1.00  0.00     0.275 C 
ENDROOT
BRANCH   1   2
ATOM      2  C   UNL A   1      31.692  32.600  27.116  1.00  0.00     0.275 C 
BRANCH   2   3
ATOM      3  O   UNL A   1      32.450  33.812  27.280  1.00  0.00    -0.458 OA
BRANCH   3   4
ATOM      4  C   UNL A   1      33.026  34.379  28.362  1.00  0.00     0.338 C 
ATOM      5  O   UNL A   1      32.521  35.414  28.798  1.00  0.00    -0.246 OA
BRANCH   4   6
ATOM      6  C   UNL A   1      34.256  33.878  29.075  1.00  0.00     0.060 A 
ATOM      7  C   UNL A   1      35.560  34.362  28.953  1.00  0.00     0.016 A 
ATOM      8  C   UNL A   1      34.052  32.810  29.978  1.00  0.00     0.016 A 
ATOM      9  C   UNL A   1      36.618  33.798  29.679  1.00  0.00     0.010 A 
ATOM     10  C   UNL A   1      35.101  32.251  30.718  1.00  0.00     0.010 A 
ATOM     11  C   UNL A   1      36.399  32.733  30.556  1.00  0.00    -0.014 A 
BRANCH  11  12
ATOM     12  C   UNL A   1      37.551  32.103  31.241  1.00  0.00     0.031 A 
ATOM     13  C   UNL A   1      38.415  31.154  30.486  1.00  0.00     0.074 A 
ATOM     14  C   UNL A   1      37.823  32.390  32.525  1.00  0.00     0.049 A 
ATOM     15  N   UNL A   1      39.500  30.547  30.882  1.00  0.00    -0.248 NA
ATOM     16  C   UNL A   1      37.979  30.809  29.127  1.00  0.00     0.031 C 
ATOM     17  C   UNL A   1      36.967  33.214  33.354  1.00  0.00     0.029 A 
ATOM     18  N   UNL A   1      38.862  32.057  33.355  1.00  0.00    -0.354 N 
ATOM     19  C   UNL A   1      39.848  29.700  29.843  1.00  0.00     0.074 A 
ATOM     20  C   UNL A   1      38.870  29.888  28.792  1.00  0.00     0.031 C 
ATOM     21  C   UNL A   1      37.535  33.387  34.555  1.00  0.00     0.029 A 
ATOM     22  C   UNL A   1      38.810  32.694  34.576  1.00  0.00     0.049 A 
ATOM     23  H   UNL A   1      39.573  31.426  33.105  1.00  0.00     0.167 HD
ATOM     24  C   UNL A   1      40.874  28.821  29.802  1.00  0.00     0.037 A 
ATOM     25  C   UNL A   1      39.711  32.738  35.578  1.00  0.00     0.037 A 
ATOM     26  C   UNL A   1      41.816  28.644  30.876  1.00  0.00     0.049 A 
ATOM     27  C   UNL A   1      40.930  31.871  35.439  1.00  0.00     0.074 A 
ATOM     28  C   UNL A   1      42.885  27.770  30.955  1.00  0.00     0.029 A 
ATOM     29  N   UNL A   1      41.792  29.356  32.071  1.00  0.00    -0.354 N 
ATOM     30  N   UNL A   1      41.276  31.101  34.435  1.00  0.00    -0.248 NA
ATOM     31  C   UNL A   1      41.856  31.833  36.577  1.00  0.00     0.031 C 
ATOM     32  C   UNL A   1      43.482  27.926  32.211  1.00  0.00     0.029 A 
ATOM     33  C   UNL A   1      42.820  28.932  32.898  1.00  0.00     0.049 A 
ATOM     34  H   UNL A   1      41.140  30.058  32.295  1.00  0.00     0.167 HD
ATOM     35  C   UNL A   1      42.430  30.452  34.836  1.00  0.00     0.074 A 
ATOM     36  C   UNL A   1      42.774  30.981  36.142  1.00  0.00     0.031 C 
ATOM     37  C   UNL A   1      43.117  29.469  34.202  1.00  0.00     0.037 A 
BRANCH  24  38
ATOM     38  C   UNL A   1      40.954  27.942  28.592  1.00  0.00     0.064 A 
ATOM     39  C   UNL A   1      41.721  28.289  27.470  1.00  0.00     0.173 A 
ATOM     40  C   UNL A   1      40.196  26.762  28.532  1.00  0.00     0.173 A 
ATOM     41  F   UNL A   1      42.437  29.424  27.466  1.00  0.00    -0.203 F 
ATOM     42  C   UNL A   1      41.695  27.508  26.317  1.00  0.00     0.198 A 
ATOM     43  C   UNL A   1      40.197  25.969  27.389  1.00  0.00     0.198 A 
ATOM     44  F   UNL A   1      39.438  26.392  29.573  1.00  0.00    -0.203 F 
ATOM     45  F   UNL A   1      42.377  27.897  25.232  1.00  0.00    -0.200 F 
ATOM     46  C   UNL A   1      40.936  26.348  26.279  1.00  0.00     0.200 A 
ATOM     47  F   UNL A   1      39.464  24.847  27.354  1.00  0.00    -0.200 F 
ATOM     48  F   UNL A   1      40.901  25.606  25.163  1.00  0.00    -0.200 F 
ENDBRANCH  24  38
BRANCH  25  49
ATOM     49  C   UNL A   1      39.529  33.644  36.751  1.00  0.00     0.064 A 
ATOM     50  C   UNL A   1      40.119  34.919  36.762  1.00  0.00     0.173 A 
ATOM     51  C   UNL A   1      38.770  33.282  37.872  1.00  0.00     0.173 A 
ATOM     52  F   UNL A   1      40.867  35.320  35.723  1.00  0.00    -0.203 F 
ATOM     53  C   UNL A   1      39.971  35.783  37.848  1.00  0.00     0.198 A 
ATOM     54  C   UNL A   1      38.588  34.161  38.942  1.00  0.00     0.198 A 
ATOM     55  F   UNL A   1      38.179  32.079  37.925  1.00  0.00    -0.203 F 
ATOM     56  F   UNL A   1      40.583  36.974  37.845  1.00  0.00    -0.200 F 
ATOM     57  C   UNL A   1      39.196  35.406  38.933  1.00  0.00     0.200 A 
ATOM     58  F   UNL A   1      37.818  33.802  39.978  1.00  0.00    -0.200 F 
ATOM     59  F   UNL A   1      39.039  36.241  39.970  1.00  0.00    -0.200 F 
ENDBRANCH  25  49
BRANCH  37  60
ATOM     60  C   UNL A   1      44.277  28.883  34.948  1.00  0.00     0.064 A 
ATOM     61  C   UNL A   1      44.113  27.762  35.775  1.00  0.00     0.173 A 
ATOM     62  C   UNL A   1      45.562  29.421  34.805  1.00  0.00     0.173 A 
ATOM     63  F   UNL A   1      42.896  27.227  35.956  1.00  0.00    -0.203 F 
ATOM     64  C   UNL A   1      45.196  27.210  36.450  1.00  0.00     0.198 A 
ATOM     65  C   UNL A   1      46.648  28.850  35.460  1.00  0.00     0.198 A 
ATOM     66  F   UNL A   1      45.765  30.493  34.024  1.00  0.00    -0.203 F 
ATOM     67  F   UNL A   1      45.012  26.167  37.270  1.00  0.00    -0.200 F 
ATOM     68  C   UNL A   1      46.464  27.749  36.286  1.00  0.00     0.200 A 
ATOM     69  F   UNL A   1      47.874  29.364  35.294  1.00  0.00    -0.200 F 
ATOM     70  F   UNL A   1      47.509  27.213  36.931  1.00  0.00    -0.200 F 
ENDBRANCH  37  60
ENDBRANCH  11  12
ENDBRANCH   4   6
ENDBRANCH   3   4
ENDBRANCH   2   3
ENDBRANCH   1   2
BRANCH   1  71
ATOM     71  O   UNL A   1      31.836  30.240  26.415  1.00  0.00    -0.458 OA
BRANCH  71  72
ATOM     72  C   UNL A   1      32.547  29.350  25.674  1.00  0.00     0.338 C 
ATOM     73  O   UNL A   1      33.740  29.120  25.736  1.00  0.00    -0.246 OA
BRANCH  72  74
ATOM     74  C   UNL A   1      31.602  28.603  24.825  1.00  0.00     0.063 A 
ATOM     75  C   UNL A   1      31.134  27.358  25.251  1.00  0.00     0.016 A 
ATOM     76  C   UNL A   1      31.153  29.171  23.627  1.00  0.00     0.062 A 
ATOM     77  C   UNL A   1      30.192  26.684  24.479  1.00  0.00     0.005 A 
ATOM     78  C   UNL A   1      30.198  28.511  22.863  1.00  0.00     0.120 A 
ATOM     79  C   UNL A   1      29.739  27.254  23.285  1.00  0.00     0.046 A 
BRANCH  78  80
ATOM     80  O   UNL A   1      29.595  29.013  21.742  1.00  0.00    -0.488 OA
BRANCH  80  81
ATOM     81  C   UNL A   1      29.007  30.319  21.797  1.00  0.00     0.302 C 
BRANCH  81  82
ATOM     82  C   UNL A   1      27.732  30.433  22.632  1.00  0.00     0.379 C 
ATOM     83  F   UNL A   1      27.096  29.240  22.733  1.00  0.00    -0.207 F 
ATOM     84  F   UNL A   1      28.068  30.786  23.903  1.00  0.00    -0.207 F 
ENDBRANCH  81  82
ENDBRANCH  80  81
ENDBRANCH  78  80
ENDBRANCH  72  74
ENDBRANCH  71  72
ENDBRANCH   1  71
TORSDOF 14
ENDMDL
