MODEL 1
REMARK VINA RESULT:     -11.7      0.000      0.000
REMARK SMILES COc1cc(Cl)ccc1-c1ccc(CC(=O)OCCOC(=O)c2ccc(-c3c4nc(c(-c5c(F)c(F)c(F)c(F)c5F)c5ccc([nH]5)c(-c5c(F)c(F)c(F)c(F)c5F)c5nc(c(-c6c(F)c(F)c(F)c(F)c6F)c6ccc3[nH]6)C=C5)C=C4)cc2)cc1
REMARK SMILES IDX 18 1 17 2 15 3 16 4 14 5 13 6 10 7 11 8 87 9 12 10 86 11
REMARK SMILES IDX 9 12 3 13 4 14 5 15 8 16 6 17 7 18 2 19 1 20 19 21 20 22
REMARK SMILES IDX 21 23 22 24 23 25 24 26 85 27 25 28 84 29 26 30 27 31 28 32
REMARK SMILES IDX 78 33 29 34 83 35 77 36 79 37 30 38 82 39 76 40 75 41 31 43
REMARK SMILES IDX 63 44 43 45 62 46 44 47 47 48 61 49 80 50 45 51 46 52 60 54
REMARK SMILES IDX 81 55 48 56 32 57 33 58 41 59 34 60 35 61 39 62 42 63 36 64
REMARK SMILES IDX 37 65 40 66 38 67 64 68 65 69 73 70 66 71 67 72 71 73 74 74
REMARK SMILES IDX 68 75 69 76 72 77 70 78 49 79 50 80 58 81 51 82 52 83 56 84
REMARK SMILES IDX 59 85 53 86 54 87 57 88 55 89
REMARK H PARENT 79 42 47 53
REMARK Flexibility Score: inf
ROOT
ATOM      1  C   UNL A   1      31.100  29.769  24.738  1.00  0.00     0.274 C 
ENDROOT
BRANCH   1   2
ATOM      2  O   UNL A   1      31.804  28.857  23.873  1.00  0.00    -0.462 OA
BRANCH   2   3
ATOM      3  C   UNL A   1      31.060  27.853  23.340  1.00  0.00     0.310 C 
ATOM      4  O   UNL A   1      30.450  27.921  22.278  1.00  0.00    -0.252 OA
BRANCH   3   5
ATOM      5  C   UNL A   1      30.988  26.629  24.220  1.00  0.00     0.158 C 
BRANCH   5   6
ATOM      6  C   UNL A   1      32.272  25.872  24.455  1.00  0.00    -0.037 A 
ATOM      7  C   UNL A   1      34.591  24.315  24.898  1.00  0.00    -0.015 A 
ATOM      8  C   UNL A   1      34.308  24.826  23.627  1.00  0.00     0.009 A 
ATOM      9  C   UNL A   1      33.709  24.610  25.948  1.00  0.00     0.009 A 
ATOM     10  C   UNL A   1      33.159  25.593  23.405  1.00  0.00     0.005 A 
ATOM     11  C   UNL A   1      32.564  25.380  25.731  1.00  0.00     0.005 A 
BRANCH   7  12
ATOM     12  C   UNL A   1      35.782  23.490  25.144  1.00  0.00     0.024 A 
ATOM     13  C   UNL A   1      35.800  22.106  24.863  1.00  0.00     0.128 A 
ATOM     14  C   UNL A   1      36.933  21.338  25.151  1.00  0.00     0.067 A 
ATOM     15  C   UNL A   1      38.042  21.939  25.742  1.00  0.00     0.044 A 
ATOM     16  C   UNL A   1      36.922  24.072  25.724  1.00  0.00     0.014 A 
ATOM     17  Cl  UNL A   1      39.427  20.986  26.120  1.00  0.00    -0.084 Cl
ATOM     18  C   UNL A   1      38.045  23.301  26.026  1.00  0.00     0.021 A 
BRANCH  13  19
ATOM     19  O   UNL A   1      34.705  21.572  24.227  1.00  0.00    -0.496 OA
ATOM     20  C   UNL A   1      33.980  20.629  25.010  1.00  0.00     0.278 C 
ENDBRANCH  13  19
ENDBRANCH   7  12
ENDBRANCH   5   6
ENDBRANCH   3   5
ENDBRANCH   2   3
ENDBRANCH   1   2
BRANCH   1  21
ATOM     21  C   UNL A   1      31.747  29.806  26.121  1.00  0.00     0.275 C 
BRANCH  21  22
ATOM     22  O   UNL A   1      33.058  30.393  26.025  1.00  0.00    -0.458 OA
BRANCH  22  23
ATOM     23  C   UNL A   1      33.360  31.314  26.964  1.00  0.00     0.338 C 
ATOM     24  O   UNL A   1      32.729  32.307  27.273  1.00  0.00    -0.246 OA
BRANCH  23  25
ATOM     25  C   UNL A   1      34.641  30.958  27.593  1.00  0.00     0.060 A 
ATOM     26  C   UNL A   1      34.885  29.644  28.004  1.00  0.00     0.016 A 
ATOM     27  C   UNL A   1      35.559  31.971  27.870  1.00  0.00     0.016 A 
ATOM     28  C   UNL A   1      36.033  29.350  28.739  1.00  0.00     0.010 A 
ATOM     29  C   UNL A   1      36.732  31.664  28.559  1.00  0.00     0.010 A 
ATOM     30  C   UNL A   1      36.965  30.357  29.022  1.00  0.00    -0.014 A 
BRANCH  30  31
ATOM     31  C   UNL A   1      38.174  30.066  29.831  1.00  0.00     0.031 A 
ATOM     32  C   UNL A   1      39.239  29.159  29.287  1.00  0.00     0.074 A 
ATOM     33  C   UNL A   1      38.303  30.597  31.061  1.00  0.00     0.049 A 
ATOM     34  N   UNL A   1      40.291  28.661  29.887  1.00  0.00    -0.248 NA
ATOM     35  C   UNL A   1      39.100  28.752  27.879  1.00  0.00     0.031 C 
ATOM     36  C   UNL A   1      37.354  31.515  31.689  1.00  0.00     0.029 A 
ATOM     37  N   UNL A   1      39.282  30.426  32.007  1.00  0.00    -0.354 N 
ATOM     38  C   UNL A   1      40.918  27.859  28.945  1.00  0.00     0.074 A 
ATOM     39  C   UNL A   1      40.129  27.929  27.733  1.00  0.00     0.031 C 
ATOM     40  C   UNL A   1      37.797  31.829  32.916  1.00  0.00     0.029 A 
ATOM     41  C   UNL A   1      39.031  31.094  33.179  1.00  0.00     0.049 A 
ATOM     42  H   UNL A   1      40.086  29.877  31.859  1.00  0.00     0.167 HD
ATOM     43  C   UNL A   1      42.051  27.130  29.080  1.00  0.00     0.037 A 
ATOM     44  C   UNL A   1      39.704  31.087  34.345  1.00  0.00     0.037 A 
ATOM     45  C   UNL A   1      42.852  27.083  30.275  1.00  0.00     0.049 A 
ATOM     46  C   UNL A   1      40.940  30.244  34.481  1.00  0.00     0.074 A 
ATOM     47  C   UNL A   1      44.028  26.390  30.502  1.00  0.00     0.029 A 
ATOM     48  N   UNL A   1      42.559  27.767  31.445  1.00  0.00    -0.354 N 
ATOM     49  N   UNL A   1      41.515  29.472  33.592  1.00  0.00    -0.248 NA
ATOM     50  C   UNL A   1      41.614  30.263  35.787  1.00  0.00     0.031 C 
ATOM     51  C   UNL A   1      44.433  26.631  31.820  1.00  0.00     0.029 A 
ATOM     52  C   UNL A   1      43.525  27.501  32.402  1.00  0.00     0.049 A 
ATOM     53  H   UNL A   1      41.779  28.355  31.577  1.00  0.00     0.167 HD
ATOM     54  C   UNL A   1      42.622  28.923  34.223  1.00  0.00     0.074 A 
ATOM     55  C   UNL A   1      42.647  29.461  35.568  1.00  0.00     0.031 C 
ATOM     56  C   UNL A   1      43.533  28.049  33.734  1.00  0.00     0.037 A 
BRANCH  43  57
ATOM     57  C   UNL A   1      42.484  26.301  27.909  1.00  0.00     0.064 A 
ATOM     58  C   UNL A   1      41.965  25.020  27.682  1.00  0.00     0.173 A 
ATOM     59  C   UNL A   1      43.405  26.813  26.982  1.00  0.00     0.173 A 
ATOM     60  F   UNL A   1      41.092  24.483  28.548  1.00  0.00    -0.203 F 
ATOM     61  C   UNL A   1      42.363  24.273  26.576  1.00  0.00     0.198 A 
ATOM     62  C   UNL A   1      43.785  26.072  25.868  1.00  0.00     0.198 A 
ATOM     63  F   UNL A   1      43.929  28.036  27.155  1.00  0.00    -0.203 F 
ATOM     64  F   UNL A   1      41.878  23.037  26.395  1.00  0.00    -0.200 F 
ATOM     65  C   UNL A   1      43.268  24.802  25.668  1.00  0.00     0.200 A 
ATOM     66  F   UNL A   1      44.655  26.587  24.987  1.00  0.00    -0.200 F 
ATOM     67  F   UNL A   1      43.646  24.082  24.601  1.00  0.00    -0.200 F 
ENDBRANCH  43  57
BRANCH  44  68
ATOM     68  C   UNL A   1      39.202  31.893  35.486  1.00  0.00     0.064 A 
ATOM     69  C   UNL A   1      39.594  33.227  35.649  1.00  0.00     0.173 A 
ATOM     70  C   UNL A   1      38.318  31.348  36.428  1.00  0.00     0.173 A 
ATOM     71  F   UNL A   1      40.458  33.782  34.787  1.00  0.00    -0.203 F 
ATOM     72  C   UNL A   1      39.124  33.987  36.719  1.00  0.00     0.198 A 
ATOM     73  C   UNL A   1      37.832  32.114  37.484  1.00  0.00     0.198 A 
ATOM     74  F   UNL A   1      37.918  30.072  36.313  1.00  0.00    -0.203 F 
ATOM     75  F   UNL A   1      39.538  35.251  36.872  1.00  0.00    -0.200 F 
ATOM     76  C   UNL A   1      38.239  33.432  37.631  1.00  0.00     0.200 A 
ATOM     77  F   UNL A   1      36.970  31.577  38.358  1.00  0.00    -0.200 F 
ATOM     78  F   UNL A   1      37.783  34.164  38.656  1.00  0.00    -0.200 F 
ENDBRANCH  44  68
BRANCH  56  79
ATOM     79  C   UNL A   1      44.644  27.637  34.651  1.00  0.00     0.064 A 
ATOM     80  C   UNL A   1      44.524  26.518  35.487  1.00  0.00     0.173 A 
ATOM     81  C   UNL A   1      45.853  28.349  34.668  1.00  0.00     0.173 A 
ATOM     82  F   UNL A   1      43.380  25.817  35.516  1.00  0.00    -0.203 F 
ATOM     83  C   UNL A   1      45.570  26.136  36.323  1.00  0.00     0.198 A 
ATOM     84  C   UNL A   1      46.903  27.952  35.489  1.00  0.00     0.198 A 
ATOM     85  F   UNL A   1      46.015  29.424  33.883  1.00  0.00    -0.203 F 
ATOM     86  F   UNL A   1      45.422  25.085  37.140  1.00  0.00    -0.200 F 
ATOM     87  C   UNL A   1      46.759  26.850  36.319  1.00  0.00     0.200 A 
ATOM     88  F   UNL A   1      48.055  28.638  35.481  1.00  0.00    -0.200 F 
ATOM     89  F   UNL A   1      47.767  26.479  37.122  1.00  0.00    -0.200 F 
ENDBRANCH  56  79
ENDBRANCH  30  31
ENDBRANCH  23  25
ENDBRANCH  22  23
ENDBRANCH  21  22
ENDBRANCH   1  21
TORSDOF 14
ENDMDL
MODEL 2
REMARK VINA RESULT:     -11.6      4.259      9.765
REMARK SMILES COc1cc(Cl)ccc1-c1ccc(CC(=O)OCCOC(=O)c2ccc(-c3c4nc(c(-c5c(F)c(F)c(F)c(F)c5F)c5ccc([nH]5)c(-c5c(F)c(F)c(F)c(F)c5F)c5nc(c(-c6c(F)c(F)c(F)c(F)c6F)c6ccc3[nH]6)C=C5)C=C4)cc2)cc1
REMARK SMILES IDX 18 1 17 2 15 3 16 4 14 5 13 6 10 7 11 8 87 9 12 10 86 11
REMARK SMILES IDX 9 12 3 13 4 14 5 15 8 16 6 17 7 18 2 19 1 20 19 21 20 22
REMARK SMILES IDX 21 23 22 24 23 25 24 26 85 27 25 28 84 29 26 30 27 31 28 32
REMARK SMILES IDX 78 33 29 34 83 35 77 36 79 37 30 38 82 39 76 40 75 41 31 43
REMARK SMILES IDX 63 44 43 45 62 46 44 47 47 48 61 49 80 50 45 51 46 52 60 54
REMARK SMILES IDX 81 55 48 56 32 57 33 58 41 59 34 60 35 61 39 62 42 63 36 64
REMARK SMILES IDX 37 65 40 66 38 67 64 68 65 69 73 70 66 71 67 72 71 73 74 74
REMARK SMILES IDX 68 75 69 76 72 77 70 78 49 79 50 80 58 81 51 82 52 83 56 84
REMARK SMILES IDX 59 85 53 86 54 87 57 88 55 89
REMARK H PARENT 79 42 47 53
REMARK Flexibility Score: inf
ROOT
ATOM      1  C   UNL A   1      35.564  20.175  25.042  1.00  0.00     0.274 C 
ENDROOT
BRANCH   1   2
ATOM      2  O   UNL A   1      34.332  20.584  24.415  1.00  0.00    -0.462 OA
BRANCH   2   3
ATOM      3  C   UNL A   1      33.278  20.774  25.250  1.00  0.00     0.310 C 
ATOM      4  O   UNL A   1      32.155  20.310  25.078  1.00  0.00    -0.252 OA
BRANCH   3   5
ATOM      5  C   UNL A   1      33.590  21.688  26.410  1.00  0.00     0.158 C 
BRANCH   5   6
ATOM      6  C   UNL A   1      33.213  23.141  26.263  1.00  0.00    -0.037 A 
ATOM      7  C   UNL A   1      32.516  25.881  26.150  1.00  0.00    -0.015 A 
ATOM      8  C   UNL A   1      33.800  25.456  25.793  1.00  0.00     0.009 A 
ATOM      9  C   UNL A   1      31.580  24.914  26.546  1.00  0.00     0.009 A 
ATOM     10  C   UNL A   1      34.147  24.102  25.853  1.00  0.00     0.005 A 
ATOM     11  C   UNL A   1      31.922  23.561  26.601  1.00  0.00     0.005 A 
BRANCH   7  12
ATOM     12  C   UNL A   1      32.141  27.301  26.115  1.00  0.00     0.024 A 
ATOM     13  C   UNL A   1      31.618  27.904  24.950  1.00  0.00     0.128 A 
ATOM     14  C   UNL A   1      31.315  29.269  24.933  1.00  0.00     0.067 A 
ATOM     15  C   UNL A   1      31.554  30.044  26.066  1.00  0.00     0.044 A 
ATOM     16  C   UNL A   1      32.355  28.103  27.249  1.00  0.00     0.014 A 
ATOM     17  Cl  UNL A   1      31.204  31.730  26.035  1.00  0.00    -0.084 Cl
ATOM     18  C   UNL A   1      32.068  29.469  27.224  1.00  0.00     0.021 A 
BRANCH  13  19
ATOM     19  O   UNL A   1      31.346  27.088  23.879  1.00  0.00    -0.496 OA
ATOM     20  C   UNL A   1      30.687  27.744  22.800  1.00  0.00     0.278 C 
ENDBRANCH  13  19
ENDBRANCH   7  12
ENDBRANCH   5   6
ENDBRANCH   3   5
ENDBRANCH   2   3
ENDBRANCH   1   2
BRANCH   1  21
ATOM     21  C   UNL A   1      36.704  21.113  24.652  1.00  0.00     0.275 C 
BRANCH  21  22
ATOM     22  O   UNL A   1      37.281  21.690  25.837  1.00  0.00    -0.458 OA
BRANCH  22  23
ATOM     23  C   UNL A   1      38.601  21.471  26.015  1.00  0.00     0.338 C 
ATOM     24  O   UNL A   1      39.229  20.451  25.802  1.00  0.00    -0.246 OA
BRANCH  23  25
ATOM     25  C   UNL A   1      39.224  22.691  26.551  1.00  0.00     0.060 A 
ATOM     26  C   UNL A   1      38.770  23.951  26.150  1.00  0.00     0.016 A 
ATOM     27  C   UNL A   1      40.340  22.568  27.378  1.00  0.00     0.016 A 
ATOM     28  C   UNL A   1      39.465  25.094  26.540  1.00  0.00     0.010 A 
ATOM     29  C   UNL A   1      41.003  23.717  27.810  1.00  0.00     0.010 A 
ATOM     30  C   UNL A   1      40.587  24.986  27.373  1.00  0.00    -0.014 A 
BRANCH  30  31
ATOM     31  C   UNL A   1      41.357  26.191  27.768  1.00  0.00     0.031 A 
ATOM     32  C   UNL A   1      40.688  27.284  28.550  1.00  0.00     0.074 A 
ATOM     33  C   UNL A   1      42.647  26.313  27.406  1.00  0.00     0.049 A 
ATOM     34  N   UNL A   1      41.136  28.475  28.861  1.00  0.00    -0.248 NA
ATOM     35  C   UNL A   1      39.330  27.004  29.043  1.00  0.00     0.031 C 
ATOM     36  C   UNL A   1      43.417  25.309  26.673  1.00  0.00     0.029 A 
ATOM     37  N   UNL A   1      43.532  27.344  27.595  1.00  0.00    -0.354 N 
ATOM     38  C   UNL A   1      40.106  29.095  29.555  1.00  0.00     0.074 A 
ATOM     39  C   UNL A   1      39.007  28.155  29.616  1.00  0.00     0.031 C 
ATOM     40  C   UNL A   1      44.662  25.772  26.476  1.00  0.00     0.029 A 
ATOM     41  C   UNL A   1      44.759  27.123  27.021  1.00  0.00     0.049 A 
ATOM     42  H   UNL A   1      43.309  28.162  28.095  1.00  0.00     0.167 HD
ATOM     43  C   UNL A   1      40.083  30.338  30.092  1.00  0.00     0.037 A 
ATOM     44  C   UNL A   1      45.830  27.933  26.918  1.00  0.00     0.037 A 
ATOM     45  C   UNL A   1      41.185  31.262  30.057  1.00  0.00     0.049 A 
ATOM     46  C   UNL A   1      45.766  29.319  27.493  1.00  0.00     0.074 A 
ATOM     47  C   UNL A   1      41.264  32.536  30.592  1.00  0.00     0.029 A 
ATOM     48  N   UNL A   1      42.408  31.004  29.457  1.00  0.00    -0.354 N 
ATOM     49  N   UNL A   1      44.783  29.906  28.129  1.00  0.00    -0.248 NA
ATOM     50  C   UNL A   1      46.960  30.160  27.326  1.00  0.00     0.031 C 
ATOM     51  C   UNL A   1      42.526  33.061  30.291  1.00  0.00     0.029 A 
ATOM     52  C   UNL A   1      43.244  32.101  29.597  1.00  0.00     0.049 A 
ATOM     53  H   UNL A   1      42.649  30.165  28.999  1.00  0.00     0.167 HD
ATOM     54  C   UNL A   1      45.239  31.176  28.448  1.00  0.00     0.074 A 
ATOM     55  C   UNL A   1      46.595  31.273  27.948  1.00  0.00     0.031 C 
ATOM     56  C   UNL A   1      44.591  32.175  29.094  1.00  0.00     0.037 A 
BRANCH  43  57
ATOM     57  C   UNL A   1      38.811  30.783  30.748  1.00  0.00     0.064 A 
ATOM     58  C   UNL A   1      38.630  30.702  32.135  1.00  0.00     0.173 A 
ATOM     59  C   UNL A   1      37.774  31.334  29.979  1.00  0.00     0.173 A 
ATOM     60  F   UNL A   1      39.589  30.170  32.909  1.00  0.00    -0.203 F 
ATOM     61  C   UNL A   1      37.450  31.140  32.730  1.00  0.00     0.198 A 
ATOM     62  C   UNL A   1      36.604  31.790  30.579  1.00  0.00     0.198 A 
ATOM     63  F   UNL A   1      37.900  31.436  28.648  1.00  0.00    -0.203 F 
ATOM     64  F   UNL A   1      37.285  31.024  34.055  1.00  0.00    -0.200 F 
ATOM     65  C   UNL A   1      36.441  31.689  31.952  1.00  0.00     0.200 A 
ATOM     66  F   UNL A   1      35.632  32.327  29.827  1.00  0.00    -0.200 F 
ATOM     67  F   UNL A   1      35.307  32.116  32.527  1.00  0.00    -0.200 F 
ENDBRANCH  43  57
BRANCH  44  68
ATOM     68  C   UNL A   1      47.047  27.453  26.217  1.00  0.00     0.064 A 
ATOM     69  C   UNL A   1      47.171  27.580  24.828  1.00  0.00     0.173 A 
ATOM     70  C   UNL A   1      48.108  26.867  26.921  1.00  0.00     0.173 A 
ATOM     71  F   UNL A   1      46.170  28.110  24.111  1.00  0.00    -0.203 F 
ATOM     72  C   UNL A   1      48.313  27.131  24.166  1.00  0.00     0.198 A 
ATOM     73  C   UNL A   1      49.257  26.440  26.262  1.00  0.00     0.198 A 
ATOM     74  F   UNL A   1      48.031  26.723  28.253  1.00  0.00    -0.203 F 
ATOM     75  F   UNL A   1      48.396  27.234  22.834  1.00  0.00    -0.200 F 
ATOM     76  C   UNL A   1      49.357  26.568  24.885  1.00  0.00     0.200 A 
ATOM     77  F   UNL A   1      50.268  25.904  26.961  1.00  0.00    -0.200 F 
ATOM     78  F   UNL A   1      50.457  26.142  24.249  1.00  0.00    -0.200 F 
ENDBRANCH  44  68
BRANCH  56  79
ATOM     79  C   UNL A   1      45.348  33.449  29.314  1.00  0.00     0.064 A 
ATOM     80  C   UNL A   1      46.147  33.635  30.452  1.00  0.00     0.173 A 
ATOM     81  C   UNL A   1      45.302  34.478  28.363  1.00  0.00     0.173 A 
ATOM     82  F   UNL A   1      46.209  32.684  31.396  1.00  0.00    -0.203 F 
ATOM     83  C   UNL A   1      46.859  34.817  30.637  1.00  0.00     0.198 A 
ATOM     84  C   UNL A   1      46.031  35.649  28.542  1.00  0.00     0.198 A 
ATOM     85  F   UNL A   1      44.554  34.343  27.258  1.00  0.00    -0.203 F 
ATOM     86  F   UNL A   1      47.589  34.990  31.748  1.00  0.00    -0.200 F 
ATOM     87  C   UNL A   1      46.805  35.820  29.680  1.00  0.00     0.200 A 
ATOM     88  F   UNL A   1      45.983  36.616  27.614  1.00  0.00    -0.200 F 
ATOM     89  F   UNL A   1      47.494  36.955  29.859  1.00  0.00    -0.200 F 
ENDBRANCH  56  79
ENDBRANCH  30  31
ENDBRANCH  23  25
ENDBRANCH  22  23
ENDBRANCH  21  22
ENDBRANCH   1  21
TORSDOF 14
ENDMDL
MODEL 3
REMARK VINA RESULT:     -11.6      2.973      8.816
REMARK SMILES COc1cc(Cl)ccc1-c1ccc(CC(=O)OCCOC(=O)c2ccc(-c3c4nc(c(-c5c(F)c(F)c(F)c(F)c5F)c5ccc([nH]5)c(-c5c(F)c(F)c(F)c(F)c5F)c5nc(c(-c6c(F)c(F)c(F)c(F)c6F)c6ccc3[nH]6)C=C5)C=C4)cc2)cc1
REMARK SMILES IDX 18 1 17 2 15 3 16 4 14 5 13 6 10 7 11 8 87 9 12 10 86 11
REMARK SMILES IDX 9 12 3 13 4 14 5 15 8 16 6 17 7 18 2 19 1 20 19 21 20 22
REMARK SMILES IDX 21 23 22 24 23 25 24 26 85 27 25 28 84 29 26 30 27 31 28 32
REMARK SMILES IDX 78 33 29 34 83 35 77 36 79 37 30 38 82 39 76 40 75 41 31 43
REMARK SMILES IDX 63 44 43 45 62 46 44 47 47 48 61 49 80 50 45 51 46 52 60 54
REMARK SMILES IDX 81 55 48 56 32 57 33 58 41 59 34 60 35 61 39 62 42 63 36 64
REMARK SMILES IDX 37 65 40 66 38 67 64 68 65 69 73 70 66 71 67 72 71 73 74 74
REMARK SMILES IDX 68 75 69 76 72 77 70 78 49 79 50 80 58 81 51 82 52 83 56 84
REMARK SMILES IDX 59 85 53 86 54 87 57 88 55 89
REMARK H PARENT 79 42 47 53
REMARK Flexibility Score: inf
ROOT
ATOM      1  C   UNL A   1      33.502  34.994  28.628  1.00  0.00     0.274 C 
ENDROOT
BRANCH   1   2
ATOM      2  O   UNL A   1      34.655  34.342  29.195  1.00  0.00    -0.462 OA
BRANCH   2   3
ATOM      3  C   UNL A   1      35.093  33.237  28.536  1.00  0.00     0.310 C 
ATOM      4  O   UNL A   1      35.914  33.245  27.624  1.00  0.00    -0.252 OA
BRANCH   3   5
ATOM      5  C   UNL A   1      34.419  31.965  28.986  1.00  0.00     0.158 C 
BRANCH   5   6
ATOM      6  C   UNL A   1      34.149  30.919  27.933  1.00  0.00    -0.037 A 
ATOM      7  C   UNL A   1      33.688  29.067  25.845  1.00  0.00    -0.015 A 
ATOM      8  C   UNL A   1      34.826  28.964  26.651  1.00  0.00     0.009 A 
ATOM      9  C   UNL A   1      32.774  30.098  26.110  1.00  0.00     0.009 A 
ATOM     10  C   UNL A   1      35.057  29.881  27.682  1.00  0.00     0.005 A 
ATOM     11  C   UNL A   1      33.000  31.012  27.141  1.00  0.00     0.005 A 
BRANCH   7  12
ATOM     12  C   UNL A   1      33.441  28.125  24.744  1.00  0.00     0.024 A 
ATOM     13  C   UNL A   1      32.881  26.849  24.969  1.00  0.00     0.128 A 
ATOM     14  C   UNL A   1      32.700  25.956  23.908  1.00  0.00     0.067 A 
ATOM     15  C   UNL A   1      33.099  26.320  22.623  1.00  0.00     0.044 A 
ATOM     16  C   UNL A   1      33.817  28.473  23.436  1.00  0.00     0.014 A 
ATOM     17  Cl  UNL A   1      32.901  25.210  21.322  1.00  0.00    -0.084 Cl
ATOM     18  C   UNL A   1      33.653  27.574  22.381  1.00  0.00     0.021 A 
BRANCH  13  19
ATOM     19  O   UNL A   1      32.449  26.558  26.241  1.00  0.00    -0.496 OA
ATOM     20  C   UNL A   1      31.037  26.632  26.408  1.00  0.00     0.278 C 
ENDBRANCH  13  19
ENDBRANCH   7  12
ENDBRANCH   5   6
ENDBRANCH   3   5
ENDBRANCH   2   3
ENDBRANCH   1   2
BRANCH   1  21
ATOM     21  C   UNL A   1      32.901  35.984  29.624  1.00  0.00     0.275 C 
BRANCH  21  22
ATOM     22  O   UNL A   1      32.309  35.266  30.721  1.00  0.00    -0.458 OA
BRANCH  22  23
ATOM     23  C   UNL A   1      32.563  35.760  31.952  1.00  0.00     0.338 C 
ATOM     24  O   UNL A   1      31.966  36.636  32.548  1.00  0.00    -0.246 OA
BRANCH  23  25
ATOM     25  C   UNL A   1      33.740  35.078  32.511  1.00  0.00     0.060 A 
ATOM     26  C   UNL A   1      34.997  35.689  32.469  1.00  0.00     0.016 A 
ATOM     27  C   UNL A   1      33.599  33.773  32.983  1.00  0.00     0.016 A 
ATOM     28  C   UNL A   1      36.128  34.973  32.857  1.00  0.00     0.010 A 
ATOM     29  C   UNL A   1      34.726  33.078  33.422  1.00  0.00     0.010 A 
ATOM     30  C   UNL A   1      36.002  33.662  33.336  1.00  0.00    -0.014 A 
BRANCH  30  31
ATOM     31  C   UNL A   1      37.200  32.876  33.721  1.00  0.00     0.031 A 
ATOM     32  C   UNL A   1      37.874  33.134  35.038  1.00  0.00     0.074 A 
ATOM     33  C   UNL A   1      37.695  31.950  32.880  1.00  0.00     0.049 A 
ATOM     34  N   UNL A   1      39.010  32.668  35.493  1.00  0.00    -0.248 NA
ATOM     35  C   UNL A   1      37.181  34.043  35.964  1.00  0.00     0.031 C 
ATOM     36  C   UNL A   1      37.114  31.586  31.588  1.00  0.00     0.029 A 
ATOM     37  N   UNL A   1      38.809  31.156  32.984  1.00  0.00    -0.354 N 
ATOM     38  C   UNL A   1      39.183  33.251  36.741  1.00  0.00     0.074 A 
ATOM     39  C   UNL A   1      38.041  34.111  36.971  1.00  0.00     0.031 C 
ATOM     40  C   UNL A   1      37.876  30.638  31.019  1.00  0.00     0.029 A 
ATOM     41  C   UNL A   1      39.023  30.368  31.881  1.00  0.00     0.049 A 
ATOM     42  H   UNL A   1      39.398  31.153  33.773  1.00  0.00     0.167 HD
ATOM     43  C   UNL A   1      40.204  33.083  37.614  1.00  0.00     0.037 A 
ATOM     44  C   UNL A   1      40.048  29.547  31.584  1.00  0.00     0.037 A 
ATOM     45  C   UNL A   1      41.325  32.206  37.398  1.00  0.00     0.049 A 
ATOM     46  C   UNL A   1      41.185  29.403  32.555  1.00  0.00     0.074 A 
ATOM     47  C   UNL A   1      42.398  31.953  38.234  1.00  0.00     0.029 A 
ATOM     48  N   UNL A   1      41.510  31.433  36.262  1.00  0.00    -0.354 N 
ATOM     49  N   UNL A   1      41.352  29.973  33.723  1.00  0.00    -0.248 NA
ATOM     50  C   UNL A   1      42.283  28.509  32.161  1.00  0.00     0.031 C 
ATOM     51  C   UNL A   1      43.250  31.046  37.592  1.00  0.00     0.029 A 
ATOM     52  C   UNL A   1      42.688  30.711  36.370  1.00  0.00     0.049 A 
ATOM     53  H   UNL A   1      40.896  31.400  35.494  1.00  0.00     0.167 HD
ATOM     54  C   UNL A   1      42.562  29.501  34.208  1.00  0.00     0.074 A 
ATOM     55  C   UNL A   1      43.084  28.585  33.215  1.00  0.00     0.031 C 
ATOM     56  C   UNL A   1      43.188  29.803  35.371  1.00  0.00     0.037 A 
BRANCH  43  57
ATOM     57  C   UNL A   1      40.169  33.883  38.881  1.00  0.00     0.064 A 
ATOM     58  C   UNL A   1      40.859  35.097  39.004  1.00  0.00     0.173 A 
ATOM     59  C   UNL A   1      39.403  33.446  39.973  1.00  0.00     0.173 A 
ATOM     60  F   UNL A   1      41.615  35.548  37.992  1.00  0.00    -0.203 F 
ATOM     61  C   UNL A   1      40.798  35.837  40.182  1.00  0.00     0.198 A 
ATOM     62  C   UNL A   1      39.328  34.198  41.141  1.00  0.00     0.198 A 
ATOM     63  F   UNL A   1      38.723  32.291  39.902  1.00  0.00    -0.203 F 
ATOM     64  F   UNL A   1      41.491  36.979  40.290  1.00  0.00    -0.200 F 
ATOM     65  C   UNL A   1      40.028  35.390  41.246  1.00  0.00     0.200 A 
ATOM     66  F   UNL A   1      38.579  33.769  42.166  1.00  0.00    -0.200 F 
ATOM     67  F   UNL A   1      39.966  36.108  42.377  1.00  0.00    -0.200 F 
ENDBRANCH  43  57
BRANCH  44  68
ATOM     68  C   UNL A   1      40.050  28.814  30.293  1.00  0.00     0.064 A 
ATOM     69  C   UNL A   1      39.456  27.551  30.184  1.00  0.00     0.173 A 
ATOM     70  C   UNL A   1      40.640  29.365  29.146  1.00  0.00     0.173 A 
ATOM     71  F   UNL A   1      38.903  26.975  31.261  1.00  0.00    -0.203 F 
ATOM     72  C   UNL A   1      39.456  26.861  28.974  1.00  0.00     0.198 A 
ATOM     73  C   UNL A   1      40.620  28.684  27.932  1.00  0.00     0.198 A 
ATOM     74  F   UNL A   1      41.224  30.571  29.205  1.00  0.00    -0.203 F 
ATOM     75  F   UNL A   1      38.909  25.641  28.901  1.00  0.00    -0.200 F 
ATOM     76  C   UNL A   1      40.032  27.431  27.847  1.00  0.00     0.200 A 
ATOM     77  F   UNL A   1      41.170  29.241  26.844  1.00  0.00    -0.200 F 
ATOM     78  F   UNL A   1      40.027  26.769  26.683  1.00  0.00    -0.200 F 
ENDBRANCH  44  68
BRANCH  56  79
ATOM     79  C   UNL A   1      44.494  29.119  35.640  1.00  0.00     0.064 A 
ATOM     80  C   UNL A   1      44.548  27.881  36.296  1.00  0.00     0.173 A 
ATOM     81  C   UNL A   1      45.699  29.692  35.208  1.00  0.00     0.173 A 
ATOM     82  F   UNL A   1      43.422  27.304  36.741  1.00  0.00    -0.203 F 
ATOM     83  C   UNL A   1      45.767  27.248  36.526  1.00  0.00     0.198 A 
ATOM     84  C   UNL A   1      46.913  29.047  35.421  1.00  0.00     0.198 A 
ATOM     85  F   UNL A   1      45.696  30.874  34.574  1.00  0.00    -0.203 F 
ATOM     86  F   UNL A   1      45.800  26.082  37.185  1.00  0.00    -0.200 F 
ATOM     87  C   UNL A   1      46.946  27.829  36.084  1.00  0.00     0.200 A 
ATOM     88  F   UNL A   1      48.053  29.605  34.989  1.00  0.00    -0.200 F 
ATOM     89  F   UNL A   1      48.118  27.216  36.303  1.00  0.00    -0.200 F 
ENDBRANCH  56  79
ENDBRANCH  30  31
ENDBRANCH  23  25
ENDBRANCH  22  23
ENDBRANCH  21  22
ENDBRANCH   1  21
TORSDOF 14
ENDMDL
