MODEL 1
REMARK VINA RESULT:     -13.4      0.000      0.000
REMARK SMILES Cc1cccc(-c2ncc(C[NH+]3CCC4(CC3)NC(=O)C[C@H]4C(=O)OCCOC(=O)c3ccc(-c4c5nc(c(-c6c(F)c(F)c(F)c(F)c6F)c6ccc([nH]6)c(-c6c(F)c(F)c(F)c(F)c6F)c6nc(c(-c7c(F)c(F)c(F)c(F)c7F)c7ccc4[nH]7)C=C6)C=C5)cc3)cn2)c1
REMARK SMILES IDX 26 1 25 2 23 3 24 4 22 5 12 6 13 7 17 8 14 10 16 11 15 12
REMARK SMILES IDX 18 13 19 14 21 16 20 17 11 18 10 19 7 20 8 21 95 22 9 23
REMARK SMILES IDX 94 24 6 25 1 26 2 27 3 28 96 29 4 30 5 31 27 32 28 33 29 34
REMARK SMILES IDX 30 35 31 36 32 37 93 38 33 39 92 40 34 41 35 42 36 43 86 44
REMARK SMILES IDX 37 45 91 46 85 47 87 48 38 49 90 50 84 51 83 52 39 54 71 55
REMARK SMILES IDX 51 56 70 57 52 58 55 59 69 60 88 61 53 62 54 63 68 65 89 66
REMARK SMILES IDX 56 67 40 68 41 69 49 70 42 71 43 72 47 73 50 74 44 75 45 76
REMARK SMILES IDX 48 77 46 78 72 79 73 80 81 81 74 82 75 83 79 84 82 85 76 86
REMARK SMILES IDX 77 87 80 88 78 89 57 90 58 91 66 92 59 93 60 94 64 95 67 96
REMARK SMILES IDX 61 97 62 98 65 99 63 100
REMARK H PARENT 12 9 18 15 87 53 55 64
REMARK Flexibility Score: inf
ROOT
ATOM      1  C   UNL A   1      31.568  29.133  26.089  1.00  0.00     0.274 C 
ENDROOT
BRANCH   1   2
ATOM      2  O   UNL A   1      32.334  28.148  25.293  1.00  0.00    -0.462 OA
BRANCH   2   3
ATOM      3  C   UNL A   1      32.711  28.544  24.077  1.00  0.00     0.311 C 
ATOM      4  O   UNL A   1      33.837  28.992  23.936  1.00  0.00    -0.252 OA
BRANCH   3   5
ATOM      5  C   UNL A   1      31.881  28.369  22.814  1.00  0.00     0.134 C 
ATOM      6  N   UNL A   1      33.532  24.611  22.392  1.00  0.00    -0.331 N 
ATOM      7  C   UNL A   1      32.847  25.081  21.187  1.00  0.00     0.264 C 
ATOM      8  C   UNL A   1      33.574  25.672  23.357  1.00  0.00     0.264 C 
ATOM      9  H   UNL A   1      34.429  24.360  21.975  1.00  0.00     0.348 HD
ATOM     10  C   UNL A   1      31.711  26.172  21.289  1.00  0.00     0.091 C 
ATOM     11  C   UNL A   1      32.126  26.057  23.722  1.00  0.00     0.091 C 
ATOM     12  C   UNL A   1      31.472  26.893  22.653  1.00  0.00     0.064 C 
ATOM     13  N   UNL A   1      30.036  26.969  22.873  1.00  0.00    -0.349 N 
ATOM     14  C   UNL A   1      29.526  28.232  22.912  1.00  0.00     0.221 C 
ATOM     15  H   UNL A   1      29.475  26.168  22.985  1.00  0.00     0.164 HD
ATOM     16  C   UNL A   1      30.623  29.204  22.667  1.00  0.00     0.117 C 
ATOM     17  O   UNL A   1      28.339  28.517  23.071  1.00  0.00    -0.275 OA
BRANCH   6  18
ATOM     18  C   UNL A   1      33.366  23.274  22.993  1.00  0.00     0.302 C 
BRANCH  18  19
ATOM     19  C   UNL A   1      34.576  22.703  23.712  1.00  0.00     0.043 A 
ATOM     20  C   UNL A   1      36.855  22.714  25.224  1.00  0.00     0.159 A 
ATOM     21  N   UNL A   1      35.668  22.580  25.858  1.00  0.00    -0.236 NA
ATOM     22  N   UNL A   1      37.002  22.695  23.882  1.00  0.00    -0.236 NA
ATOM     23  C   UNL A   1      34.558  22.541  25.082  1.00  0.00     0.124 A 
ATOM     24  C   UNL A   1      35.853  22.676  23.152  1.00  0.00     0.124 A 
BRANCH  20  25
ATOM     25  C   UNL A   1      38.039  22.985  26.065  1.00  0.00     0.019 A 
ATOM     26  C   UNL A   1      41.468  21.458  26.988  1.00  0.00     0.044 C 
ATOM     27  C   UNL A   1      40.299  22.401  26.893  1.00  0.00    -0.050 A 
ATOM     28  C   UNL A   1      40.385  23.649  27.510  1.00  0.00     0.003 A 
ATOM     29  C   UNL A   1      39.123  22.081  26.187  1.00  0.00     0.015 A 
ATOM     30  C   UNL A   1      39.315  24.539  27.442  1.00  0.00     0.001 A 
ATOM     31  C   UNL A   1      38.153  24.206  26.737  1.00  0.00     0.012 A 
ENDBRANCH  20  25
ENDBRANCH  18  19
ENDBRANCH   6  18
ENDBRANCH   3   5
ENDBRANCH   2   3
ENDBRANCH   1   2
BRANCH   1  32
ATOM     32  C   UNL A   1      32.187  30.318  26.975  1.00  0.00     0.275 C 
BRANCH  32  33
ATOM     33  O   UNL A   1      33.580  30.558  27.486  1.00  0.00    -0.458 OA
BRANCH  33  34
ATOM     34  C   UNL A   1      34.248  31.681  27.901  1.00  0.00     0.338 C 
ATOM     35  O   UNL A   1      33.749  32.792  27.999  1.00  0.00    -0.246 OA
BRANCH  34  36
ATOM     36  C   UNL A   1      35.679  31.454  28.145  1.00  0.00     0.060 A 
ATOM     37  C   UNL A   1      36.647  32.486  28.125  1.00  0.00     0.016 A 
ATOM     38  C   UNL A   1      35.935  30.225  28.709  1.00  0.00     0.016 A 
ATOM     39  C   UNL A   1      37.861  32.286  28.788  1.00  0.00     0.010 A 
ATOM     40  C   UNL A   1      36.969  30.151  29.586  1.00  0.00     0.010 A 
ATOM     41  C   UNL A   1      37.981  31.123  29.552  1.00  0.00    -0.014 A 
BRANCH  41  42
ATOM     42  C   UNL A   1      39.223  30.474  29.934  1.00  0.00     0.031 A 
ATOM     43  C   UNL A   1      39.736  29.310  29.189  1.00  0.00     0.074 A 
ATOM     44  C   UNL A   1      39.907  31.385  30.673  1.00  0.00     0.049 A 
ATOM     45  N   UNL A   1      40.236  28.249  29.730  1.00  0.00    -0.248 NA
ATOM     46  C   UNL A   1      39.651  29.208  27.723  1.00  0.00     0.031 C 
ATOM     47  C   UNL A   1      41.307  31.638  30.909  1.00  0.00     0.029 A 
ATOM     48  N   UNL A   1      39.286  32.459  31.356  1.00  0.00    -0.354 N 
ATOM     49  C   UNL A   1      40.905  27.605  28.702  1.00  0.00     0.074 A 
ATOM     50  C   UNL A   1      40.272  28.044  27.483  1.00  0.00     0.031 C 
ATOM     51  C   UNL A   1      41.409  32.505  31.945  1.00  0.00     0.029 A 
ATOM     52  C   UNL A   1      40.063  32.798  32.444  1.00  0.00     0.049 A 
ATOM     53  H   UNL A   1      38.439  32.890  31.097  1.00  0.00     0.167 HD
ATOM     54  C   UNL A   1      42.215  27.238  28.865  1.00  0.00     0.037 A 
ATOM     55  C   UNL A   1      39.497  32.479  33.642  1.00  0.00     0.037 A 
ATOM     56  C   UNL A   1      42.741  27.896  30.057  1.00  0.00     0.049 A 
ATOM     57  C   UNL A   1      40.198  31.252  34.150  1.00  0.00     0.074 A 
ATOM     58  C   UNL A   1      43.517  29.035  30.193  1.00  0.00     0.029 A 
ATOM     59  N   UNL A   1      42.194  27.635  31.304  1.00  0.00    -0.354 N 
ATOM     60  N   UNL A   1      40.660  30.298  33.386  1.00  0.00    -0.248 NA
ATOM     61  C   UNL A   1      40.547  31.093  35.551  1.00  0.00     0.031 C 
ATOM     62  C   UNL A   1      43.447  29.449  31.545  1.00  0.00     0.029 A 
ATOM     63  C   UNL A   1      42.581  28.598  32.212  1.00  0.00     0.049 A 
ATOM     64  H   UNL A   1      41.610  26.870  31.512  1.00  0.00     0.167 HD
ATOM     65  C   UNL A   1      41.457  29.484  34.139  1.00  0.00     0.074 A 
ATOM     66  C   UNL A   1      41.326  30.002  35.491  1.00  0.00     0.031 C 
ATOM     67  C   UNL A   1      42.215  28.481  33.610  1.00  0.00     0.037 A 
BRANCH  54  68
ATOM     68  C   UNL A   1      43.127  26.654  27.802  1.00  0.00     0.064 A 
ATOM     69  C   UNL A   1      43.690  27.471  26.793  1.00  0.00     0.173 A 
ATOM     70  C   UNL A   1      43.557  25.312  27.779  1.00  0.00     0.173 A 
ATOM     71  F   UNL A   1      43.456  28.788  26.741  1.00  0.00    -0.203 F 
ATOM     72  C   UNL A   1      44.543  26.977  25.804  1.00  0.00     0.198 A 
ATOM     73  C   UNL A   1      44.401  24.813  26.775  1.00  0.00     0.198 A 
ATOM     74  F   UNL A   1      43.205  24.457  28.749  1.00  0.00    -0.203 F 
ATOM     75  F   UNL A   1      45.033  27.811  24.874  1.00  0.00    -0.200 F 
ATOM     76  C   UNL A   1      44.889  25.644  25.785  1.00  0.00     0.200 A 
ATOM     77  F   UNL A   1      44.753  23.518  26.779  1.00  0.00    -0.200 F 
ATOM     78  F   UNL A   1      45.708  25.172  24.836  1.00  0.00    -0.200 F 
ENDBRANCH  54  68
BRANCH  55  79
ATOM     79  C   UNL A   1      38.003  32.729  33.689  1.00  0.00     0.064 A 
ATOM     80  C   UNL A   1      37.546  34.039  33.981  1.00  0.00     0.173 A 
ATOM     81  C   UNL A   1      37.041  31.839  33.192  1.00  0.00     0.173 A 
ATOM     82  F   UNL A   1      38.409  34.963  34.436  1.00  0.00    -0.203 F 
ATOM     83  C   UNL A   1      36.238  34.455  33.714  1.00  0.00     0.198 A 
ATOM     84  C   UNL A   1      35.720  32.253  32.946  1.00  0.00     0.198 A 
ATOM     85  F   UNL A   1      37.381  30.587  32.855  1.00  0.00    -0.203 F 
ATOM     86  F   UNL A   1      35.890  35.738  33.899  1.00  0.00    -0.200 F 
ATOM     87  C   UNL A   1      35.324  33.560  33.189  1.00  0.00     0.200 A 
ATOM     88  F   UNL A   1      34.847  31.404  32.381  1.00  0.00    -0.200 F 
ATOM     89  F   UNL A   1      34.092  33.969  32.853  1.00  0.00    -0.200 F 
ENDBRANCH  55  79
BRANCH  67  90
ATOM     90  C   UNL A   1      42.799  27.339  34.394  1.00  0.00     0.064 A 
ATOM     91  C   UNL A   1      42.033  26.255  34.848  1.00  0.00     0.173 A 
ATOM     92  C   UNL A   1      44.201  27.211  34.562  1.00  0.00     0.173 A 
ATOM     93  F   UNL A   1      40.717  26.175  34.608  1.00  0.00    -0.203 F 
ATOM     94  C   UNL A   1      42.610  25.177  35.511  1.00  0.00     0.198 A 
ATOM     95  C   UNL A   1      44.780  26.090  35.143  1.00  0.00     0.198 A 
ATOM     96  F   UNL A   1      45.060  28.149  34.135  1.00  0.00    -0.203 F 
ATOM     97  F   UNL A   1      41.823  24.206  35.993  1.00  0.00    -0.200 F 
ATOM     98  C   UNL A   1      43.982  25.087  35.647  1.00  0.00     0.200 A 
ATOM     99  F   UNL A   1      46.115  25.983  35.192  1.00  0.00    -0.200 F 
ATOM    100  F   UNL A   1      44.534  24.022  36.240  1.00  0.00    -0.200 F 
ENDBRANCH  67  90
ENDBRANCH  41  42
ENDBRANCH  34  36
ENDBRANCH  33  34
ENDBRANCH  32  33
ENDBRANCH   1  32
TORSDOF 14
ENDMDL
MODEL 2
REMARK VINA RESULT:     -13.3      1.967      3.195
REMARK SMILES Cc1cccc(-c2ncc(C[NH+]3CCC4(CC3)NC(=O)C[C@H]4C(=O)OCCOC(=O)c3ccc(-c4c5nc(c(-c6c(F)c(F)c(F)c(F)c6F)c6ccc([nH]6)c(-c6c(F)c(F)c(F)c(F)c6F)c6nc(c(-c7c(F)c(F)c(F)c(F)c7F)c7ccc4[nH]7)C=C6)C=C5)cc3)cn2)c1
REMARK SMILES IDX 26 1 25 2 23 3 24 4 22 5 12 6 13 7 17 8 14 10 16 11 15 12
REMARK SMILES IDX 18 13 19 14 21 16 20 17 11 18 10 19 7 20 8 21 95 22 9 23
REMARK SMILES IDX 94 24 6 25 1 26 2 27 3 28 96 29 4 30 5 31 27 32 28 33 29 34
REMARK SMILES IDX 30 35 31 36 32 37 93 38 33 39 92 40 34 41 35 42 36 43 86 44
REMARK SMILES IDX 37 45 91 46 85 47 87 48 38 49 90 50 84 51 83 52 39 54 71 55
REMARK SMILES IDX 51 56 70 57 52 58 55 59 69 60 88 61 53 62 54 63 68 65 89 66
REMARK SMILES IDX 56 67 40 68 41 69 49 70 42 71 43 72 47 73 50 74 44 75 45 76
REMARK SMILES IDX 48 77 46 78 72 79 73 80 81 81 74 82 75 83 79 84 82 85 76 86
REMARK SMILES IDX 77 87 80 88 78 89 57 90 58 91 66 92 59 93 60 94 64 95 67 96
REMARK SMILES IDX 61 97 62 98 65 99 63 100
REMARK H PARENT 12 9 18 15 87 53 55 64
REMARK Flexibility Score: inf
ROOT
ATOM      1  C   UNL A   1      31.588  28.399  27.177  1.00  0.00     0.274 C 
ENDROOT
BRANCH   1   2
ATOM      2  O   UNL A   1      31.126  27.134  26.562  1.00  0.00    -0.462 OA
BRANCH   2   3
ATOM      3  C   UNL A   1      30.699  27.217  25.302  1.00  0.00     0.311 C 
ATOM      4  O   UNL A   1      29.640  26.684  25.012  1.00  0.00    -0.252 OA
BRANCH   3   5
ATOM      5  C   UNL A   1      31.376  28.033  24.210  1.00  0.00     0.134 C 
ATOM      6  N   UNL A   1      33.557  24.674  23.216  1.00  0.00    -0.331 N 
ATOM      7  C   UNL A   1      34.083  25.904  22.621  1.00  0.00     0.264 C 
ATOM      8  C   UNL A   1      32.495  25.005  24.124  1.00  0.00     0.264 C 
ATOM      9  H   UNL A   1      34.414  24.329  23.648  1.00  0.00     0.348 HD
ATOM     10  C   UNL A   1      33.141  27.149  22.398  1.00  0.00     0.091 C 
ATOM     11  C   UNL A   1      31.371  25.698  23.329  1.00  0.00     0.091 C 
ATOM     12  C   UNL A   1      31.703  27.132  23.005  1.00  0.00     0.064 C 
ATOM     13  N   UNL A   1      30.787  27.653  22.002  1.00  0.00    -0.349 N 
ATOM     14  C   UNL A   1      30.161  28.814  22.343  1.00  0.00     0.221 C 
ATOM     15  H   UNL A   1      30.631  27.200  21.142  1.00  0.00     0.164 HD
ATOM     16  C   UNL A   1      30.646  29.252  23.677  1.00  0.00     0.117 C 
ATOM     17  O   UNL A   1      29.363  29.428  21.634  1.00  0.00    -0.275 OA
BRANCH   6  18
ATOM     18  C   UNL A   1      33.338  23.409  22.490  1.00  0.00     0.302 C 
BRANCH  18  19
ATOM     19  C   UNL A   1      32.983  22.199  23.335  1.00  0.00     0.043 A 
ATOM     20  C   UNL A   1      33.192  19.657  24.323  1.00  0.00     0.159 A 
ATOM     21  N   UNL A   1      33.869  20.643  24.951  1.00  0.00    -0.236 NA
ATOM     22  N   UNL A   1      32.302  19.864  23.328  1.00  0.00    -0.236 NA
ATOM     23  C   UNL A   1      33.720  21.899  24.464  1.00  0.00     0.124 A 
ATOM     24  C   UNL A   1      32.207  21.140  22.863  1.00  0.00     0.124 A 
BRANCH  20  25
ATOM     25  C   UNL A   1      33.526  18.268  24.700  1.00  0.00     0.019 A 
ATOM     26  C   UNL A   1      31.869  15.064  26.090  1.00  0.00     0.044 C 
ATOM     27  C   UNL A   1      32.880  16.020  25.518  1.00  0.00    -0.050 A 
ATOM     28  C   UNL A   1      34.152  15.548  25.196  1.00  0.00     0.003 A 
ATOM     29  C   UNL A   1      32.586  17.377  25.275  1.00  0.00     0.015 A 
ATOM     30  C   UNL A   1      35.108  16.415  24.670  1.00  0.00     0.001 A 
ATOM     31  C   UNL A   1      34.801  17.759  24.435  1.00  0.00     0.012 A 
ENDBRANCH  20  25
ENDBRANCH  18  19
ENDBRANCH   6  18
ENDBRANCH   3   5
ENDBRANCH   2   3
ENDBRANCH   1   2
BRANCH   1  32
ATOM     32  C   UNL A   1      33.094  28.951  27.184  1.00  0.00     0.275 C 
BRANCH  32  33
ATOM     33  O   UNL A   1      33.653  30.322  26.925  1.00  0.00    -0.458 OA
BRANCH  33  34
ATOM     34  C   UNL A   1      34.174  31.294  27.739  1.00  0.00     0.338 C 
ATOM     35  O   UNL A   1      33.544  32.239  28.187  1.00  0.00    -0.246 OA
BRANCH  34  36
ATOM     36  C   UNL A   1      35.618  31.152  27.969  1.00  0.00     0.060 A 
ATOM     37  C   UNL A   1      36.518  32.244  27.977  1.00  0.00     0.016 A 
ATOM     38  C   UNL A   1      35.957  29.925  28.493  1.00  0.00     0.016 A 
ATOM     39  C   UNL A   1      37.747  32.103  28.629  1.00  0.00     0.010 A 
ATOM     40  C   UNL A   1      36.999  29.890  29.363  1.00  0.00     0.010 A 
ATOM     41  C   UNL A   1      37.946  30.927  29.356  1.00  0.00    -0.014 A 
BRANCH  41  42
ATOM     42  C   UNL A   1      39.230  30.347  29.711  1.00  0.00     0.031 A 
ATOM     43  C   UNL A   1      39.772  29.187  28.982  1.00  0.00     0.074 A 
ATOM     44  C   UNL A   1      39.894  31.310  30.400  1.00  0.00     0.049 A 
ATOM     45  N   UNL A   1      40.340  28.167  29.534  1.00  0.00    -0.248 NA
ATOM     46  C   UNL A   1      39.642  29.038  27.523  1.00  0.00     0.031 C 
ATOM     47  C   UNL A   1      41.288  31.635  30.580  1.00  0.00     0.029 A 
ATOM     48  N   UNL A   1      39.246  32.373  31.075  1.00  0.00    -0.354 N 
ATOM     49  C   UNL A   1      41.003  27.524  28.502  1.00  0.00     0.074 A 
ATOM     50  C   UNL A   1      40.309  27.898  27.293  1.00  0.00     0.031 C 
ATOM     51  C   UNL A   1      41.383  32.536  31.588  1.00  0.00     0.029 A 
ATOM     52  C   UNL A   1      40.042  32.780  32.125  1.00  0.00     0.049 A 
ATOM     53  H   UNL A   1      38.372  32.757  30.834  1.00  0.00     0.167 HD
ATOM     54  C   UNL A   1      42.334  27.224  28.629  1.00  0.00     0.037 A 
ATOM     55  C   UNL A   1      39.533  32.470  33.351  1.00  0.00     0.037 A 
ATOM     56  C   UNL A   1      42.868  27.940  29.783  1.00  0.00     0.049 A 
ATOM     57  C   UNL A   1      40.309  31.292  33.868  1.00  0.00     0.074 A 
ATOM     58  C   UNL A   1      43.594  29.117  29.860  1.00  0.00     0.029 A 
ATOM     59  N   UNL A   1      42.376  27.691  31.055  1.00  0.00    -0.354 N 
ATOM     60  N   UNL A   1      40.789  30.339  33.114  1.00  0.00    -0.248 NA
ATOM     61  C   UNL A   1      40.712  31.191  35.260  1.00  0.00     0.031 C 
ATOM     62  C   UNL A   1      43.549  29.567  31.201  1.00  0.00     0.029 A 
ATOM     63  C   UNL A   1      42.747  28.697  31.922  1.00  0.00     0.049 A 
ATOM     64  H   UNL A   1      41.837  26.906  31.304  1.00  0.00     0.167 HD
ATOM     65  C   UNL A   1      41.649  29.585  33.862  1.00  0.00     0.074 A 
ATOM     66  C   UNL A   1      41.539  30.136  35.203  1.00  0.00     0.031 C 
ATOM     67  C   UNL A   1      42.435  28.603  33.334  1.00  0.00     0.037 A 
BRANCH  54  68
ATOM     68  C   UNL A   1      43.236  26.652  27.551  1.00  0.00     0.064 A 
ATOM     69  C   UNL A   1      43.424  25.254  27.421  1.00  0.00     0.173 A 
ATOM     70  C   UNL A   1      43.870  27.424  26.557  1.00  0.00     0.173 A 
ATOM     71  F   UNL A   1      42.808  24.383  28.228  1.00  0.00    -0.203 F 
ATOM     72  C   UNL A   1      44.235  24.685  26.437  1.00  0.00     0.198 A 
ATOM     73  C   UNL A   1      44.698  26.852  25.579  1.00  0.00     0.198 A 
ATOM     74  F   UNL A   1      43.675  28.747  26.482  1.00  0.00    -0.203 F 
ATOM     75  F   UNL A   1      44.371  23.352  26.379  1.00  0.00    -0.200 F 
ATOM     76  C   UNL A   1      44.884  25.485  25.522  1.00  0.00     0.200 A 
ATOM     77  F   UNL A   1      45.307  27.637  24.677  1.00  0.00    -0.200 F 
ATOM     78  F   UNL A   1      45.661  24.937  24.578  1.00  0.00    -0.200 F 
ENDBRANCH  54  68
BRANCH  55  79
ATOM     79  C   UNL A   1      38.032  32.652  33.443  1.00  0.00     0.064 A 
ATOM     80  C   UNL A   1      37.525  33.928  33.800  1.00  0.00     0.173 A 
ATOM     81  C   UNL A   1      37.096  31.741  32.932  1.00  0.00     0.173 A 
ATOM     82  F   UNL A   1      38.360  34.870  34.272  1.00  0.00    -0.203 F 
ATOM     83  C   UNL A   1      36.194  34.296  33.581  1.00  0.00     0.198 A 
ATOM     84  C   UNL A   1      35.753  32.106  32.735  1.00  0.00     0.198 A 
ATOM     85  F   UNL A   1      37.481  30.520  32.537  1.00  0.00    -0.203 F 
ATOM     86  F   UNL A   1      35.796  35.553  33.827  1.00  0.00    -0.200 F 
ATOM     87  C   UNL A   1      35.308  33.384  33.041  1.00  0.00     0.200 A 
ATOM     88  F   UNL A   1      34.904  31.242  32.156  1.00  0.00    -0.200 F 
ATOM     89  F   UNL A   1      34.051  33.751  32.752  1.00  0.00    -0.200 F 
ENDBRANCH  55  79
BRANCH  67  90
ATOM     90  C   UNL A   1      43.098  27.513  34.129  1.00  0.00     0.064 A 
ATOM     91  C   UNL A   1      44.476  27.488  34.385  1.00  0.00     0.173 A 
ATOM     92  C   UNL A   1      42.329  26.541  34.817  1.00  0.00     0.173 A 
ATOM     93  F   UNL A   1      45.294  28.445  33.927  1.00  0.00    -0.203 F 
ATOM     94  C   UNL A   1      45.055  26.506  35.183  1.00  0.00     0.198 A 
ATOM     95  C   UNL A   1      42.901  25.620  35.685  1.00  0.00     0.198 A 
ATOM     96  F   UNL A   1      40.993  26.476  34.703  1.00  0.00    -0.203 F 
ATOM     97  F   UNL A   1      46.387  26.482  35.332  1.00  0.00    -0.200 F 
ATOM     98  C   UNL A   1      44.269  25.582  35.843  1.00  0.00     0.200 A 
ATOM     99  F   UNL A   1      42.115  24.786  36.379  1.00  0.00    -0.200 F 
ATOM    100  F   UNL A   1      44.827  24.672  36.650  1.00  0.00    -0.200 F 
ENDBRANCH  67  90
ENDBRANCH  41  42
ENDBRANCH  34  36
ENDBRANCH  33  34
ENDBRANCH  32  33
ENDBRANCH   1  32
TORSDOF 14
ENDMDL
MODEL 3
REMARK VINA RESULT:     -13.3      3.492      9.710
REMARK SMILES Cc1cccc(-c2ncc(C[NH+]3CCC4(CC3)NC(=O)C[C@H]4C(=O)OCCOC(=O)c3ccc(-c4c5nc(c(-c6c(F)c(F)c(F)c(F)c6F)c6ccc([nH]6)c(-c6c(F)c(F)c(F)c(F)c6F)c6nc(c(-c7c(F)c(F)c(F)c(F)c7F)c7ccc4[nH]7)C=C6)C=C5)cc3)cn2)c1
REMARK SMILES IDX 26 1 25 2 23 3 24 4 22 5 12 6 13 7 17 8 14 10 16 11 15 12
REMARK SMILES IDX 18 13 19 14 21 16 20 17 11 18 10 19 7 20 8 21 95 22 9 23
REMARK SMILES IDX 94 24 6 25 1 26 2 27 3 28 96 29 4 30 5 31 27 32 28 33 29 34
REMARK SMILES IDX 30 35 31 36 32 37 93 38 33 39 92 40 34 41 35 42 36 43 86 44
REMARK SMILES IDX 37 45 91 46 85 47 87 48 38 49 90 50 84 51 83 52 39 54 71 55
REMARK SMILES IDX 51 56 70 57 52 58 55 59 69 60 88 61 53 62 54 63 68 65 89 66
REMARK SMILES IDX 56 67 40 68 41 69 49 70 42 71 43 72 47 73 50 74 44 75 45 76
REMARK SMILES IDX 48 77 46 78 72 79 73 80 81 81 74 82 75 83 79 84 82 85 76 86
REMARK SMILES IDX 77 87 80 88 78 89 57 90 58 91 66 92 59 93 60 94 64 95 67 96
REMARK SMILES IDX 61 97 62 98 65 99 63 100
REMARK H PARENT 12 9 18 15 87 53 55 64
REMARK Flexibility Score: inf
ROOT
ATOM      1  C   UNL A   1      35.954  21.633  24.581  1.00  0.00     0.274 C 
ENDROOT
BRANCH   1   2
ATOM      2  O   UNL A   1      35.033  22.623  25.182  1.00  0.00    -0.462 OA
BRANCH   2   3
ATOM      3  C   UNL A   1      34.346  22.213  26.249  1.00  0.00     0.311 C 
ATOM      4  O   UNL A   1      34.717  22.577  27.352  1.00  0.00    -0.252 OA
BRANCH   3   5
ATOM      5  C   UNL A   1      33.052  21.415  26.191  1.00  0.00     0.134 C 
ATOM      6  N   UNL A   1      30.984  24.975  26.471  1.00  0.00    -0.331 N 
ATOM      7  C   UNL A   1      30.147  23.798  26.710  1.00  0.00     0.264 C 
ATOM      8  C   UNL A   1      32.355  24.564  26.354  1.00  0.00     0.264 C 
ATOM      9  H   UNL A   1      30.754  25.505  27.312  1.00  0.00     0.348 HD
ATOM     10  C   UNL A   1      30.558  22.393  26.122  1.00  0.00     0.091 C 
ATOM     11  C   UNL A   1      32.477  23.609  25.150  1.00  0.00     0.091 C 
ATOM     12  C   UNL A   1      31.964  22.228  25.464  1.00  0.00     0.064 C 
ATOM     13  N   UNL A   1      31.799  21.455  24.242  1.00  0.00    -0.349 N 
ATOM     14  C   UNL A   1      32.427  20.246  24.238  1.00  0.00     0.221 C 
ATOM     15  H   UNL A   1      31.273  21.782  23.477  1.00  0.00     0.164 HD
ATOM     16  C   UNL A   1      33.091  20.040  25.550  1.00  0.00     0.117 C 
ATOM     17  O   UNL A   1      32.401  19.434  23.312  1.00  0.00    -0.275 OA
BRANCH   6  18
ATOM     18  C   UNL A   1      30.629  26.101  25.587  1.00  0.00     0.302 C 
BRANCH  18  19
ATOM     19  C   UNL A   1      31.229  27.451  25.940  1.00  0.00     0.043 A 
ATOM     20  C   UNL A   1      33.143  29.235  26.735  1.00  0.00     0.159 A 
ATOM     21  N   UNL A   1      33.036  28.958  25.416  1.00  0.00    -0.236 NA
ATOM     22  N   UNL A   1      32.272  28.802  27.672  1.00  0.00    -0.236 NA
ATOM     23  C   UNL A   1      32.056  28.098  25.045  1.00  0.00     0.124 A 
ATOM     24  C   UNL A   1      31.321  27.925  27.248  1.00  0.00     0.124 A 
BRANCH  20  25
ATOM     25  C   UNL A   1      34.340  29.983  27.169  1.00  0.00     0.019 A 
ATOM     26  C   UNL A   1      35.379  33.465  28.487  1.00  0.00     0.044 C 
ATOM     27  C   UNL A   1      35.427  32.023  28.062  1.00  0.00    -0.050 A 
ATOM     28  C   UNL A   1      36.617  31.312  28.210  1.00  0.00     0.003 A 
ATOM     29  C   UNL A   1      34.306  31.352  27.533  1.00  0.00     0.015 A 
ATOM     30  C   UNL A   1      36.689  29.977  27.818  1.00  0.00     0.001 A 
ATOM     31  C   UNL A   1      35.568  29.325  27.295  1.00  0.00     0.012 A 
ENDBRANCH  20  25
ENDBRANCH  18  19
ENDBRANCH   6  18
ENDBRANCH   3   5
ENDBRANCH   2   3
ENDBRANCH   1   2
BRANCH   1  32
ATOM     32  C   UNL A   1      37.512  21.462  24.922  1.00  0.00     0.275 C 
BRANCH  32  33
ATOM     33  O   UNL A   1      38.439  22.276  25.779  1.00  0.00    -0.458 OA
BRANCH  33  34
ATOM     34  C   UNL A   1      39.614  21.991  26.426  1.00  0.00     0.338 C 
ATOM     35  O   UNL A   1      40.193  20.917  26.378  1.00  0.00    -0.246 OA
BRANCH  34  36
ATOM     36  C   UNL A   1      40.094  23.087  27.279  1.00  0.00     0.060 A 
ATOM     37  C   UNL A   1      41.024  22.909  28.330  1.00  0.00     0.016 A 
ATOM     38  C   UNL A   1      39.812  24.330  26.759  1.00  0.00     0.016 A 
ATOM     39  C   UNL A   1      41.754  24.012  28.782  1.00  0.00     0.010 A 
ATOM     40  C   UNL A   1      40.717  25.316  26.988  1.00  0.00     0.010 A 
ATOM     41  C   UNL A   1      41.615  25.200  28.061  1.00  0.00    -0.014 A 
BRANCH  41  42
ATOM     42  C   UNL A   1      41.871  26.540  28.561  1.00  0.00     0.031 A 
ATOM     43  C   UNL A   1      40.768  27.420  28.986  1.00  0.00     0.074 A 
ATOM     44  C   UNL A   1      43.171  26.547  28.955  1.00  0.00     0.049 A 
ATOM     45  N   UNL A   1      40.674  28.676  28.701  1.00  0.00    -0.248 NA
ATOM     46  C   UNL A   1      39.596  26.921  29.725  1.00  0.00     0.031 C 
ATOM     47  C   UNL A   1      43.912  27.274  29.957  1.00  0.00     0.029 A 
ATOM     48  N   UNL A   1      44.141  25.646  28.454  1.00  0.00    -0.354 N 
ATOM     49  C   UNL A   1      39.722  29.172  29.577  1.00  0.00     0.074 A 
ATOM     50  C   UNL A   1      38.898  28.045  29.943  1.00  0.00     0.031 C 
ATOM     51  C   UNL A   1      45.232  27.076  29.729  1.00  0.00     0.029 A 
ATOM     52  C   UNL A   1      45.381  26.247  28.530  1.00  0.00     0.049 A 
ATOM     53  H   UNL A   1      43.961  24.742  28.109  1.00  0.00     0.167 HD
ATOM     54  C   UNL A   1      40.007  30.268  30.347  1.00  0.00     0.037 A 
ATOM     55  C   UNL A   1      45.907  26.572  27.314  1.00  0.00     0.037 A 
ATOM     56  C   UNL A   1      41.442  30.527  30.280  1.00  0.00     0.049 A 
ATOM     57  C   UNL A   1      45.748  28.055  27.146  1.00  0.00     0.074 A 
ATOM     58  C   UNL A   1      42.460  30.209  31.163  1.00  0.00     0.029 A 
ATOM     59  N   UNL A   1      42.045  30.838  29.071  1.00  0.00    -0.354 N 
ATOM     60  N   UNL A   1      44.742  28.746  27.613  1.00  0.00    -0.248 NA
ATOM     61  C   UNL A   1      46.792  28.876  26.556  1.00  0.00     0.031 C 
ATOM     62  C   UNL A   1      43.690  30.349  30.476  1.00  0.00     0.029 A 
ATOM     63  C   UNL A   1      43.414  30.692  29.163  1.00  0.00     0.049 A 
ATOM     64  H   UNL A   1      41.564  31.121  28.261  1.00  0.00     0.167 HD
ATOM     65  C   UNL A   1      45.043  30.075  27.512  1.00  0.00     0.074 A 
ATOM     66  C   UNL A   1      46.317  30.104  26.814  1.00  0.00     0.031 C 
ATOM     67  C   UNL A   1      44.268  31.060  28.051  1.00  0.00     0.037 A 
BRANCH  54  68
ATOM     68  C   UNL A   1      39.137  30.850  31.445  1.00  0.00     0.064 A 
ATOM     69  C   UNL A   1      39.057  30.236  32.718  1.00  0.00     0.173 A 
ATOM     70  C   UNL A   1      38.428  32.064  31.334  1.00  0.00     0.173 A 
ATOM     71  F   UNL A   1      39.753  29.130  33.011  1.00  0.00    -0.203 F 
ATOM     72  C   UNL A   1      38.279  30.744  33.760  1.00  0.00     0.198 A 
ATOM     73  C   UNL A   1      37.633  32.565  32.377  1.00  0.00     0.198 A 
ATOM     74  F   UNL A   1      38.518  32.817  30.230  1.00  0.00    -0.203 F 
ATOM     75  F   UNL A   1      38.247  30.103  34.938  1.00  0.00    -0.200 F 
ATOM     76  C   UNL A   1      37.555  31.903  33.586  1.00  0.00     0.200 A 
ATOM     77  F   UNL A   1      36.951  33.708  32.206  1.00  0.00    -0.200 F 
ATOM     78  F   UNL A   1      36.809  32.390  34.587  1.00  0.00    -0.200 F 
ENDBRANCH  54  68
BRANCH  55  79
ATOM     79  C   UNL A   1      45.652  25.526  26.249  1.00  0.00     0.064 A 
ATOM     80  C   UNL A   1      46.486  24.379  26.213  1.00  0.00     0.173 A 
ATOM     81  C   UNL A   1      44.486  25.462  25.473  1.00  0.00     0.173 A 
ATOM     82  F   UNL A   1      47.610  24.347  26.950  1.00  0.00    -0.203 F 
ATOM     83  C   UNL A   1      46.136  23.217  25.518  1.00  0.00     0.198 A 
ATOM     84  C   UNL A   1      44.148  24.300  24.756  1.00  0.00     0.198 A 
ATOM     85  F   UNL A   1      43.617  26.481  25.465  1.00  0.00    -0.203 F 
ATOM     86  F   UNL A   1      46.903  22.121  25.615  1.00  0.00    -0.200 F 
ATOM     87  C   UNL A   1      44.961  23.176  24.793  1.00  0.00     0.200 A 
ATOM     88  F   UNL A   1      42.979  24.237  24.100  1.00  0.00    -0.200 F 
ATOM     89  F   UNL A   1      44.576  22.042  24.191  1.00  0.00    -0.200 F 
ENDBRANCH  55  79
BRANCH  67  90
ATOM     90  C   UNL A   1      44.330  32.511  27.664  1.00  0.00     0.064 A 
ATOM     91  C   UNL A   1      43.968  32.977  26.392  1.00  0.00     0.173 A 
ATOM     92  C   UNL A   1      44.592  33.514  28.632  1.00  0.00     0.173 A 
ATOM     93  F   UNL A   1      43.542  32.143  25.434  1.00  0.00    -0.203 F 
ATOM     94  C   UNL A   1      43.967  34.333  26.081  1.00  0.00     0.198 A 
ATOM     95  C   UNL A   1      44.501  34.869  28.341  1.00  0.00     0.198 A 
ATOM     96  F   UNL A   1      44.906  33.216  29.902  1.00  0.00    -0.203 F 
ATOM     97  F   UNL A   1      43.688  34.719  24.829  1.00  0.00    -0.200 F 
ATOM     98  C   UNL A   1      44.220  35.278  27.056  1.00  0.00     0.200 A 
ATOM     99  F   UNL A   1      44.668  35.770  29.318  1.00  0.00    -0.200 F 
ATOM    100  F   UNL A   1      44.166  36.583  26.763  1.00  0.00    -0.200 F 
ENDBRANCH  67  90
ENDBRANCH  41  42
ENDBRANCH  34  36
ENDBRANCH  33  34
ENDBRANCH  32  33
ENDBRANCH   1  32
TORSDOF 14
ENDMDL
