MODEL 1
REMARK VINA RESULT:     -11.0      0.000      0.000
REMARK SMILES CC(C)CN(C)S(=O)(=O)c1ccc(C(=O)OCCOC(=O)c2ccc(-c3c4nc(c(-c5c(F)c(F)c(F)c(F)c5F)c5ccc([nH]5)c(-c5c(F)c(F)c(F)c(F)c5F)c5nc(c(-c6c(F)c(F)c(F)c(F)c6F)c6ccc3[nH]6)C=C5)C=C4)cc2)cc1
REMARK SMILES IDX 17 1 16 2 14 3 15 4 13 5 10 6 11 7 86 8 12 9 85 10 7 11 8 12
REMARK SMILES IDX 9 13 5 14 6 15 4 16 2 17 1 18 3 19 18 20 19 21 20 22 21 23
REMARK SMILES IDX 22 24 23 25 84 26 24 27 83 28 25 29 26 30 27 31 77 32 28 33
REMARK SMILES IDX 82 34 76 35 78 36 29 37 81 38 75 39 74 40 30 42 62 43 42 44
REMARK SMILES IDX 61 45 43 46 46 47 60 48 79 49 44 50 45 51 59 53 80 54 47 55
REMARK SMILES IDX 31 56 32 57 40 58 33 59 34 60 38 61 41 62 35 63 36 64 39 65
REMARK SMILES IDX 37 66 63 67 64 68 72 69 65 70 66 71 70 72 73 73 67 74 68 75
REMARK SMILES IDX 71 76 69 77 48 78 49 79 57 80 50 81 51 82 55 83 58 84 52 85
REMARK SMILES IDX 53 86 56 87 54 88
REMARK H PARENT 78 41 46 52
REMARK Flexibility Score: inf
ROOT
ATOM      1  C   UNL A   1      31.142  29.966  24.910  1.00  0.00     0.275 C 
ENDROOT
BRANCH   1   2
ATOM      2  O   UNL A   1      31.367  28.572  24.603  1.00  0.00    -0.458 OA
BRANCH   2   3
ATOM      3  C   UNL A   1      32.354  28.355  23.706  1.00  0.00     0.338 C 
ATOM      4  O   UNL A   1      32.599  29.017  22.708  1.00  0.00    -0.246 OA
BRANCH   3   5
ATOM      5  C   UNL A   1      33.218  27.229  24.106  1.00  0.00     0.060 A 
ATOM      6  C   UNL A   1      34.331  24.794  24.852  1.00  0.00     0.082 A 
ATOM      7  C   UNL A   1      34.008  25.015  23.516  1.00  0.00     0.022 A 
ATOM      8  C   UNL A   1      34.175  25.809  25.810  1.00  0.00     0.022 A 
ATOM      9  C   UNL A   1      33.446  26.229  23.156  1.00  0.00     0.017 A 
ATOM     10  C   UNL A   1      33.622  27.042  25.431  1.00  0.00     0.017 A 
BRANCH   6  11
ATOM     11  S   UNL A   1      34.747  23.138  25.332  1.00  0.00     0.242 S 
ATOM     12  O   UNL A   1      35.920  23.198  26.174  1.00  0.00    -0.207 OA
ATOM     13  O   UNL A   1      34.754  22.362  24.110  1.00  0.00    -0.207 OA
BRANCH  11  14
ATOM     14  N   UNL A   1      33.443  22.631  26.331  1.00  0.00    -0.201 NA
ATOM     15  C   UNL A   1      33.884  21.737  27.441  1.00  0.00     0.124 C 
BRANCH  14  16
ATOM     16  C   UNL A   1      32.346  21.967  25.541  1.00  0.00     0.105 C 
BRANCH  16  17
ATOM     17  C   UNL A   1      31.078  22.834  25.456  1.00  0.00    -0.002 C 
ATOM     18  C   UNL A   1      31.076  23.995  26.453  1.00  0.00     0.009 C 
ATOM     19  C   UNL A   1      30.958  23.406  24.039  1.00  0.00     0.009 C 
ENDBRANCH  16  17
ENDBRANCH  14  16
ENDBRANCH  11  14
ENDBRANCH   6  11
ENDBRANCH   3   5
ENDBRANCH   2   3
ENDBRANCH   1   2
BRANCH   1  20
ATOM     20  C   UNL A   1      31.666  30.320  26.303  1.00  0.00     0.275 C 
BRANCH  20  21
ATOM     21  O   UNL A   1      33.073  30.626  26.249  1.00  0.00    -0.458 OA
BRANCH  21  22
ATOM     22  C   UNL A   1      33.515  31.532  27.152  1.00  0.00     0.338 C 
ATOM     23  O   UNL A   1      32.927  32.529  27.542  1.00  0.00    -0.246 OA
BRANCH  22  24
ATOM     24  C   UNL A   1      34.852  31.160  27.666  1.00  0.00     0.060 A 
ATOM     25  C   UNL A   1      35.148  29.842  27.993  1.00  0.00     0.016 A 
ATOM     26  C   UNL A   1      35.772  32.163  27.972  1.00  0.00     0.016 A 
ATOM     27  C   UNL A   1      36.268  29.549  28.775  1.00  0.00     0.010 A 
ATOM     28  C   UNL A   1      36.974  31.840  28.617  1.00  0.00     0.010 A 
ATOM     29  C   UNL A   1      37.220  30.535  29.080  1.00  0.00    -0.014 A 
BRANCH  29  30
ATOM     30  C   UNL A   1      38.444  30.218  29.885  1.00  0.00     0.031 A 
ATOM     31  C   UNL A   1      39.544  29.353  29.312  1.00  0.00     0.074 A 
ATOM     32  C   UNL A   1      38.593  30.694  31.140  1.00  0.00     0.049 A 
ATOM     33  N   UNL A   1      40.548  28.770  29.924  1.00  0.00    -0.248 NA
ATOM     34  C   UNL A   1      39.499  29.089  27.865  1.00  0.00     0.031 C 
ATOM     35  C   UNL A   1      37.649  31.569  31.838  1.00  0.00     0.029 A 
ATOM     36  N   UNL A   1      39.605  30.514  32.055  1.00  0.00    -0.354 N 
ATOM     37  C   UNL A   1      41.196  28.009  28.958  1.00  0.00     0.074 A 
ATOM     38  C   UNL A   1      40.483  28.213  27.715  1.00  0.00     0.031 C 
ATOM     39  C   UNL A   1      38.155  31.906  33.032  1.00  0.00     0.029 A 
ATOM     40  C   UNL A   1      39.399  31.175  33.241  1.00  0.00     0.049 A 
ATOM     41  H   UNL A   1      40.402  29.964  31.876  1.00  0.00     0.167 HD
ATOM     42  C   UNL A   1      42.281  27.207  29.097  1.00  0.00     0.037 A 
ATOM     43  C   UNL A   1      40.093  31.163  34.396  1.00  0.00     0.037 A 
ATOM     44  C   UNL A   1      43.049  27.073  30.309  1.00  0.00     0.049 A 
ATOM     45  C   UNL A   1      41.296  30.275  34.527  1.00  0.00     0.074 A 
ATOM     46  C   UNL A   1      44.182  26.307  30.533  1.00  0.00     0.029 A 
ATOM     47  N   UNL A   1      42.783  27.745  31.491  1.00  0.00    -0.354 N 
ATOM     48  N   UNL A   1      41.839  29.485  33.635  1.00  0.00    -0.248 NA
ATOM     49  C   UNL A   1      41.959  30.250  35.838  1.00  0.00     0.031 C 
ATOM     50  C   UNL A   1      44.585  26.496  31.861  1.00  0.00     0.029 A 
ATOM     51  C   UNL A   1      43.725  27.406  32.450  1.00  0.00     0.049 A 
ATOM     52  H   UNL A   1      42.036  28.371  31.630  1.00  0.00     0.167 HD
ATOM     53  C   UNL A   1      42.901  28.865  34.275  1.00  0.00     0.074 A 
ATOM     54  C   UNL A   1      42.947  29.392  35.623  1.00  0.00     0.031 C 
ATOM     55  C   UNL A   1      43.754  27.930  33.791  1.00  0.00     0.037 A 
BRANCH  42  56
ATOM     56  C   UNL A   1      42.693  26.374  27.917  1.00  0.00     0.064 A 
ATOM     57  C   UNL A   1      42.155  25.104  27.673  1.00  0.00     0.173 A 
ATOM     58  C   UNL A   1      43.609  26.889  26.984  1.00  0.00     0.173 A 
ATOM     59  F   UNL A   1      41.286  24.562  28.539  1.00  0.00    -0.203 F 
ATOM     60  C   UNL A   1      42.533  24.370  26.551  1.00  0.00     0.198 A 
ATOM     61  C   UNL A   1      43.964  26.164  25.850  1.00  0.00     0.198 A 
ATOM     62  F   UNL A   1      44.147  28.105  27.165  1.00  0.00    -0.203 F 
ATOM     63  F   UNL A   1      42.034  23.141  26.357  1.00  0.00    -0.200 F 
ATOM     64  C   UNL A   1      43.430  24.904  25.637  1.00  0.00     0.200 A 
ATOM     65  F   UNL A   1      44.821  26.688  24.962  1.00  0.00    -0.200 F 
ATOM     66  F   UNL A   1      43.784  24.199  24.552  1.00  0.00    -0.200 F 
ENDBRANCH  42  56
BRANCH  43  67
ATOM     67  C   UNL A   1      39.622  31.983  35.543  1.00  0.00     0.064 A 
ATOM     68  C   UNL A   1      38.646  31.495  36.422  1.00  0.00     0.173 A 
ATOM     69  C   UNL A   1      40.157  33.254  35.799  1.00  0.00     0.173 A 
ATOM     70  F   UNL A   1      38.082  30.299  36.199  1.00  0.00    -0.203 F 
ATOM     71  C   UNL A   1      38.226  32.248  37.516  1.00  0.00     0.198 A 
ATOM     72  C   UNL A   1      39.759  33.992  36.910  1.00  0.00     0.198 A 
ATOM     73  F   UNL A   1      41.091  33.766  34.984  1.00  0.00    -0.203 F 
ATOM     74  F   UNL A   1      37.268  31.774  38.325  1.00  0.00    -0.200 F 
ATOM     75  C   UNL A   1      38.790  33.491  37.766  1.00  0.00     0.200 A 
ATOM     76  F   UNL A   1      40.319  35.184  37.155  1.00  0.00    -0.200 F 
ATOM     77  F   UNL A   1      38.399  34.206  38.829  1.00  0.00    -0.200 F 
ENDBRANCH  43  67
BRANCH  55  78
ATOM     78  C   UNL A   1      44.812  27.427  34.724  1.00  0.00     0.064 A 
ATOM     79  C   UNL A   1      46.054  28.069  34.830  1.00  0.00     0.173 A 
ATOM     80  C   UNL A   1      44.579  26.304  35.530  1.00  0.00     0.173 A 
ATOM     81  F   UNL A   1      46.329  29.137  34.066  1.00  0.00    -0.203 F 
ATOM     82  C   UNL A   1      47.034  27.592  35.696  1.00  0.00     0.198 A 
ATOM     83  C   UNL A   1      45.553  25.841  36.411  1.00  0.00     0.198 A 
ATOM     84  F   UNL A   1      43.406  25.657  35.465  1.00  0.00    -0.203 F 
ATOM     85  F   UNL A   1      48.229  28.196  35.752  1.00  0.00    -0.200 F 
ATOM     86  C   UNL A   1      46.781  26.481  36.488  1.00  0.00     0.200 A 
ATOM     87  F   UNL A   1      45.306  24.772  37.180  1.00  0.00    -0.200 F 
ATOM     88  F   UNL A   1      47.726  26.022  37.320  1.00  0.00    -0.200 F 
ENDBRANCH  55  78
ENDBRANCH  29  30
ENDBRANCH  22  24
ENDBRANCH  21  22
ENDBRANCH  20  21
ENDBRANCH   1  20
TORSDOF 15
ENDMDL
MODEL 2
REMARK VINA RESULT:     -11.0      1.196      1.705
REMARK SMILES CC(C)CN(C)S(=O)(=O)c1ccc(C(=O)OCCOC(=O)c2ccc(-c3c4nc(c(-c5c(F)c(F)c(F)c(F)c5F)c5ccc([nH]5)c(-c5c(F)c(F)c(F)c(F)c5F)c5nc(c(-c6c(F)c(F)c(F)c(F)c6F)c6ccc3[nH]6)C=C5)C=C4)cc2)cc1
REMARK SMILES IDX 17 1 16 2 14 3 15 4 13 5 10 6 11 7 86 8 12 9 85 10 7 11 8 12
REMARK SMILES IDX 9 13 5 14 6 15 4 16 2 17 1 18 3 19 18 20 19 21 20 22 21 23
REMARK SMILES IDX 22 24 23 25 84 26 24 27 83 28 25 29 26 30 27 31 77 32 28 33
REMARK SMILES IDX 82 34 76 35 78 36 29 37 81 38 75 39 74 40 30 42 62 43 42 44
REMARK SMILES IDX 61 45 43 46 46 47 60 48 79 49 44 50 45 51 59 53 80 54 47 55
REMARK SMILES IDX 31 56 32 57 40 58 33 59 34 60 38 61 41 62 35 63 36 64 39 65
REMARK SMILES IDX 37 66 63 67 64 68 72 69 65 70 66 71 70 72 73 73 67 74 68 75
REMARK SMILES IDX 71 76 69 77 48 78 49 79 57 80 50 81 51 82 55 83 58 84 52 85
REMARK SMILES IDX 53 86 56 87 54 88
REMARK H PARENT 78 41 46 52
REMARK Flexibility Score: inf
ROOT
ATOM      1  C   UNL A   1      31.587  29.377  24.501  1.00  0.00     0.275 C 
ENDROOT
BRANCH   1   2
ATOM      2  O   UNL A   1      30.269  28.892  24.164  1.00  0.00    -0.458 OA
BRANCH   2   3
ATOM      3  C   UNL A   1      30.260  27.933  23.211  1.00  0.00     0.338 C 
ATOM      4  O   UNL A   1      30.351  28.096  22.003  1.00  0.00    -0.246 OA
BRANCH   3   5
ATOM      5  C   UNL A   1      30.215  26.580  23.797  1.00  0.00     0.060 A 
ATOM      6  C   UNL A   1      30.669  24.182  25.124  1.00  0.00     0.082 A 
ATOM      7  C   UNL A   1      30.262  25.296  25.852  1.00  0.00     0.022 A 
ATOM      8  C   UNL A   1      30.776  24.232  23.725  1.00  0.00     0.022 A 
ATOM      9  C   UNL A   1      30.046  26.490  25.182  1.00  0.00     0.017 A 
ATOM     10  C   UNL A   1      30.538  25.441  23.054  1.00  0.00     0.017 A 
BRANCH   6  11
ATOM     11  S   UNL A   1      31.239  22.771  26.036  1.00  0.00     0.242 S 
ATOM     12  O   UNL A   1      30.142  21.835  26.143  1.00  0.00    -0.207 OA
ATOM     13  O   UNL A   1      31.877  23.298  27.224  1.00  0.00    -0.207 OA
BRANCH  11  14
ATOM     14  N   UNL A   1      32.418  22.041  25.021  1.00  0.00    -0.201 NA
ATOM     15  C   UNL A   1      32.301  20.554  24.981  1.00  0.00     0.124 C 
BRANCH  14  16
ATOM     16  C   UNL A   1      33.821  22.436  25.403  1.00  0.00     0.105 C 
BRANCH  16  17
ATOM     17  C   UNL A   1      34.337  23.630  24.582  1.00  0.00    -0.002 C 
ATOM     18  C   UNL A   1      35.172  24.610  25.409  1.00  0.00     0.009 C 
ATOM     19  C   UNL A   1      35.197  23.107  23.427  1.00  0.00     0.009 C 
ENDBRANCH  16  17
ENDBRANCH  14  16
ENDBRANCH  11  14
ENDBRANCH   6  11
ENDBRANCH   3   5
ENDBRANCH   2   3
ENDBRANCH   1   2
BRANCH   1  20
ATOM     20  C   UNL A   1      31.519  30.471  25.569  1.00  0.00     0.275 C 
BRANCH  20  21
ATOM     21  O   UNL A   1      32.485  30.222  26.609  1.00  0.00    -0.458 OA
BRANCH  21  22
ATOM     22  C   UNL A   1      33.073  31.317  27.143  1.00  0.00     0.338 C 
ATOM     23  O   UNL A   1      32.591  32.435  27.245  1.00  0.00    -0.246 OA
BRANCH  22  24
ATOM     24  C   UNL A   1      34.429  31.000  27.642  1.00  0.00     0.060 A 
ATOM     25  C   UNL A   1      34.808  29.686  27.891  1.00  0.00     0.016 A 
ATOM     26  C   UNL A   1      35.282  32.039  28.015  1.00  0.00     0.016 A 
ATOM     27  C   UNL A   1      35.942  29.418  28.662  1.00  0.00     0.010 A 
ATOM     28  C   UNL A   1      36.500  31.755  28.647  1.00  0.00     0.010 A 
ATOM     29  C   UNL A   1      36.828  30.443  29.032  1.00  0.00    -0.014 A 
BRANCH  29  30
ATOM     30  C   UNL A   1      38.068  30.156  29.824  1.00  0.00     0.031 A 
ATOM     31  C   UNL A   1      39.168  29.290  29.253  1.00  0.00     0.074 A 
ATOM     32  C   UNL A   1      38.231  30.660  31.066  1.00  0.00     0.049 A 
ATOM     33  N   UNL A   1      40.187  28.731  29.861  1.00  0.00    -0.248 NA
ATOM     34  C   UNL A   1      39.104  28.994  27.813  1.00  0.00     0.031 C 
ATOM     35  C   UNL A   1      37.289  31.540  31.760  1.00  0.00     0.029 A 
ATOM     36  N   UNL A   1      39.259  30.510  31.969  1.00  0.00    -0.354 N 
ATOM     37  C   UNL A   1      40.829  27.956  28.902  1.00  0.00     0.074 A 
ATOM     38  C   UNL A   1      40.095  28.126  27.666  1.00  0.00     0.031 C 
ATOM     39  C   UNL A   1      37.809  31.908  32.938  1.00  0.00     0.029 A 
ATOM     40  C   UNL A   1      39.064  31.195  33.144  1.00  0.00     0.049 A 
ATOM     41  H   UNL A   1      40.059  29.965  31.789  1.00  0.00     0.167 HD
ATOM     42  C   UNL A   1      41.925  27.168  29.041  1.00  0.00     0.037 A 
ATOM     43  C   UNL A   1      39.776  31.215  34.288  1.00  0.00     0.037 A 
ATOM     44  C   UNL A   1      42.713  27.069  30.243  1.00  0.00     0.049 A 
ATOM     45  C   UNL A   1      40.990  30.343  34.419  1.00  0.00     0.074 A 
ATOM     46  C   UNL A   1      43.857  26.319  30.467  1.00  0.00     0.029 A 
ATOM     47  N   UNL A   1      42.458  27.763  31.415  1.00  0.00    -0.354 N 
ATOM     48  N   UNL A   1      41.528  29.539  33.535  1.00  0.00    -0.248 NA
ATOM     49  C   UNL A   1      41.674  30.353  35.720  1.00  0.00     0.031 C 
ATOM     50  C   UNL A   1      44.278  26.541  31.783  1.00  0.00     0.029 A 
ATOM     51  C   UNL A   1      43.418  27.455  32.367  1.00  0.00     0.049 A 
ATOM     52  H   UNL A   1      41.706  28.384  31.553  1.00  0.00     0.167 HD
ATOM     53  C   UNL A   1      42.607  28.944  34.172  1.00  0.00     0.074 A 
ATOM     54  C   UNL A   1      42.667  29.500  35.508  1.00  0.00     0.031 C 
ATOM     55  C   UNL A   1      43.461  28.008  33.695  1.00  0.00     0.037 A 
BRANCH  42  56
ATOM     56  C   UNL A   1      42.328  26.315  27.873  1.00  0.00     0.064 A 
ATOM     57  C   UNL A   1      41.726  25.077  27.608  1.00  0.00     0.173 A 
ATOM     58  C   UNL A   1      43.301  26.777  26.972  1.00  0.00     0.173 A 
ATOM     59  F   UNL A   1      40.800  24.585  28.443  1.00  0.00    -0.203 F 
ATOM     60  C   UNL A   1      42.098  24.324  26.497  1.00  0.00     0.198 A 
ATOM     61  C   UNL A   1      43.651  26.035  25.848  1.00  0.00     0.198 A 
ATOM     62  F   UNL A   1      43.901  27.961  27.174  1.00  0.00    -0.203 F 
ATOM     63  F   UNL A   1      41.538  23.126  26.283  1.00  0.00    -0.200 F 
ATOM     64  C   UNL A   1      43.054  24.807  25.614  1.00  0.00     0.200 A 
ATOM     65  F   UNL A   1      44.566  26.510  24.990  1.00  0.00    -0.200 F 
ATOM     66  F   UNL A   1      43.403  24.084  24.540  1.00  0.00    -0.200 F 
ENDBRANCH  42  56
BRANCH  43  67
ATOM     67  C   UNL A   1      39.314  32.054  35.424  1.00  0.00     0.064 A 
ATOM     68  C   UNL A   1      38.496  31.518  36.427  1.00  0.00     0.173 A 
ATOM     69  C   UNL A   1      39.704  33.397  35.545  1.00  0.00     0.173 A 
ATOM     70  F   UNL A   1      38.071  30.249  36.338  1.00  0.00    -0.203 F 
ATOM     71  C   UNL A   1      38.087  32.293  37.510  1.00  0.00     0.198 A 
ATOM     72  C   UNL A   1      39.321  34.160  36.643  1.00  0.00     0.198 A 
ATOM     73  F   UNL A   1      40.484  33.955  34.608  1.00  0.00    -0.203 F 
ATOM     74  F   UNL A   1      37.278  31.768  38.440  1.00  0.00    -0.200 F 
ATOM     75  C   UNL A   1      38.509  33.610  37.624  1.00  0.00     0.200 A 
ATOM     76  F   UNL A   1      39.744  35.427  36.756  1.00  0.00    -0.200 F 
ATOM     77  F   UNL A   1      38.131  34.350  38.675  1.00  0.00    -0.200 F 
ENDBRANCH  43  67
BRANCH  55  78
ATOM     78  C   UNL A   1      44.540  27.536  34.622  1.00  0.00     0.064 A 
ATOM     79  C   UNL A   1      45.774  28.197  34.699  1.00  0.00     0.173 A 
ATOM     80  C   UNL A   1      44.333  26.424  35.451  1.00  0.00     0.173 A 
ATOM     81  F   UNL A   1      46.023  29.255  33.912  1.00  0.00    -0.203 F 
ATOM     82  C   UNL A   1      46.772  27.748  35.559  1.00  0.00     0.198 A 
ATOM     83  C   UNL A   1      45.325  25.991  36.326  1.00  0.00     0.198 A 
ATOM     84  F   UNL A   1      43.168  25.761  35.414  1.00  0.00    -0.203 F 
ATOM     85  F   UNL A   1      47.960  28.369  35.588  1.00  0.00    -0.200 F 
ATOM     86  C   UNL A   1      46.546  26.648  36.374  1.00  0.00     0.200 A 
ATOM     87  F   UNL A   1      45.104  24.932  37.117  1.00  0.00    -0.200 F 
ATOM     88  F   UNL A   1      47.508  26.218  37.201  1.00  0.00    -0.200 F 
ENDBRANCH  55  78
ENDBRANCH  29  30
ENDBRANCH  22  24
ENDBRANCH  21  22
ENDBRANCH  20  21
ENDBRANCH   1  20
TORSDOF 15
ENDMDL
MODEL 3
REMARK VINA RESULT:     -11.0      4.373      9.734
REMARK SMILES CC(C)CN(C)S(=O)(=O)c1ccc(C(=O)OCCOC(=O)c2ccc(-c3c4nc(c(-c5c(F)c(F)c(F)c(F)c5F)c5ccc([nH]5)c(-c5c(F)c(F)c(F)c(F)c5F)c5nc(c(-c6c(F)c(F)c(F)c(F)c6F)c6ccc3[nH]6)C=C5)C=C4)cc2)cc1
REMARK SMILES IDX 17 1 16 2 14 3 15 4 13 5 10 6 11 7 86 8 12 9 85 10 7 11 8 12
REMARK SMILES IDX 9 13 5 14 6 15 4 16 2 17 1 18 3 19 18 20 19 21 20 22 21 23
REMARK SMILES IDX 22 24 23 25 84 26 24 27 83 28 25 29 26 30 27 31 77 32 28 33
REMARK SMILES IDX 82 34 76 35 78 36 29 37 81 38 75 39 74 40 30 42 62 43 42 44
REMARK SMILES IDX 61 45 43 46 46 47 60 48 79 49 44 50 45 51 59 53 80 54 47 55
REMARK SMILES IDX 31 56 32 57 40 58 33 59 34 60 38 61 41 62 35 63 36 64 39 65
REMARK SMILES IDX 37 66 63 67 64 68 72 69 65 70 66 71 70 72 73 73 67 74 68 75
REMARK SMILES IDX 71 76 69 77 48 78 49 79 57 80 50 81 51 82 55 83 58 84 52 85
REMARK SMILES IDX 53 86 56 87 54 88
REMARK H PARENT 78 41 46 52
REMARK Flexibility Score: inf
ROOT
ATOM      1  C   UNL A   1      35.007  21.094  25.479  1.00  0.00     0.275 C 
ENDROOT
BRANCH   1   2
ATOM      2  O   UNL A   1      34.334  21.819  24.427  1.00  0.00    -0.458 OA
BRANCH   2   3
ATOM      3  C   UNL A   1      33.042  21.463  24.248  1.00  0.00     0.338 C 
ATOM      4  O   UNL A   1      32.548  20.363  24.449  1.00  0.00    -0.246 OA
BRANCH   3   5
ATOM      5  C   UNL A   1      32.209  22.612  23.845  1.00  0.00     0.060 A 
ATOM      6  C   UNL A   1      31.105  25.101  23.292  1.00  0.00     0.082 A 
ATOM      7  C   UNL A   1      32.078  24.584  22.443  1.00  0.00     0.022 A 
ATOM      8  C   UNL A   1      30.619  24.350  24.375  1.00  0.00     0.022 A 
ATOM      9  C   UNL A   1      32.629  23.346  22.732  1.00  0.00     0.017 A 
ATOM     10  C   UNL A   1      31.170  23.090  24.649  1.00  0.00     0.017 A 
BRANCH   6  11
ATOM     11  S   UNL A   1      30.653  26.803  23.082  1.00  0.00     0.242 S 
ATOM     12  O   UNL A   1      29.275  26.954  23.494  1.00  0.00    -0.207 OA
ATOM     13  O   UNL A   1      31.065  27.159  21.740  1.00  0.00    -0.207 OA
BRANCH  11  14
ATOM     14  N   UNL A   1      31.611  27.656  24.226  1.00  0.00    -0.201 NA
ATOM     15  C   UNL A   1      31.430  29.134  24.140  1.00  0.00     0.124 C 
BRANCH  14  16
ATOM     16  C   UNL A   1      33.072  27.309  24.115  1.00  0.00     0.105 C 
BRANCH  16  17
ATOM     17  C   UNL A   1      33.653  26.785  25.440  1.00  0.00    -0.002 C 
ATOM     18  C   UNL A   1      32.584  26.539  26.508  1.00  0.00     0.009 C 
ATOM     19  C   UNL A   1      34.394  25.471  25.176  1.00  0.00     0.009 C 
ENDBRANCH  16  17
ENDBRANCH  14  16
ENDBRANCH  11  14
ENDBRANCH   6  11
ENDBRANCH   3   5
ENDBRANCH   2   3
ENDBRANCH   1   2
BRANCH   1  20
ATOM     20  C   UNL A   1      36.353  20.545  25.002  1.00  0.00     0.275 C 
BRANCH  20  21
ATOM     21  O   UNL A   1      37.361  21.574  25.048  1.00  0.00    -0.458 OA
BRANCH  21  22
ATOM     22  C   UNL A   1      38.505  21.252  25.696  1.00  0.00     0.338 C 
ATOM     23  O   UNL A   1      39.031  20.151  25.754  1.00  0.00    -0.246 OA
BRANCH  22  24
ATOM     24  C   UNL A   1      39.099  22.441  26.345  1.00  0.00     0.060 A 
ATOM     25  C   UNL A   1      38.557  23.706  26.148  1.00  0.00     0.016 A 
ATOM     26  C   UNL A   1      40.305  22.313  27.035  1.00  0.00     0.016 A 
ATOM     27  C   UNL A   1      39.298  24.844  26.479  1.00  0.00     0.010 A 
ATOM     28  C   UNL A   1      40.966  23.455  27.509  1.00  0.00     0.010 A 
ATOM     29  C   UNL A   1      40.503  24.745  27.192  1.00  0.00    -0.014 A 
BRANCH  29  30
ATOM     30  C   UNL A   1      41.281  25.964  27.585  1.00  0.00     0.031 A 
ATOM     31  C   UNL A   1      40.664  27.024  28.468  1.00  0.00     0.074 A 
ATOM     32  C   UNL A   1      42.550  26.146  27.159  1.00  0.00     0.049 A 
ATOM     33  N   UNL A   1      41.075  28.246  28.713  1.00  0.00    -0.248 NA
ATOM     34  C   UNL A   1      39.406  26.676  29.149  1.00  0.00     0.031 C 
ATOM     35  C   UNL A   1      43.313  25.212  26.330  1.00  0.00     0.029 A 
ATOM     36  N   UNL A   1      43.429  27.184  27.373  1.00  0.00    -0.354 N 
ATOM     37  C   UNL A   1      40.090  28.832  29.500  1.00  0.00     0.074 A 
ATOM     38  C   UNL A   1      39.066  27.830  29.706  1.00  0.00     0.031 C 
ATOM     39  C   UNL A   1      44.559  25.679  26.167  1.00  0.00     0.029 A 
ATOM     40  C   UNL A   1      44.651  27.002  26.771  1.00  0.00     0.049 A 
ATOM     41  H   UNL A   1      43.204  27.979  27.907  1.00  0.00     0.167 HD
ATOM     42  C   UNL A   1      40.040  30.093  29.998  1.00  0.00     0.037 A 
ATOM     43  C   UNL A   1      45.716  27.819  26.662  1.00  0.00     0.037 A 
ATOM     44  C   UNL A   1      41.099  31.063  29.876  1.00  0.00     0.049 A 
ATOM     45  C   UNL A   1      45.644  29.208  27.227  1.00  0.00     0.074 A 
ATOM     46  C   UNL A   1      41.148  32.355  30.375  1.00  0.00     0.029 A 
ATOM     47  N   UNL A   1      42.306  30.839  29.234  1.00  0.00    -0.354 N 
ATOM     48  N   UNL A   1      44.667  29.781  27.883  1.00  0.00    -0.248 NA
ATOM     49  C   UNL A   1      46.810  30.073  27.004  1.00  0.00     0.031 C 
ATOM     50  C   UNL A   1      42.377  32.920  30.012  1.00  0.00     0.029 A 
ATOM     51  C   UNL A   1      43.104  31.968  29.318  1.00  0.00     0.049 A 
ATOM     52  H   UNL A   1      42.560  30.000  28.784  1.00  0.00     0.167 HD
ATOM     53  C   UNL A   1      45.095  31.074  28.146  1.00  0.00     0.074 A 
ATOM     54  C   UNL A   1      46.433  31.193  27.605  1.00  0.00     0.031 C 
ATOM     55  C   UNL A   1      44.430  32.077  28.767  1.00  0.00     0.037 A 
BRANCH  42  56
ATOM     56  C   UNL A   1      38.783  30.521  30.700  1.00  0.00     0.064 A 
ATOM     57  C   UNL A   1      38.660  30.496  32.096  1.00  0.00     0.173 A 
ATOM     58  C   UNL A   1      37.700  31.016  29.954  1.00  0.00     0.173 A 
ATOM     59  F   UNL A   1      39.660  30.021  32.852  1.00  0.00    -0.203 F 
ATOM     60  C   UNL A   1      37.492  30.931  32.718  1.00  0.00     0.198 A 
ATOM     61  C   UNL A   1      36.545  31.475  30.582  1.00  0.00     0.198 A 
ATOM     62  F   UNL A   1      37.770  31.071  28.615  1.00  0.00    -0.203 F 
ATOM     63  F   UNL A   1      37.381  30.863  34.052  1.00  0.00    -0.200 F 
ATOM     64  C   UNL A   1      36.440  31.427  31.962  1.00  0.00     0.200 A 
ATOM     65  F   UNL A   1      35.536  31.966  29.849  1.00  0.00    -0.200 F 
ATOM     66  F   UNL A   1      35.321  31.855  32.566  1.00  0.00    -0.200 F 
ENDBRANCH  42  56
BRANCH  43  67
ATOM     67  C   UNL A   1      46.924  27.356  25.930  1.00  0.00     0.064 A 
ATOM     68  C   UNL A   1      47.067  27.593  24.556  1.00  0.00     0.173 A 
ATOM     69  C   UNL A   1      47.969  26.694  26.592  1.00  0.00     0.173 A 
ATOM     70  F   UNL A   1      46.080  28.193  23.874  1.00  0.00    -0.203 F 
ATOM     71  C   UNL A   1      48.212  27.188  23.874  1.00  0.00     0.198 A 
ATOM     72  C   UNL A   1      49.125  26.319  25.915  1.00  0.00     0.198 A 
ATOM     73  F   UNL A   1      47.877  26.442  27.906  1.00  0.00    -0.203 F 
ATOM     74  F   UNL A   1      48.312  27.397  22.554  1.00  0.00    -0.200 F 
ATOM     75  C   UNL A   1      49.245  26.562  24.555  1.00  0.00     0.200 A 
ATOM     76  F   UNL A   1      50.127  25.728  26.582  1.00  0.00    -0.200 F 
ATOM     77  F   UNL A   1      50.354  26.189  23.902  1.00  0.00    -0.200 F 
ENDBRANCH  43  67
BRANCH  55  78
ATOM     78  C   UNL A   1      45.146  33.387  28.902  1.00  0.00     0.064 A 
ATOM     79  C   UNL A   1      45.003  34.396  27.940  1.00  0.00     0.173 A 
ATOM     80  C   UNL A   1      45.969  33.641  30.008  1.00  0.00     0.173 A 
ATOM     81  F   UNL A   1      44.240  34.192  26.855  1.00  0.00    -0.203 F 
ATOM     82  C   UNL A   1      45.676  35.608  28.070  1.00  0.00     0.198 A 
ATOM     83  C   UNL A   1      46.623  34.861  30.147  1.00  0.00     0.198 A 
ATOM     84  F   UNL A   1      46.134  32.706  30.956  1.00  0.00    -0.203 F 
ATOM     85  F   UNL A   1      45.559  36.544  27.118  1.00  0.00    -0.200 F 
ATOM     86  C   UNL A   1      46.482  35.841  29.175  1.00  0.00     0.200 A 
ATOM     87  F   UNL A   1      47.397  35.088  31.218  1.00  0.00    -0.200 F 
ATOM     88  F   UNL A   1      47.129  37.007  29.298  1.00  0.00    -0.200 F 
ENDBRANCH  55  78
ENDBRANCH  29  30
ENDBRANCH  22  24
ENDBRANCH  21  22
ENDBRANCH  20  21
ENDBRANCH   1  20
TORSDOF 15
ENDMDL
