MODEL 1
REMARK VINA RESULT:     -13.7      0.000      0.000
REMARK SMILES O=C(OCCOC(=O)c1cc2c(C(F)(F)F)onc2c2ccccc12)c1ccc(-c2c3nc(c(-c4c(F)c(F)c(F)c(F)c4F)c4ccc([nH]4)c(-c4c(F)c(F)c(F)c(F)c4F)c4nc(c(-c5c(F)c(F)c(F)c(F)c5F)c5ccc2[nH]5)C=C4)C=C3)cc1
REMARK SMILES IDX 4 1 3 2 2 3 1 4 26 5 27 6 88 7 28 8 87 9 29 10 30 11 31 12
REMARK SMILES IDX 81 13 32 14 86 15 80 16 82 17 33 18 85 19 79 20 78 21 34 23
REMARK SMILES IDX 66 24 46 25 65 26 47 27 50 28 64 29 83 30 48 31 49 32 63 34
REMARK SMILES IDX 84 35 51 36 35 37 36 38 44 39 37 40 38 41 42 42 45 43 39 44
REMARK SMILES IDX 40 45 43 46 41 47 67 48 68 49 76 50 69 51 70 52 74 53 77 54
REMARK SMILES IDX 71 55 72 56 75 57 73 58 52 59 53 60 61 61 54 62 55 63 59 64
REMARK SMILES IDX 62 65 56 66 57 67 60 68 58 69 5 70 6 71 7 72 8 73 9 74 10 75
REMARK SMILES IDX 25 76 11 77 20 78 24 79 12 80 19 81 21 82 23 83 17 84 18 85
REMARK SMILES IDX 22 86 13 87 14 88 15 89 16 90
REMARK H PARENT 82 22 50 33
REMARK Flexibility Score: inf
ROOT
ATOM      1  C   UNL A   1      38.913  34.403  32.654  1.00  0.00     0.275 C 
ENDROOT
BRANCH   1   2
ATOM      2  O   UNL A   1      38.934  34.397  31.204  1.00  0.00    -0.458 OA
BRANCH   2   3
ATOM      3  C   UNL A   1      39.160  33.331  30.385  1.00  0.00     0.338 C 
ATOM      4  O   UNL A   1      38.680  33.267  29.261  1.00  0.00    -0.246 OA
BRANCH   3   5
ATOM      5  C   UNL A   1      39.799  32.145  30.989  1.00  0.00     0.060 A 
ATOM      6  C   UNL A   1      41.146  31.994  30.700  1.00  0.00     0.016 A 
ATOM      7  C   UNL A   1      39.062  31.076  31.507  1.00  0.00     0.016 A 
ATOM      8  C   UNL A   1      41.623  30.707  30.560  1.00  0.00     0.010 A 
ATOM      9  C   UNL A   1      39.552  29.777  31.364  1.00  0.00     0.010 A 
ATOM     10  C   UNL A   1      40.787  29.585  30.754  1.00  0.00    -0.014 A 
BRANCH  10  11
ATOM     11  C   UNL A   1      41.381  28.265  30.459  1.00  0.00     0.031 A 
ATOM     12  C   UNL A   1      42.281  27.830  31.565  1.00  0.00     0.074 A 
ATOM     13  C   UNL A   1      41.211  27.496  29.354  1.00  0.00     0.049 A 
ATOM     14  N   UNL A   1      43.509  27.440  31.460  1.00  0.00    -0.248 NA
ATOM     15  C   UNL A   1      41.829  28.048  32.954  1.00  0.00     0.031 C 
ATOM     16  C   UNL A   1      40.295  27.709  28.231  1.00  0.00     0.029 A 
ATOM     17  N   UNL A   1      41.788  26.289  29.019  1.00  0.00    -0.354 N 
ATOM     18  C   UNL A   1      43.950  27.251  32.763  1.00  0.00     0.074 A 
ATOM     19  C   UNL A   1      42.935  27.769  33.641  1.00  0.00     0.031 C 
ATOM     20  C   UNL A   1      40.192  26.577  27.497  1.00  0.00     0.029 A 
ATOM     21  C   UNL A   1      41.106  25.585  28.026  1.00  0.00     0.049 A 
ATOM     22  H   UNL A   1      42.610  25.952  29.444  1.00  0.00     0.167 HD
ATOM     23  C   UNL A   1      44.989  26.424  33.036  1.00  0.00     0.037 A 
ATOM     24  C   UNL A   1      41.236  24.274  27.688  1.00  0.00     0.037 A 
ATOM     25  C   UNL A   1      45.884  26.232  31.931  1.00  0.00     0.049 A 
ATOM     26  C   UNL A   1      42.578  23.827  28.107  1.00  0.00     0.074 A 
ATOM     27  C   UNL A   1      47.133  26.659  31.537  1.00  0.00     0.029 A 
ATOM     28  N   UNL A   1      45.329  25.606  30.855  1.00  0.00    -0.354 N 
ATOM     29  N   UNL A   1      43.674  24.186  27.504  1.00  0.00    -0.248 NA
ATOM     30  C   UNL A   1      42.743  23.184  29.407  1.00  0.00     0.031 C 
ATOM     31  C   UNL A   1      47.285  26.296  30.162  1.00  0.00     0.029 A 
ATOM     32  C   UNL A   1      46.158  25.590  29.769  1.00  0.00     0.049 A 
ATOM     33  H   UNL A   1      44.429  25.209  30.860  1.00  0.00     0.167 HD
ATOM     34  C   UNL A   1      44.613  24.193  28.508  1.00  0.00     0.074 A 
ATOM     35  C   UNL A   1      44.041  23.420  29.604  1.00  0.00     0.031 C 
ATOM     36  C   UNL A   1      45.623  25.104  28.526  1.00  0.00     0.037 A 
BRANCH  23  37
ATOM     37  C   UNL A   1      44.870  25.411  34.142  1.00  0.00     0.064 A 
ATOM     38  C   UNL A   1      45.569  25.590  35.344  1.00  0.00     0.173 A 
ATOM     39  C   UNL A   1      44.318  24.123  33.932  1.00  0.00     0.173 A 
ATOM     40  F   UNL A   1      46.177  26.755  35.612  1.00  0.00    -0.203 F 
ATOM     41  C   UNL A   1      45.715  24.547  36.263  1.00  0.00     0.198 A 
ATOM     42  C   UNL A   1      44.410  23.109  34.876  1.00  0.00     0.198 A 
ATOM     43  F   UNL A   1      43.770  23.770  32.761  1.00  0.00    -0.203 F 
ATOM     44  F   UNL A   1      46.470  24.724  37.355  1.00  0.00    -0.200 F 
ATOM     45  C   UNL A   1      45.128  23.312  36.033  1.00  0.00     0.200 A 
ATOM     46  F   UNL A   1      43.861  21.914  34.615  1.00  0.00    -0.200 F 
ATOM     47  F   UNL A   1      45.296  22.305  36.898  1.00  0.00    -0.200 F 
ENDBRANCH  23  37
BRANCH  24  48
ATOM     48  C   UNL A   1      40.217  23.285  27.231  1.00  0.00     0.064 A 
ATOM     49  C   UNL A   1      38.943  23.710  26.797  1.00  0.00     0.173 A 
ATOM     50  C   UNL A   1      40.571  21.965  26.897  1.00  0.00     0.173 A 
ATOM     51  F   UNL A   1      38.519  24.955  27.055  1.00  0.00    -0.203 F 
ATOM     52  C   UNL A   1      38.118  22.896  26.012  1.00  0.00     0.198 A 
ATOM     53  C   UNL A   1      39.742  21.151  26.120  1.00  0.00     0.198 A 
ATOM     54  F   UNL A   1      41.770  21.470  27.229  1.00  0.00    -0.203 F 
ATOM     55  F   UNL A   1      36.957  23.375  25.543  1.00  0.00    -0.200 F 
ATOM     56  C   UNL A   1      38.528  21.624  25.656  1.00  0.00     0.200 A 
ATOM     57  F   UNL A   1      40.162  19.929  25.762  1.00  0.00    -0.200 F 
ATOM     58  F   UNL A   1      37.781  20.875  24.834  1.00  0.00    -0.200 F 
ENDBRANCH  24  48
BRANCH  36  59
ATOM     59  C   UNL A   1      46.064  25.703  27.234  1.00  0.00     0.064 A 
ATOM     60  C   UNL A   1      46.786  25.020  26.242  1.00  0.00     0.173 A 
ATOM     61  C   UNL A   1      45.699  27.031  26.975  1.00  0.00     0.173 A 
ATOM     62  F   UNL A   1      47.113  23.727  26.393  1.00  0.00    -0.203 F 
ATOM     63  C   UNL A   1      47.151  25.658  25.056  1.00  0.00     0.198 A 
ATOM     64  C   UNL A   1      46.028  27.651  25.775  1.00  0.00     0.198 A 
ATOM     65  F   UNL A   1      44.994  27.725  27.883  1.00  0.00    -0.203 F 
ATOM     66  F   UNL A   1      47.861  24.999  24.129  1.00  0.00    -0.200 F 
ATOM     67  C   UNL A   1      46.762  26.969  24.820  1.00  0.00     0.200 A 
ATOM     68  F   UNL A   1      45.618  28.906  25.542  1.00  0.00    -0.200 F 
ATOM     69  F   UNL A   1      47.081  27.570  23.666  1.00  0.00    -0.200 F 
ENDBRANCH  36  59
ENDBRANCH  10  11
ENDBRANCH   3   5
ENDBRANCH   2   3
ENDBRANCH   1   2
BRANCH   1  70
ATOM     70  C   UNL A   1      37.536  34.417  33.338  1.00  0.00     0.275 C 
BRANCH  70  71
ATOM     71  O   UNL A   1      36.901  33.139  33.421  1.00  0.00    -0.458 OA
BRANCH  71  72
ATOM     72  C   UNL A   1      35.573  33.066  33.200  1.00  0.00     0.338 C 
ATOM     73  O   UNL A   1      34.684  33.127  34.034  1.00  0.00    -0.246 OA
BRANCH  72  74
ATOM     74  C   UNL A   1      35.367  33.132  31.731  1.00  0.00     0.068 A 
ATOM     75  C   UNL A   1      35.907  32.013  31.039  1.00  0.00     0.030 A 
ATOM     76  C   UNL A   1      34.556  34.183  31.122  1.00  0.00    -0.002 A 
ATOM     77  C   UNL A   1      35.532  32.007  29.700  1.00  0.00     0.056 A 
ATOM     78  C   UNL A   1      34.182  34.088  29.740  1.00  0.00     0.012 A 
ATOM     79  C   UNL A   1      34.040  35.313  31.801  1.00  0.00     0.010 A 
ATOM     80  C   UNL A   1      35.846  31.066  28.758  1.00  0.00     0.248 A 
ATOM     81  C   UNL A   1      34.700  32.972  29.032  1.00  0.00     0.122 A 
ATOM     82  C   UNL A   1      33.315  34.996  29.107  1.00  0.00     0.011 A 
ATOM     83  C   UNL A   1      33.181  36.228  31.167  1.00  0.00     0.001 A 
ATOM     84  O   UNL A   1      35.254  31.428  27.586  1.00  0.00    -0.350 OA
ATOM     85  N   UNL A   1      34.539  32.595  27.751  1.00  0.00    -0.079 NA
ATOM     86  C   UNL A   1      32.805  36.057  29.836  1.00  0.00     0.001 A 
BRANCH  80  87
ATOM     87  C   UNL A   1      36.647  29.837  28.702  1.00  0.00     0.453 C 
ATOM     88  F   UNL A   1      36.247  29.003  27.709  1.00  0.00    -0.163 F 
ATOM     89  F   UNL A   1      37.959  30.112  28.479  1.00  0.00    -0.163 F 
ATOM     90  F   UNL A   1      36.593  29.127  29.857  1.00  0.00    -0.163 F 
ENDBRANCH  80  87
ENDBRANCH  72  74
ENDBRANCH  71  72
ENDBRANCH  70  71
ENDBRANCH   1  70
TORSDOF 12
ENDMDL
MODEL 2
REMARK VINA RESULT:     -13.6      3.803      5.552
REMARK SMILES O=C(OCCOC(=O)c1cc2c(C(F)(F)F)onc2c2ccccc12)c1ccc(-c2c3nc(c(-c4c(F)c(F)c(F)c(F)c4F)c4ccc([nH]4)c(-c4c(F)c(F)c(F)c(F)c4F)c4nc(c(-c5c(F)c(F)c(F)c(F)c5F)c5ccc2[nH]5)C=C4)C=C3)cc1
REMARK SMILES IDX 4 1 3 2 2 3 1 4 26 5 27 6 88 7 28 8 87 9 29 10 30 11 31 12
REMARK SMILES IDX 81 13 32 14 86 15 80 16 82 17 33 18 85 19 79 20 78 21 34 23
REMARK SMILES IDX 66 24 46 25 65 26 47 27 50 28 64 29 83 30 48 31 49 32 63 34
REMARK SMILES IDX 84 35 51 36 35 37 36 38 44 39 37 40 38 41 42 42 45 43 39 44
REMARK SMILES IDX 40 45 43 46 41 47 67 48 68 49 76 50 69 51 70 52 74 53 77 54
REMARK SMILES IDX 71 55 72 56 75 57 73 58 52 59 53 60 61 61 54 62 55 63 59 64
REMARK SMILES IDX 62 65 56 66 57 67 60 68 58 69 5 70 6 71 7 72 8 73 9 74 10 75
REMARK SMILES IDX 25 76 11 77 20 78 24 79 12 80 19 81 21 82 23 83 17 84 18 85
REMARK SMILES IDX 22 86 13 87 14 88 15 89 16 90
REMARK H PARENT 82 22 50 33
REMARK Flexibility Score: inf
ROOT
ATOM      1  C   UNL A   1      34.399  31.744  28.207  1.00  0.00     0.275 C 
ENDROOT
BRANCH   1   2
ATOM      2  O   UNL A   1      35.607  30.957  28.045  1.00  0.00    -0.458 OA
BRANCH   2   3
ATOM      3  C   UNL A   1      36.608  30.784  28.954  1.00  0.00     0.338 C 
ATOM      4  O   UNL A   1      36.519  31.203  30.100  1.00  0.00    -0.246 OA
BRANCH   3   5
ATOM      5  C   UNL A   1      37.903  30.293  28.441  1.00  0.00     0.060 A 
ATOM      6  C   UNL A   1      37.851  29.068  27.796  1.00  0.00     0.016 A 
ATOM      7  C   UNL A   1      39.127  30.820  28.863  1.00  0.00     0.016 A 
ATOM      8  C   UNL A   1      38.940  28.232  27.936  1.00  0.00     0.010 A 
ATOM      9  C   UNL A   1      40.224  29.969  29.002  1.00  0.00     0.010 A 
ATOM     10  C   UNL A   1      40.084  28.626  28.665  1.00  0.00    -0.014 A 
BRANCH  10  11
ATOM     11  C   UNL A   1      41.132  27.601  28.846  1.00  0.00     0.031 A 
ATOM     12  C   UNL A   1      41.748  27.706  30.199  1.00  0.00     0.074 A 
ATOM     13  C   UNL A   1      41.560  26.672  27.954  1.00  0.00     0.049 A 
ATOM     14  N   UNL A   1      43.007  27.798  30.476  1.00  0.00    -0.248 NA
ATOM     15  C   UNL A   1      40.854  27.938  31.352  1.00  0.00     0.031 C 
ATOM     16  C   UNL A   1      41.007  26.356  26.635  1.00  0.00     0.029 A 
ATOM     17  N   UNL A   1      42.569  25.738  28.066  1.00  0.00    -0.354 N 
ATOM     18  C   UNL A   1      43.071  27.984  31.851  1.00  0.00     0.074 A 
ATOM     19  C   UNL A   1      41.729  28.202  32.320  1.00  0.00     0.031 C 
ATOM     20  C   UNL A   1      41.502  25.175  26.198  1.00  0.00     0.029 A 
ATOM     21  C   UNL A   1      42.483  24.692  27.147  1.00  0.00     0.049 A 
ATOM     22  H   UNL A   1      43.287  25.804  28.736  1.00  0.00     0.167 HD
ATOM     23  C   UNL A   1      44.189  27.661  32.547  1.00  0.00     0.037 A 
ATOM     24  C   UNL A   1      43.125  23.493  27.180  1.00  0.00     0.037 A 
ATOM     25  C   UNL A   1      45.387  27.663  31.756  1.00  0.00     0.049 A 
ATOM     26  C   UNL A   1      44.348  23.654  27.990  1.00  0.00     0.074 A 
ATOM     27  C   UNL A   1      46.488  28.467  31.564  1.00  0.00     0.029 A 
ATOM     28  N   UNL A   1      45.415  26.723  30.769  1.00  0.00    -0.354 N 
ATOM     29  N   UNL A   1      45.397  24.308  27.583  1.00  0.00    -0.248 NA
ATOM     30  C   UNL A   1      44.313  23.318  29.410  1.00  0.00     0.031 C 
ATOM     31  C   UNL A   1      47.155  27.991  30.392  1.00  0.00     0.029 A 
ATOM     32  C   UNL A   1      46.490  26.863  29.939  1.00  0.00     0.049 A 
ATOM     33  H   UNL A   1      44.734  26.020  30.667  1.00  0.00     0.167 HD
ATOM     34  C   UNL A   1      45.934  24.817  28.741  1.00  0.00     0.074 A 
ATOM     35  C   UNL A   1      45.342  24.055  29.833  1.00  0.00     0.031 C 
ATOM     36  C   UNL A   1      46.541  26.034  28.765  1.00  0.00     0.037 A 
BRANCH  23  37
ATOM     37  C   UNL A   1      44.077  26.852  33.810  1.00  0.00     0.064 A 
ATOM     38  C   UNL A   1      43.765  25.487  33.751  1.00  0.00     0.173 A 
ATOM     39  C   UNL A   1      43.977  27.456  35.088  1.00  0.00     0.173 A 
ATOM     40  F   UNL A   1      43.774  24.835  32.579  1.00  0.00    -0.203 F 
ATOM     41  C   UNL A   1      43.369  24.780  34.890  1.00  0.00     0.198 A 
ATOM     42  C   UNL A   1      43.645  26.737  36.229  1.00  0.00     0.198 A 
ATOM     43  F   UNL A   1      44.086  28.780  35.257  1.00  0.00    -0.203 F 
ATOM     44  F   UNL A   1      42.986  23.501  34.780  1.00  0.00    -0.200 F 
ATOM     45  C   UNL A   1      43.318  25.403  36.128  1.00  0.00     0.200 A 
ATOM     46  F   UNL A   1      43.573  27.369  37.409  1.00  0.00    -0.200 F 
ATOM     47  F   UNL A   1      42.908  24.734  37.213  1.00  0.00    -0.200 F 
ENDBRANCH  23  37
BRANCH  24  48
ATOM     48  C   UNL A   1      42.668  22.136  26.760  1.00  0.00     0.064 A 
ATOM     49  C   UNL A   1      43.345  21.431  25.741  1.00  0.00     0.173 A 
ATOM     50  C   UNL A   1      41.790  21.376  27.553  1.00  0.00     0.173 A 
ATOM     51  F   UNL A   1      44.213  22.065  24.939  1.00  0.00    -0.203 F 
ATOM     52  C   UNL A   1      43.213  20.047  25.584  1.00  0.00     0.198 A 
ATOM     53  C   UNL A   1      41.653  19.995  27.389  1.00  0.00     0.198 A 
ATOM     54  F   UNL A   1      41.123  21.937  28.569  1.00  0.00    -0.203 F 
ATOM     55  F   UNL A   1      43.947  19.404  24.664  1.00  0.00    -0.200 F 
ATOM     56  C   UNL A   1      42.383  19.326  26.423  1.00  0.00     0.200 A 
ATOM     57  F   UNL A   1      40.864  19.304  28.225  1.00  0.00    -0.200 F 
ATOM     58  F   UNL A   1      42.320  17.991  26.333  1.00  0.00    -0.200 F 
ENDBRANCH  24  48
BRANCH  36  59
ATOM     59  C   UNL A   1      47.132  26.559  27.501  1.00  0.00     0.064 A 
ATOM     60  C   UNL A   1      46.509  27.493  26.656  1.00  0.00     0.173 A 
ATOM     61  C   UNL A   1      48.415  26.120  27.150  1.00  0.00     0.173 A 
ATOM     62  F   UNL A   1      45.309  28.008  26.962  1.00  0.00    -0.203 F 
ATOM     63  C   UNL A   1      47.140  27.937  25.494  1.00  0.00     0.198 A 
ATOM     64  C   UNL A   1      49.058  26.596  26.014  1.00  0.00     0.198 A 
ATOM     65  F   UNL A   1      49.061  25.240  27.932  1.00  0.00    -0.203 F 
ATOM     66  F   UNL A   1      46.522  28.810  24.685  1.00  0.00    -0.200 F 
ATOM     67  C   UNL A   1      48.418  27.496  25.180  1.00  0.00     0.200 A 
ATOM     68  F   UNL A   1      50.306  26.190  25.738  1.00  0.00    -0.200 F 
ATOM     69  F   UNL A   1      49.039  27.950  24.083  1.00  0.00    -0.200 F 
ENDBRANCH  36  59
ENDBRANCH  10  11
ENDBRANCH   3   5
ENDBRANCH   2   3
ENDBRANCH   1   2
BRANCH   1  70
ATOM     70  C   UNL A   1      33.168  31.320  27.389  1.00  0.00     0.275 C 
BRANCH  70  71
ATOM     71  O   UNL A   1      33.400  30.235  26.487  1.00  0.00    -0.458 OA
BRANCH  71  72
ATOM     72  C   UNL A   1      32.795  29.055  26.733  1.00  0.00     0.338 C 
ATOM     73  O   UNL A   1      32.656  28.512  27.817  1.00  0.00    -0.246 OA
BRANCH  72  74
ATOM     74  C   UNL A   1      32.119  28.637  25.479  1.00  0.00     0.068 A 
ATOM     75  C   UNL A   1      31.088  29.529  25.074  1.00  0.00     0.030 A 
ATOM     76  C   UNL A   1      32.598  27.499  24.697  1.00  0.00    -0.002 A 
ATOM     77  C   UNL A   1      30.609  29.220  23.806  1.00  0.00     0.056 A 
ATOM     78  C   UNL A   1      32.076  27.265  23.381  1.00  0.00     0.012 A 
ATOM     79  C   UNL A   1      33.602  26.592  25.109  1.00  0.00     0.010 A 
ATOM     80  C   UNL A   1      29.645  29.887  23.101  1.00  0.00     0.248 A 
ATOM     81  C   UNL A   1      31.055  28.152  22.951  1.00  0.00     0.122 A 
ATOM     82  C   UNL A   1      32.561  26.262  22.523  1.00  0.00     0.011 A 
ATOM     83  C   UNL A   1      34.082  25.582  24.255  1.00  0.00     0.001 A 
ATOM     84  O   UNL A   1      29.500  29.270  21.895  1.00  0.00    -0.350 OA
ATOM     85  N   UNL A   1      30.372  28.208  21.794  1.00  0.00    -0.079 NA
ATOM     86  C   UNL A   1      33.577  25.434  22.964  1.00  0.00     0.001 A 
BRANCH  80  87
ATOM     87  C   UNL A   1      28.757  31.034  23.329  1.00  0.00     0.453 C 
ATOM     88  F   UNL A   1      27.543  30.660  23.808  1.00  0.00    -0.163 F 
ATOM     89  F   UNL A   1      29.287  31.898  24.234  1.00  0.00    -0.163 F 
ATOM     90  F   UNL A   1      28.529  31.750  22.199  1.00  0.00    -0.163 F 
ENDBRANCH  80  87
ENDBRANCH  72  74
ENDBRANCH  71  72
ENDBRANCH  70  71
ENDBRANCH   1  70
TORSDOF 12
ENDMDL
MODEL 3
REMARK VINA RESULT:     -13.5      3.805      5.492
REMARK SMILES O=C(OCCOC(=O)c1cc2c(C(F)(F)F)onc2c2ccccc12)c1ccc(-c2c3nc(c(-c4c(F)c(F)c(F)c(F)c4F)c4ccc([nH]4)c(-c4c(F)c(F)c(F)c(F)c4F)c4nc(c(-c5c(F)c(F)c(F)c(F)c5F)c5ccc2[nH]5)C=C4)C=C3)cc1
REMARK SMILES IDX 4 1 3 2 2 3 1 4 26 5 27 6 88 7 28 8 87 9 29 10 30 11 31 12
REMARK SMILES IDX 81 13 32 14 86 15 80 16 82 17 33 18 85 19 79 20 78 21 34 23
REMARK SMILES IDX 66 24 46 25 65 26 47 27 50 28 64 29 83 30 48 31 49 32 63 34
REMARK SMILES IDX 84 35 51 36 35 37 36 38 44 39 37 40 38 41 42 42 45 43 39 44
REMARK SMILES IDX 40 45 43 46 41 47 67 48 68 49 76 50 69 51 70 52 74 53 77 54
REMARK SMILES IDX 71 55 72 56 75 57 73 58 52 59 53 60 61 61 54 62 55 63 59 64
REMARK SMILES IDX 62 65 56 66 57 67 60 68 58 69 5 70 6 71 7 72 8 73 9 74 10 75
REMARK SMILES IDX 25 76 11 77 20 78 24 79 12 80 19 81 21 82 23 83 17 84 18 85
REMARK SMILES IDX 22 86 13 87 14 88 15 89 16 90
REMARK H PARENT 82 22 50 33
REMARK Flexibility Score: inf
ROOT
ATOM      1  C   UNL A   1      34.806  30.769  27.923  1.00  0.00     0.275 C 
ENDROOT
BRANCH   1   2
ATOM      2  O   UNL A   1      35.753  30.305  28.920  1.00  0.00    -0.458 OA
BRANCH   2   3
ATOM      3  C   UNL A   1      36.980  30.830  29.201  1.00  0.00     0.338 C 
ATOM      4  O   UNL A   1      37.106  31.882  29.813  1.00  0.00    -0.246 OA
BRANCH   3   5
ATOM      5  C   UNL A   1      38.143  30.215  28.530  1.00  0.00     0.060 A 
ATOM      6  C   UNL A   1      37.943  28.919  28.083  1.00  0.00     0.016 A 
ATOM      7  C   UNL A   1      39.435  30.736  28.639  1.00  0.00     0.016 A 
ATOM      8  C   UNL A   1      39.021  28.059  28.134  1.00  0.00     0.010 A 
ATOM      9  C   UNL A   1      40.521  29.860  28.689  1.00  0.00     0.010 A 
ATOM     10  C   UNL A   1      40.291  28.493  28.575  1.00  0.00    -0.014 A 
BRANCH  10  11
ATOM     11  C   UNL A   1      41.333  27.454  28.699  1.00  0.00     0.031 A 
ATOM     12  C   UNL A   1      42.025  27.552  30.016  1.00  0.00     0.074 A 
ATOM     13  C   UNL A   1      41.697  26.517  27.787  1.00  0.00     0.049 A 
ATOM     14  N   UNL A   1      43.299  27.626  30.221  1.00  0.00    -0.248 NA
ATOM     15  C   UNL A   1      41.201  27.798  31.217  1.00  0.00     0.031 C 
ATOM     16  C   UNL A   1      41.067  26.207  26.502  1.00  0.00     0.029 A 
ATOM     17  N   UNL A   1      42.697  25.569  27.844  1.00  0.00    -0.354 N 
ATOM     18  C   UNL A   1      43.444  27.813  31.589  1.00  0.00     0.074 A 
ATOM     19  C   UNL A   1      42.134  28.051  32.133  1.00  0.00     0.031 C 
ATOM     20  C   UNL A   1      41.519  25.018  26.040  1.00  0.00     0.029 A 
ATOM     21  C   UNL A   1      42.545  24.522  26.934  1.00  0.00     0.049 A 
ATOM     22  H   UNL A   1      43.453  25.625  28.473  1.00  0.00     0.167 HD
ATOM     23  C   UNL A   1      44.595  27.476  32.222  1.00  0.00     0.037 A 
ATOM     24  C   UNL A   1      43.170  23.314  26.934  1.00  0.00     0.037 A 
ATOM     25  C   UNL A   1      45.746  27.459  31.365  1.00  0.00     0.049 A 
ATOM     26  C   UNL A   1      44.439  23.459  27.673  1.00  0.00     0.074 A 
ATOM     27  C   UNL A   1      46.846  28.247  31.110  1.00  0.00     0.029 A 
ATOM     28  N   UNL A   1      45.705  26.517  30.381  1.00  0.00    -0.354 N 
ATOM     29  N   UNL A   1      45.473  24.097  27.206  1.00  0.00    -0.248 NA
ATOM     30  C   UNL A   1      44.480  23.126  29.094  1.00  0.00     0.031 C 
ATOM     31  C   UNL A   1      47.438  27.760  29.903  1.00  0.00     0.029 A 
ATOM     32  C   UNL A   1      46.733  26.640  29.490  1.00  0.00     0.049 A 
ATOM     33  H   UNL A   1      45.009  25.824  30.318  1.00  0.00     0.167 HD
ATOM     34  C   UNL A   1      46.082  24.600  28.331  1.00  0.00     0.074 A 
ATOM     35  C   UNL A   1      45.541  23.849  29.457  1.00  0.00     0.031 C 
ATOM     36  C   UNL A   1      46.707  25.809  28.318  1.00  0.00     0.037 A 
BRANCH  23  37
ATOM     37  C   UNL A   1      44.542  26.670  33.492  1.00  0.00     0.064 A 
ATOM     38  C   UNL A   1      44.202  25.311  33.454  1.00  0.00     0.173 A 
ATOM     39  C   UNL A   1      44.529  27.277  34.772  1.00  0.00     0.173 A 
ATOM     40  F   UNL A   1      44.130  24.658  32.285  1.00  0.00    -0.203 F 
ATOM     41  C   UNL A   1      43.861  24.613  34.617  1.00  0.00     0.198 A 
ATOM     42  C   UNL A   1      44.252  26.566  35.932  1.00  0.00     0.198 A 
ATOM     43  F   UNL A   1      44.674  28.600  34.931  1.00  0.00    -0.203 F 
ATOM     44  F   UNL A   1      43.448  23.342  34.532  1.00  0.00    -0.200 F 
ATOM     45  C   UNL A   1      43.895  25.239  35.854  1.00  0.00     0.200 A 
ATOM     46  F   UNL A   1      44.262  27.201  37.113  1.00  0.00    -0.200 F 
ATOM     47  F   UNL A   1      43.537  24.579  36.962  1.00  0.00    -0.200 F 
ENDBRANCH  23  37
BRANCH  24  48
ATOM     48  C   UNL A   1      42.672  21.964  26.543  1.00  0.00     0.064 A 
ATOM     49  C   UNL A   1      43.320  21.220  25.533  1.00  0.00     0.173 A 
ATOM     50  C   UNL A   1      41.779  21.245  27.358  1.00  0.00     0.173 A 
ATOM     51  F   UNL A   1      44.200  21.813  24.713  1.00  0.00    -0.203 F 
ATOM     52  C   UNL A   1      43.146  19.837  25.405  1.00  0.00     0.198 A 
ATOM     53  C   UNL A   1      41.600  19.865  27.222  1.00  0.00     0.198 A 
ATOM     54  F   UNL A   1      41.135  21.844  28.368  1.00  0.00    -0.203 F 
ATOM     55  F   UNL A   1      43.854  19.156  24.492  1.00  0.00    -0.200 F 
ATOM     56  C   UNL A   1      42.303  19.157  26.263  1.00  0.00     0.200 A 
ATOM     57  F   UNL A   1      40.798  19.214  28.076  1.00  0.00    -0.200 F 
ATOM     58  F   UNL A   1      42.201  17.823  26.200  1.00  0.00    -0.200 F 
ENDBRANCH  24  48
BRANCH  36  59
ATOM     59  C   UNL A   1      47.232  26.324  27.021  1.00  0.00     0.064 A 
ATOM     60  C   UNL A   1      48.512  26.048  26.512  1.00  0.00     0.173 A 
ATOM     61  C   UNL A   1      46.375  27.106  26.236  1.00  0.00     0.173 A 
ATOM     62  F   UNL A   1      49.362  25.251  27.177  1.00  0.00    -0.203 F 
ATOM     63  C   UNL A   1      48.919  26.566  25.282  1.00  0.00     0.198 A 
ATOM     64  C   UNL A   1      46.769  27.587  24.992  1.00  0.00     0.198 A 
ATOM     65  F   UNL A   1      45.135  27.386  26.669  1.00  0.00    -0.203 F 
ATOM     66  F   UNL A   1      50.153  26.314  24.821  1.00  0.00    -0.200 F 
ATOM     67  C   UNL A   1      48.043  27.326  24.520  1.00  0.00     0.200 A 
ATOM     68  F   UNL A   1      45.904  28.290  24.248  1.00  0.00    -0.200 F 
ATOM     69  F   UNL A   1      48.421  27.793  23.322  1.00  0.00    -0.200 F 
ENDBRANCH  36  59
ENDBRANCH  10  11
ENDBRANCH   3   5
ENDBRANCH   2   3
ENDBRANCH   1   2
BRANCH   1  70
ATOM     70  C   UNL A   1      34.152  29.707  27.026  1.00  0.00     0.275 C 
BRANCH  70  71
ATOM     71  O   UNL A   1      32.725  29.663  27.100  1.00  0.00    -0.458 OA
BRANCH  71  72
ATOM     72  C   UNL A   1      32.119  28.458  27.122  1.00  0.00     0.338 C 
ATOM     73  O   UNL A   1      31.773  27.827  28.107  1.00  0.00    -0.246 OA
BRANCH  72  74
ATOM     74  C   UNL A   1      31.733  28.135  25.725  1.00  0.00     0.068 A 
ATOM     75  C   UNL A   1      30.788  29.046  25.179  1.00  0.00     0.030 A 
ATOM     76  C   UNL A   1      32.396  27.067  24.980  1.00  0.00    -0.002 A 
ATOM     77  C   UNL A   1      30.595  28.833  23.819  1.00  0.00     0.056 A 
ATOM     78  C   UNL A   1      32.170  26.932  23.569  1.00  0.00     0.012 A 
ATOM     79  C   UNL A   1      33.315  26.140  25.526  1.00  0.00     0.010 A 
ATOM     80  C   UNL A   1      29.784  29.545  22.977  1.00  0.00     0.248 A 
ATOM     81  C   UNL A   1      31.240  27.840  23.000  1.00  0.00     0.122 A 
ATOM     82  C   UNL A   1      32.851  26.006  22.760  1.00  0.00     0.011 A 
ATOM     83  C   UNL A   1      33.990  25.206  24.720  1.00  0.00     0.001 A 
ATOM     84  O   UNL A   1      29.914  29.024  21.725  1.00  0.00    -0.350 OA
ATOM     85  N   UNL A   1      30.815  27.981  21.732  1.00  0.00    -0.079 NA
ATOM     86  C   UNL A   1      33.773  25.155  23.344  1.00  0.00     0.001 A 
BRANCH  80  87
ATOM     87  C   UNL A   1      28.838  30.661  23.098  1.00  0.00     0.453 C 
ATOM     88  F   UNL A   1      28.811  31.438  21.986  1.00  0.00    -0.163 F 
ATOM     89  F   UNL A   1      27.570  30.214  23.295  1.00  0.00    -0.163 F 
ATOM     90  F   UNL A   1      29.126  31.478  24.142  1.00  0.00    -0.163 F 
ENDBRANCH  80  87
ENDBRANCH  72  74
ENDBRANCH  71  72
ENDBRANCH  70  71
ENDBRANCH   1  70
TORSDOF 12
ENDMDL
