MODEL 1
REMARK VINA RESULT:     -13.2      0.000      0.000
REMARK SMILES Cc1cc(N2CCCC2)nc2sc3c(=O)n(CC(=O)OCCOC(=O)c4ccc(-c5c6nc(c(-c7c(F)c(F)c(F)c(F)c7F)c7ccc([nH]7)c(-c7c(F)c(F)c(F)c(F)c7F)c7nc(c(-c8c(F)c(F)c(F)c(F)c8F)c8ccc5[nH]8)C=C7)C=C6)cc4)cnc3c12
REMARK SMILES IDX 21 1 20 2 18 3 19 4 17 5 16 6 1 7 2 8 3 9 92 10 4 11 11 12
REMARK SMILES IDX 91 13 10 14 12 15 13 16 90 17 14 18 89 19 15 20 5 21 6 22
REMARK SMILES IDX 9 23 7 24 8 25 22 26 23 27 24 28 25 29 26 30 27 31 88 32
REMARK SMILES IDX 28 33 87 34 29 35 30 36 31 37 81 38 32 39 86 40 80 41 82 42
REMARK SMILES IDX 33 43 85 44 79 45 78 46 34 48 66 49 46 50 65 51 47 52 50 53
REMARK SMILES IDX 64 54 83 55 48 56 49 57 63 59 84 60 51 61 35 62 36 63 44 64
REMARK SMILES IDX 37 65 38 66 42 67 45 68 39 69 40 70 43 71 41 72 67 73 68 74
REMARK SMILES IDX 76 75 69 76 70 77 74 78 77 79 71 80 72 81 75 82 73 83 52 84
REMARK SMILES IDX 53 85 61 86 54 87 55 88 59 89 62 90 56 91 57 92 60 93 58 94
REMARK H PARENT 82 47 50 58
REMARK Flexibility Score: inf
ROOT
ATOM      1  C   UNL A   1      37.778  22.533  25.689  1.00  0.00     0.274 C 
ENDROOT
BRANCH   1   2
ATOM      2  O   UNL A   1      36.899  22.234  24.581  1.00  0.00    -0.461 OA
BRANCH   2   3
ATOM      3  C   UNL A   1      35.660  21.799  24.926  1.00  0.00     0.326 C 
ATOM      4  O   UNL A   1      35.383  21.267  25.998  1.00  0.00    -0.250 OA
BRANCH   3   5
ATOM      5  C   UNL A   1      34.580  22.086  23.890  1.00  0.00     0.249 C 
BRANCH   5   6
ATOM      6  N   UNL A   1      33.942  23.391  23.917  1.00  0.00    -0.287 N 
ATOM      7  C   UNL A   1      32.087  27.903  26.512  1.00  0.00     0.045 C 
ATOM      8  C   UNL A   1      31.637  27.976  25.081  1.00  0.00    -0.035 A 
ATOM      9  C   UNL A   1      30.885  29.075  24.641  1.00  0.00     0.051 A 
ATOM     10  C   UNL A   1      31.921  26.985  24.112  1.00  0.00     0.041 A 
ATOM     11  C   UNL A   1      30.420  29.161  23.329  1.00  0.00     0.130 A 
ATOM     12  C   UNL A   1      31.440  27.198  22.822  1.00  0.00     0.128 A 
ATOM     13  C   UNL A   1      32.608  25.738  24.149  1.00  0.00     0.098 A 
ATOM     14  N   UNL A   1      30.669  28.219  22.408  1.00  0.00    -0.220 NA
ATOM     15  S   UNL A   1      31.946  26.000  21.708  1.00  0.00    -0.108 S 
ATOM     16  C   UNL A   1      32.763  25.157  22.923  1.00  0.00     0.121 A 
ATOM     17  N   UNL A   1      33.091  25.143  25.321  1.00  0.00    -0.236 NA
ATOM     18  C   UNL A   1      33.501  23.942  22.715  1.00  0.00     0.271 A 
ATOM     19  C   UNL A   1      33.700  24.018  25.126  1.00  0.00     0.203 A 
ATOM     20  O   UNL A   1      33.711  23.419  21.632  1.00  0.00    -0.268 OA
BRANCH  11  21
ATOM     21  N   UNL A   1      29.642  30.216  22.945  1.00  0.00    -0.357 N 
ATOM     22  C   UNL A   1      29.088  31.203  23.843  1.00  0.00     0.118 C 
ATOM     23  C   UNL A   1      29.043  30.232  21.624  1.00  0.00     0.118 C 
ATOM     24  C   UNL A   1      27.744  31.520  23.199  1.00  0.00     0.023 C 
ATOM     25  C   UNL A   1      28.023  31.372  21.707  1.00  0.00     0.023 C 
ENDBRANCH  11  21
ENDBRANCH   5   6
ENDBRANCH   3   5
ENDBRANCH   2   3
ENDBRANCH   1   2
BRANCH   1  26
ATOM     26  C   UNL A   1      38.832  21.444  25.896  1.00  0.00     0.275 C 
BRANCH  26  27
ATOM     27  O   UNL A   1      40.154  22.007  26.012  1.00  0.00    -0.458 OA
BRANCH  27  28
ATOM     28  C   UNL A   1      40.561  22.100  27.295  1.00  0.00     0.338 C 
ATOM     29  O   UNL A   1      40.654  21.182  28.096  1.00  0.00    -0.246 OA
BRANCH  28  30
ATOM     30  C   UNL A   1      40.986  23.452  27.685  1.00  0.00     0.060 A 
ATOM     31  C   UNL A   1      40.059  24.453  27.997  1.00  0.00     0.016 A 
ATOM     32  C   UNL A   1      42.311  23.773  27.394  1.00  0.00     0.016 A 
ATOM     33  C   UNL A   1      40.446  25.794  27.902  1.00  0.00     0.010 A 
ATOM     34  C   UNL A   1      42.698  25.104  27.333  1.00  0.00     0.010 A 
ATOM     35  C   UNL A   1      41.765  26.124  27.558  1.00  0.00    -0.014 A 
BRANCH  35  36
ATOM     36  C   UNL A   1      42.173  27.543  27.545  1.00  0.00     0.031 A 
ATOM     37  C   UNL A   1      41.018  28.493  27.458  1.00  0.00     0.074 A 
ATOM     38  C   UNL A   1      43.307  27.983  28.134  1.00  0.00     0.049 A 
ATOM     39  N   UNL A   1      40.263  28.766  28.484  1.00  0.00    -0.248 NA
ATOM     40  C   UNL A   1      40.469  28.954  26.186  1.00  0.00     0.031 C 
ATOM     41  C   UNL A   1      43.957  27.322  29.275  1.00  0.00     0.029 A 
ATOM     42  N   UNL A   1      43.969  29.187  28.021  1.00  0.00    -0.354 N 
ATOM     43  C   UNL A   1      39.117  29.369  28.007  1.00  0.00     0.074 A 
ATOM     44  C   UNL A   1      39.300  29.490  26.576  1.00  0.00     0.031 C 
ATOM     45  C   UNL A   1      44.773  28.211  29.879  1.00  0.00     0.029 A 
ATOM     46  C   UNL A   1      44.817  29.444  29.097  1.00  0.00     0.049 A 
ATOM     47  H   UNL A   1      43.856  29.802  27.259  1.00  0.00     0.167 HD
ATOM     48  C   UNL A   1      38.080  29.718  28.814  1.00  0.00     0.037 A 
ATOM     49  C   UNL A   1      45.055  30.682  29.615  1.00  0.00     0.037 A 
ATOM     50  C   UNL A   1      38.229  29.401  30.204  1.00  0.00     0.049 A 
ATOM     51  C   UNL A   1      43.729  30.958  30.292  1.00  0.00     0.074 A 
ATOM     52  C   UNL A   1      37.864  28.385  31.060  1.00  0.00     0.029 A 
ATOM     53  N   UNL A   1      38.970  30.254  30.987  1.00  0.00    -0.354 N 
ATOM     54  N   UNL A   1      43.309  30.456  31.425  1.00  0.00    -0.248 NA
ATOM     55  C   UNL A   1      42.682  31.571  29.472  1.00  0.00     0.031 C 
ATOM     56  C   UNL A   1      38.808  28.441  32.137  1.00  0.00     0.029 A 
ATOM     57  C   UNL A   1      39.707  29.461  31.829  1.00  0.00     0.049 A 
ATOM     58  H   UNL A   1      38.971  31.238  30.951  1.00  0.00     0.167 HD
ATOM     59  C   UNL A   1      41.914  30.468  31.342  1.00  0.00     0.074 A 
ATOM     60  C   UNL A   1      41.597  31.198  30.132  1.00  0.00     0.031 C 
ATOM     61  C   UNL A   1      41.091  29.734  32.145  1.00  0.00     0.037 A 
BRANCH  48  62
ATOM     62  C   UNL A   1      36.938  30.548  28.396  1.00  0.00     0.064 A 
ATOM     63  C   UNL A   1      37.037  31.933  28.603  1.00  0.00     0.173 A 
ATOM     64  C   UNL A   1      35.701  30.020  28.023  1.00  0.00     0.173 A 
ATOM     65  F   UNL A   1      38.211  32.470  28.979  1.00  0.00    -0.203 F 
ATOM     66  C   UNL A   1      35.928  32.757  28.491  1.00  0.00     0.198 A 
ATOM     67  C   UNL A   1      34.588  30.853  27.897  1.00  0.00     0.198 A 
ATOM     68  F   UNL A   1      35.557  28.700  27.829  1.00  0.00    -0.203 F 
ATOM     69  F   UNL A   1      36.043  34.067  28.751  1.00  0.00    -0.200 F 
ATOM     70  C   UNL A   1      34.699  32.217  28.146  1.00  0.00     0.200 A 
ATOM     71  F   UNL A   1      33.397  30.335  27.568  1.00  0.00    -0.200 F 
ATOM     72  F   UNL A   1      33.620  33.006  28.072  1.00  0.00    -0.200 F 
ENDBRANCH  48  62
BRANCH  49  73
ATOM     73  C   UNL A   1      45.719  31.656  28.680  1.00  0.00     0.064 A 
ATOM     74  C   UNL A   1      47.021  32.106  28.991  1.00  0.00     0.173 A 
ATOM     75  C   UNL A   1      45.166  32.166  27.496  1.00  0.00     0.173 A 
ATOM     76  F   UNL A   1      47.580  31.791  30.170  1.00  0.00    -0.203 F 
ATOM     77  C   UNL A   1      47.777  32.865  28.097  1.00  0.00     0.198 A 
ATOM     78  C   UNL A   1      45.932  32.902  26.585  1.00  0.00     0.198 A 
ATOM     79  F   UNL A   1      43.882  31.947  27.179  1.00  0.00    -0.203 F 
ATOM     80  F   UNL A   1      49.031  33.217  28.414  1.00  0.00    -0.200 F 
ATOM     81  C   UNL A   1      47.245  33.227  26.874  1.00  0.00     0.200 A 
ATOM     82  F   UNL A   1      45.399  33.263  25.409  1.00  0.00    -0.200 F 
ATOM     83  F   UNL A   1      47.992  33.888  25.980  1.00  0.00    -0.200 F 
ENDBRANCH  49  73
BRANCH  61  84
ATOM     84  C   UNL A   1      41.744  28.992  33.258  1.00  0.00     0.064 A 
ATOM     85  C   UNL A   1      41.775  29.536  34.547  1.00  0.00     0.173 A 
ATOM     86  C   UNL A   1      42.266  27.703  33.071  1.00  0.00     0.173 A 
ATOM     87  F   UNL A   1      41.274  30.760  34.778  1.00  0.00    -0.203 F 
ATOM     88  C   UNL A   1      42.278  28.803  35.617  1.00  0.00     0.198 A 
ATOM     89  C   UNL A   1      42.742  26.962  34.148  1.00  0.00     0.198 A 
ATOM     90  F   UNL A   1      42.279  27.137  31.853  1.00  0.00    -0.203 F 
ATOM     91  F   UNL A   1      42.280  29.332  36.849  1.00  0.00    -0.200 F 
ATOM     92  C   UNL A   1      42.744  27.511  35.419  1.00  0.00     0.200 A 
ATOM     93  F   UNL A   1      43.166  25.703  33.961  1.00  0.00    -0.200 F 
ATOM     94  F   UNL A   1      43.179  26.787  36.461  1.00  0.00    -0.200 F 
ENDBRANCH  61  84
ENDBRANCH  35  36
ENDBRANCH  28  30
ENDBRANCH  27  28
ENDBRANCH  26  27
ENDBRANCH   1  26
TORSDOF 13
ENDMDL
MODEL 2
REMARK VINA RESULT:     -12.7      3.342      8.312
REMARK SMILES Cc1cc(N2CCCC2)nc2sc3c(=O)n(CC(=O)OCCOC(=O)c4ccc(-c5c6nc(c(-c7c(F)c(F)c(F)c(F)c7F)c7ccc([nH]7)c(-c7c(F)c(F)c(F)c(F)c7F)c7nc(c(-c8c(F)c(F)c(F)c(F)c8F)c8ccc5[nH]8)C=C7)C=C6)cc4)cnc3c12
REMARK SMILES IDX 21 1 20 2 18 3 19 4 17 5 16 6 1 7 2 8 3 9 92 10 4 11 11 12
REMARK SMILES IDX 91 13 10 14 12 15 13 16 90 17 14 18 89 19 15 20 5 21 6 22
REMARK SMILES IDX 9 23 7 24 8 25 22 26 23 27 24 28 25 29 26 30 27 31 88 32
REMARK SMILES IDX 28 33 87 34 29 35 30 36 31 37 81 38 32 39 86 40 80 41 82 42
REMARK SMILES IDX 33 43 85 44 79 45 78 46 34 48 66 49 46 50 65 51 47 52 50 53
REMARK SMILES IDX 64 54 83 55 48 56 49 57 63 59 84 60 51 61 35 62 36 63 44 64
REMARK SMILES IDX 37 65 38 66 42 67 45 68 39 69 40 70 43 71 41 72 67 73 68 74
REMARK SMILES IDX 76 75 69 76 70 77 74 78 77 79 71 80 72 81 75 82 73 83 52 84
REMARK SMILES IDX 53 85 61 86 54 87 55 88 59 89 62 90 56 91 57 92 60 93 58 94
REMARK H PARENT 82 47 50 58
REMARK Flexibility Score: inf
ROOT
ATOM      1  C   UNL A   1      32.998  30.535  27.087  1.00  0.00     0.274 C 
ENDROOT
BRANCH   1   2
ATOM      2  O   UNL A   1      33.609  29.578  26.192  1.00  0.00    -0.461 OA
BRANCH   2   3
ATOM      3  C   UNL A   1      32.788  29.079  25.231  1.00  0.00     0.326 C 
ATOM      4  O   UNL A   1      31.613  29.401  25.084  1.00  0.00    -0.250 OA
BRANCH   3   5
ATOM      5  C   UNL A   1      33.464  28.112  24.267  1.00  0.00     0.249 C 
BRANCH   5   6
ATOM      6  N   UNL A   1      33.338  26.689  24.532  1.00  0.00    -0.287 N 
ATOM      7  C   UNL A   1      33.718  22.243  27.791  1.00  0.00     0.045 C 
ATOM      8  C   UNL A   1      33.405  21.770  26.400  1.00  0.00    -0.035 A 
ATOM      9  C   UNL A   1      33.262  20.398  26.145  1.00  0.00     0.051 A 
ATOM     10  C   UNL A   1      33.243  22.632  25.290  1.00  0.00     0.041 A 
ATOM     11  C   UNL A   1      33.006  19.920  24.860  1.00  0.00     0.130 A 
ATOM     12  C   UNL A   1      32.949  22.043  24.062  1.00  0.00     0.128 A 
ATOM     13  C   UNL A   1      33.332  24.043  25.116  1.00  0.00     0.098 A 
ATOM     14  N   UNL A   1      32.868  20.728  23.799  1.00  0.00    -0.220 NA
ATOM     15  S   UNL A   1      32.653  23.185  22.821  1.00  0.00    -0.108 S 
ATOM     16  C   UNL A   1      32.961  24.470  23.874  1.00  0.00     0.121 A 
ATOM     17  N   UNL A   1      33.757  24.931  26.113  1.00  0.00    -0.236 NA
ATOM     18  C   UNL A   1      32.889  25.858  23.507  1.00  0.00     0.271 A 
ATOM     19  C   UNL A   1      33.747  26.173  25.748  1.00  0.00     0.203 A 
ATOM     20  O   UNL A   1      32.510  26.285  22.428  1.00  0.00    -0.268 OA
BRANCH  11  21
ATOM     21  N   UNL A   1      32.928  18.575  24.633  1.00  0.00    -0.357 N 
ATOM     22  C   UNL A   1      32.529  17.594  25.615  1.00  0.00     0.118 C 
ATOM     23  C   UNL A   1      33.564  18.000  23.463  1.00  0.00     0.118 C 
ATOM     24  C   UNL A   1      33.397  16.393  25.257  1.00  0.00     0.023 C 
ATOM     25  C   UNL A   1      33.531  16.494  23.741  1.00  0.00     0.023 C 
ENDBRANCH  11  21
ENDBRANCH   5   6
ENDBRANCH   3   5
ENDBRANCH   2   3
ENDBRANCH   1   2
BRANCH   1  26
ATOM     26  C   UNL A   1      34.026  31.197  28.008  1.00  0.00     0.275 C 
BRANCH  26  27
ATOM     27  O   UNL A   1      35.078  31.829  27.252  1.00  0.00    -0.458 OA
BRANCH  27  28
ATOM     28  C   UNL A   1      35.846  32.633  28.016  1.00  0.00     0.338 C 
ATOM     29  O   UNL A   1      35.602  33.790  28.326  1.00  0.00    -0.246 OA
BRANCH  28  30
ATOM     30  C   UNL A   1      37.044  31.973  28.553  1.00  0.00     0.060 A 
ATOM     31  C   UNL A   1      37.581  30.826  27.959  1.00  0.00     0.016 A 
ATOM     32  C   UNL A   1      37.399  32.334  29.852  1.00  0.00     0.016 A 
ATOM     33  C   UNL A   1      38.391  29.978  28.720  1.00  0.00     0.010 A 
ATOM     34  C   UNL A   1      38.228  31.506  30.593  1.00  0.00     0.010 A 
ATOM     35  C   UNL A   1      38.708  30.310  30.046  1.00  0.00    -0.014 A 
BRANCH  35  36
ATOM     36  C   UNL A   1      39.631  29.443  30.806  1.00  0.00     0.031 A 
ATOM     37  C   UNL A   1      39.647  28.025  30.323  1.00  0.00     0.074 A 
ATOM     38  C   UNL A   1      40.743  29.914  31.412  1.00  0.00     0.049 A 
ATOM     39  N   UNL A   1      40.273  27.665  29.238  1.00  0.00    -0.248 NA
ATOM     40  C   UNL A   1      38.743  27.003  30.845  1.00  0.00     0.031 C 
ATOM     41  C   UNL A   1      41.479  31.111  30.980  1.00  0.00     0.029 A 
ATOM     42  N   UNL A   1      41.571  29.330  32.348  1.00  0.00    -0.354 N 
ATOM     43  C   UNL A   1      39.812  26.412  28.889  1.00  0.00     0.074 A 
ATOM     44  C   UNL A   1      38.882  26.029  29.930  1.00  0.00     0.031 C 
ATOM     45  C   UNL A   1      42.726  31.057  31.491  1.00  0.00     0.029 A 
ATOM     46  C   UNL A   1      42.836  29.913  32.392  1.00  0.00     0.049 A 
ATOM     47  H   UNL A   1      41.297  28.581  32.925  1.00  0.00     0.167 HD
ATOM     48  C   UNL A   1      40.208  25.773  27.757  1.00  0.00     0.037 A 
ATOM     49  C   UNL A   1      43.991  29.237  32.648  1.00  0.00     0.037 A 
ATOM     50  C   UNL A   1      41.127  26.487  26.919  1.00  0.00     0.049 A 
ATOM     51  C   UNL A   1      44.141  28.452  31.361  1.00  0.00     0.074 A 
ATOM     52  C   UNL A   1      41.069  27.300  25.807  1.00  0.00     0.029 A 
ATOM     53  N   UNL A   1      42.460  26.468  27.255  1.00  0.00    -0.354 N 
ATOM     54  N   UNL A   1      44.549  28.913  30.206  1.00  0.00    -0.248 NA
ATOM     55  C   UNL A   1      43.468  27.154  31.294  1.00  0.00     0.031 C 
ATOM     56  C   UNL A   1      42.260  28.093  25.857  1.00  0.00     0.029 A 
ATOM     57  C   UNL A   1      42.933  27.735  27.025  1.00  0.00     0.049 A 
ATOM     58  H   UNL A   1      42.973  25.698  27.593  1.00  0.00     0.167 HD
ATOM     59  C   UNL A   1      43.963  28.083  29.247  1.00  0.00     0.074 A 
ATOM     60  C   UNL A   1      43.341  27.004  29.986  1.00  0.00     0.031 C 
ATOM     61  C   UNL A   1      43.845  28.402  27.925  1.00  0.00     0.037 A 
BRANCH  48  62
ATOM     62  C   UNL A   1      39.917  24.363  27.447  1.00  0.00     0.064 A 
ATOM     63  C   UNL A   1      40.858  23.405  27.854  1.00  0.00     0.173 A 
ATOM     64  C   UNL A   1      38.891  23.963  26.590  1.00  0.00     0.173 A 
ATOM     65  F   UNL A   1      41.869  23.765  28.667  1.00  0.00    -0.203 F 
ATOM     66  C   UNL A   1      40.807  22.102  27.384  1.00  0.00     0.198 A 
ATOM     67  C   UNL A   1      38.832  22.646  26.129  1.00  0.00     0.198 A 
ATOM     68  F   UNL A   1      37.978  24.848  26.164  1.00  0.00    -0.203 F 
ATOM     69  F   UNL A   1      41.754  21.226  27.747  1.00  0.00    -0.200 F 
ATOM     70  C   UNL A   1      39.798  21.723  26.513  1.00  0.00     0.200 A 
ATOM     71  F   UNL A   1      37.861  22.276  25.283  1.00  0.00    -0.200 F 
ATOM     72  F   UNL A   1      39.768  20.474  26.031  1.00  0.00    -0.200 F 
ENDBRANCH  48  62
BRANCH  49  73
ATOM     73  C   UNL A   1      44.082  28.605  34.010  1.00  0.00     0.064 A 
ATOM     74  C   UNL A   1      45.203  28.903  34.816  1.00  0.00     0.173 A 
ATOM     75  C   UNL A   1      43.136  27.739  34.579  1.00  0.00     0.173 A 
ATOM     76  F   UNL A   1      46.230  29.603  34.310  1.00  0.00    -0.203 F 
ATOM     77  C   UNL A   1      45.282  28.507  36.151  1.00  0.00     0.198 A 
ATOM     78  C   UNL A   1      43.199  27.367  35.927  1.00  0.00     0.198 A 
ATOM     79  F   UNL A   1      42.118  27.252  33.857  1.00  0.00    -0.203 F 
ATOM     80  F   UNL A   1      46.340  28.865  36.892  1.00  0.00    -0.200 F 
ATOM     81  C   UNL A   1      44.257  27.773  36.718  1.00  0.00     0.200 A 
ATOM     82  F   UNL A   1      42.207  26.639  36.461  1.00  0.00    -0.200 F 
ATOM     83  F   UNL A   1      44.291  27.457  38.020  1.00  0.00    -0.200 F 
ENDBRANCH  49  73
BRANCH  61  84
ATOM     84  C   UNL A   1      44.516  29.655  27.486  1.00  0.00     0.064 A 
ATOM     85  C   UNL A   1      43.841  30.879  27.555  1.00  0.00     0.173 A 
ATOM     86  C   UNL A   1      45.858  29.662  27.076  1.00  0.00     0.173 A 
ATOM     87  F   UNL A   1      42.561  30.924  27.957  1.00  0.00    -0.203 F 
ATOM     88  C   UNL A   1      44.496  32.070  27.259  1.00  0.00     0.198 A 
ATOM     89  C   UNL A   1      46.517  30.858  26.807  1.00  0.00     0.198 A 
ATOM     90  F   UNL A   1      46.551  28.516  26.974  1.00  0.00    -0.203 F 
ATOM     91  F   UNL A   1      43.839  33.235  27.352  1.00  0.00    -0.200 F 
ATOM     92  C   UNL A   1      45.837  32.060  26.903  1.00  0.00     0.200 A 
ATOM     93  F   UNL A   1      47.820  30.849  26.491  1.00  0.00    -0.200 F 
ATOM     94  F   UNL A   1      46.478  33.214  26.669  1.00  0.00    -0.200 F 
ENDBRANCH  61  84
ENDBRANCH  35  36
ENDBRANCH  28  30
ENDBRANCH  27  28
ENDBRANCH  26  27
ENDBRANCH   1  26
TORSDOF 13
ENDMDL
MODEL 3
REMARK VINA RESULT:     -12.4      1.088      2.291
REMARK SMILES Cc1cc(N2CCCC2)nc2sc3c(=O)n(CC(=O)OCCOC(=O)c4ccc(-c5c6nc(c(-c7c(F)c(F)c(F)c(F)c7F)c7ccc([nH]7)c(-c7c(F)c(F)c(F)c(F)c7F)c7nc(c(-c8c(F)c(F)c(F)c(F)c8F)c8ccc5[nH]8)C=C7)C=C6)cc4)cnc3c12
REMARK SMILES IDX 21 1 20 2 18 3 19 4 17 5 16 6 1 7 2 8 3 9 92 10 4 11 11 12
REMARK SMILES IDX 91 13 10 14 12 15 13 16 90 17 14 18 89 19 15 20 5 21 6 22
REMARK SMILES IDX 9 23 7 24 8 25 22 26 23 27 24 28 25 29 26 30 27 31 88 32
REMARK SMILES IDX 28 33 87 34 29 35 30 36 31 37 81 38 32 39 86 40 80 41 82 42
REMARK SMILES IDX 33 43 85 44 79 45 78 46 34 48 66 49 46 50 65 51 47 52 50 53
REMARK SMILES IDX 64 54 83 55 48 56 49 57 63 59 84 60 51 61 35 62 36 63 44 64
REMARK SMILES IDX 37 65 38 66 42 67 45 68 39 69 40 70 43 71 41 72 67 73 68 74
REMARK SMILES IDX 76 75 69 76 70 77 74 78 77 79 71 80 72 81 75 82 73 83 52 84
REMARK SMILES IDX 53 85 61 86 54 87 55 88 59 89 62 90 56 91 57 92 60 93 58 94
REMARK H PARENT 82 47 50 58
REMARK Flexibility Score: inf
ROOT
ATOM      1  C   UNL A   1      38.215  22.089  25.764  1.00  0.00     0.274 C 
ENDROOT
BRANCH   1   2
ATOM      2  O   UNL A   1      37.098  21.487  25.071  1.00  0.00    -0.461 OA
BRANCH   2   3
ATOM      3  C   UNL A   1      36.466  22.295  24.180  1.00  0.00     0.326 C 
ATOM      4  O   UNL A   1      37.034  22.952  23.313  1.00  0.00    -0.250 OA
BRANCH   3   5
ATOM      5  C   UNL A   1      34.946  22.279  24.285  1.00  0.00     0.249 C 
BRANCH   5   6
ATOM      6  N   UNL A   1      34.249  23.553  24.260  1.00  0.00    -0.287 N 
ATOM      7  C   UNL A   1      32.244  28.107  26.663  1.00  0.00     0.045 C 
ATOM      8  C   UNL A   1      31.763  28.085  25.241  1.00  0.00    -0.035 A 
ATOM      9  C   UNL A   1      30.951  29.126  24.763  1.00  0.00     0.051 A 
ATOM     10  C   UNL A   1      32.070  27.059  24.318  1.00  0.00     0.041 A 
ATOM     11  C   UNL A   1      30.456  29.122  23.459  1.00  0.00     0.130 A 
ATOM     12  C   UNL A   1      31.554  27.183  23.030  1.00  0.00     0.128 A 
ATOM     13  C   UNL A   1      32.815  25.847  24.403  1.00  0.00     0.098 A 
ATOM     14  N   UNL A   1      30.729  28.145  22.583  1.00  0.00    -0.220 NA
ATOM     15  S   UNL A   1      32.091  25.953  21.967  1.00  0.00    -0.108 S 
ATOM     16  C   UNL A   1      32.970  25.211  23.205  1.00  0.00     0.121 A 
ATOM     17  N   UNL A   1      33.348  25.336  25.592  1.00  0.00    -0.236 NA
ATOM     18  C   UNL A   1      33.759  24.021  23.042  1.00  0.00     0.271 A 
ATOM     19  C   UNL A   1      34.004  24.231  25.441  1.00  0.00     0.203 A 
ATOM     20  O   UNL A   1      33.970  23.452  21.983  1.00  0.00    -0.268 OA
BRANCH  11  21
ATOM     21  N   UNL A   1      29.623  30.120  23.041  1.00  0.00    -0.357 N 
ATOM     22  C   UNL A   1      29.180  31.224  23.860  1.00  0.00     0.118 C 
ATOM     23  C   UNL A   1      28.856  29.959  21.820  1.00  0.00     0.118 C 
ATOM     24  C   UNL A   1      27.759  31.459  23.360  1.00  0.00     0.023 C 
ATOM     25  C   UNL A   1      27.843  31.107  21.879  1.00  0.00     0.023 C 
ENDBRANCH  11  21
ENDBRANCH   5   6
ENDBRANCH   3   5
ENDBRANCH   2   3
ENDBRANCH   1   2
BRANCH   1  26
ATOM     26  C   UNL A   1      39.353  21.092  25.992  1.00  0.00     0.275 C 
BRANCH  26  27
ATOM     27  O   UNL A   1      40.006  21.321  27.257  1.00  0.00    -0.458 OA
BRANCH  27  28
ATOM     28  C   UNL A   1      41.273  21.759  27.108  1.00  0.00     0.338 C 
ATOM     29  O   UNL A   1      42.276  21.066  27.015  1.00  0.00    -0.246 OA
BRANCH  28  30
ATOM     30  C   UNL A   1      41.384  23.219  26.984  1.00  0.00     0.060 A 
ATOM     31  C   UNL A   1      41.946  23.821  25.852  1.00  0.00     0.016 A 
ATOM     32  C   UNL A   1      41.225  23.938  28.168  1.00  0.00     0.016 A 
ATOM     33  C   UNL A   1      42.456  25.119  25.952  1.00  0.00     0.010 A 
ATOM     34  C   UNL A   1      41.704  25.237  28.252  1.00  0.00     0.010 A 
ATOM     35  C   UNL A   1      42.347  25.828  27.157  1.00  0.00    -0.014 A 
BRANCH  35  36
ATOM     36  C   UNL A   1      42.817  27.227  27.216  1.00  0.00     0.031 A 
ATOM     37  C   UNL A   1      41.706  28.222  27.351  1.00  0.00     0.074 A 
ATOM     38  C   UNL A   1      44.031  27.570  27.702  1.00  0.00     0.049 A 
ATOM     39  N   UNL A   1      41.089  28.429  28.480  1.00  0.00    -0.248 NA
ATOM     40  C   UNL A   1      41.035  28.817  26.198  1.00  0.00     0.031 C 
ATOM     41  C   UNL A   1      44.778  26.784  28.695  1.00  0.00     0.029 A 
ATOM     42  N   UNL A   1      44.732  28.754  27.613  1.00  0.00    -0.354 N 
ATOM     43  C   UNL A   1      39.925  29.114  28.197  1.00  0.00     0.074 A 
ATOM     44  C   UNL A   1      39.947  29.357  26.769  1.00  0.00     0.031 C 
ATOM     45  C   UNL A   1      45.699  27.584  29.271  1.00  0.00     0.029 A 
ATOM     46  C   UNL A   1      45.710  28.881  28.598  1.00  0.00     0.049 A 
ATOM     47  H   UNL A   1      44.560  29.438  26.927  1.00  0.00     0.167 HD
ATOM     48  C   UNL A   1      39.006  29.426  29.149  1.00  0.00     0.037 A 
ATOM     49  C   UNL A   1      46.065  30.056  29.188  1.00  0.00     0.037 A 
ATOM     50  C   UNL A   1      39.301  28.979  30.478  1.00  0.00     0.049 A 
ATOM     51  C   UNL A   1      44.841  30.319  30.040  1.00  0.00     0.074 A 
ATOM     52  C   UNL A   1      38.990  27.904  31.283  1.00  0.00     0.029 A 
ATOM     53  N   UNL A   1      40.167  29.730  31.238  1.00  0.00    -0.354 N 
ATOM     54  N   UNL A   1      44.532  29.731  31.168  1.00  0.00    -0.248 NA
ATOM     55  C   UNL A   1      43.736  31.041  29.408  1.00  0.00     0.031 C 
ATOM     56  C   UNL A   1      40.054  27.827  32.239  1.00  0.00     0.029 A 
ATOM     57  C   UNL A   1      40.959  28.837  31.914  1.00  0.00     0.049 A 
ATOM     58  H   UNL A   1      40.210  30.712  31.287  1.00  0.00     0.167 HD
ATOM     59  C   UNL A   1      43.139  29.802  31.254  1.00  0.00     0.074 A 
ATOM     60  C   UNL A   1      42.719  30.650  30.159  1.00  0.00     0.031 C 
ATOM     61  C   UNL A   1      42.381  29.029  32.085  1.00  0.00     0.037 A 
BRANCH  48  62
ATOM     62  C   UNL A   1      37.864  30.333  28.943  1.00  0.00     0.064 A 
ATOM     63  C   UNL A   1      36.750  29.822  28.259  1.00  0.00     0.173 A 
ATOM     64  C   UNL A   1      37.921  31.706  29.187  1.00  0.00     0.173 A 
ATOM     65  F   UNL A   1      36.675  28.505  27.995  1.00  0.00    -0.203 F 
ATOM     66  C   UNL A   1      35.749  30.658  27.790  1.00  0.00     0.198 A 
ATOM     67  C   UNL A   1      36.905  32.545  28.726  1.00  0.00     0.198 A 
ATOM     68  F   UNL A   1      38.973  32.239  29.825  1.00  0.00    -0.203 F 
ATOM     69  F   UNL A   1      34.727  30.146  27.090  1.00  0.00    -0.200 F 
ATOM     70  C   UNL A   1      35.830  32.023  28.015  1.00  0.00     0.200 A 
ATOM     71  F   UNL A   1      36.980  33.866  28.937  1.00  0.00    -0.200 F 
ATOM     72  F   UNL A   1      34.882  32.836  27.532  1.00  0.00    -0.200 F 
ENDBRANCH  48  62
BRANCH  49  73
ATOM     73  C   UNL A   1      46.661  31.087  28.268  1.00  0.00     0.064 A 
ATOM     74  C   UNL A   1      45.838  31.655  27.271  1.00  0.00     0.173 A 
ATOM     75  C   UNL A   1      47.981  31.560  28.309  1.00  0.00     0.173 A 
ATOM     76  F   UNL A   1      44.606  31.167  27.055  1.00  0.00    -0.203 F 
ATOM     77  C   UNL A   1      46.253  32.737  26.494  1.00  0.00     0.198 A 
ATOM     78  C   UNL A   1      48.389  32.665  27.554  1.00  0.00     0.198 A 
ATOM     79  F   UNL A   1      48.900  30.985  29.096  1.00  0.00    -0.203 F 
ATOM     80  F   UNL A   1      45.412  33.279  25.602  1.00  0.00    -0.200 F 
ATOM     81  C   UNL A   1      47.516  33.269  26.667  1.00  0.00     0.200 A 
ATOM     82  F   UNL A   1      49.624  33.162  27.717  1.00  0.00    -0.200 F 
ATOM     83  F   UNL A   1      47.892  34.357  25.981  1.00  0.00    -0.200 F 
ENDBRANCH  49  73
BRANCH  61  84
ATOM     84  C   UNL A   1      43.123  28.166  33.043  1.00  0.00     0.064 A 
ATOM     85  C   UNL A   1      43.610  26.918  32.639  1.00  0.00     0.173 A 
ATOM     86  C   UNL A   1      43.429  28.607  34.340  1.00  0.00     0.173 A 
ATOM     87  F   UNL A   1      43.355  26.460  31.403  1.00  0.00    -0.203 F 
ATOM     88  C   UNL A   1      44.404  26.155  33.488  1.00  0.00     0.198 A 
ATOM     89  C   UNL A   1      44.247  27.854  35.176  1.00  0.00     0.198 A 
ATOM     90  F   UNL A   1      42.975  29.789  34.789  1.00  0.00    -0.203 F 
ATOM     91  F   UNL A   1      44.880  24.971  33.076  1.00  0.00    -0.200 F 
ATOM     92  C   UNL A   1      44.736  26.631  34.749  1.00  0.00     0.200 A 
ATOM     93  F   UNL A   1      44.591  28.327  36.383  1.00  0.00    -0.200 F 
ATOM     94  F   UNL A   1      45.545  25.917  35.545  1.00  0.00    -0.200 F 
ENDBRANCH  61  84
ENDBRANCH  35  36
ENDBRANCH  28  30
ENDBRANCH  27  28
ENDBRANCH  26  27
ENDBRANCH   1  26
TORSDOF 13
ENDMDL
