MODEL 1
REMARK VINA RESULT:      -9.6      0.000      0.000
REMARK SMILES CCCc1n[nH]c(C(=O)N[C@H](C)CC(=O)OCCOC(=O)c2ccc(-c3c4nc(c(-c5c(F)c(F)c(F)c(F)c5F)c5ccc([nH]5)c(-c5c(F)c(F)c(F)c(F)c5F)c5nc(c(-c6c(F)c(F)c(F)c(F)c6F)c6ccc3[nH]6)C=C5)C=C4)cc2)n1
REMARK SMILES IDX 16 1 14 2 15 3 13 4 11 5 12 6 10 7 8 8 9 9 7 11 4 12 5 13
REMARK SMILES IDX 85 14 6 15 3 17 2 18 1 19 17 20 18 21 19 22 20 23 21 24
REMARK SMILES IDX 22 25 23 26 84 27 24 28 83 29 25 30 26 31 27 32 77 33 28 34
REMARK SMILES IDX 82 35 76 36 78 37 29 38 81 39 75 40 74 41 30 43 62 44 42 45
REMARK SMILES IDX 61 46 43 47 46 48 60 49 79 50 44 51 45 52 59 54 80 55 47 56
REMARK SMILES IDX 31 57 32 58 40 59 33 60 34 61 38 62 41 63 35 64 36 65 39 66
REMARK SMILES IDX 37 67 63 68 64 69 72 70 65 71 66 72 70 73 73 74 67 75 68 76
REMARK SMILES IDX 71 77 69 78 48 79 49 80 57 81 50 82 51 83 55 84 58 85 52 86
REMARK SMILES IDX 53 87 56 88 54 89
REMARK H PARENT 10 10 6 16 78 42 46 53
REMARK Flexibility Score: inf
ROOT
ATOM      1  O   UNL A   1      32.599  35.134  29.034  1.00  0.00    -0.462 OA
ENDROOT
BRANCH   1   2
ATOM      2  C   UNL A   1      32.901  36.381  29.469  1.00  0.00     0.307 C 
ATOM      3  O   UNL A   1      33.281  37.296  28.746  1.00  0.00    -0.252 OA
BRANCH   2   4
ATOM      4  C   UNL A   1      32.813  36.532  30.971  1.00  0.00     0.147 C 
BRANCH   4   5
ATOM      5  C   UNL A   1      33.964  35.922  31.783  1.00  0.00     0.090 C 
ATOM      6  C   UNL A   1      33.944  36.385  33.239  1.00  0.00     0.031 C 
BRANCH   5   7
ATOM      7  N   UNL A   1      33.857  34.457  31.752  1.00  0.00    -0.346 N 
ATOM      8  C   UNL A   1      34.791  33.497  31.439  1.00  0.00     0.288 C 
ATOM      9  O   UNL A   1      34.422  32.323  31.545  1.00  0.00    -0.266 OA
ATOM     10  H   UNL A   1      32.970  34.104  31.995  1.00  0.00     0.164 HD
BRANCH   8  11
ATOM     11  C   UNL A   1      36.136  33.813  31.007  1.00  0.00     0.214 A 
ATOM     12  C   UNL A   1      38.205  34.218  30.746  1.00  0.00     0.151 A 
ATOM     13  N   UNL A   1      37.725  34.305  29.499  1.00  0.00    -0.158 NA
ATOM     14  N   UNL A   1      37.253  33.931  31.699  1.00  0.00    -0.207 NA
ATOM     15  N   UNL A   1      36.425  34.040  29.691  1.00  0.00    -0.255 N 
ATOM     16  H   UNL A   1      35.756  34.011  28.968  1.00  0.00     0.192 HD
BRANCH  12  17
ATOM     17  C   UNL A   1      39.661  34.411  31.007  1.00  0.00     0.079 C 
BRANCH  17  18
ATOM     18  C   UNL A   1      40.616  34.055  29.874  1.00  0.00     0.005 C 
ATOM     19  C   UNL A   1      41.963  33.529  30.350  1.00  0.00     0.004 C 
ENDBRANCH  17  18
ENDBRANCH  12  17
ENDBRANCH   8  11
ENDBRANCH   5   7
ENDBRANCH   4   5
ENDBRANCH   2   4
ENDBRANCH   1   2
BRANCH   1  20
ATOM     20  C   UNL A   1      33.519  34.544  28.088  1.00  0.00     0.274 C 
BRANCH  20  21
ATOM     21  C   UNL A   1      33.408  33.014  27.999  1.00  0.00     0.275 C 
BRANCH  21  22
ATOM     22  O   UNL A   1      34.652  32.380  27.641  1.00  0.00    -0.458 OA
BRANCH  22  23
ATOM     23  C   UNL A   1      34.664  31.054  27.905  1.00  0.00     0.338 C 
ATOM     24  O   UNL A   1      33.794  30.262  27.587  1.00  0.00    -0.246 OA
BRANCH  23  25
ATOM     25  C   UNL A   1      35.916  30.618  28.541  1.00  0.00     0.060 A 
ATOM     26  C   UNL A   1      37.121  31.048  27.975  1.00  0.00     0.016 A 
ATOM     27  C   UNL A   1      35.914  29.700  29.593  1.00  0.00     0.016 A 
ATOM     28  C   UNL A   1      38.332  30.570  28.465  1.00  0.00     0.010 A 
ATOM     29  C   UNL A   1      37.133  29.218  30.082  1.00  0.00     0.010 A 
ATOM     30  C   UNL A   1      38.347  29.648  29.520  1.00  0.00    -0.014 A 
BRANCH  30  31
ATOM     31  C   UNL A   1      39.646  29.160  30.040  1.00  0.00     0.031 A 
ATOM     32  C   UNL A   1      40.291  29.812  31.224  1.00  0.00     0.074 A 
ATOM     33  C   UNL A   1      40.227  28.099  29.450  1.00  0.00     0.049 A 
ATOM     34  N   UNL A   1      41.426  29.522  31.812  1.00  0.00    -0.248 NA
ATOM     35  C   UNL A   1      39.569  30.940  31.829  1.00  0.00     0.031 C 
ATOM     36  C   UNL A   1      39.672  27.365  28.315  1.00  0.00     0.029 A 
ATOM     37  N   UNL A   1      41.404  27.453  29.731  1.00  0.00    -0.354 N 
ATOM     38  C   UNL A   1      41.559  30.435  32.849  1.00  0.00     0.074 A 
ATOM     39  C   UNL A   1      40.399  31.301  32.798  1.00  0.00     0.031 C 
ATOM     40  C   UNL A   1      40.501  26.355  28.003  1.00  0.00     0.029 A 
ATOM     41  C   UNL A   1      41.658  26.397  28.893  1.00  0.00     0.049 A 
ATOM     42  H   UNL A   1      42.007  27.720  30.461  1.00  0.00     0.167 HD
ATOM     43  C   UNL A   1      42.558  30.533  33.761  1.00  0.00     0.037 A 
ATOM     44  C   UNL A   1      42.712  25.561  28.843  1.00  0.00     0.037 A 
ATOM     45  C   UNL A   1      43.704  29.662  33.813  1.00  0.00     0.049 A 
ATOM     46  C   UNL A   1      43.832  25.728  29.830  1.00  0.00     0.074 A 
ATOM     47  C   UNL A   1      44.750  29.661  34.720  1.00  0.00     0.029 A 
ATOM     48  N   UNL A   1      43.958  28.636  32.913  1.00  0.00    -0.354 N 
ATOM     49  N   UNL A   1      43.943  26.583  30.817  1.00  0.00    -0.248 NA
ATOM     50  C   UNL A   1      44.976  24.817  29.691  1.00  0.00     0.031 C 
ATOM     51  C   UNL A   1      45.659  28.664  34.343  1.00  0.00     0.029 A 
ATOM     52  C   UNL A   1      45.158  28.015  33.226  1.00  0.00     0.049 A 
ATOM     53  H   UNL A   1      43.372  28.386  32.163  1.00  0.00     0.167 HD
ATOM     54  C   UNL A   1      45.156  26.303  31.428  1.00  0.00     0.074 A 
ATOM     55  C   UNL A   1      45.742  25.191  30.707  1.00  0.00     0.031 C 
ATOM     56  C   UNL A   1      45.732  26.914  32.494  1.00  0.00     0.037 A 
BRANCH  43  57
ATOM     57  C   UNL A   1      42.466  31.647  34.763  1.00  0.00     0.064 A 
ATOM     58  C   UNL A   1      41.871  31.463  36.019  1.00  0.00     0.173 A 
ATOM     59  C   UNL A   1      43.000  32.910  34.466  1.00  0.00     0.173 A 
ATOM     60  F   UNL A   1      41.339  30.277  36.347  1.00  0.00    -0.203 F 
ATOM     61  C   UNL A   1      41.787  32.513  36.931  1.00  0.00     0.198 A 
ATOM     62  C   UNL A   1      42.936  33.950  35.391  1.00  0.00     0.198 A 
ATOM     63  F   UNL A   1      43.588  33.135  33.281  1.00  0.00    -0.203 F 
ATOM     64  F   UNL A   1      41.175  32.329  38.109  1.00  0.00    -0.200 F 
ATOM     65  C   UNL A   1      42.323  33.753  36.617  1.00  0.00     0.200 A 
ATOM     66  F   UNL A   1      43.465  35.145  35.089  1.00  0.00    -0.200 F 
ATOM     67  F   UNL A   1      42.241  34.763  37.497  1.00  0.00    -0.200 F 
ENDBRANCH  43  57
BRANCH  44  68
ATOM     68  C   UNL A   1      42.739  24.484  27.825  1.00  0.00     0.064 A 
ATOM     69  C   UNL A   1      43.193  24.739  26.523  1.00  0.00     0.173 A 
ATOM     70  C   UNL A   1      42.349  23.174  28.138  1.00  0.00     0.173 A 
ATOM     71  F   UNL A   1      43.555  25.982  26.173  1.00  0.00    -0.203 F 
ATOM     72  C   UNL A   1      43.255  23.723  25.572  1.00  0.00     0.198 A 
ATOM     73  C   UNL A   1      42.433  22.154  27.193  1.00  0.00     0.198 A 
ATOM     74  F   UNL A   1      41.907  22.882  29.370  1.00  0.00    -0.203 F 
ATOM     75  F   UNL A   1      43.670  23.997  24.328  1.00  0.00    -0.200 F 
ATOM     76  C   UNL A   1      42.884  22.430  25.911  1.00  0.00     0.200 A 
ATOM     77  F   UNL A   1      42.083  20.904  27.526  1.00  0.00    -0.200 F 
ATOM     78  F   UNL A   1      42.956  21.450  25.000  1.00  0.00    -0.200 F 
ENDBRANCH  44  68
BRANCH  56  79
ATOM     79  C   UNL A   1      47.055  26.377  32.953  1.00  0.00     0.064 A 
ATOM     80  C   UNL A   1      47.137  25.282  33.825  1.00  0.00     0.173 A 
ATOM     81  C   UNL A   1      48.252  26.948  32.498  1.00  0.00     0.173 A 
ATOM     82  F   UNL A   1      46.019  24.714  34.303  1.00  0.00    -0.203 F 
ATOM     83  C   UNL A   1      48.372  24.791  34.242  1.00  0.00     0.198 A 
ATOM     84  C   UNL A   1      49.486  26.441  32.898  1.00  0.00     0.198 A 
ATOM     85  F   UNL A   1      48.226  27.996  31.661  1.00  0.00    -0.203 F 
ATOM     86  F   UNL A   1      48.428  23.772  35.110  1.00  0.00    -0.200 F 
ATOM     87  C   UNL A   1      49.543  25.367  33.774  1.00  0.00     0.200 A 
ATOM     88  F   UNL A   1      50.617  26.992  32.439  1.00  0.00    -0.200 F 
ATOM     89  F   UNL A   1      50.731  24.892  34.175  1.00  0.00    -0.200 F 
ENDBRANCH  56  79
ENDBRANCH  30  31
ENDBRANCH  23  25
ENDBRANCH  22  23
ENDBRANCH  21  22
ENDBRANCH  20  21
ENDBRANCH   1  20
TORSDOF 16
ENDMDL
MODEL 2
REMARK VINA RESULT:      -9.5      1.319      2.001
REMARK SMILES CCCc1n[nH]c(C(=O)N[C@H](C)CC(=O)OCCOC(=O)c2ccc(-c3c4nc(c(-c5c(F)c(F)c(F)c(F)c5F)c5ccc([nH]5)c(-c5c(F)c(F)c(F)c(F)c5F)c5nc(c(-c6c(F)c(F)c(F)c(F)c6F)c6ccc3[nH]6)C=C5)C=C4)cc2)n1
REMARK SMILES IDX 16 1 14 2 15 3 13 4 11 5 12 6 10 7 8 8 9 9 7 11 4 12 5 13
REMARK SMILES IDX 85 14 6 15 3 17 2 18 1 19 17 20 18 21 19 22 20 23 21 24
REMARK SMILES IDX 22 25 23 26 84 27 24 28 83 29 25 30 26 31 27 32 77 33 28 34
REMARK SMILES IDX 82 35 76 36 78 37 29 38 81 39 75 40 74 41 30 43 62 44 42 45
REMARK SMILES IDX 61 46 43 47 46 48 60 49 79 50 44 51 45 52 59 54 80 55 47 56
REMARK SMILES IDX 31 57 32 58 40 59 33 60 34 61 38 62 41 63 35 64 36 65 39 66
REMARK SMILES IDX 37 67 63 68 64 69 72 70 65 71 66 72 70 73 73 74 67 75 68 76
REMARK SMILES IDX 71 77 69 78 48 79 49 80 57 81 50 82 51 83 55 84 58 85 52 86
REMARK SMILES IDX 53 87 56 88 54 89
REMARK H PARENT 10 10 6 16 78 42 46 53
REMARK Flexibility Score: inf
ROOT
ATOM      1  O   UNL A   1      32.846  34.599  29.423  1.00  0.00    -0.462 OA
ENDROOT
BRANCH   1   2
ATOM      2  C   UNL A   1      32.860  35.952  29.511  1.00  0.00     0.307 C 
ATOM      3  O   UNL A   1      33.051  36.708  28.564  1.00  0.00    -0.252 OA
BRANCH   2   4
ATOM      4  C   UNL A   1      32.702  36.464  30.925  1.00  0.00     0.147 C 
BRANCH   4   5
ATOM      5  C   UNL A   1      33.761  36.001  31.936  1.00  0.00     0.090 C 
ATOM      6  C   UNL A   1      33.575  36.663  33.300  1.00  0.00     0.031 C 
BRANCH   5   7
ATOM      7  N   UNL A   1      33.669  34.544  32.102  1.00  0.00    -0.346 N 
ATOM      8  C   UNL A   1      34.651  33.602  32.306  1.00  0.00     0.288 C 
ATOM      9  O   UNL A   1      34.266  32.438  32.456  1.00  0.00    -0.266 OA
ATOM     10  H   UNL A   1      32.754  34.182  32.060  1.00  0.00     0.164 HD
BRANCH   8  11
ATOM     11  C   UNL A   1      36.061  33.925  32.345  1.00  0.00     0.214 A 
ATOM     12  C   UNL A   1      38.097  34.343  32.786  1.00  0.00     0.151 A 
ATOM     13  N   UNL A   1      38.060  34.421  31.450  1.00  0.00    -0.158 NA
ATOM     14  N   UNL A   1      36.883  34.055  33.369  1.00  0.00    -0.207 NA
ATOM     15  N   UNL A   1      36.772  34.148  31.199  1.00  0.00    -0.255 N 
ATOM     16  H   UNL A   1      36.383  34.111  30.295  1.00  0.00     0.192 HD
BRANCH  12  17
ATOM     17  C   UNL A   1      39.382  34.547  33.517  1.00  0.00     0.079 C 
BRANCH  17  18
ATOM     18  C   UNL A   1      39.497  33.909  34.896  1.00  0.00     0.005 C 
ATOM     19  C   UNL A   1      39.449  32.388  34.873  1.00  0.00     0.004 C 
ENDBRANCH  17  18
ENDBRANCH  12  17
ENDBRANCH   8  11
ENDBRANCH   5   7
ENDBRANCH   4   5
ENDBRANCH   2   4
ENDBRANCH   1   2
BRANCH   1  20
ATOM     20  C   UNL A   1      33.618  34.019  28.348  1.00  0.00     0.274 C 
BRANCH  20  21
ATOM     21  C   UNL A   1      34.206  32.641  28.691  1.00  0.00     0.275 C 
BRANCH  21  22
ATOM     22  O   UNL A   1      34.388  31.803  27.532  1.00  0.00    -0.458 OA
BRANCH  22  23
ATOM     23  C   UNL A   1      34.555  30.499  27.845  1.00  0.00     0.338 C 
ATOM     24  O   UNL A   1      33.725  29.621  27.682  1.00  0.00    -0.246 OA
BRANCH  23  25
ATOM     25  C   UNL A   1      35.915  30.203  28.319  1.00  0.00     0.060 A 
ATOM     26  C   UNL A   1      36.970  30.346  27.410  1.00  0.00     0.016 A 
ATOM     27  C   UNL A   1      36.142  29.669  29.588  1.00  0.00     0.016 A 
ATOM     28  C   UNL A   1      38.259  29.967  27.771  1.00  0.00     0.010 A 
ATOM     29  C   UNL A   1      37.438  29.285  29.949  1.00  0.00     0.010 A 
ATOM     30  C   UNL A   1      38.502  29.430  29.042  1.00  0.00    -0.014 A 
BRANCH  30  31
ATOM     31  C   UNL A   1      39.883  29.044  29.416  1.00  0.00     0.031 A 
ATOM     32  C   UNL A   1      40.693  29.900  30.341  1.00  0.00     0.074 A 
ATOM     33  C   UNL A   1      40.392  27.895  28.935  1.00  0.00     0.049 A 
ATOM     34  N   UNL A   1      41.918  29.721  30.773  1.00  0.00    -0.248 NA
ATOM     35  C   UNL A   1      40.046  31.117  30.848  1.00  0.00     0.031 C 
ATOM     36  C   UNL A   1      39.681  26.968  28.056  1.00  0.00     0.029 A 
ATOM     37  N   UNL A   1      41.618  27.311  29.125  1.00  0.00    -0.354 N 
ATOM     38  C   UNL A   1      42.191  30.805  31.595  1.00  0.00     0.074 A 
ATOM     39  C   UNL A   1      41.012  31.647  31.585  1.00  0.00     0.031 C 
ATOM     40  C   UNL A   1      40.478  25.919  27.794  1.00  0.00     0.029 A 
ATOM     41  C   UNL A   1      41.764  26.122  28.457  1.00  0.00     0.049 A 
ATOM     42  H   UNL A   1      42.324  27.706  29.684  1.00  0.00     0.167 HD
ATOM     43  C   UNL A   1      43.322  31.067  32.295  1.00  0.00     0.037 A 
ATOM     44  C   UNL A   1      42.820  25.292  28.381  1.00  0.00     0.037 A 
ATOM     45  C   UNL A   1      44.488  30.221  32.309  1.00  0.00     0.049 A 
ATOM     46  C   UNL A   1      44.082  25.634  29.121  1.00  0.00     0.074 A 
ATOM     47  C   UNL A   1      45.668  30.384  33.013  1.00  0.00     0.029 A 
ATOM     48  N   UNL A   1      44.622  29.049  31.575  1.00  0.00    -0.354 N 
ATOM     49  N   UNL A   1      44.327  26.653  29.908  1.00  0.00    -0.248 NA
ATOM     50  C   UNL A   1      45.215  24.714  28.957  1.00  0.00     0.031 C 
ATOM     51  C   UNL A   1      46.533  29.336  32.673  1.00  0.00     0.029 A 
ATOM     52  C   UNL A   1      45.876  28.495  31.788  1.00  0.00     0.049 A 
ATOM     53  H   UNL A   1      43.929  28.668  30.989  1.00  0.00     0.167 HD
ATOM     54  C   UNL A   1      45.632  26.489  30.348  1.00  0.00     0.074 A 
ATOM     55  C   UNL A   1      46.125  25.265  29.748  1.00  0.00     0.031 C 
ATOM     56  C   UNL A   1      46.355  27.282  31.177  1.00  0.00     0.037 A 
BRANCH  43  57
ATOM     57  C   UNL A   1      43.361  32.343  33.084  1.00  0.00     0.064 A 
ATOM     58  C   UNL A   1      43.039  32.377  34.449  1.00  0.00     0.173 A 
ATOM     59  C   UNL A   1      43.747  33.543  32.469  1.00  0.00     0.173 A 
ATOM     60  F   UNL A   1      42.656  31.258  35.081  1.00  0.00    -0.203 F 
ATOM     61  C   UNL A   1      43.072  33.574  35.162  1.00  0.00     0.198 A 
ATOM     62  C   UNL A   1      43.804  34.733  33.191  1.00  0.00     0.198 A 
ATOM     63  F   UNL A   1      44.074  33.562  31.168  1.00  0.00    -0.203 F 
ATOM     64  F   UNL A   1      42.718  33.593  36.453  1.00  0.00    -0.200 F 
ATOM     65  C   UNL A   1      43.458  34.749  34.533  1.00  0.00     0.200 A 
ATOM     66  F   UNL A   1      44.187  35.865  32.584  1.00  0.00    -0.200 F 
ATOM     67  F   UNL A   1      43.490  35.900  35.221  1.00  0.00    -0.200 F 
ENDBRANCH  43  57
BRANCH  44  68
ATOM     68  C   UNL A   1      42.714  24.048  27.579  1.00  0.00     0.064 A 
ATOM     69  C   UNL A   1      43.015  24.050  26.211  1.00  0.00     0.173 A 
ATOM     70  C   UNL A   1      42.345  22.830  28.168  1.00  0.00     0.173 A 
ATOM     71  F   UNL A   1      43.351  25.197  25.601  1.00  0.00    -0.203 F 
ATOM     72  C   UNL A   1      42.951  22.878  25.460  1.00  0.00     0.198 A 
ATOM     73  C   UNL A   1      42.303  21.655  27.421  1.00  0.00     0.198 A 
ATOM     74  F   UNL A   1      42.045  22.780  29.474  1.00  0.00    -0.203 F 
ATOM     75  F   UNL A   1      43.222  22.910  24.148  1.00  0.00    -0.200 F 
ATOM     76  C   UNL A   1      42.605  21.681  26.068  1.00  0.00     0.200 A 
ATOM     77  F   UNL A   1      41.977  20.498  28.014  1.00  0.00    -0.200 F 
ATOM     78  F   UNL A   1      42.557  20.552  25.349  1.00  0.00    -0.200 F 
ENDBRANCH  44  68
BRANCH  56  79
ATOM     79  C   UNL A   1      47.752  26.838  31.497  1.00  0.00     0.064 A 
ATOM     80  C   UNL A   1      48.855  27.319  30.778  1.00  0.00     0.173 A 
ATOM     81  C   UNL A   1      47.991  25.941  32.548  1.00  0.00     0.173 A 
ATOM     82  F   UNL A   1      48.675  28.165  29.751  1.00  0.00    -0.203 F 
ATOM     83  C   UNL A   1      50.147  26.902  31.087  1.00  0.00     0.198 A 
ATOM     84  C   UNL A   1      49.286  25.543  32.869  1.00  0.00     0.198 A 
ATOM     85  F   UNL A   1      46.969  25.454  33.267  1.00  0.00    -0.203 F 
ATOM     86  F   UNL A   1      51.184  27.340  30.359  1.00  0.00    -0.200 F 
ATOM     87  C   UNL A   1      50.362  26.020  32.134  1.00  0.00     0.200 A 
ATOM     88  F   UNL A   1      49.493  24.697  33.887  1.00  0.00    -0.200 F 
ATOM     89  F   UNL A   1      51.606  25.620  32.431  1.00  0.00    -0.200 F 
ENDBRANCH  56  79
ENDBRANCH  30  31
ENDBRANCH  23  25
ENDBRANCH  22  23
ENDBRANCH  21  22
ENDBRANCH  20  21
ENDBRANCH   1  20
TORSDOF 16
ENDMDL
MODEL 3
REMARK VINA RESULT:      -9.4      4.062      9.740
REMARK SMILES CCCc1n[nH]c(C(=O)N[C@H](C)CC(=O)OCCOC(=O)c2ccc(-c3c4nc(c(-c5c(F)c(F)c(F)c(F)c5F)c5ccc([nH]5)c(-c5c(F)c(F)c(F)c(F)c5F)c5nc(c(-c6c(F)c(F)c(F)c(F)c6F)c6ccc3[nH]6)C=C5)C=C4)cc2)n1
REMARK SMILES IDX 16 1 14 2 15 3 13 4 11 5 12 6 10 7 8 8 9 9 7 11 4 12 5 13
REMARK SMILES IDX 85 14 6 15 3 17 2 18 1 19 17 20 18 21 19 22 20 23 21 24
REMARK SMILES IDX 22 25 23 26 84 27 24 28 83 29 25 30 26 31 27 32 77 33 28 34
REMARK SMILES IDX 82 35 76 36 78 37 29 38 81 39 75 40 74 41 30 43 62 44 42 45
REMARK SMILES IDX 61 46 43 47 46 48 60 49 79 50 44 51 45 52 59 54 80 55 47 56
REMARK SMILES IDX 31 57 32 58 40 59 33 60 34 61 38 62 41 63 35 64 36 65 39 66
REMARK SMILES IDX 37 67 63 68 64 69 72 70 65 71 66 72 70 73 73 74 67 75 68 76
REMARK SMILES IDX 71 77 69 78 48 79 49 80 57 81 50 82 51 83 55 84 58 85 52 86
REMARK SMILES IDX 53 87 56 88 54 89
REMARK H PARENT 10 10 6 16 78 42 46 53
REMARK Flexibility Score: inf
ROOT
ATOM      1  O   UNL A   1      32.075  30.864  27.011  1.00  0.00    -0.462 OA
ENDROOT
BRANCH   1   2
ATOM      2  C   UNL A   1      31.699  30.070  25.979  1.00  0.00     0.307 C 
ATOM      3  O   UNL A   1      31.073  30.457  24.997  1.00  0.00    -0.252 OA
BRANCH   2   4
ATOM      4  C   UNL A   1      32.047  28.613  26.183  1.00  0.00     0.147 C 
BRANCH   4   5
ATOM      5  C   UNL A   1      32.311  27.794  24.912  1.00  0.00     0.090 C 
ATOM      6  C   UNL A   1      33.631  27.027  24.991  1.00  0.00     0.031 C 
BRANCH   5   7
ATOM      7  N   UNL A   1      31.217  26.832  24.718  1.00  0.00    -0.346 N 
ATOM      8  C   UNL A   1      30.102  26.895  23.915  1.00  0.00     0.288 C 
ATOM      9  O   UNL A   1      29.368  25.902  23.925  1.00  0.00    -0.266 OA
ATOM     10  H   UNL A   1      31.295  26.007  25.250  1.00  0.00     0.164 HD
BRANCH   8  11
ATOM     11  C   UNL A   1      29.780  28.044  23.097  1.00  0.00     0.214 A 
ATOM     12  C   UNL A   1      28.960  29.715  22.072  1.00  0.00     0.151 A 
ATOM     13  N   UNL A   1      30.221  29.681  21.624  1.00  0.00    -0.158 NA
ATOM     14  N   UNL A   1      28.651  28.715  22.967  1.00  0.00    -0.207 NA
ATOM     15  N   UNL A   1      30.715  28.627  22.289  1.00  0.00    -0.255 N 
ATOM     16  H   UNL A   1      31.644  28.310  22.205  1.00  0.00     0.192 HD
BRANCH  12  17
ATOM     17  C   UNL A   1      28.025  30.783  21.610  1.00  0.00     0.079 C 
BRANCH  17  18
ATOM     18  C   UNL A   1      28.404  32.221  21.946  1.00  0.00     0.005 C 
ATOM     19  C   UNL A   1      28.717  32.444  23.419  1.00  0.00     0.004 C 
ENDBRANCH  17  18
ENDBRANCH  12  17
ENDBRANCH   8  11
ENDBRANCH   5   7
ENDBRANCH   4   5
ENDBRANCH   2   4
ENDBRANCH   1   2
BRANCH   1  20
ATOM     20  C   UNL A   1      31.770  32.271  26.882  1.00  0.00     0.274 C 
BRANCH  20  21
ATOM     21  C   UNL A   1      32.804  33.185  27.556  1.00  0.00     0.275 C 
BRANCH  21  22
ATOM     22  O   UNL A   1      32.228  34.400  28.076  1.00  0.00    -0.458 OA
BRANCH  22  23
ATOM     23  C   UNL A   1      33.132  35.191  28.697  1.00  0.00     0.338 C 
ATOM     24  O   UNL A   1      33.015  36.390  28.880  1.00  0.00    -0.246 OA
BRANCH  23  25
ATOM     25  C   UNL A   1      34.263  34.428  29.245  1.00  0.00     0.060 A 
ATOM     26  C   UNL A   1      34.029  33.626  30.367  1.00  0.00     0.016 A 
ATOM     27  C   UNL A   1      35.558  34.595  28.752  1.00  0.00     0.016 A 
ATOM     28  C   UNL A   1      35.087  32.977  30.996  1.00  0.00     0.010 A 
ATOM     29  C   UNL A   1      36.622  33.945  29.387  1.00  0.00     0.010 A 
ATOM     30  C   UNL A   1      36.393  33.135  30.512  1.00  0.00    -0.014 A 
BRANCH  30  31
ATOM     31  C   UNL A   1      37.507  32.427  31.184  1.00  0.00     0.031 A 
ATOM     32  C   UNL A   1      38.242  31.321  30.490  1.00  0.00     0.074 A 
ATOM     33  C   UNL A   1      37.872  32.810  32.421  1.00  0.00     0.049 A 
ATOM     34  N   UNL A   1      39.237  30.588  30.925  1.00  0.00    -0.248 NA
ATOM     35  C   UNL A   1      37.801  30.993  29.127  1.00  0.00     0.031 C 
ATOM     36  C   UNL A   1      37.252  33.896  33.178  1.00  0.00     0.029 A 
ATOM     37  N   UNL A   1      38.856  32.337  33.251  1.00  0.00    -0.354 N 
ATOM     38  C   UNL A   1      39.537  29.708  29.895  1.00  0.00     0.074 A 
ATOM     39  C   UNL A   1      38.604  29.984  28.821  1.00  0.00     0.031 C 
ATOM     40  C   UNL A   1      37.881  34.019  34.358  1.00  0.00     0.029 A 
ATOM     41  C   UNL A   1      38.920  32.997  34.451  1.00  0.00     0.049 A 
ATOM     42  H   UNL A   1      39.456  31.596  33.010  1.00  0.00     0.167 HD
ATOM     43  C   UNL A   1      40.506  28.760  29.853  1.00  0.00     0.037 A 
ATOM     44  C   UNL A   1      39.723  32.795  35.513  1.00  0.00     0.037 A 
ATOM     45  C   UNL A   1      41.437  28.497  30.920  1.00  0.00     0.049 A 
ATOM     46  C   UNL A   1      40.751  31.700  35.462  1.00  0.00     0.074 A 
ATOM     47  C   UNL A   1      42.474  27.581  30.958  1.00  0.00     0.029 A 
ATOM     48  N   UNL A   1      41.438  29.149  32.146  1.00  0.00    -0.354 N 
ATOM     49  N   UNL A   1      41.038  30.883  34.479  1.00  0.00    -0.248 NA
ATOM     50  C   UNL A   1      41.561  31.499  36.670  1.00  0.00     0.031 C 
ATOM     51  C   UNL A   1      43.075  27.648  32.221  1.00  0.00     0.029 A 
ATOM     52  C   UNL A   1      42.439  28.635  32.957  1.00  0.00     0.049 A 
ATOM     53  H   UNL A   1      40.818  29.869  32.402  1.00  0.00     0.167 HD
ATOM     54  C   UNL A   1      42.073  30.082  34.940  1.00  0.00     0.074 A 
ATOM     55  C   UNL A   1      42.370  30.519  36.290  1.00  0.00     0.031 C 
ATOM     56  C   UNL A   1      42.718  29.075  34.301  1.00  0.00     0.037 A 
BRANCH  43  57
ATOM     57  C   UNL A   1      40.586  27.915  28.615  1.00  0.00     0.064 A 
ATOM     58  C   UNL A   1      39.905  26.694  28.509  1.00  0.00     0.173 A 
ATOM     59  C   UNL A   1      41.340  28.345  27.513  1.00  0.00     0.173 A 
ATOM     60  F   UNL A   1      39.177  26.235  29.538  1.00  0.00    -0.203 F 
ATOM     61  C   UNL A   1      40.000  25.919  27.355  1.00  0.00     0.198 A 
ATOM     62  C   UNL A   1      41.413  27.580  26.351  1.00  0.00     0.198 A 
ATOM     63  F   UNL A   1      42.004  29.510  27.560  1.00  0.00    -0.203 F 
ATOM     64  F   UNL A   1      39.377  24.735  27.291  1.00  0.00    -0.200 F 
ATOM     65  C   UNL A   1      40.750  26.365  26.277  1.00  0.00     0.200 A 
ATOM     66  F   UNL A   1      42.129  28.018  25.307  1.00  0.00    -0.200 F 
ATOM     67  F   UNL A   1      40.841  25.618  25.167  1.00  0.00    -0.200 F 
ENDBRANCH  43  57
BRANCH  44  68
ATOM     68  C   UNL A   1      39.587  33.666  36.706  1.00  0.00     0.064 A 
ATOM     69  C   UNL A   1      40.260  34.893  36.778  1.00  0.00     0.173 A 
ATOM     70  C   UNL A   1      38.756  33.309  37.778  1.00  0.00     0.173 A 
ATOM     71  F   UNL A   1      41.083  35.264  35.786  1.00  0.00    -0.203 F 
ATOM     72  C   UNL A   1      40.108  35.731  37.880  1.00  0.00     0.198 A 
ATOM     73  C   UNL A   1      38.587  34.159  38.869  1.00  0.00     0.198 A 
ATOM     74  F   UNL A   1      38.093  32.144  37.754  1.00  0.00    -0.203 F 
ATOM     75  F   UNL A   1      40.781  36.889  37.936  1.00  0.00    -0.200 F 
ATOM     76  C   UNL A   1      39.265  35.367  38.919  1.00  0.00     0.200 A 
ATOM     77  F   UNL A   1      37.764  33.808  39.866  1.00  0.00    -0.200 F 
ATOM     78  F   UNL A   1      39.108  36.180  39.973  1.00  0.00    -0.200 F 
ENDBRANCH  44  68
BRANCH  56  79
ATOM     79  C   UNL A   1      43.823  28.391  35.049  1.00  0.00     0.064 A 
ATOM     80  C   UNL A   1      43.584  27.244  35.819  1.00  0.00     0.173 A 
ATOM     81  C   UNL A   1      45.137  28.874  34.977  1.00  0.00     0.173 A 
ATOM     82  F   UNL A   1      42.339  26.755  35.935  1.00  0.00    -0.203 F 
ATOM     83  C   UNL A   1      44.620  26.616  36.507  1.00  0.00     0.198 A 
ATOM     84  C   UNL A   1      46.175  28.230  35.647  1.00  0.00     0.198 A 
ATOM     85  F   UNL A   1      45.417  29.966  34.251  1.00  0.00    -0.203 F 
ATOM     86  F   UNL A   1      44.362  25.546  37.272  1.00  0.00    -0.200 F 
ATOM     87  C   UNL A   1      45.913  27.106  36.416  1.00  0.00     0.200 A 
ATOM     88  F   UNL A   1      47.426  28.700  35.551  1.00  0.00    -0.200 F 
ATOM     89  F   UNL A   1      46.909  26.500  37.077  1.00  0.00    -0.200 F 
ENDBRANCH  56  79
ENDBRANCH  30  31
ENDBRANCH  23  25
ENDBRANCH  22  23
ENDBRANCH  21  22
ENDBRANCH  20  21
ENDBRANCH   1  20
TORSDOF 16
ENDMDL
