MODEL 1
REMARK VINA RESULT:     -11.8      0.000      0.000
REMARK SMILES CC(C)n1ccc(C[C@@H](C(=O)OCCOC(=O)c2ccc(-c3c4nc(c(-c5c(F)c(F)c(F)c(F)c5F)c5ccc([nH]5)c(-c5c(F)c(F)c(F)c(F)c5F)c5nc(c(-c6c(F)c(F)c(F)c(F)c6F)c6ccc3[nH]6)C=C5)C=C4)cc2)c2cccc(Cl)c2)n1
REMARK SMILES IDX 13 1 12 2 10 3 11 4 9 5 8 6 7 7 4 8 5 9 88 10 6 11 2 12 1 13
REMARK SMILES IDX 3 14 81 15 82 16 87 17 83 18 85 19 84 20 86 21 14 22 15 23
REMARK SMILES IDX 16 24 17 25 18 26 19 27 80 28 20 29 79 30 21 31 22 32 23 33
REMARK SMILES IDX 73 34 24 35 78 36 72 37 74 38 25 39 77 40 71 41 70 42 26 44
REMARK SMILES IDX 58 45 38 46 57 47 39 48 42 49 56 50 75 51 40 52 41 53 55 55
REMARK SMILES IDX 76 56 43 57 27 58 28 59 36 60 29 61 30 62 34 63 37 64 31 65
REMARK SMILES IDX 32 66 35 67 33 68 59 69 60 70 68 71 61 72 62 73 66 74 69 75
REMARK SMILES IDX 63 76 64 77 67 78 65 79 44 80 45 81 53 82 46 83 47 84 51 85
REMARK SMILES IDX 54 86 48 87 49 88 52 89 50 90
REMARK H PARENT 74 43 42 54
REMARK Flexibility Score: inf
ROOT
ATOM      1  C   UNL A   1      38.250  22.247  25.669  1.00  0.00     0.274 C 
ENDROOT
BRANCH   1   2
ATOM      2  O   UNL A   1      36.991  22.947  25.680  1.00  0.00    -0.462 OA
BRANCH   2   3
ATOM      3  C   UNL A   1      36.402  23.197  24.485  1.00  0.00     0.313 C 
ATOM      4  O   UNL A   1      37.034  23.184  23.429  1.00  0.00    -0.252 OA
BRANCH   3   5
ATOM      5  C   UNL A   1      34.899  23.549  24.572  1.00  0.00     0.135 C 
BRANCH   5   6
ATOM      6  C   UNL A   1      34.422  24.549  25.654  1.00  0.00     0.078 C 
BRANCH   6   7
ATOM      7  C   UNL A   1      33.895  25.881  25.222  1.00  0.00     0.064 A 
ATOM      8  N   UNL A   1      33.335  27.928  25.353  1.00  0.00    -0.270 N 
ATOM      9  C   UNL A   1      33.291  27.640  24.017  1.00  0.00     0.109 A 
ATOM     10  N   UNL A   1      33.669  26.858  26.111  1.00  0.00    -0.178 NA
ATOM     11  C   UNL A   1      33.687  26.334  23.898  1.00  0.00     0.045 A 
BRANCH   8  12
ATOM     12  C   UNL A   1      33.237  29.267  25.933  1.00  0.00     0.101 C 
ATOM     13  C   UNL A   1      31.784  29.693  26.158  1.00  0.00     0.033 C 
ATOM     14  C   UNL A   1      34.031  29.433  27.231  1.00  0.00     0.033 C 
ENDBRANCH   8  12
ENDBRANCH   6   7
ENDBRANCH   5   6
BRANCH   5  15
ATOM     15  C   UNL A   1      33.991  22.290  24.674  1.00  0.00    -0.032 A 
ATOM     16  C   UNL A   1      32.635  22.446  25.022  1.00  0.00     0.005 A 
ATOM     17  C   UNL A   1      34.463  20.975  24.493  1.00  0.00     0.025 A 
ATOM     18  C   UNL A   1      31.792  21.340  25.181  1.00  0.00     0.002 A 
ATOM     19  C   UNL A   1      33.612  19.874  24.630  1.00  0.00     0.041 A 
ATOM     20  C   UNL A   1      32.278  20.051  24.977  1.00  0.00     0.020 A 
ATOM     21  Cl  UNL A   1      34.224  18.283  24.378  1.00  0.00    -0.084 Cl
ENDBRANCH   5  15
ENDBRANCH   3   5
ENDBRANCH   2   3
ENDBRANCH   1   2
BRANCH   1  22
ATOM     22  C   UNL A   1      39.213  22.829  26.705  1.00  0.00     0.275 C 
BRANCH  22  23
ATOM     23  O   UNL A   1      38.847  24.138  27.166  1.00  0.00    -0.458 OA
BRANCH  23  24
ATOM     24  C   UNL A   1      39.793  24.725  27.930  1.00  0.00     0.338 C 
ATOM     25  O   UNL A   1      40.852  24.244  28.280  1.00  0.00    -0.246 OA
BRANCH  24  26
ATOM     26  C   UNL A   1      39.355  25.977  28.527  1.00  0.00     0.060 A 
ATOM     27  C   UNL A   1      39.317  27.098  27.684  1.00  0.00     0.016 A 
ATOM     28  C   UNL A   1      39.289  26.094  29.917  1.00  0.00     0.016 A 
ATOM     29  C   UNL A   1      39.311  28.357  28.241  1.00  0.00     0.010 A 
ATOM     30  C   UNL A   1      39.278  27.356  30.472  1.00  0.00     0.010 A 
ATOM     31  C   UNL A   1      39.341  28.474  29.632  1.00  0.00    -0.014 A 
BRANCH  31  32
ATOM     32  C   UNL A   1      39.344  29.814  30.195  1.00  0.00     0.031 A 
ATOM     33  C   UNL A   1      40.650  30.530  30.125  1.00  0.00     0.074 A 
ATOM     34  C   UNL A   1      38.203  30.420  30.570  1.00  0.00     0.049 A 
ATOM     35  N   UNL A   1      41.239  31.235  31.038  1.00  0.00    -0.248 NA
ATOM     36  C   UNL A   1      41.422  30.399  28.877  1.00  0.00     0.031 C 
ATOM     37  C   UNL A   1      36.831  29.928  30.405  1.00  0.00     0.029 A 
ATOM     38  N   UNL A   1      38.029  31.682  31.046  1.00  0.00    -0.354 N 
ATOM     39  C   UNL A   1      42.384  31.754  30.436  1.00  0.00     0.074 A 
ATOM     40  C   UNL A   1      42.497  31.137  29.142  1.00  0.00     0.031 C 
ATOM     41  C   UNL A   1      35.975  30.963  30.546  1.00  0.00     0.029 A 
ATOM     42  C   UNL A   1      36.731  32.149  30.917  1.00  0.00     0.049 A 
ATOM     43  H   UNL A   1      38.755  32.214  31.445  1.00  0.00     0.167 HD
ATOM     44  C   UNL A   1      43.076  32.797  30.967  1.00  0.00     0.037 A 
ATOM     45  C   UNL A   1      36.326  33.438  31.002  1.00  0.00     0.037 A 
ATOM     46  C   UNL A   1      42.863  32.922  32.381  1.00  0.00     0.049 A 
ATOM     47  C   UNL A   1      37.398  34.216  31.670  1.00  0.00     0.074 A 
ATOM     48  C   UNL A   1      43.090  32.096  33.465  1.00  0.00     0.029 A 
ATOM     49  N   UNL A   1      42.052  33.924  32.851  1.00  0.00    -0.354 N 
ATOM     50  N   UNL A   1      37.708  34.116  32.932  1.00  0.00    -0.248 NA
ATOM     51  C   UNL A   1      38.407  34.842  30.828  1.00  0.00     0.031 C 
ATOM     52  C   UNL A   1      42.026  32.368  34.373  1.00  0.00     0.029 A 
ATOM     53  C   UNL A   1      41.231  33.354  33.789  1.00  0.00     0.049 A 
ATOM     54  H   UNL A   1      42.059  34.867  32.568  1.00  0.00     0.167 HD
ATOM     55  C   UNL A   1      39.085  34.280  32.971  1.00  0.00     0.074 A 
ATOM     56  C   UNL A   1      39.442  34.835  31.670  1.00  0.00     0.031 C 
ATOM     57  C   UNL A   1      39.839  33.691  33.944  1.00  0.00     0.037 A 
BRANCH  44  58
ATOM     58  C   UNL A   1      43.709  33.879  30.133  1.00  0.00     0.064 A 
ATOM     59  C   UNL A   1      42.896  34.742  29.374  1.00  0.00     0.173 A 
ATOM     60  C   UNL A   1      45.088  33.909  29.825  1.00  0.00     0.173 A 
ATOM     61  F   UNL A   1      41.568  34.772  29.564  1.00  0.00    -0.203 F 
ATOM     62  C   UNL A   1      43.417  35.524  28.340  1.00  0.00     0.198 A 
ATOM     63  C   UNL A   1      45.612  34.732  28.830  1.00  0.00     0.198 A 
ATOM     64  F   UNL A   1      45.961  33.069  30.395  1.00  0.00    -0.203 F 
ATOM     65  F   UNL A   1      42.589  36.237  27.565  1.00  0.00    -0.200 F 
ATOM     66  C   UNL A   1      44.772  35.515  28.066  1.00  0.00     0.200 A 
ATOM     67  F   UNL A   1      46.925  34.695  28.566  1.00  0.00    -0.200 F 
ATOM     68  F   UNL A   1      45.263  36.218  27.037  1.00  0.00    -0.200 F 
ENDBRANCH  44  58
BRANCH  45  69
ATOM     69  C   UNL A   1      35.198  34.081  30.294  1.00  0.00     0.064 A 
ATOM     70  C   UNL A   1      34.151  34.690  31.000  1.00  0.00     0.173 A 
ATOM     71  C   UNL A   1      35.241  34.317  28.906  1.00  0.00     0.173 A 
ATOM     72  F   UNL A   1      34.070  34.558  32.331  1.00  0.00    -0.203 F 
ATOM     73  C   UNL A   1      33.204  35.491  30.355  1.00  0.00     0.198 A 
ATOM     74  C   UNL A   1      34.288  35.101  28.260  1.00  0.00     0.198 A 
ATOM     75  F   UNL A   1      36.259  33.862  28.159  1.00  0.00    -0.203 F 
ATOM     76  F   UNL A   1      32.248  36.102  31.069  1.00  0.00    -0.200 F 
ATOM     77  C   UNL A   1      33.274  35.698  28.986  1.00  0.00     0.200 A 
ATOM     78  F   UNL A   1      34.388  35.321  26.942  1.00  0.00    -0.200 F 
ATOM     79  F   UNL A   1      32.394  36.502  28.376  1.00  0.00    -0.200 F 
ENDBRANCH  45  69
BRANCH  57  80
ATOM     80  C   UNL A   1      39.119  33.095  35.117  1.00  0.00     0.064 A 
ATOM     81  C   UNL A   1      38.756  31.739  35.195  1.00  0.00     0.173 A 
ATOM     82  C   UNL A   1      38.910  33.887  36.253  1.00  0.00     0.173 A 
ATOM     83  F   UNL A   1      39.030  30.895  34.194  1.00  0.00    -0.203 F 
ATOM     84  C   UNL A   1      38.155  31.218  36.338  1.00  0.00     0.198 A 
ATOM     85  C   UNL A   1      38.343  33.354  37.407  1.00  0.00     0.198 A 
ATOM     86  F   UNL A   1      39.297  35.172  36.259  1.00  0.00    -0.203 F 
ATOM     87  F   UNL A   1      37.800  29.925  36.380  1.00  0.00    -0.200 F 
ATOM     88  C   UNL A   1      37.953  32.025  37.445  1.00  0.00     0.200 A 
ATOM     89  F   UNL A   1      38.197  34.123  38.496  1.00  0.00    -0.200 F 
ATOM     90  F   UNL A   1      37.407  31.515  38.558  1.00  0.00    -0.200 F 
ENDBRANCH  57  80
ENDBRANCH  31  32
ENDBRANCH  24  26
ENDBRANCH  23  24
ENDBRANCH  22  23
ENDBRANCH   1  22
TORSDOF 15
ENDMDL
MODEL 2
REMARK VINA RESULT:     -11.8      5.101     10.004
REMARK SMILES CC(C)n1ccc(C[C@@H](C(=O)OCCOC(=O)c2ccc(-c3c4nc(c(-c5c(F)c(F)c(F)c(F)c5F)c5ccc([nH]5)c(-c5c(F)c(F)c(F)c(F)c5F)c5nc(c(-c6c(F)c(F)c(F)c(F)c6F)c6ccc3[nH]6)C=C5)C=C4)cc2)c2cccc(Cl)c2)n1
REMARK SMILES IDX 13 1 12 2 10 3 11 4 9 5 8 6 7 7 4 8 5 9 88 10 6 11 2 12 1 13
REMARK SMILES IDX 3 14 81 15 82 16 87 17 83 18 85 19 84 20 86 21 14 22 15 23
REMARK SMILES IDX 16 24 17 25 18 26 19 27 80 28 20 29 79 30 21 31 22 32 23 33
REMARK SMILES IDX 73 34 24 35 78 36 72 37 74 38 25 39 77 40 71 41 70 42 26 44
REMARK SMILES IDX 58 45 38 46 57 47 39 48 42 49 56 50 75 51 40 52 41 53 55 55
REMARK SMILES IDX 76 56 43 57 27 58 28 59 36 60 29 61 30 62 34 63 37 64 31 65
REMARK SMILES IDX 32 66 35 67 33 68 59 69 60 70 68 71 61 72 62 73 66 74 69 75
REMARK SMILES IDX 63 76 64 77 67 78 65 79 44 80 45 81 53 82 46 83 47 84 51 85
REMARK SMILES IDX 54 86 48 87 49 88 52 89 50 90
REMARK H PARENT 74 43 42 54
REMARK Flexibility Score: inf
ROOT
ATOM      1  C   UNL A   1      32.068  30.491  25.996  1.00  0.00     0.274 C 
ENDROOT
BRANCH   1   2
ATOM      2  O   UNL A   1      31.836  29.111  25.654  1.00  0.00    -0.462 OA
BRANCH   2   3
ATOM      3  C   UNL A   1      32.219  28.697  24.420  1.00  0.00     0.313 C 
ATOM      4  O   UNL A   1      33.313  28.996  23.942  1.00  0.00    -0.252 OA
BRANCH   3   5
ATOM      5  C   UNL A   1      31.153  27.877  23.659  1.00  0.00     0.135 C 
BRANCH   5   6
ATOM      6  C   UNL A   1      31.564  27.122  22.371  1.00  0.00     0.078 C 
BRANCH   6   7
ATOM      7  C   UNL A   1      32.110  25.734  22.491  1.00  0.00     0.064 A 
ATOM      8  N   UNL A   1      32.354  23.758  23.237  1.00  0.00    -0.270 N 
ATOM      9  C   UNL A   1      33.052  23.775  22.061  1.00  0.00     0.109 A 
ATOM     10  N   UNL A   1      31.800  24.955  23.536  1.00  0.00    -0.178 NA
ATOM     11  C   UNL A   1      32.879  25.028  21.536  1.00  0.00     0.045 A 
BRANCH   8  12
ATOM     12  C   UNL A   1      32.045  22.562  24.020  1.00  0.00     0.101 C 
ATOM     13  C   UNL A   1      32.378  21.274  23.262  1.00  0.00     0.033 C 
ATOM     14  C   UNL A   1      32.716  22.539  25.395  1.00  0.00     0.033 C 
ENDBRANCH   8  12
ENDBRANCH   6   7
ENDBRANCH   5   6
BRANCH   5  15
ATOM     15  C   UNL A   1      29.881  28.707  23.322  1.00  0.00    -0.032 A 
ATOM     16  C   UNL A   1      28.625  28.070  23.318  1.00  0.00     0.005 A 
ATOM     17  C   UNL A   1      29.917  30.067  22.957  1.00  0.00     0.025 A 
ATOM     18  C   UNL A   1      27.459  28.762  22.967  1.00  0.00     0.002 A 
ATOM     19  C   UNL A   1      28.747  30.760  22.630  1.00  0.00     0.041 A 
ATOM     20  C   UNL A   1      27.518  30.112  22.629  1.00  0.00     0.020 A 
ATOM     21  Cl  UNL A   1      28.830  32.429  22.211  1.00  0.00    -0.084 Cl
ENDBRANCH   5  15
ENDBRANCH   3   5
ENDBRANCH   2   3
ENDBRANCH   1   2
BRANCH   1  22
ATOM     22  C   UNL A   1      32.946  30.610  27.242  1.00  0.00     0.275 C 
BRANCH  22  23
ATOM     23  O   UNL A   1      34.349  30.447  26.982  1.00  0.00    -0.458 OA
BRANCH  23  24
ATOM     24  C   UNL A   1      35.127  31.319  27.657  1.00  0.00     0.338 C 
ATOM     25  O   UNL A   1      35.063  32.531  27.628  1.00  0.00    -0.246 OA
BRANCH  24  26
ATOM     26  C   UNL A   1      36.265  30.688  28.310  1.00  0.00     0.060 A 
ATOM     27  C   UNL A   1      37.250  31.545  28.823  1.00  0.00     0.016 A 
ATOM     28  C   UNL A   1      36.488  29.321  28.141  1.00  0.00     0.016 A 
ATOM     29  C   UNL A   1      38.507  31.045  29.079  1.00  0.00     0.010 A 
ATOM     30  C   UNL A   1      37.746  28.822  28.403  1.00  0.00     0.010 A 
ATOM     31  C   UNL A   1      38.757  29.696  28.820  1.00  0.00    -0.014 A 
BRANCH  31  32
ATOM     32  C   UNL A   1      40.094  29.195  29.090  1.00  0.00     0.031 A 
ATOM     33  C   UNL A   1      40.430  29.023  30.531  1.00  0.00     0.074 A 
ATOM     34  C   UNL A   1      40.887  28.744  28.101  1.00  0.00     0.049 A 
ATOM     35  N   UNL A   1      41.517  29.347  31.157  1.00  0.00    -0.248 NA
ATOM     36  C   UNL A   1      39.386  28.452  31.400  1.00  0.00     0.031 C 
ATOM     37  C   UNL A   1      40.549  28.586  26.682  1.00  0.00     0.029 A 
ATOM     38  N   UNL A   1      42.125  28.187  28.192  1.00  0.00    -0.354 N 
ATOM     39  C   UNL A   1      41.352  28.893  32.465  1.00  0.00     0.074 A 
ATOM     40  C   UNL A   1      39.994  28.435  32.584  1.00  0.00     0.031 C 
ATOM     41  C   UNL A   1      41.452  27.763  26.106  1.00  0.00     0.029 A 
ATOM     42  C   UNL A   1      42.478  27.435  27.084  1.00  0.00     0.049 A 
ATOM     43  H   UNL A   1      42.714  28.306  28.972  1.00  0.00     0.167 HD
ATOM     44  C   UNL A   1      42.397  28.753  33.323  1.00  0.00     0.037 A 
ATOM     45  C   UNL A   1      43.478  26.526  27.011  1.00  0.00     0.037 A 
ATOM     46  C   UNL A   1      43.504  29.595  32.967  1.00  0.00     0.049 A 
ATOM     47  C   UNL A   1      44.399  26.761  28.150  1.00  0.00     0.074 A 
ATOM     48  C   UNL A   1      43.670  30.961  32.835  1.00  0.00     0.029 A 
ATOM     49  N   UNL A   1      44.611  29.035  32.384  1.00  0.00    -0.354 N 
ATOM     50  N   UNL A   1      45.194  27.789  28.258  1.00  0.00    -0.248 NA
ATOM     51  C   UNL A   1      44.152  26.032  29.385  1.00  0.00     0.031 C 
ATOM     52  C   UNL A   1      44.600  31.122  31.767  1.00  0.00     0.029 A 
ATOM     53  C   UNL A   1      44.949  29.845  31.331  1.00  0.00     0.049 A 
ATOM     54  H   UNL A   1      45.072  28.212  32.667  1.00  0.00     0.167 HD
ATOM     55  C   UNL A   1      45.213  28.079  29.615  1.00  0.00     0.074 A 
ATOM     56  C   UNL A   1      44.650  26.902  30.266  1.00  0.00     0.031 C 
ATOM     57  C   UNL A   1      45.420  29.351  30.061  1.00  0.00     0.037 A 
BRANCH  44  58
ATOM     58  C   UNL A   1      42.508  27.624  34.313  1.00  0.00     0.064 A 
ATOM     59  C   UNL A   1      43.037  26.386  33.904  1.00  0.00     0.173 A 
ATOM     60  C   UNL A   1      41.847  27.623  35.562  1.00  0.00     0.173 A 
ATOM     61  F   UNL A   1      43.660  26.267  32.721  1.00  0.00    -0.203 F 
ATOM     62  C   UNL A   1      42.858  25.223  34.657  1.00  0.00     0.198 A 
ATOM     63  C   UNL A   1      41.717  26.473  36.336  1.00  0.00     0.198 A 
ATOM     64  F   UNL A   1      41.207  28.705  36.027  1.00  0.00    -0.203 F 
ATOM     65  F   UNL A   1      43.272  24.046  34.169  1.00  0.00    -0.200 F 
ATOM     66  C   UNL A   1      42.194  25.266  35.869  1.00  0.00     0.200 A 
ATOM     67  F   UNL A   1      41.053  26.531  37.500  1.00  0.00    -0.200 F 
ATOM     68  F   UNL A   1      41.969  24.142  36.562  1.00  0.00    -0.200 F 
ENDBRANCH  44  58
BRANCH  45  69
ATOM     69  C   UNL A   1      43.529  25.300  26.185  1.00  0.00     0.064 A 
ATOM     70  C   UNL A   1      44.585  25.073  25.290  1.00  0.00     0.173 A 
ATOM     71  C   UNL A   1      42.665  24.215  26.427  1.00  0.00     0.173 A 
ATOM     72  F   UNL A   1      45.482  26.038  25.047  1.00  0.00    -0.203 F 
ATOM     73  C   UNL A   1      44.766  23.831  24.675  1.00  0.00     0.198 A 
ATOM     74  C   UNL A   1      42.835  22.982  25.802  1.00  0.00     0.198 A 
ATOM     75  F   UNL A   1      41.688  24.301  27.343  1.00  0.00    -0.203 F 
ATOM     76  F   UNL A   1      45.816  23.632  23.867  1.00  0.00    -0.200 F 
ATOM     77  C   UNL A   1      43.892  22.785  24.933  1.00  0.00     0.200 A 
ATOM     78  F   UNL A   1      42.004  21.969  26.087  1.00  0.00    -0.200 F 
ATOM     79  F   UNL A   1      44.092  21.582  24.380  1.00  0.00    -0.200 F 
ENDBRANCH  45  69
BRANCH  57  80
ATOM     80  C   UNL A   1      45.896  30.369  29.069  1.00  0.00     0.064 A 
ATOM     81  C   UNL A   1      47.254  30.599  28.787  1.00  0.00     0.173 A 
ATOM     82  C   UNL A   1      44.950  31.037  28.281  1.00  0.00     0.173 A 
ATOM     83  F   UNL A   1      48.214  29.912  29.418  1.00  0.00    -0.203 F 
ATOM     84  C   UNL A   1      47.644  31.504  27.802  1.00  0.00     0.198 A 
ATOM     85  C   UNL A   1      45.343  31.913  27.272  1.00  0.00     0.198 A 
ATOM     86  F   UNL A   1      43.641  30.806  28.460  1.00  0.00    -0.203 F 
ATOM     87  F   UNL A   1      48.947  31.720  27.567  1.00  0.00    -0.200 F 
ATOM     88  C   UNL A   1      46.688  32.156  27.042  1.00  0.00     0.200 A 
ATOM     89  F   UNL A   1      44.417  32.502  26.502  1.00  0.00    -0.200 F 
ATOM     90  F   UNL A   1      47.062  33.000  26.070  1.00  0.00    -0.200 F 
ENDBRANCH  57  80
ENDBRANCH  31  32
ENDBRANCH  24  26
ENDBRANCH  23  24
ENDBRANCH  22  23
ENDBRANCH   1  22
TORSDOF 15
ENDMDL
MODEL 3
REMARK VINA RESULT:     -11.7      3.337      5.515
REMARK SMILES CC(C)n1ccc(C[C@@H](C(=O)OCCOC(=O)c2ccc(-c3c4nc(c(-c5c(F)c(F)c(F)c(F)c5F)c5ccc([nH]5)c(-c5c(F)c(F)c(F)c(F)c5F)c5nc(c(-c6c(F)c(F)c(F)c(F)c6F)c6ccc3[nH]6)C=C5)C=C4)cc2)c2cccc(Cl)c2)n1
REMARK SMILES IDX 13 1 12 2 10 3 11 4 9 5 8 6 7 7 4 8 5 9 88 10 6 11 2 12 1 13
REMARK SMILES IDX 3 14 81 15 82 16 87 17 83 18 85 19 84 20 86 21 14 22 15 23
REMARK SMILES IDX 16 24 17 25 18 26 19 27 80 28 20 29 79 30 21 31 22 32 23 33
REMARK SMILES IDX 73 34 24 35 78 36 72 37 74 38 25 39 77 40 71 41 70 42 26 44
REMARK SMILES IDX 58 45 38 46 57 47 39 48 42 49 56 50 75 51 40 52 41 53 55 55
REMARK SMILES IDX 76 56 43 57 27 58 28 59 36 60 29 61 30 62 34 63 37 64 31 65
REMARK SMILES IDX 32 66 35 67 33 68 59 69 60 70 68 71 61 72 62 73 66 74 69 75
REMARK SMILES IDX 63 76 64 77 67 78 65 79 44 80 45 81 53 82 46 83 47 84 51 85
REMARK SMILES IDX 54 86 48 87 49 88 52 89 50 90
REMARK H PARENT 74 43 42 54
REMARK Flexibility Score: inf
ROOT
ATOM      1  C   UNL A   1      36.483  20.778  25.020  1.00  0.00     0.274 C 
ENDROOT
BRANCH   1   2
ATOM      2  O   UNL A   1      35.285  21.577  24.991  1.00  0.00    -0.462 OA
BRANCH   2   3
ATOM      3  C   UNL A   1      34.543  21.637  26.125  1.00  0.00     0.313 C 
ATOM      4  O   UNL A   1      35.057  21.621  27.243  1.00  0.00    -0.252 OA
BRANCH   3   5
ATOM      5  C   UNL A   1      33.016  21.671  25.891  1.00  0.00     0.135 C 
BRANCH   5   6
ATOM      6  C   UNL A   1      32.434  21.006  24.618  1.00  0.00     0.078 C 
BRANCH   6   7
ATOM      7  C   UNL A   1      32.764  19.574  24.338  1.00  0.00     0.064 A 
ATOM      8  N   UNL A   1      33.338  17.562  24.715  1.00  0.00    -0.270 N 
ATOM      9  C   UNL A   1      32.876  17.557  23.428  1.00  0.00     0.109 A 
ATOM     10  N   UNL A   1      33.311  18.792  25.278  1.00  0.00    -0.178 NA
ATOM     11  C   UNL A   1      32.461  18.836  23.170  1.00  0.00     0.045 A 
BRANCH   8  12
ATOM     12  C   UNL A   1      33.651  16.372  25.506  1.00  0.00     0.101 C 
ATOM     13  C   UNL A   1      32.625  15.255  25.299  1.00  0.00     0.033 C 
ATOM     14  C   UNL A   1      35.061  15.829  25.265  1.00  0.00     0.033 C 
ENDBRANCH   8  12
ENDBRANCH   6   7
ENDBRANCH   5   6
BRANCH   5  15
ATOM     15  C   UNL A   1      32.426  23.109  25.971  1.00  0.00    -0.032 A 
ATOM     16  C   UNL A   1      31.028  23.278  26.000  1.00  0.00     0.005 A 
ATOM     17  C   UNL A   1      33.218  24.274  25.958  1.00  0.00     0.025 A 
ATOM     18  C   UNL A   1      30.450  24.553  26.016  1.00  0.00     0.002 A 
ATOM     19  C   UNL A   1      32.636  25.545  25.997  1.00  0.00     0.041 A 
ATOM     20  C   UNL A   1      31.254  25.689  26.022  1.00  0.00     0.020 A 
ATOM     21  Cl  UNL A   1      33.640  26.945  26.003  1.00  0.00    -0.084 Cl
ENDBRANCH   5  15
ENDBRANCH   3   5
ENDBRANCH   2   3
ENDBRANCH   1   2
BRANCH   1  22
ATOM     22  C   UNL A   1      37.733  21.656  24.951  1.00  0.00     0.275 C 
BRANCH  22  23
ATOM     23  O   UNL A   1      38.098  22.246  26.208  1.00  0.00    -0.458 OA
BRANCH  23  24
ATOM     24  C   UNL A   1      39.421  22.190  26.466  1.00  0.00     0.338 C 
ATOM     25  O   UNL A   1      40.097  21.191  26.610  1.00  0.00    -0.246 OA
BRANCH  24  26
ATOM     26  C   UNL A   1      39.999  23.485  26.794  1.00  0.00     0.060 A 
ATOM     27  C   UNL A   1      41.121  23.478  27.637  1.00  0.00     0.016 A 
ATOM     28  C   UNL A   1      39.278  24.650  26.532  1.00  0.00     0.016 A 
ATOM     29  C   UNL A   1      41.467  24.633  28.303  1.00  0.00     0.010 A 
ATOM     30  C   UNL A   1      39.629  25.806  27.196  1.00  0.00     0.010 A 
ATOM     31  C   UNL A   1      40.686  25.774  28.113  1.00  0.00    -0.014 A 
BRANCH  31  32
ATOM     32  C   UNL A   1      41.067  26.977  28.835  1.00  0.00     0.031 A 
ATOM     33  C   UNL A   1      42.303  27.649  28.344  1.00  0.00     0.074 A 
ATOM     34  C   UNL A   1      40.251  27.535  29.748  1.00  0.00     0.049 A 
ATOM     35  N   UNL A   1      43.286  28.142  29.027  1.00  0.00    -0.248 NA
ATOM     36  C   UNL A   1      42.483  27.741  26.884  1.00  0.00     0.031 C 
ATOM     37  C   UNL A   1      38.884  27.131  30.095  1.00  0.00     0.029 A 
ATOM     38  N   UNL A   1      40.427  28.685  30.454  1.00  0.00    -0.354 N 
ATOM     39  C   UNL A   1      44.140  28.731  28.096  1.00  0.00     0.074 A 
ATOM     40  C   UNL A   1      43.648  28.376  26.792  1.00  0.00     0.031 C 
ATOM     41  C   UNL A   1      38.281  28.146  30.750  1.00  0.00     0.029 A 
ATOM     42  C   UNL A   1      39.249  29.210  30.960  1.00  0.00     0.049 A 
ATOM     43  H   UNL A   1      41.307  29.103  30.593  1.00  0.00     0.167 HD
ATOM     44  C   UNL A   1      45.098  29.626  28.451  1.00  0.00     0.037 A 
ATOM     45  C   UNL A   1      39.060  30.470  31.418  1.00  0.00     0.037 A 
ATOM     46  C   UNL A   1      45.492  29.478  29.824  1.00  0.00     0.049 A 
ATOM     47  C   UNL A   1      40.391  31.066  31.692  1.00  0.00     0.074 A 
ATOM     48  C   UNL A   1      46.046  28.448  30.560  1.00  0.00     0.029 A 
ATOM     49  N   UNL A   1      45.059  30.395  30.747  1.00  0.00    -0.354 N 
ATOM     50  N   UNL A   1      41.172  30.710  32.673  1.00  0.00    -0.248 NA
ATOM     51  C   UNL A   1      41.035  31.812  30.621  1.00  0.00     0.031 C 
ATOM     52  C   UNL A   1      45.479  28.572  31.862  1.00  0.00     0.029 A 
ATOM     53  C   UNL A   1      44.631  29.679  31.836  1.00  0.00     0.049 A 
ATOM     54  H   UNL A   1      45.056  31.374  30.647  1.00  0.00     0.167 HD
ATOM     55  C   UNL A   1      42.456  30.818  32.157  1.00  0.00     0.074 A 
ATOM     56  C   UNL A   1      42.314  31.605  30.938  1.00  0.00     0.031 C 
ATOM     57  C   UNL A   1      43.468  30.025  32.613  1.00  0.00     0.037 A 
BRANCH  44  58
ATOM     58  C   UNL A   1      45.456  30.829  27.619  1.00  0.00     0.064 A 
ATOM     59  C   UNL A   1      46.792  31.034  27.226  1.00  0.00     0.173 A 
ATOM     60  C   UNL A   1      44.591  31.931  27.442  1.00  0.00     0.173 A 
ATOM     61  F   UNL A   1      47.705  30.062  27.377  1.00  0.00    -0.203 F 
ATOM     62  C   UNL A   1      47.240  32.272  26.758  1.00  0.00     0.198 A 
ATOM     63  C   UNL A   1      45.028  33.148  26.923  1.00  0.00     0.198 A 
ATOM     64  F   UNL A   1      43.320  31.912  27.867  1.00  0.00    -0.203 F 
ATOM     65  F   UNL A   1      48.544  32.457  26.512  1.00  0.00    -0.200 F 
ATOM     66  C   UNL A   1      46.360  33.328  26.611  1.00  0.00     0.200 A 
ATOM     67  F   UNL A   1      44.164  34.166  26.807  1.00  0.00    -0.200 F 
ATOM     68  F   UNL A   1      46.799  34.531  26.219  1.00  0.00    -0.200 F 
ENDBRANCH  44  58
BRANCH  45  69
ATOM     69  C   UNL A   1      37.821  31.276  31.364  1.00  0.00     0.064 A 
ATOM     70  C   UNL A   1      37.078  31.540  32.523  1.00  0.00     0.173 A 
ATOM     71  C   UNL A   1      37.467  32.002  30.210  1.00  0.00     0.173 A 
ATOM     72  F   UNL A   1      37.386  30.930  33.675  1.00  0.00    -0.203 F 
ATOM     73  C   UNL A   1      36.041  32.478  32.527  1.00  0.00     0.198 A 
ATOM     74  C   UNL A   1      36.424  32.925  30.210  1.00  0.00     0.198 A 
ATOM     75  F   UNL A   1      38.183  31.896  29.080  1.00  0.00    -0.203 F 
ATOM     76  F   UNL A   1      35.386  32.745  33.665  1.00  0.00    -0.200 F 
ATOM     77  C   UNL A   1      35.716  33.172  31.371  1.00  0.00     0.200 A 
ATOM     78  F   UNL A   1      36.144  33.614  29.094  1.00  0.00    -0.200 F 
ATOM     79  F   UNL A   1      34.754  34.103  31.387  1.00  0.00    -0.200 F 
ENDBRANCH  45  69
BRANCH  57  80
ATOM     80  C   UNL A   1      43.224  29.235  33.864  1.00  0.00     0.064 A 
ATOM     81  C   UNL A   1      42.573  27.989  33.878  1.00  0.00     0.173 A 
ATOM     82  C   UNL A   1      43.784  29.686  35.066  1.00  0.00     0.173 A 
ATOM     83  F   UNL A   1      42.115  27.439  32.747  1.00  0.00    -0.203 F 
ATOM     84  C   UNL A   1      42.436  27.259  35.057  1.00  0.00     0.198 A 
ATOM     85  C   UNL A   1      43.678  28.936  36.235  1.00  0.00     0.198 A 
ATOM     86  F   UNL A   1      44.474  30.836  35.098  1.00  0.00    -0.203 F 
ATOM     87  F   UNL A   1      41.793  26.082  35.047  1.00  0.00    -0.200 F 
ATOM     88  C   UNL A   1      42.994  27.731  36.233  1.00  0.00     0.200 A 
ATOM     89  F   UNL A   1      44.263  29.369  37.361  1.00  0.00    -0.200 F 
ATOM     90  F   UNL A   1      42.894  27.012  37.360  1.00  0.00    -0.200 F 
ENDBRANCH  57  80
ENDBRANCH  31  32
ENDBRANCH  24  26
ENDBRANCH  23  24
ENDBRANCH  22  23
ENDBRANCH   1  22
TORSDOF 15
ENDMDL
