MODEL 1
REMARK VINA RESULT:     -13.2      0.000      0.000
REMARK SMILES CCC(CC)(NC(=O)N[C@@H](C)[C@@H]1CCCO1)C(=O)OCCOC(=O)c1ccc(-c2c3nc(c(-c4c(F)c(F)c(F)c(F)c4F)c4ccc([nH]4)c(-c4c(F)c(F)c(F)c(F)c4F)c4nc(c(-c5c(F)c(F)c(F)c(F)c5F)c5ccc2[nH]5)C=C4)C=C3)cc1
REMARK SMILES IDX 20 1 19 2 17 3 18 4 3 5 2 6 1 7 4 8 5 9 6 10 7 11 8 13 9 14
REMARK SMILES IDX 10 16 11 17 12 18 13 19 16 20 14 21 15 22 21 23 22 24 23 25
REMARK SMILES IDX 24 26 25 27 26 28 87 29 27 30 86 31 28 32 29 33 30 34 80 35
REMARK SMILES IDX 31 36 85 37 79 38 81 39 32 40 84 41 78 42 77 43 33 45 65 46
REMARK SMILES IDX 45 47 64 48 46 49 49 50 63 51 82 52 47 53 48 54 62 56 83 57
REMARK SMILES IDX 50 58 34 59 35 60 43 61 36 62 37 63 41 64 44 65 38 66 39 67
REMARK SMILES IDX 42 68 40 69 66 70 67 71 75 72 68 73 69 74 73 75 76 76 70 77
REMARK SMILES IDX 71 78 74 79 72 80 51 81 52 82 60 83 53 84 54 85 58 86 61 87
REMARK SMILES IDX 55 88 56 89 59 90 57 91
REMARK H PARENT 6 12 9 15 81 44 49 55
REMARK Flexibility Score: inf
ROOT
ATOM      1  C   UNL A   1      33.280  27.054  23.044  1.00  0.00     0.274 C 
ENDROOT
BRANCH   1   2
ATOM      2  O   UNL A   1      33.319  25.894  23.985  1.00  0.00    -0.460 OA
BRANCH   2   3
ATOM      3  C   UNL A   1      32.239  25.090  24.244  1.00  0.00     0.332 C 
ATOM      4  O   UNL A   1      31.941  24.199  23.449  1.00  0.00    -0.249 OA
BRANCH   3   5
ATOM      5  C   UNL A   1      31.352  25.358  25.638  1.00  0.00     0.139 C 
BRANCH   5   6
ATOM      6  C   UNL A   1      30.031  26.141  25.307  1.00  0.00     0.037 C 
ATOM      7  C   UNL A   1      29.495  26.170  23.886  1.00  0.00     0.007 C 
ENDBRANCH   5   6
BRANCH   5   8
ATOM      8  C   UNL A   1      32.348  26.304  26.409  1.00  0.00     0.037 C 
ATOM      9  C   UNL A   1      31.754  27.473  27.204  1.00  0.00     0.007 C 
ENDBRANCH   5   8
BRANCH   5  10
ATOM     10  N   UNL A   1      30.910  24.394  26.763  1.00  0.00    -0.322 N 
ATOM     11  C   UNL A   1      30.355  23.171  26.905  1.00  0.00     0.316 C 
ATOM     12  H   UNL A   1      31.088  24.792  27.646  1.00  0.00     0.166 HD
ATOM     13  O   UNL A   1      29.342  23.066  27.593  1.00  0.00    -0.249 OA
ATOM     14  N   UNL A   1      30.987  22.079  26.471  1.00  0.00    -0.333 N 
ATOM     15  H   UNL A   1      30.547  21.208  26.606  1.00  0.00     0.165 HD
BRANCH  14  16
ATOM     16  C   UNL A   1      32.242  22.092  25.832  1.00  0.00     0.109 C 
ATOM     17  C   UNL A   1      33.440  22.442  26.731  1.00  0.00     0.034 C 
BRANCH  16  18
ATOM     18  C   UNL A   1      32.485  20.872  24.922  1.00  0.00     0.140 C 
ATOM     19  C   UNL A   1      32.222  20.612  22.895  1.00  0.00     0.036 C 
ATOM     20  O   UNL A   1      32.448  19.142  25.711  1.00  0.00    -0.376 OA
ATOM     21  C   UNL A   1      32.364  18.610  22.567  1.00  0.00     0.031 C 
ATOM     22  C   UNL A   1      32.370  17.769  24.399  1.00  0.00     0.160 C 
ENDBRANCH  16  18
ENDBRANCH  14  16
ENDBRANCH   5  10
ENDBRANCH   3   5
ENDBRANCH   2   3
ENDBRANCH   1   2
BRANCH   1  23
ATOM     23  C   UNL A   1      32.517  28.458  23.493  1.00  0.00     0.275 C 
BRANCH  23  24
ATOM     24  O   UNL A   1      33.228  29.634  24.574  1.00  0.00    -0.458 OA
BRANCH  24  25
ATOM     25  C   UNL A   1      33.276  30.493  26.289  1.00  0.00     0.338 C 
ATOM     26  O   UNL A   1      32.311  31.053  26.838  1.00  0.00    -0.246 OA
BRANCH  25  27
ATOM     27  C   UNL A   1      34.485  30.585  27.359  1.00  0.00     0.060 A 
ATOM     28  C   UNL A   1      34.872  29.413  28.032  1.00  0.00     0.016 A 
ATOM     29  C   UNL A   1      35.189  31.748  27.683  1.00  0.00     0.016 A 
ATOM     30  C   UNL A   1      36.111  29.281  28.656  1.00  0.00     0.010 A 
ATOM     31  C   UNL A   1      36.422  31.646  28.346  1.00  0.00     0.010 A 
ATOM     32  C   UNL A   1      36.923  30.398  28.771  1.00  0.00    -0.014 A 
BRANCH  32  33
ATOM     33  C   UNL A   1      38.183  30.343  29.546  1.00  0.00     0.031 A 
ATOM     34  C   UNL A   1      39.267  29.498  28.967  1.00  0.00     0.074 A 
ATOM     35  C   UNL A   1      38.330  30.954  30.734  1.00  0.00     0.049 A 
ATOM     36  N   UNL A   1      40.271  28.909  29.550  1.00  0.00    -0.248 NA
ATOM     37  C   UNL A   1      39.148  29.226  27.527  1.00  0.00     0.031 C 
ATOM     38  C   UNL A   1      37.376  31.881  31.341  1.00  0.00     0.029 A 
ATOM     39  N   UNL A   1      39.336  30.854  31.665  1.00  0.00    -0.354 N 
ATOM     40  C   UNL A   1      40.834  28.102  28.570  1.00  0.00     0.074 A 
ATOM     41  C   UNL A   1      40.064  28.288  27.362  1.00  0.00     0.031 C 
ATOM     42  C   UNL A   1      37.823  32.236  32.559  1.00  0.00     0.029 A 
ATOM     43  C   UNL A   1      39.056  31.507  32.843  1.00  0.00     0.049 A 
ATOM     44  H   UNL A   1      40.174  30.362  31.505  1.00  0.00     0.167 HD
ATOM     45  C   UNL A   1      41.889  27.264  28.698  1.00  0.00     0.037 A 
ATOM     46  C   UNL A   1      39.700  31.461  34.027  1.00  0.00     0.037 A 
ATOM     47  C   UNL A   1      42.661  27.176  29.907  1.00  0.00     0.049 A 
ATOM     48  C   UNL A   1      40.912  30.569  34.141  1.00  0.00     0.074 A 
ATOM     49  C   UNL A   1      43.775  26.408  30.174  1.00  0.00     0.029 A 
ATOM     50  N   UNL A   1      42.396  27.920  31.053  1.00  0.00    -0.354 N 
ATOM     51  N   UNL A   1      41.418  29.748  33.248  1.00  0.00    -0.248 NA
ATOM     52  C   UNL A   1      41.638  30.582  35.418  1.00  0.00     0.031 C 
ATOM     53  C   UNL A   1      44.169  26.666  31.493  1.00  0.00     0.029 A 
ATOM     54  C   UNL A   1      43.329  27.633  32.031  1.00  0.00     0.049 A 
ATOM     55  H   UNL A   1      41.651  28.556  31.154  1.00  0.00     0.167 HD
ATOM     56  C   UNL A   1      42.530  29.167  33.839  1.00  0.00     0.074 A 
ATOM     57  C   UNL A   1      42.629  29.733  35.172  1.00  0.00     0.031 C 
ATOM     58  C   UNL A   1      43.393  28.249  33.335  1.00  0.00     0.037 A 
BRANCH  45  59
ATOM     59  C   UNL A   1      42.185  26.358  27.537  1.00  0.00     0.064 A 
ATOM     60  C   UNL A   1      41.528  25.131  27.351  1.00  0.00     0.173 A 
ATOM     61  C   UNL A   1      43.211  26.687  26.638  1.00  0.00     0.173 A 
ATOM     62  F   UNL A   1      40.552  24.753  28.191  1.00  0.00    -0.203 F 
ATOM     63  C   UNL A   1      41.935  24.240  26.360  1.00  0.00     0.198 A 
ATOM     64  C   UNL A   1      43.585  25.813  25.619  1.00  0.00     0.198 A 
ATOM     65  F   UNL A   1      43.876  27.845  26.762  1.00  0.00    -0.203 F 
ATOM     66  F   UNL A   1      41.362  23.031  26.273  1.00  0.00    -0.200 F 
ATOM     67  C   UNL A   1      42.962  24.582  25.494  1.00  0.00     0.200 A 
ATOM     68  F   UNL A   1      44.571  26.152  24.776  1.00  0.00    -0.200 F 
ATOM     69  F   UNL A   1      43.364  23.717  24.553  1.00  0.00    -0.200 F 
ENDBRANCH  45  59
BRANCH  46  70
ATOM     70  C   UNL A   1      39.191  32.247  35.186  1.00  0.00     0.064 A 
ATOM     71  C   UNL A   1      38.419  31.645  36.189  1.00  0.00     0.173 A 
ATOM     72  C   UNL A   1      39.502  33.608  35.342  1.00  0.00     0.173 A 
ATOM     73  F   UNL A   1      38.070  30.354  36.080  1.00  0.00    -0.203 F 
ATOM     74  C   UNL A   1      37.984  32.367  37.302  1.00  0.00     0.198 A 
ATOM     75  C   UNL A   1      39.088  34.323  36.466  1.00  0.00     0.198 A 
ATOM     76  F   UNL A   1      40.235  34.239  34.413  1.00  0.00    -0.203 F 
ATOM     77  F   UNL A   1      37.230  31.768  38.234  1.00  0.00    -0.200 F 
ATOM     78  C   UNL A   1      38.329  33.703  37.445  1.00  0.00     0.200 A 
ATOM     79  F   UNL A   1      39.437  35.610  36.607  1.00  0.00    -0.200 F 
ATOM     80  F   UNL A   1      37.929  34.389  38.525  1.00  0.00    -0.200 F 
ENDBRANCH  46  70
BRANCH  58  81
ATOM     81  C   UNL A   1      44.548  27.845  34.202  1.00  0.00     0.064 A 
ATOM     82  C   UNL A   1      44.481  26.729  35.044  1.00  0.00     0.173 A 
ATOM     83  C   UNL A   1      45.767  28.533  34.105  1.00  0.00     0.173 A 
ATOM     84  F   UNL A   1      43.333  26.049  35.177  1.00  0.00    -0.203 F 
ATOM     85  C   UNL A   1      45.598  26.316  35.766  1.00  0.00     0.198 A 
ATOM     86  C   UNL A   1      46.887  28.102  34.805  1.00  0.00     0.198 A 
ATOM     87  F   UNL A   1      45.877  29.604  33.303  1.00  0.00    -0.203 F 
ATOM     88  F   UNL A   1      45.510  25.259  36.584  1.00  0.00    -0.200 F 
ATOM     89  C   UNL A   1      46.801  26.995  35.636  1.00  0.00     0.200 A 
ATOM     90  F   UNL A   1      48.052  28.748  34.667  1.00  0.00    -0.200 F 
ATOM     91  F   UNL A   1      47.881  26.580  36.313  1.00  0.00    -0.200 F 
ENDBRANCH  58  81
ENDBRANCH  32  33
ENDBRANCH  25  27
ENDBRANCH  24  25
ENDBRANCH  23  24
ENDBRANCH   1  23
TORSDOF 16
ENDMDL
MODEL 2
REMARK VINA RESULT:     -12.9      1.654      3.422
REMARK SMILES CCC(CC)(NC(=O)N[C@@H](C)[C@@H]1CCCO1)C(=O)OCCOC(=O)c1ccc(-c2c3nc(c(-c4c(F)c(F)c(F)c(F)c4F)c4ccc([nH]4)c(-c4c(F)c(F)c(F)c(F)c4F)c4nc(c(-c5c(F)c(F)c(F)c(F)c5F)c5ccc2[nH]5)C=C4)C=C3)cc1
REMARK SMILES IDX 20 1 19 2 17 3 18 4 3 5 2 6 1 7 4 8 5 9 6 10 7 11 8 13 9 14
REMARK SMILES IDX 10 16 11 17 12 18 13 19 16 20 14 21 15 22 21 23 22 24 23 25
REMARK SMILES IDX 24 26 25 27 26 28 87 29 27 30 86 31 28 32 29 33 30 34 80 35
REMARK SMILES IDX 31 36 85 37 79 38 81 39 32 40 84 41 78 42 77 43 33 45 65 46
REMARK SMILES IDX 45 47 64 48 46 49 49 50 63 51 82 52 47 53 48 54 62 56 83 57
REMARK SMILES IDX 50 58 34 59 35 60 43 61 36 62 37 63 41 64 44 65 38 66 39 67
REMARK SMILES IDX 42 68 40 69 66 70 67 71 75 72 68 73 69 74 73 75 76 76 70 77
REMARK SMILES IDX 71 78 74 79 72 80 51 81 52 82 60 83 53 84 54 85 58 86 61 87
REMARK SMILES IDX 55 88 56 89 59 90 57 91
REMARK H PARENT 6 12 9 15 81 44 49 55
REMARK Flexibility Score: inf
ROOT
ATOM      1  C   UNL A   1      31.443  27.165  26.652  1.00  0.00     0.274 C 
ENDROOT
BRANCH   1   2
ATOM      2  O   UNL A   1      32.281  26.048  26.123  1.00  0.00    -0.460 OA
BRANCH   2   3
ATOM      3  C   UNL A   1      31.942  25.298  25.026  1.00  0.00     0.332 C 
ATOM      4  O   UNL A   1      30.764  24.999  24.835  1.00  0.00    -0.249 OA
BRANCH   3   5
ATOM      5  C   UNL A   1      33.154  24.805  23.982  1.00  0.00     0.139 C 
BRANCH   5   6
ATOM      6  C   UNL A   1      33.220  23.236  23.919  1.00  0.00     0.037 C 
ATOM      7  C   UNL A   1      32.516  22.486  22.801  1.00  0.00     0.007 C 
ENDBRANCH   5   6
BRANCH   5   8
ATOM      8  C   UNL A   1      34.411  25.356  24.754  1.00  0.00     0.037 C 
ATOM      9  C   UNL A   1      35.413  24.338  25.311  1.00  0.00     0.007 C 
ENDBRANCH   5   8
BRANCH   5  10
ATOM     10  N   UNL A   1      33.478  25.223  22.529  1.00  0.00    -0.322 N 
ATOM     11  C   UNL A   1      32.837  25.642  21.417  1.00  0.00     0.316 C 
ATOM     12  H   UNL A   1      34.447  25.168  22.364  1.00  0.00     0.166 HD
ATOM     13  O   UNL A   1      33.021  25.025  20.369  1.00  0.00    -0.249 OA
ATOM     14  N   UNL A   1      32.172  26.798  21.405  1.00  0.00    -0.333 N 
ATOM     15  H   UNL A   1      31.730  27.067  20.567  1.00  0.00     0.165 HD
BRANCH  14  16
ATOM     16  C   UNL A   1      32.063  27.660  22.514  1.00  0.00     0.109 C 
ATOM     17  C   UNL A   1      33.206  28.677  22.678  1.00  0.00     0.034 C 
BRANCH  16  18
ATOM     18  C   UNL A   1      30.659  28.272  22.685  1.00  0.00     0.140 C 
ATOM     19  C   UNL A   1      28.905  27.472  23.414  1.00  0.00     0.036 C 
ATOM     20  O   UNL A   1      30.179  29.742  21.578  1.00  0.00    -0.376 OA
ATOM     21  C   UNL A   1      27.440  28.788  22.906  1.00  0.00     0.031 C 
ATOM     22  C   UNL A   1      28.314  30.099  21.649  1.00  0.00     0.160 C 
ENDBRANCH  16  18
ENDBRANCH  14  16
ENDBRANCH   5  10
ENDBRANCH   3   5
ENDBRANCH   2   3
ENDBRANCH   1   2
BRANCH   1  23
ATOM     23  C   UNL A   1      31.426  28.629  25.871  1.00  0.00     0.275 C 
BRANCH  23  24
ATOM     24  O   UNL A   1      31.864  30.136  26.644  1.00  0.00    -0.458 OA
BRANCH  24  25
ATOM     25  C   UNL A   1      33.213  31.322  27.316  1.00  0.00     0.338 C 
ATOM     26  O   UNL A   1      33.070  32.545  27.491  1.00  0.00    -0.246 OA
BRANCH  25  27
ATOM     27  C   UNL A   1      34.703  30.989  27.849  1.00  0.00     0.060 A 
ATOM     28  C   UNL A   1      35.634  32.041  27.932  1.00  0.00     0.016 A 
ATOM     29  C   UNL A   1      35.158  29.726  28.239  1.00  0.00     0.016 A 
ATOM     30  C   UNL A   1      36.780  31.967  28.720  1.00  0.00     0.010 A 
ATOM     31  C   UNL A   1      36.332  29.621  29.002  1.00  0.00     0.010 A 
ATOM     32  C   UNL A   1      37.110  30.756  29.308  1.00  0.00    -0.014 A 
BRANCH  32  33
ATOM     33  C   UNL A   1      38.387  30.590  30.037  1.00  0.00     0.031 A 
ATOM     34  C   UNL A   1      39.391  29.693  29.396  1.00  0.00     0.074 A 
ATOM     35  C   UNL A   1      38.615  31.151  31.237  1.00  0.00     0.049 A 
ATOM     36  N   UNL A   1      40.371  29.019  29.925  1.00  0.00    -0.248 NA
ATOM     37  C   UNL A   1      39.206  29.477  27.952  1.00  0.00     0.031 C 
ATOM     38  C   UNL A   1      37.746  32.120  31.905  1.00  0.00     0.029 A 
ATOM     39  N   UNL A   1      39.641  30.952  32.129  1.00  0.00    -0.354 N 
ATOM     40  C   UNL A   1      40.844  28.208  28.902  1.00  0.00     0.074 A 
ATOM     41  C   UNL A   1      40.050  28.485  27.728  1.00  0.00     0.031 C 
ATOM     42  C   UNL A   1      38.256  32.404  33.117  1.00  0.00     0.029 A 
ATOM     43  C   UNL A   1      39.445  31.584  33.336  1.00  0.00     0.049 A 
ATOM     44  H   UNL A   1      40.437  30.410  31.926  1.00  0.00     0.167 HD
ATOM     45  C   UNL A   1      41.842  27.297  28.968  1.00  0.00     0.037 A 
ATOM     46  C   UNL A   1      40.123  31.456  34.495  1.00  0.00     0.037 A 
ATOM     47  C   UNL A   1      42.646  27.117  30.146  1.00  0.00     0.049 A 
ATOM     48  C   UNL A   1      41.273  30.481  34.540  1.00  0.00     0.074 A 
ATOM     49  C   UNL A   1      43.713  26.267  30.351  1.00  0.00     0.029 A 
ATOM     50  N   UNL A   1      42.470  27.839  31.323  1.00  0.00    -0.354 N 
ATOM     51  N   UNL A   1      41.692  29.657  33.605  1.00  0.00    -0.248 NA
ATOM     52  C   UNL A   1      42.040  30.402  35.790  1.00  0.00     0.031 C 
ATOM     53  C   UNL A   1      44.166  26.455  31.663  1.00  0.00     0.029 A 
ATOM     54  C   UNL A   1      43.413  27.458  32.259  1.00  0.00     0.049 A 
ATOM     55  H   UNL A   1      41.775  28.521  31.469  1.00  0.00     0.167 HD
ATOM     56  C   UNL A   1      42.780  28.983  34.139  1.00  0.00     0.074 A 
ATOM     57  C   UNL A   1      42.961  29.498  35.484  1.00  0.00     0.031 C 
ATOM     58  C   UNL A   1      43.561  28.025  33.578  1.00  0.00     0.037 A 
BRANCH  45  59
ATOM     59  C   UNL A   1      42.038  26.411  27.770  1.00  0.00     0.064 A 
ATOM     60  C   UNL A   1      41.311  25.224  27.583  1.00  0.00     0.173 A 
ATOM     61  C   UNL A   1      43.037  26.714  26.832  1.00  0.00     0.173 A 
ATOM     62  F   UNL A   1      40.356  24.871  28.458  1.00  0.00    -0.203 F 
ATOM     63  C   UNL A   1      41.625  24.343  26.550  1.00  0.00     0.198 A 
ATOM     64  C   UNL A   1      43.318  25.853  25.774  1.00  0.00     0.198 A 
ATOM     65  F   UNL A   1      43.765  27.833  26.955  1.00  0.00    -0.203 F 
ATOM     66  F   UNL A   1      40.988  23.167  26.459  1.00  0.00    -0.200 F 
ATOM     67  C   UNL A   1      42.628  24.658  25.646  1.00  0.00     0.200 A 
ATOM     68  F   UNL A   1      44.280  26.165  24.895  1.00  0.00    -0.200 F 
ATOM     69  F   UNL A   1      42.941  23.801  24.664  1.00  0.00    -0.200 F 
ENDBRANCH  45  59
BRANCH  46  70
ATOM     70  C   UNL A   1      39.707  32.237  35.693  1.00  0.00     0.064 A 
ATOM     71  C   UNL A   1      38.715  31.760  36.562  1.00  0.00     0.173 A 
ATOM     72  C   UNL A   1      40.322  33.455  36.025  1.00  0.00     0.173 A 
ATOM     73  F   UNL A   1      38.075  30.615  36.283  1.00  0.00    -0.203 F 
ATOM     74  C   UNL A   1      38.359  32.464  37.714  1.00  0.00     0.198 A 
ATOM     75  C   UNL A   1      39.984  34.146  37.189  1.00  0.00     0.198 A 
ATOM     76  F   UNL A   1      41.275  33.962  35.230  1.00  0.00    -0.203 F 
ATOM     77  F   UNL A   1      37.393  31.993  38.514  1.00  0.00    -0.200 F 
ATOM     78  C   UNL A   1      39.003  33.651  38.033  1.00  0.00     0.200 A 
ATOM     79  F   UNL A   1      40.619  35.285  37.499  1.00  0.00    -0.200 F 
ATOM     80  F   UNL A   1      38.676  34.315  39.150  1.00  0.00    -0.200 F 
ENDBRANCH  46  70
BRANCH  58  81
ATOM     81  C   UNL A   1      44.713  27.516  34.392  1.00  0.00     0.064 A 
ATOM     82  C   UNL A   1      44.597  26.381  35.202  1.00  0.00     0.173 A 
ATOM     83  C   UNL A   1      45.973  28.122  34.272  1.00  0.00     0.173 A 
ATOM     84  F   UNL A   1      43.409  25.777  35.355  1.00  0.00    -0.203 F 
ATOM     85  C   UNL A   1      45.705  25.870  35.872  1.00  0.00     0.198 A 
ATOM     86  C   UNL A   1      47.083  27.593  34.919  1.00  0.00     0.198 A 
ATOM     87  F   UNL A   1      46.131  29.208  33.499  1.00  0.00    -0.203 F 
ATOM     88  F   UNL A   1      45.571  24.796  36.661  1.00  0.00    -0.200 F 
ATOM     89  C   UNL A   1      46.947  26.469  35.720  1.00  0.00     0.200 A 
ATOM     90  F   UNL A   1      48.285  28.162  34.760  1.00  0.00    -0.200 F 
ATOM     91  F   UNL A   1      48.018  25.960  36.346  1.00  0.00    -0.200 F 
ENDBRANCH  58  81
ENDBRANCH  32  33
ENDBRANCH  25  27
ENDBRANCH  24  25
ENDBRANCH  23  24
ENDBRANCH   1  23
TORSDOF 16
ENDMDL
MODEL 3
REMARK VINA RESULT:     -12.9      4.547      8.810
REMARK SMILES CCC(CC)(NC(=O)N[C@@H](C)[C@@H]1CCCO1)C(=O)OCCOC(=O)c1ccc(-c2c3nc(c(-c4c(F)c(F)c(F)c(F)c4F)c4ccc([nH]4)c(-c4c(F)c(F)c(F)c(F)c4F)c4nc(c(-c5c(F)c(F)c(F)c(F)c5F)c5ccc2[nH]5)C=C4)C=C3)cc1
REMARK SMILES IDX 20 1 19 2 17 3 18 4 3 5 2 6 1 7 4 8 5 9 6 10 7 11 8 13 9 14
REMARK SMILES IDX 10 16 11 17 12 18 13 19 16 20 14 21 15 22 21 23 22 24 23 25
REMARK SMILES IDX 24 26 25 27 26 28 87 29 27 30 86 31 28 32 29 33 30 34 80 35
REMARK SMILES IDX 31 36 85 37 79 38 81 39 32 40 84 41 78 42 77 43 33 45 65 46
REMARK SMILES IDX 45 47 64 48 46 49 49 50 63 51 82 52 47 53 48 54 62 56 83 57
REMARK SMILES IDX 50 58 34 59 35 60 43 61 36 62 37 63 41 64 44 65 38 66 39 67
REMARK SMILES IDX 42 68 40 69 66 70 67 71 75 72 68 73 69 74 73 75 76 76 70 77
REMARK SMILES IDX 71 78 74 79 72 80 51 81 52 82 60 83 53 84 54 85 58 86 61 87
REMARK SMILES IDX 55 88 56 89 59 90 57 91
REMARK H PARENT 6 12 9 15 81 44 49 55
REMARK Flexibility Score: inf
ROOT
ATOM      1  C   UNL A   1      31.802  28.622  26.961  1.00  0.00     0.274 C 
ENDROOT
BRANCH   1   2
ATOM      2  O   UNL A   1      32.401  27.556  26.102  1.00  0.00    -0.460 OA
BRANCH   2   3
ATOM      3  C   UNL A   1      31.823  26.329  25.902  1.00  0.00     0.332 C 
ATOM      4  O   UNL A   1      30.781  26.044  26.493  1.00  0.00    -0.249 OA
BRANCH   3   5
ATOM      5  C   UNL A   1      32.565  25.249  24.861  1.00  0.00     0.139 C 
BRANCH   5   6
ATOM      6  C   UNL A   1      31.626  24.021  24.580  1.00  0.00     0.037 C 
ATOM      7  C   UNL A   1      30.559  24.106  23.502  1.00  0.00     0.007 C 
ENDBRANCH   5   6
BRANCH   5   8
ATOM      8  C   UNL A   1      33.773  24.795  25.765  1.00  0.00     0.037 C 
ATOM      9  C   UNL A   1      35.100  24.463  25.073  1.00  0.00     0.007 C 
ENDBRANCH   5   8
BRANCH   5  10
ATOM     10  N   UNL A   1      33.266  25.466  23.499  1.00  0.00    -0.322 N 
ATOM     11  C   UNL A   1      32.956  25.819  22.233  1.00  0.00     0.316 C 
ATOM     12  H   UNL A   1      34.232  25.296  23.579  1.00  0.00     0.166 HD
ATOM     13  O   UNL A   1      33.298  25.074  21.318  1.00  0.00    -0.249 OA
ATOM     14  N   UNL A   1      32.461  27.029  21.962  1.00  0.00    -0.333 N 
ATOM     15  H   UNL A   1      32.261  27.245  21.023  1.00  0.00     0.165 HD
BRANCH  14  16
ATOM     16  C   UNL A   1      32.208  28.016  22.934  1.00  0.00     0.109 C 
ATOM     17  C   UNL A   1      33.243  29.152  23.010  1.00  0.00     0.034 C 
BRANCH  16  18
ATOM     18  C   UNL A   1      30.747  28.507  22.951  1.00  0.00     0.140 C 
ATOM     19  C   UNL A   1      29.012  27.592  23.582  1.00  0.00     0.036 C 
ATOM     20  O   UNL A   1      30.241  29.862  21.718  1.00  0.00    -0.376 OA
ATOM     21  C   UNL A   1      27.488  28.737  22.874  1.00  0.00     0.031 C 
ATOM     22  C   UNL A   1      28.352  30.051  21.612  1.00  0.00     0.160 C 
ENDBRANCH  16  18
ENDBRANCH  14  16
ENDBRANCH   5  10
ENDBRANCH   3   5
ENDBRANCH   2   3
ENDBRANCH   1   2
BRANCH   1  23
ATOM     23  C   UNL A   1      32.135  30.218  26.650  1.00  0.00     0.275 C 
BRANCH  23  24
ATOM     24  O   UNL A   1      33.209  31.184  27.636  1.00  0.00    -0.458 OA
BRANCH  24  25
ATOM     25  C   UNL A   1      34.758  31.315  28.761  1.00  0.00     0.338 C 
ATOM     26  O   UNL A   1      34.936  32.180  29.637  1.00  0.00    -0.246 OA
BRANCH  25  27
ATOM     27  C   UNL A   1      36.040  30.335  28.863  1.00  0.00     0.060 A 
ATOM     28  C   UNL A   1      36.788  30.090  27.698  1.00  0.00     0.016 A 
ATOM     29  C   UNL A   1      36.476  29.696  30.027  1.00  0.00     0.016 A 
ATOM     30  C   UNL A   1      38.094  29.606  27.734  1.00  0.00     0.010 A 
ATOM     31  C   UNL A   1      37.775  29.165  30.077  1.00  0.00     0.010 A 
ATOM     32  C   UNL A   1      38.617  29.185  28.946  1.00  0.00    -0.014 A 
BRANCH  32  33
ATOM     33  C   UNL A   1      39.944  28.534  29.014  1.00  0.00     0.031 A 
ATOM     34  C   UNL A   1      41.102  29.440  29.269  1.00  0.00     0.074 A 
ATOM     35  C   UNL A   1      40.120  27.220  28.791  1.00  0.00     0.049 A 
ATOM     36  N   UNL A   1      42.361  29.292  28.977  1.00  0.00    -0.248 NA
ATOM     37  C   UNL A   1      40.761  30.733  29.882  1.00  0.00     0.031 C 
ATOM     38  C   UNL A   1      39.054  26.232  28.631  1.00  0.00     0.029 A 
ATOM     39  N   UNL A   1      41.275  26.495  28.622  1.00  0.00    -0.354 N 
ATOM     40  C   UNL A   1      42.944  30.520  29.262  1.00  0.00     0.074 A 
ATOM     41  C   UNL A   1      41.902  31.389  29.756  1.00  0.00     0.031 C 
ATOM     42  C   UNL A   1      39.602  25.036  28.352  1.00  0.00     0.029 A 
ATOM     43  C   UNL A   1      41.050  25.191  28.243  1.00  0.00     0.049 A 
ATOM     44  H   UNL A   1      42.174  26.871  28.759  1.00  0.00     0.167 HD
ATOM     45  C   UNL A   1      44.238  30.877  29.092  1.00  0.00     0.037 A 
ATOM     46  C   UNL A   1      41.921  24.261  27.801  1.00  0.00     0.037 A 
ATOM     47  C   UNL A   1      45.245  29.945  28.664  1.00  0.00     0.049 A 
ATOM     48  C   UNL A   1      43.373  24.652  27.673  1.00  0.00     0.074 A 
ATOM     49  C   UNL A   1      46.598  30.147  28.486  1.00  0.00     0.029 A 
ATOM     50  N   UNL A   1      44.991  28.609  28.371  1.00  0.00    -0.354 N 
ATOM     51  N   UNL A   1      43.930  25.826  27.872  1.00  0.00    -0.248 NA
ATOM     52  C   UNL A   1      44.316  23.608  27.253  1.00  0.00     0.031 C 
ATOM     53  C   UNL A   1      47.160  28.938  28.058  1.00  0.00     0.029 A 
ATOM     54  C   UNL A   1      46.165  27.970  28.017  1.00  0.00     0.049 A 
ATOM     55  H   UNL A   1      44.106  28.180  28.408  1.00  0.00     0.167 HD
ATOM     56  C   UNL A   1      45.285  25.660  27.628  1.00  0.00     0.074 A 
ATOM     57  C   UNL A   1      45.469  24.266  27.268  1.00  0.00     0.031 C 
ATOM     58  C   UNL A   1      46.291  26.569  27.691  1.00  0.00     0.037 A 
BRANCH  45  59
ATOM     59  C   UNL A   1      44.579  32.325  29.298  1.00  0.00     0.064 A 
ATOM     60  C   UNL A   1      44.537  33.266  28.256  1.00  0.00     0.173 A 
ATOM     61  C   UNL A   1      45.041  32.764  30.549  1.00  0.00     0.173 A 
ATOM     62  F   UNL A   1      44.123  32.902  27.033  1.00  0.00    -0.203 F 
ATOM     63  C   UNL A   1      45.012  34.564  28.439  1.00  0.00     0.198 A 
ATOM     64  C   UNL A   1      45.472  34.075  30.741  1.00  0.00     0.198 A 
ATOM     65  F   UNL A   1      45.103  31.913  31.585  1.00  0.00    -0.203 F 
ATOM     66  F   UNL A   1      45.060  35.410  27.400  1.00  0.00    -0.200 F 
ATOM     67  C   UNL A   1      45.478  34.967  29.681  1.00  0.00     0.200 A 
ATOM     68  F   UNL A   1      45.911  34.465  31.945  1.00  0.00    -0.200 F 
ATOM     69  F   UNL A   1      45.950  36.210  29.850  1.00  0.00    -0.200 F 
ENDBRANCH  45  59
BRANCH  46  70
ATOM     70  C   UNL A   1      41.436  22.905  27.420  1.00  0.00     0.064 A 
ATOM     71  C   UNL A   1      40.423  22.738  26.465  1.00  0.00     0.173 A 
ATOM     72  C   UNL A   1      42.004  21.743  27.967  1.00  0.00     0.173 A 
ATOM     73  F   UNL A   1      39.826  23.812  25.928  1.00  0.00    -0.203 F 
ATOM     74  C   UNL A   1      40.002  21.467  26.069  1.00  0.00     0.198 A 
ATOM     75  C   UNL A   1      41.600  20.473  27.553  1.00  0.00     0.198 A 
ATOM     76  F   UNL A   1      42.975  21.840  28.887  1.00  0.00    -0.203 F 
ATOM     77  F   UNL A   1      39.017  21.340  25.169  1.00  0.00    -0.200 F 
ATOM     78  C   UNL A   1      40.600  20.336  26.604  1.00  0.00     0.200 A 
ATOM     79  F   UNL A   1      42.192  19.384  28.063  1.00  0.00    -0.200 F 
ATOM     80  F   UNL A   1      40.210  19.117  26.207  1.00  0.00    -0.200 F 
ENDBRANCH  46  70
BRANCH  58  81
ATOM     81  C   UNL A   1      47.680  26.074  27.423  1.00  0.00     0.064 A 
ATOM     82  C   UNL A   1      48.292  26.237  26.175  1.00  0.00     0.173 A 
ATOM     83  C   UNL A   1      48.438  25.522  28.468  1.00  0.00     0.173 A 
ATOM     84  F   UNL A   1      47.601  26.749  25.145  1.00  0.00    -0.203 F 
ATOM     85  C   UNL A   1      49.617  25.858  25.978  1.00  0.00     0.198 A 
ATOM     86  C   UNL A   1      49.769  25.171  28.275  1.00  0.00     0.198 A 
ATOM     87  F   UNL A   1      47.894  25.356  29.684  1.00  0.00    -0.203 F 
ATOM     88  F   UNL A   1      50.179  26.000  24.770  1.00  0.00    -0.200 F 
ATOM     89  C   UNL A   1      50.356  25.337  27.030  1.00  0.00     0.200 A 
ATOM     90  F   UNL A   1      50.487  24.683  29.296  1.00  0.00    -0.200 F 
ATOM     91  F   UNL A   1      51.639  24.996  26.844  1.00  0.00    -0.200 F 
ENDBRANCH  58  81
ENDBRANCH  32  33
ENDBRANCH  25  27
ENDBRANCH  24  25
ENDBRANCH  23  24
ENDBRANCH   1  23
TORSDOF 16
ENDMDL
