MODEL 1
REMARK VINA RESULT:     -10.6      0.000      0.000
REMARK SMILES C[C@@H]1CN(S(=O)(=O)N[C@H](C(=O)OCCOC(=O)c2ccc(-c3c4nc(c(-c5c(F)c(F)c(F)c(F)c5F)c5ccc([nH]5)c(-c5c(F)c(F)c(F)c(F)c5F)c5nc(c(-c6c(F)c(F)c(F)c(F)c6F)c6ccc3[nH]6)C=C5)C=C4)cc2)[C@@H](C)O)C[C@H](C)O1
REMARK SMILES IDX 13 1 12 2 10 3 11 4 9 5 8 6 5 8 6 9 7 10 4 11 1 12 2 13 3 14
REMARK SMILES IDX 87 15 85 16 84 17 86 18 81 19 82 20 83 21 14 23 15 24 16 25
REMARK SMILES IDX 17 26 18 27 19 28 80 29 20 30 79 31 21 32 22 33 23 34 73 35
REMARK SMILES IDX 24 36 78 37 72 38 74 39 25 40 77 41 71 42 70 43 26 45 58 46
REMARK SMILES IDX 38 47 57 48 39 49 42 50 56 51 75 52 40 53 41 54 55 56 76 57
REMARK SMILES IDX 43 58 27 59 28 60 36 61 29 62 30 63 34 64 37 65 31 66 32 67
REMARK SMILES IDX 35 68 33 69 59 70 60 71 68 72 61 73 62 74 66 75 69 76 63 77
REMARK SMILES IDX 64 78 67 79 65 80 44 81 45 82 53 83 46 84 47 85 51 86 54 87
REMARK SMILES IDX 48 88 49 89 52 90 50 91
REMARK H PARENT 8 7 83 22 74 44 42 55
REMARK Flexibility Score: inf
ROOT
ATOM      1  C   UNL A   1      40.495  19.987  26.337  1.00  0.00     0.274 C 
ENDROOT
BRANCH   1   2
ATOM      2  O   UNL A   1      41.395  19.509  25.315  1.00  0.00    -0.461 OA
BRANCH   2   3
ATOM      3  C   UNL A   1      42.609  19.075  25.742  1.00  0.00     0.327 C 
ATOM      4  O   UNL A   1      42.782  18.045  26.390  1.00  0.00    -0.250 OA
BRANCH   3   5
ATOM      5  C   UNL A   1      43.755  20.011  25.405  1.00  0.00     0.208 C 
BRANCH   5   6
ATOM      6  N   UNL A   1      44.013  21.135  26.344  1.00  0.00    -0.185 NA
ATOM      7  H   UNL A   1      43.836  20.761  27.276  1.00  0.00     0.143 HD
BRANCH   6   8
ATOM      8  S   UNL A   1      43.228  22.594  26.290  1.00  0.00     0.280 S 
ATOM      9  O   UNL A   1      42.449  22.774  27.486  1.00  0.00    -0.195 OA
ATOM     10  O   UNL A   1      42.667  22.641  24.959  1.00  0.00    -0.195 OA
BRANCH   8  11
ATOM     11  N   UNL A   1      44.560  23.653  26.326  1.00  0.00    -0.184 NA
ATOM     12  C   UNL A   1      45.596  26.413  25.340  1.00  0.00     0.040 C 
ATOM     13  C   UNL A   1      46.197  25.038  25.061  1.00  0.00     0.130 C 
ATOM     14  C   UNL A   1      45.156  23.921  24.983  1.00  0.00     0.135 C 
ATOM     15  O   UNL A   1      47.255  24.693  25.961  1.00  0.00    -0.373 OA
ATOM     16  C   UNL A   1      46.839  24.252  27.262  1.00  0.00     0.130 C 
ATOM     17  C   UNL A   1      45.660  23.245  27.262  1.00  0.00     0.135 C 
ATOM     18  C   UNL A   1      46.647  25.437  28.203  1.00  0.00     0.040 C 
ENDBRANCH   8  11
ENDBRANCH   6   8
ENDBRANCH   5   6
BRANCH   5  19
ATOM     19  C   UNL A   1      45.027  19.270  24.957  1.00  0.00     0.140 C 
ATOM     20  C   UNL A   1      46.216  20.177  24.655  1.00  0.00     0.040 C 
BRANCH  19  21
ATOM     21  O   UNL A   1      45.438  18.396  26.022  1.00  0.00    -0.391 OA
ATOM     22  H   UNL A   1      46.129  18.829  26.547  1.00  0.00     0.211 HD
ENDBRANCH  19  21
ENDBRANCH   5  19
ENDBRANCH   3   5
ENDBRANCH   2   3
ENDBRANCH   1   2
BRANCH   1  23
ATOM     23  C   UNL A   1      39.524  21.043  25.819  1.00  0.00     0.275 C 
BRANCH  23  24
ATOM     24  O   UNL A   1      39.365  22.102  26.778  1.00  0.00    -0.458 OA
BRANCH  24  25
ATOM     25  C   UNL A   1      38.823  23.234  26.277  1.00  0.00     0.338 C 
ATOM     26  O   UNL A   1      37.948  23.335  25.439  1.00  0.00    -0.246 OA
BRANCH  25  27
ATOM     27  C   UNL A   1      39.425  24.398  26.932  1.00  0.00     0.060 A 
ATOM     28  C   UNL A   1      39.192  24.607  28.291  1.00  0.00     0.016 A 
ATOM     29  C   UNL A   1      40.102  25.348  26.168  1.00  0.00     0.016 A 
ATOM     30  C   UNL A   1      39.608  25.787  28.894  1.00  0.00     0.010 A 
ATOM     31  C   UNL A   1      40.553  26.517  26.781  1.00  0.00     0.010 A 
ATOM     32  C   UNL A   1      40.292  26.751  28.144  1.00  0.00    -0.014 A 
BRANCH  32  33
ATOM     33  C   UNL A   1      40.716  28.016  28.784  1.00  0.00     0.031 A 
ATOM     34  C   UNL A   1      42.144  28.201  29.209  1.00  0.00     0.074 A 
ATOM     35  C   UNL A   1      39.813  28.993  28.976  1.00  0.00     0.049 A 
ATOM     36  N   UNL A   1      42.679  29.166  29.910  1.00  0.00    -0.248 NA
ATOM     37  C   UNL A   1      43.094  27.156  28.796  1.00  0.00     0.031 C 
ATOM     38  C   UNL A   1      38.410  28.935  28.564  1.00  0.00     0.029 A 
ATOM     39  N   UNL A   1      39.937  30.222  29.568  1.00  0.00    -0.354 N 
ATOM     40  C   UNL A   1      44.017  28.827  30.061  1.00  0.00     0.074 A 
ATOM     41  C   UNL A   1      44.213  27.564  29.379  1.00  0.00     0.031 C 
ATOM     42  C   UNL A   1      37.806  30.083  28.904  1.00  0.00     0.029 A 
ATOM     43  C   UNL A   1      38.760  30.927  29.614  1.00  0.00     0.049 A 
ATOM     44  H   UNL A   1      40.787  30.567  29.926  1.00  0.00     0.167 HD
ATOM     45  C   UNL A   1      44.986  29.510  30.714  1.00  0.00     0.037 A 
ATOM     46  C   UNL A   1      38.477  32.107  30.196  1.00  0.00     0.037 A 
ATOM     47  C   UNL A   1      44.781  30.781  31.360  1.00  0.00     0.049 A 
ATOM     48  C   UNL A   1      39.566  32.835  30.928  1.00  0.00     0.074 A 
ATOM     49  C   UNL A   1      45.696  31.562  32.045  1.00  0.00     0.029 A 
ATOM     50  N   UNL A   1      43.573  31.464  31.389  1.00  0.00    -0.354 N 
ATOM     51  N   UNL A   1      40.820  32.491  31.100  1.00  0.00    -0.248 NA
ATOM     52  C   UNL A   1      39.202  34.112  31.554  1.00  0.00     0.031 C 
ATOM     53  C   UNL A   1      45.033  32.702  32.516  1.00  0.00     0.029 A 
ATOM     54  C   UNL A   1      43.717  32.653  32.088  1.00  0.00     0.049 A 
ATOM     55  H   UNL A   1      42.737  31.150  30.976  1.00  0.00     0.167 HD
ATOM     56  C   UNL A   1      41.397  33.511  31.841  1.00  0.00     0.074 A 
ATOM     57  C   UNL A   1      40.361  34.498  32.067  1.00  0.00     0.031 C 
ATOM     58  C   UNL A   1      42.669  33.619  32.298  1.00  0.00     0.037 A 
BRANCH  45  59
ATOM     59  C   UNL A   1      46.346  28.882  30.796  1.00  0.00     0.064 A 
ATOM     60  C   UNL A   1      46.696  28.002  31.832  1.00  0.00     0.173 A 
ATOM     61  C   UNL A   1      47.302  29.136  29.801  1.00  0.00     0.173 A 
ATOM     62  F   UNL A   1      45.824  27.735  32.815  1.00  0.00    -0.203 F 
ATOM     63  C   UNL A   1      47.961  27.419  31.878  1.00  0.00     0.198 A 
ATOM     64  C   UNL A   1      48.556  28.531  29.837  1.00  0.00     0.198 A 
ATOM     65  F   UNL A   1      47.017  29.966  28.787  1.00  0.00    -0.203 F 
ATOM     66  F   UNL A   1      48.287  26.612  32.897  1.00  0.00    -0.200 F 
ATOM     67  C   UNL A   1      48.886  27.677  30.878  1.00  0.00     0.200 A 
ATOM     68  F   UNL A   1      49.444  28.774  28.863  1.00  0.00    -0.200 F 
ATOM     69  F   UNL A   1      50.099  27.108  30.920  1.00  0.00    -0.200 F 
ENDBRANCH  45  59
BRANCH  46  70
ATOM     70  C   UNL A   1      37.098  32.651  30.121  1.00  0.00     0.064 A 
ATOM     71  C   UNL A   1      36.174  32.418  31.147  1.00  0.00     0.173 A 
ATOM     72  C   UNL A   1      36.683  33.434  29.033  1.00  0.00     0.173 A 
ATOM     73  F   UNL A   1      36.518  31.656  32.196  1.00  0.00    -0.203 F 
ATOM     74  C   UNL A   1      34.884  32.941  31.085  1.00  0.00     0.198 A 
ATOM     75  C   UNL A   1      35.402  33.982  28.986  1.00  0.00     0.198 A 
ATOM     76  F   UNL A   1      37.531  33.689  28.026  1.00  0.00    -0.203 F 
ATOM     77  F   UNL A   1      34.008  32.674  32.064  1.00  0.00    -0.200 F 
ATOM     78  C   UNL A   1      34.503  33.728  30.010  1.00  0.00     0.200 A 
ATOM     79  F   UNL A   1      35.044  34.755  27.953  1.00  0.00    -0.200 F 
ATOM     80  F   UNL A   1      33.265  34.242  29.958  1.00  0.00    -0.200 F 
ENDBRANCH  46  70
BRANCH  58  81
ATOM     81  C   UNL A   1      43.008  34.866  33.060  1.00  0.00     0.064 A 
ATOM     82  C   UNL A   1      42.942  34.911  34.460  1.00  0.00     0.173 A 
ATOM     83  C   UNL A   1      43.414  36.023  32.379  1.00  0.00     0.173 A 
ATOM     84  F   UNL A   1      42.540  33.834  35.152  1.00  0.00    -0.203 F 
ATOM     85  C   UNL A   1      43.241  36.082  35.150  1.00  0.00     0.198 A 
ATOM     86  C   UNL A   1      43.740  37.183  33.074  1.00  0.00     0.198 A 
ATOM     87  F   UNL A   1      43.498  36.026  31.041  1.00  0.00    -0.203 F 
ATOM     88  F   UNL A   1      43.120  36.121  36.484  1.00  0.00    -0.200 F 
ATOM     89  C   UNL A   1      43.644  37.215  34.458  1.00  0.00     0.200 A 
ATOM     90  F   UNL A   1      44.136  38.274  32.405  1.00  0.00    -0.200 F 
ATOM     91  F   UNL A   1      43.929  38.342  35.124  1.00  0.00    -0.200 F 
ENDBRANCH  58  81
ENDBRANCH  32  33
ENDBRANCH  25  27
ENDBRANCH  24  25
ENDBRANCH  23  24
ENDBRANCH   1  23
TORSDOF 16
ENDMDL
MODEL 2
REMARK VINA RESULT:     -10.3      4.513      9.779
REMARK SMILES C[C@@H]1CN(S(=O)(=O)N[C@H](C(=O)OCCOC(=O)c2ccc(-c3c4nc(c(-c5c(F)c(F)c(F)c(F)c5F)c5ccc([nH]5)c(-c5c(F)c(F)c(F)c(F)c5F)c5nc(c(-c6c(F)c(F)c(F)c(F)c6F)c6ccc3[nH]6)C=C5)C=C4)cc2)[C@@H](C)O)C[C@H](C)O1
REMARK SMILES IDX 13 1 12 2 10 3 11 4 9 5 8 6 5 8 6 9 7 10 4 11 1 12 2 13 3 14
REMARK SMILES IDX 87 15 85 16 84 17 86 18 81 19 82 20 83 21 14 23 15 24 16 25
REMARK SMILES IDX 17 26 18 27 19 28 80 29 20 30 79 31 21 32 22 33 23 34 73 35
REMARK SMILES IDX 24 36 78 37 72 38 74 39 25 40 77 41 71 42 70 43 26 45 58 46
REMARK SMILES IDX 38 47 57 48 39 49 42 50 56 51 75 52 40 53 41 54 55 56 76 57
REMARK SMILES IDX 43 58 27 59 28 60 36 61 29 62 30 63 34 64 37 65 31 66 32 67
REMARK SMILES IDX 35 68 33 69 59 70 60 71 68 72 61 73 62 74 66 75 69 76 63 77
REMARK SMILES IDX 64 78 67 79 65 80 44 81 45 82 53 83 46 84 47 85 51 86 54 87
REMARK SMILES IDX 48 88 49 89 52 90 50 91
REMARK H PARENT 8 7 83 22 74 44 42 55
REMARK Flexibility Score: inf
ROOT
ATOM      1  C   UNL A   1      36.038  20.178  25.010  1.00  0.00     0.274 C 
ENDROOT
BRANCH   1   2
ATOM      2  O   UNL A   1      35.086  20.992  25.726  1.00  0.00    -0.461 OA
BRANCH   2   3
ATOM      3  C   UNL A   1      33.915  21.245  25.087  1.00  0.00     0.327 C 
ATOM      4  O   UNL A   1      33.826  21.893  24.047  1.00  0.00    -0.250 OA
BRANCH   3   5
ATOM      5  C   UNL A   1      32.689  20.709  25.805  1.00  0.00     0.208 C 
BRANCH   5   6
ATOM      6  N   UNL A   1      31.486  21.583  25.840  1.00  0.00    -0.185 NA
ATOM      7  H   UNL A   1      31.351  21.904  24.881  1.00  0.00     0.143 HD
BRANCH   6   8
ATOM      8  S   UNL A   1      31.344  22.935  26.789  1.00  0.00     0.280 S 
ATOM      9  O   UNL A   1      32.380  22.945  27.785  1.00  0.00    -0.195 OA
ATOM     10  O   UNL A   1      29.934  22.995  27.104  1.00  0.00    -0.195 OA
BRANCH   8  11
ATOM     11  N   UNL A   1      31.666  24.145  25.636  1.00  0.00    -0.184 NA
ATOM     12  C   UNL A   1      33.494  26.578  24.999  1.00  0.00     0.040 C 
ATOM     13  C   UNL A   1      31.974  26.565  25.136  1.00  0.00     0.130 C 
ATOM     14  C   UNL A   1      31.461  25.535  26.143  1.00  0.00     0.135 C 
ATOM     15  O   UNL A   1      31.297  26.440  23.882  1.00  0.00    -0.373 OA
ATOM     16  C   UNL A   1      31.262  25.116  23.329  1.00  0.00     0.130 C 
ATOM     17  C   UNL A   1      30.919  23.995  24.343  1.00  0.00     0.135 C 
ATOM     18  C   UNL A   1      32.510  24.842  22.495  1.00  0.00     0.040 C 
ENDBRANCH   8  11
ENDBRANCH   6   8
ENDBRANCH   5   6
BRANCH   5  19
ATOM     19  C   UNL A   1      32.383  19.242  25.460  1.00  0.00     0.140 C 
ATOM     20  C   UNL A   1      32.854  18.806  24.076  1.00  0.00     0.040 C 
BRANCH  19  21
ATOM     21  O   UNL A   1      33.065  18.404  26.408  1.00  0.00    -0.391 OA
ATOM     22  H   UNL A   1      32.710  17.502  26.357  1.00  0.00     0.211 HD
ENDBRANCH  19  21
ENDBRANCH   5  19
ENDBRANCH   3   5
ENDBRANCH   2   3
ENDBRANCH   1   2
BRANCH   1  23
ATOM     23  C   UNL A   1      37.321  20.932  24.671  1.00  0.00     0.275 C 
BRANCH  23  24
ATOM     24  O   UNL A   1      37.751  21.731  25.786  1.00  0.00    -0.458 OA
BRANCH  24  25
ATOM     25  C   UNL A   1      39.014  21.481  26.199  1.00  0.00     0.338 C 
ATOM     26  O   UNL A   1      39.623  20.430  26.145  1.00  0.00    -0.246 OA
BRANCH  25  27
ATOM     27  C   UNL A   1      39.614  22.714  26.716  1.00  0.00     0.060 A 
ATOM     28  C   UNL A   1      39.205  23.939  26.191  1.00  0.00     0.016 A 
ATOM     29  C   UNL A   1      40.674  22.641  27.618  1.00  0.00     0.016 A 
ATOM     30  C   UNL A   1      39.875  25.103  26.540  1.00  0.00     0.010 A 
ATOM     31  C   UNL A   1      41.325  23.815  27.999  1.00  0.00     0.010 A 
ATOM     32  C   UNL A   1      40.940  25.051  27.448  1.00  0.00    -0.014 A 
BRANCH  32  33
ATOM     33  C   UNL A   1      41.666  26.291  27.803  1.00  0.00     0.031 A 
ATOM     34  C   UNL A   1      40.993  27.343  28.634  1.00  0.00     0.074 A 
ATOM     35  C   UNL A   1      42.930  26.460  27.375  1.00  0.00     0.049 A 
ATOM     36  N   UNL A   1      41.401  28.550  28.929  1.00  0.00    -0.248 NA
ATOM     37  C   UNL A   1      39.683  26.993  29.205  1.00  0.00     0.031 C 
ATOM     38  C   UNL A   1      43.694  25.484  26.597  1.00  0.00     0.029 A 
ATOM     39  N   UNL A   1      43.794  27.512  27.532  1.00  0.00    -0.354 N 
ATOM     40  C   UNL A   1      40.382  29.120  29.680  1.00  0.00     0.074 A 
ATOM     41  C   UNL A   1      39.335  28.127  29.797  1.00  0.00     0.031 C 
ATOM     42  C   UNL A   1      44.917  25.977  26.355  1.00  0.00     0.029 A 
ATOM     43  C   UNL A   1      44.999  27.327  26.903  1.00  0.00     0.049 A 
ATOM     44  H   UNL A   1      43.571  28.323  28.045  1.00  0.00     0.167 HD
ATOM     45  C   UNL A   1      40.332  30.362  30.217  1.00  0.00     0.037 A 
ATOM     46  C   UNL A   1      46.040  28.167  26.756  1.00  0.00     0.037 A 
ATOM     47  C   UNL A   1      41.397  31.327  30.120  1.00  0.00     0.049 A 
ATOM     48  C   UNL A   1      45.950  29.544  27.347  1.00  0.00     0.074 A 
ATOM     49  C   UNL A   1      41.452  32.612  30.632  1.00  0.00     0.029 A 
ATOM     50  N   UNL A   1      42.604  31.105  29.470  1.00  0.00    -0.354 N 
ATOM     51  N   UNL A   1      44.969  30.091  28.024  1.00  0.00    -0.248 NA
ATOM     52  C   UNL A   1      47.108  30.424  27.148  1.00  0.00     0.031 C 
ATOM     53  C   UNL A   1      42.679  33.178  30.266  1.00  0.00     0.029 A 
ATOM     54  C   UNL A   1      43.406  32.231  29.562  1.00  0.00     0.049 A 
ATOM     55  H   UNL A   1      42.853  30.270  29.011  1.00  0.00     0.167 HD
ATOM     56  C   UNL A   1      45.394  31.371  28.343  1.00  0.00     0.074 A 
ATOM     57  C   UNL A   1      46.732  31.512  27.804  1.00  0.00     0.031 C 
ATOM     58  C   UNL A   1      44.735  32.346  29.018  1.00  0.00     0.037 A 
BRANCH  45  59
ATOM     59  C   UNL A   1      39.072  30.763  30.927  1.00  0.00     0.064 A 
ATOM     60  C   UNL A   1      38.923  30.613  32.314  1.00  0.00     0.173 A 
ATOM     61  C   UNL A   1      38.011  31.339  30.212  1.00  0.00     0.173 A 
ATOM     62  F   UNL A   1      39.901  30.056  33.043  1.00  0.00    -0.203 F 
ATOM     63  C   UNL A   1      37.749  31.006  32.953  1.00  0.00     0.198 A 
ATOM     64  C   UNL A   1      36.850  31.755  30.858  1.00  0.00     0.198 A 
ATOM     65  F   UNL A   1      38.105  31.508  28.885  1.00  0.00    -0.203 F 
ATOM     66  F   UNL A   1      37.612  30.819  34.274  1.00  0.00    -0.200 F 
ATOM     67  C   UNL A   1      36.717  31.583  32.227  1.00  0.00     0.200 A 
ATOM     68  F   UNL A   1      35.860  32.322  30.156  1.00  0.00    -0.200 F 
ATOM     69  F   UNL A   1      35.593  31.968  32.846  1.00  0.00    -0.200 F 
ENDBRANCH  45  59
BRANCH  46  70
ATOM     70  C   UNL A   1      47.239  27.726  26.000  1.00  0.00     0.064 A 
ATOM     71  C   UNL A   1      47.267  27.776  24.600  1.00  0.00     0.173 A 
ATOM     72  C   UNL A   1      48.388  27.268  26.660  1.00  0.00     0.173 A 
ATOM     73  F   UNL A   1      46.183  28.185  23.924  1.00  0.00    -0.203 F 
ATOM     74  C   UNL A   1      48.396  27.377  23.889  1.00  0.00     0.198 A 
ATOM     75  C   UNL A   1      49.529  26.898  25.950  1.00  0.00     0.198 A 
ATOM     76  F   UNL A   1      48.414  27.204  28.000  1.00  0.00    -0.203 F 
ATOM     77  F   UNL A   1      48.385  27.402  22.549  1.00  0.00    -0.200 F 
ATOM     78  C   UNL A   1      49.528  26.947  24.565  1.00  0.00     0.200 A 
ATOM     79  F   UNL A   1      50.625  26.498  26.608  1.00  0.00    -0.200 F 
ATOM     80  F   UNL A   1      50.619  26.576  23.880  1.00  0.00    -0.200 F 
ENDBRANCH  46  70
BRANCH  58  81
ATOM     81  C   UNL A   1      45.472  33.634  29.231  1.00  0.00     0.064 A 
ATOM     82  C   UNL A   1      46.288  33.835  30.353  1.00  0.00     0.173 A 
ATOM     83  C   UNL A   1      45.367  34.673  28.294  1.00  0.00     0.173 A 
ATOM     84  F   UNL A   1      46.403  32.877  31.285  1.00  0.00    -0.203 F 
ATOM     85  C   UNL A   1      46.950  35.045  30.545  1.00  0.00     0.198 A 
ATOM     86  C   UNL A   1      46.053  35.870  28.476  1.00  0.00     0.198 A 
ATOM     87  F   UNL A   1      44.603  34.526  27.203  1.00  0.00    -0.203 F 
ATOM     88  F   UNL A   1      47.683  35.236  31.651  1.00  0.00    -0.200 F 
ATOM     89  C   UNL A   1      46.836  36.059  29.606  1.00  0.00     0.200 A 
ATOM     90  F   UNL A   1      45.948  36.846  27.564  1.00  0.00    -0.200 F 
ATOM     91  F   UNL A   1      47.472  37.223  29.795  1.00  0.00    -0.200 F 
ENDBRANCH  58  81
ENDBRANCH  32  33
ENDBRANCH  25  27
ENDBRANCH  24  25
ENDBRANCH  23  24
ENDBRANCH   1  23
TORSDOF 16
ENDMDL
MODEL 3
REMARK VINA RESULT:     -10.3      5.161     11.601
REMARK SMILES C[C@@H]1CN(S(=O)(=O)N[C@H](C(=O)OCCOC(=O)c2ccc(-c3c4nc(c(-c5c(F)c(F)c(F)c(F)c5F)c5ccc([nH]5)c(-c5c(F)c(F)c(F)c(F)c5F)c5nc(c(-c6c(F)c(F)c(F)c(F)c6F)c6ccc3[nH]6)C=C5)C=C4)cc2)[C@@H](C)O)C[C@H](C)O1
REMARK SMILES IDX 13 1 12 2 10 3 11 4 9 5 8 6 5 8 6 9 7 10 4 11 1 12 2 13 3 14
REMARK SMILES IDX 87 15 85 16 84 17 86 18 81 19 82 20 83 21 14 23 15 24 16 25
REMARK SMILES IDX 17 26 18 27 19 28 80 29 20 30 79 31 21 32 22 33 23 34 73 35
REMARK SMILES IDX 24 36 78 37 72 38 74 39 25 40 77 41 71 42 70 43 26 45 58 46
REMARK SMILES IDX 38 47 57 48 39 49 42 50 56 51 75 52 40 53 41 54 55 56 76 57
REMARK SMILES IDX 43 58 27 59 28 60 36 61 29 62 30 63 34 64 37 65 31 66 32 67
REMARK SMILES IDX 35 68 33 69 59 70 60 71 68 72 61 73 62 74 66 75 69 76 63 77
REMARK SMILES IDX 64 78 67 79 65 80 44 81 45 82 53 83 46 84 47 85 51 86 54 87
REMARK SMILES IDX 48 88 49 89 52 90 50 91
REMARK H PARENT 8 7 83 22 74 44 42 55
REMARK Flexibility Score: inf
ROOT
ATOM      1  C   UNL A   1      34.007  33.420  28.067  1.00  0.00     0.274 C 
ENDROOT
BRANCH   1   2
ATOM      2  O   UNL A   1      33.956  33.886  29.432  1.00  0.00    -0.461 OA
BRANCH   2   3
ATOM      3  C   UNL A   1      33.213  34.999  29.658  1.00  0.00     0.327 C 
ATOM      4  O   UNL A   1      32.482  35.519  28.818  1.00  0.00    -0.250 OA
BRANCH   3   5
ATOM      5  C   UNL A   1      33.406  35.603  31.037  1.00  0.00     0.208 C 
BRANCH   5   6
ATOM      6  N   UNL A   1      34.655  35.254  31.763  1.00  0.00    -0.185 NA
ATOM      7  H   UNL A   1      35.279  34.853  31.063  1.00  0.00     0.143 HD
BRANCH   6   8
ATOM      8  S   UNL A   1      34.722  34.226  33.063  1.00  0.00     0.280 S 
ATOM      9  O   UNL A   1      33.673  33.247  32.966  1.00  0.00    -0.195 OA
ATOM     10  O   UNL A   1      34.889  35.106  34.197  1.00  0.00    -0.195 OA
BRANCH   8  11
ATOM     11  N   UNL A   1      36.220  33.471  32.770  1.00  0.00    -0.184 NA
ATOM     12  C   UNL A   1      37.788  30.807  33.091  1.00  0.00     0.040 C 
ATOM     13  C   UNL A   1      38.146  32.174  33.667  1.00  0.00     0.130 C 
ATOM     14  C   UNL A   1      36.927  33.031  34.009  1.00  0.00     0.135 C 
ATOM     15  O   UNL A   1      39.074  32.902  32.855  1.00  0.00    -0.373 OA
ATOM     16  C   UNL A   1      38.514  33.533  31.694  1.00  0.00     0.130 C 
ATOM     17  C   UNL A   1      37.175  34.275  31.937  1.00  0.00     0.135 C 
ATOM     18  C   UNL A   1      38.487  32.570  30.511  1.00  0.00     0.040 C 
ENDBRANCH   8  11
ENDBRANCH   6   8
ENDBRANCH   5   6
BRANCH   5  19
ATOM     19  C   UNL A   1      33.050  37.099  31.094  1.00  0.00     0.140 C 
ATOM     20  C   UNL A   1      33.643  37.846  32.285  1.00  0.00     0.040 C 
BRANCH  19  21
ATOM     21  O   UNL A   1      33.570  37.731  29.913  1.00  0.00    -0.391 OA
ATOM     22  H   UNL A   1      34.136  37.106  29.434  1.00  0.00     0.211 HD
ENDBRANCH  19  21
ENDBRANCH   5  19
ENDBRANCH   3   5
ENDBRANCH   2   3
ENDBRANCH   1   2
BRANCH   1  23
ATOM     23  C   UNL A   1      33.873  31.905  27.956  1.00  0.00     0.275 C 
BRANCH  23  24
ATOM     24  O   UNL A   1      34.877  31.245  28.744  1.00  0.00    -0.458 OA
BRANCH  24  25
ATOM     25  C   UNL A   1      35.282  30.053  28.252  1.00  0.00     0.338 C 
ATOM     26  O   UNL A   1      34.645  29.270  27.573  1.00  0.00    -0.246 OA
BRANCH  25  27
ATOM     27  C   UNL A   1      36.679  29.818  28.624  1.00  0.00     0.060 A 
ATOM     28  C   UNL A   1      37.684  30.117  27.705  1.00  0.00     0.016 A 
ATOM     29  C   UNL A   1      36.976  29.176  29.825  1.00  0.00     0.016 A 
ATOM     30  C   UNL A   1      38.997  29.746  27.967  1.00  0.00     0.010 A 
ATOM     31  C   UNL A   1      38.300  28.836  30.106  1.00  0.00     0.010 A 
ATOM     32  C   UNL A   1      39.315  29.104  29.169  1.00  0.00    -0.014 A 
BRANCH  32  33
ATOM     33  C   UNL A   1      40.711  28.691  29.436  1.00  0.00     0.031 A 
ATOM     34  C   UNL A   1      41.615  29.579  30.241  1.00  0.00     0.074 A 
ATOM     35  C   UNL A   1      41.156  27.518  28.954  1.00  0.00     0.049 A 
ATOM     36  N   UNL A   1      42.900  29.469  30.462  1.00  0.00    -0.248 NA
ATOM     37  C   UNL A   1      40.992  30.750  30.877  1.00  0.00     0.031 C 
ATOM     38  C   UNL A   1      40.351  26.560  28.195  1.00  0.00     0.029 A 
ATOM     39  N   UNL A   1      42.392  26.932  29.026  1.00  0.00    -0.354 N 
ATOM     40  C   UNL A   1      43.248  30.576  31.223  1.00  0.00     0.074 A 
ATOM     41  C   UNL A   1      42.040  31.348  31.427  1.00  0.00     0.031 C 
ATOM     42  C   UNL A   1      41.111  25.499  27.883  1.00  0.00     0.029 A 
ATOM     43  C   UNL A   1      42.468  25.733  28.362  1.00  0.00     0.049 A 
ATOM     44  H   UNL A   1      43.153  27.332  29.508  1.00  0.00     0.167 HD
ATOM     45  C   UNL A   1      44.469  30.913  31.701  1.00  0.00     0.037 A 
ATOM     46  C   UNL A   1      43.525  24.932  28.135  1.00  0.00     0.037 A 
ATOM     47  C   UNL A   1      45.655  30.117  31.517  1.00  0.00     0.049 A 
ATOM     48  C   UNL A   1      44.870  25.338  28.662  1.00  0.00     0.074 A 
ATOM     49  C   UNL A   1      46.942  30.362  31.965  1.00  0.00     0.029 A 
ATOM     50  N   UNL A   1      45.695  28.909  30.834  1.00  0.00    -0.354 N 
ATOM     51  N   UNL A   1      45.202  26.405  29.349  1.00  0.00    -0.248 NA
ATOM     52  C   UNL A   1      45.991  24.434  28.378  1.00  0.00     0.031 C 
ATOM     53  C   UNL A   1      47.766  29.319  31.525  1.00  0.00     0.029 A 
ATOM     54  C   UNL A   1      46.985  28.401  30.841  1.00  0.00     0.049 A 
ATOM     55  H   UNL A   1      44.921  28.476  30.406  1.00  0.00     0.167 HD
ATOM     56  C   UNL A   1      46.563  26.296  29.589  1.00  0.00     0.074 A 
ATOM     57  C   UNL A   1      46.991  25.047  28.994  1.00  0.00     0.031 C 
ATOM     58  C   UNL A   1      47.386  27.155  30.241  1.00  0.00     0.037 A 
BRANCH  45  59
ATOM     59  C   UNL A   1      44.593  32.214  32.438  1.00  0.00     0.064 A 
ATOM     60  C   UNL A   1      44.448  32.294  33.832  1.00  0.00     0.173 A 
ATOM     61  C   UNL A   1      44.898  33.394  31.742  1.00  0.00     0.173 A 
ATOM     62  F   UNL A   1      44.144  31.198  34.543  1.00  0.00    -0.203 F 
ATOM     63  C   UNL A   1      44.583  33.511  34.496  1.00  0.00     0.198 A 
ATOM     64  C   UNL A   1      45.058  34.603  32.413  1.00  0.00     0.198 A 
ATOM     65  F   UNL A   1      45.051  33.371  30.410  1.00  0.00    -0.203 F 
ATOM     66  F   UNL A   1      44.402  33.571  35.823  1.00  0.00    -0.200 F 
ATOM     67  C   UNL A   1      44.895  34.662  33.788  1.00  0.00     0.200 A 
ATOM     68  F   UNL A   1      45.370  35.712  31.728  1.00  0.00    -0.200 F 
ATOM     69  F   UNL A   1      45.032  35.830  34.431  1.00  0.00    -0.200 F 
ENDBRANCH  45  59
BRANCH  46  70
ATOM     70  C   UNL A   1      43.344  23.681  27.356  1.00  0.00     0.064 A 
ATOM     71  C   UNL A   1      42.843  22.521  27.960  1.00  0.00     0.173 A 
ATOM     72  C   UNL A   1      43.646  23.627  25.987  1.00  0.00     0.173 A 
ATOM     73  F   UNL A   1      42.561  22.519  29.271  1.00  0.00    -0.203 F 
ATOM     74  C   UNL A   1      42.659  21.351  27.227  1.00  0.00     0.198 A 
ATOM     75  C   UNL A   1      43.434  22.465  25.248  1.00  0.00     0.198 A 
ATOM     76  F   UNL A   1      44.126  24.711  25.360  1.00  0.00    -0.203 F 
ATOM     77  F   UNL A   1      42.210  20.246  27.837  1.00  0.00    -0.200 F 
ATOM     78  C   UNL A   1      42.946  21.327  25.871  1.00  0.00     0.200 A 
ATOM     79  F   UNL A   1      43.697  22.451  23.934  1.00  0.00    -0.200 F 
ATOM     80  F   UNL A   1      42.755  20.204  25.164  1.00  0.00    -0.200 F 
ENDBRANCH  46  70
BRANCH  58  81
ATOM     81  C   UNL A   1      48.824  26.747  30.364  1.00  0.00     0.064 A 
ATOM     82  C   UNL A   1      49.269  25.937  31.419  1.00  0.00     0.173 A 
ATOM     83  C   UNL A   1      49.762  27.164  29.408  1.00  0.00     0.173 A 
ATOM     84  F   UNL A   1      48.411  25.530  32.366  1.00  0.00    -0.203 F 
ATOM     85  C   UNL A   1      50.611  25.584  31.528  1.00  0.00     0.198 A 
ATOM     86  C   UNL A   1      51.097  26.786  29.507  1.00  0.00     0.198 A 
ATOM     87  F   UNL A   1      49.382  27.936  28.380  1.00  0.00    -0.203 F 
ATOM     88  F   UNL A   1      51.026  24.853  32.573  1.00  0.00    -0.200 F 
ATOM     89  C   UNL A   1      51.523  26.004  30.571  1.00  0.00     0.200 A 
ATOM     90  F   UNL A   1      51.975  27.186  28.577  1.00  0.00    -0.200 F 
ATOM     91  F   UNL A   1      52.814  25.666  30.681  1.00  0.00    -0.200 F 
ENDBRANCH  58  81
ENDBRANCH  32  33
ENDBRANCH  25  27
ENDBRANCH  24  25
ENDBRANCH  23  24
ENDBRANCH   1  23
TORSDOF 16
ENDMDL
