MODEL 1
REMARK VINA RESULT:     -12.9      0.000      0.000
REMARK SMILES Cc1c(Br)c(C)c2c(c1Br)O[C@H](C(F)(F)F)C(C(=O)OCCOC(=O)c1ccc(-c3c4nc(c(-c5c(F)c(F)c(F)c(F)c5F)c5ccc([nH]5)c(-c5c(F)c(F)c(F)c(F)c5F)c5nc(c(-c6c(F)c(F)c(F)c(F)c6F)c6ccc3[nH]6)C=C5)C=C4)cc1)=C2
REMARK SMILES IDX 22 1 21 2 20 3 18 4 19 5 17 6 1 7 2 8 3 9 9 10 4 11 5 12
REMARK SMILES IDX 8 13 10 14 6 15 7 16 11 17 89 18 12 19 13 20 14 21 15 22
REMARK SMILES IDX 16 23 23 24 24 25 25 26 26 27 27 28 88 29 28 30 87 31 29 32
REMARK SMILES IDX 30 33 31 34 81 35 32 36 86 37 80 38 82 39 33 40 85 41 79 42
REMARK SMILES IDX 78 43 34 45 66 46 46 47 65 48 47 49 50 50 64 51 83 52 48 53
REMARK SMILES IDX 49 54 63 56 84 57 51 58 35 59 36 60 44 61 37 62 38 63 42 64
REMARK SMILES IDX 45 65 39 66 40 67 43 68 41 69 67 70 68 71 76 72 69 73 70 74
REMARK SMILES IDX 74 75 77 76 71 77 72 78 75 79 73 80 52 81 53 82 61 83 54 84
REMARK SMILES IDX 55 85 59 86 62 87 56 88 57 89 60 90 58 91
REMARK H PARENT 82 44 50 55
REMARK Flexibility Score: inf
ROOT
ATOM      1  C   UNL A   1      31.740  30.067  25.544  1.00  0.00     0.275 C 
ENDROOT
BRANCH   1   2
ATOM      2  C   UNL A   1      31.443  28.609  25.195  1.00  0.00     0.275 C 
BRANCH   2   3
ATOM      3  O   UNL A   1      32.446  27.730  25.750  1.00  0.00    -0.459 OA
BRANCH   3   4
ATOM      4  C   UNL A   1      33.345  27.240  24.867  1.00  0.00     0.338 C 
ATOM      5  O   UNL A   1      34.000  27.875  24.057  1.00  0.00    -0.246 OA
BRANCH   4   6
ATOM      6  C   UNL A   1      33.459  25.777  25.012  1.00  0.00     0.087 C 
ATOM      7  C   UNL A   1      35.302  19.503  24.863  1.00  0.00     0.047 C 
ATOM      8  C   UNL A   1      35.129  20.995  25.036  1.00  0.00    -0.019 A 
ATOM      9  C   UNL A   1      36.255  21.818  25.291  1.00  0.00     0.025 A 
ATOM     10  C   UNL A   1      33.870  21.615  24.895  1.00  0.00     0.064 A 
ATOM     11  Br  UNL A   1      37.995  21.004  25.379  1.00  0.00    -0.050 Br
ATOM     12  C   UNL A   1      36.130  23.221  25.438  1.00  0.00    -0.026 A 
ATOM     13  C   UNL A   1      33.730  23.011  25.008  1.00  0.00     0.142 A 
ATOM     14  Br  UNL A   1      32.300  20.594  24.483  1.00  0.00    -0.046 Br
ATOM     15  C   UNL A   1      37.319  24.105  25.749  1.00  0.00     0.046 C 
ATOM     16  C   UNL A   1      34.851  23.812  25.264  1.00  0.00     0.022 A 
ATOM     17  O   UNL A   1      32.462  23.523  24.888  1.00  0.00    -0.474 OA
ATOM     18  C   UNL A   1      34.661  25.263  25.292  1.00  0.00     0.027 C 
ATOM     19  C   UNL A   1      32.264  24.943  24.692  1.00  0.00     0.316 C 
BRANCH  19  20
ATOM     20  C   UNL A   1      31.759  25.197  23.261  1.00  0.00     0.430 C 
ATOM     21  F   UNL A   1      31.090  24.126  22.775  1.00  0.00    -0.167 F 
ATOM     22  F   UNL A   1      30.898  26.242  23.221  1.00  0.00    -0.167 F 
ATOM     23  F   UNL A   1      32.770  25.470  22.407  1.00  0.00    -0.167 F 
ENDBRANCH  19  20
ENDBRANCH   4   6
ENDBRANCH   3   4
ENDBRANCH   2   3
ENDBRANCH   1   2
BRANCH   1  24
ATOM     24  O   UNL A   1      32.338  30.140  26.852  1.00  0.00    -0.458 OA
BRANCH  24  25
ATOM     25  C   UNL A   1      32.953  31.305  27.153  1.00  0.00     0.338 C 
ATOM     26  O   UNL A   1      32.473  32.426  27.145  1.00  0.00    -0.246 OA
BRANCH  25  27
ATOM     27  C   UNL A   1      34.336  31.043  27.583  1.00  0.00     0.060 A 
ATOM     28  C   UNL A   1      34.776  29.728  27.688  1.00  0.00     0.016 A 
ATOM     29  C   UNL A   1      35.136  32.081  28.055  1.00  0.00     0.016 A 
ATOM     30  C   UNL A   1      35.932  29.436  28.404  1.00  0.00     0.010 A 
ATOM     31  C   UNL A   1      36.370  31.789  28.653  1.00  0.00     0.010 A 
ATOM     32  C   UNL A   1      36.756  30.458  28.896  1.00  0.00    -0.014 A 
BRANCH  32  33
ATOM     33  C   UNL A   1      37.963  30.125  29.715  1.00  0.00     0.031 A 
ATOM     34  C   UNL A   1      39.087  29.308  29.123  1.00  0.00     0.074 A 
ATOM     35  C   UNL A   1      38.095  30.599  30.972  1.00  0.00     0.049 A 
ATOM     36  N   UNL A   1      40.134  28.784  29.714  1.00  0.00    -0.248 NA
ATOM     37  C   UNL A   1      39.022  29.027  27.679  1.00  0.00     0.031 C 
ATOM     38  C   UNL A   1      37.125  31.448  31.665  1.00  0.00     0.029 A 
ATOM     39  N   UNL A   1      39.116  30.461  31.884  1.00  0.00    -0.354 N 
ATOM     40  C   UNL A   1      40.805  28.061  28.735  1.00  0.00     0.074 A 
ATOM     41  C   UNL A   1      40.048  28.205  27.512  1.00  0.00     0.031 C 
ATOM     42  C   UNL A   1      37.631  31.826  32.848  1.00  0.00     0.029 A 
ATOM     43  C   UNL A   1      38.906  31.149  33.056  1.00  0.00     0.049 A 
ATOM     44  H   UNL A   1      39.921  29.921  31.714  1.00  0.00     0.167 HD
ATOM     45  C   UNL A   1      41.952  27.350  28.845  1.00  0.00     0.037 A 
ATOM     46  C   UNL A   1      39.629  31.200  34.193  1.00  0.00     0.037 A 
ATOM     47  C   UNL A   1      42.753  27.280  30.040  1.00  0.00     0.049 A 
ATOM     48  C   UNL A   1      40.871  30.365  34.308  1.00  0.00     0.074 A 
ATOM     49  C   UNL A   1      43.947  26.608  30.239  1.00  0.00     0.029 A 
ATOM     50  N   UNL A   1      42.455  27.928  31.229  1.00  0.00    -0.354 N 
ATOM     51  N   UNL A   1      41.453  29.623  33.398  1.00  0.00    -0.248 NA
ATOM     52  C   UNL A   1      41.535  30.337  35.620  1.00  0.00     0.031 C 
ATOM     53  C   UNL A   1      44.352  26.819  31.559  1.00  0.00     0.029 A 
ATOM     54  C   UNL A   1      43.431  27.652  32.172  1.00  0.00     0.049 A 
ATOM     55  H   UNL A   1      41.667  28.498  31.381  1.00  0.00     0.167 HD
ATOM     56  C   UNL A   1      42.542  29.035  34.027  1.00  0.00     0.074 A 
ATOM     57  C   UNL A   1      42.561  29.531  35.386  1.00  0.00     0.031 C 
ATOM     58  C   UNL A   1      43.434  28.148  33.524  1.00  0.00     0.037 A 
BRANCH  45  59
ATOM     59  C   UNL A   1      42.417  26.567  27.650  1.00  0.00     0.064 A 
ATOM     60  C   UNL A   1      43.370  27.074  26.756  1.00  0.00     0.173 A 
ATOM     61  C   UNL A   1      41.950  25.260  27.440  1.00  0.00     0.173 A 
ATOM     62  F   UNL A   1      43.840  28.321  26.905  1.00  0.00    -0.203 F 
ATOM     63  C   UNL A   1      43.825  26.307  25.685  1.00  0.00     0.198 A 
ATOM     64  C   UNL A   1      42.428  24.487  26.385  1.00  0.00     0.198 A 
ATOM     65  F   UNL A   1      41.045  24.723  28.272  1.00  0.00    -0.203 F 
ATOM     66  F   UNL A   1      44.709  26.825  24.821  1.00  0.00    -0.200 F 
ATOM     67  C   UNL A   1      43.361  25.012  25.506  1.00  0.00     0.200 A 
ATOM     68  F   UNL A   1      41.990  23.230  26.225  1.00  0.00    -0.200 F 
ATOM     69  F   UNL A   1      43.812  24.272  24.484  1.00  0.00    -0.200 F 
ENDBRANCH  45  59
BRANCH  46  70
ATOM     70  C   UNL A   1      39.162  32.040  35.329  1.00  0.00     0.064 A 
ATOM     71  C   UNL A   1      38.396  31.488  36.363  1.00  0.00     0.173 A 
ATOM     72  C   UNL A   1      39.492  33.402  35.418  1.00  0.00     0.173 A 
ATOM     73  F   UNL A   1      38.027  30.199  36.309  1.00  0.00    -0.203 F 
ATOM     74  C   UNL A   1      37.983  32.263  37.446  1.00  0.00     0.198 A 
ATOM     75  C   UNL A   1      39.108  34.166  36.517  1.00  0.00     0.198 A 
ATOM     76  F   UNL A   1      40.218  33.982  34.451  1.00  0.00    -0.203 F 
ATOM     77  F   UNL A   1      37.226  31.717  38.408  1.00  0.00    -0.200 F 
ATOM     78  C   UNL A   1      38.350  33.597  37.528  1.00  0.00     0.200 A 
ATOM     79  F   UNL A   1      39.480  35.451  36.599  1.00  0.00    -0.200 F 
ATOM     80  F   UNL A   1      37.972  34.336  38.580  1.00  0.00    -0.200 F 
ENDBRANCH  46  70
BRANCH  58  81
ATOM     81  C   UNL A   1      44.503  27.641  34.444  1.00  0.00     0.064 A 
ATOM     82  C   UNL A   1      45.686  28.365  34.644  1.00  0.00     0.173 A 
ATOM     83  C   UNL A   1      44.305  26.474  35.197  1.00  0.00     0.173 A 
ATOM     84  F   UNL A   1      45.924  29.478  33.935  1.00  0.00    -0.203 F 
ATOM     85  C   UNL A   1      46.636  27.938  35.567  1.00  0.00     0.198 A 
ATOM     86  C   UNL A   1      45.247  26.063  36.136  1.00  0.00     0.198 A 
ATOM     87  F   UNL A   1      43.185  25.751  35.044  1.00  0.00    -0.203 F 
ATOM     88  F   UNL A   1      47.770  28.634  35.729  1.00  0.00    -0.200 F 
ATOM     89  C   UNL A   1      46.411  26.795  36.319  1.00  0.00     0.200 A 
ATOM     90  F   UNL A   1      45.022  24.966  36.873  1.00  0.00    -0.200 F 
ATOM     91  F   UNL A   1      47.317  26.397  37.224  1.00  0.00    -0.200 F 
ENDBRANCH  58  81
ENDBRANCH  32  33
ENDBRANCH  25  27
ENDBRANCH  24  25
ENDBRANCH   1  24
TORSDOF 12
ENDMDL
MODEL 2
REMARK VINA RESULT:     -12.9      0.309      1.669
REMARK SMILES Cc1c(Br)c(C)c2c(c1Br)O[C@H](C(F)(F)F)C(C(=O)OCCOC(=O)c1ccc(-c3c4nc(c(-c5c(F)c(F)c(F)c(F)c5F)c5ccc([nH]5)c(-c5c(F)c(F)c(F)c(F)c5F)c5nc(c(-c6c(F)c(F)c(F)c(F)c6F)c6ccc3[nH]6)C=C5)C=C4)cc1)=C2
REMARK SMILES IDX 22 1 21 2 20 3 18 4 19 5 17 6 1 7 2 8 3 9 9 10 4 11 5 12
REMARK SMILES IDX 8 13 10 14 6 15 7 16 11 17 89 18 12 19 13 20 14 21 15 22
REMARK SMILES IDX 16 23 23 24 24 25 25 26 26 27 27 28 88 29 28 30 87 31 29 32
REMARK SMILES IDX 30 33 31 34 81 35 32 36 86 37 80 38 82 39 33 40 85 41 79 42
REMARK SMILES IDX 78 43 34 45 66 46 46 47 65 48 47 49 50 50 64 51 83 52 48 53
REMARK SMILES IDX 49 54 63 56 84 57 51 58 35 59 36 60 44 61 37 62 38 63 42 64
REMARK SMILES IDX 45 65 39 66 40 67 43 68 41 69 67 70 68 71 76 72 69 73 70 74
REMARK SMILES IDX 74 75 77 76 71 77 72 78 75 79 73 80 52 81 53 82 61 83 54 84
REMARK SMILES IDX 55 85 59 86 62 87 56 88 57 89 60 90 58 91
REMARK H PARENT 82 44 50 55
REMARK Flexibility Score: inf
ROOT
ATOM      1  C   UNL A   1      31.891  30.000  25.579  1.00  0.00     0.275 C 
ENDROOT
BRANCH   1   2
ATOM      2  C   UNL A   1      31.513  28.546  25.306  1.00  0.00     0.275 C 
BRANCH   2   3
ATOM      3  O   UNL A   1      32.518  27.645  25.822  1.00  0.00    -0.459 OA
BRANCH   3   4
ATOM      4  C   UNL A   1      33.399  27.172  24.913  1.00  0.00     0.338 C 
ATOM      5  O   UNL A   1      34.028  27.820  24.092  1.00  0.00    -0.246 OA
BRANCH   4   6
ATOM      6  C   UNL A   1      33.531  25.709  25.041  1.00  0.00     0.087 C 
ATOM      7  C   UNL A   1      35.455  19.461  24.829  1.00  0.00     0.047 C 
ATOM      8  C   UNL A   1      35.262  20.948  25.019  1.00  0.00    -0.019 A 
ATOM      9  C   UNL A   1      36.377  21.783  25.288  1.00  0.00     0.025 A 
ATOM     10  C   UNL A   1      33.996  21.554  24.878  1.00  0.00     0.064 A 
ATOM     11  Br  UNL A   1      38.126  20.990  25.376  1.00  0.00    -0.050 Br
ATOM     12  C   UNL A   1      36.232  23.183  25.451  1.00  0.00    -0.026 A 
ATOM     13  C   UNL A   1      33.838  22.946  25.007  1.00  0.00     0.142 A 
ATOM     14  Br  UNL A   1      32.441  20.517  24.447  1.00  0.00    -0.046 Br
ATOM     15  C   UNL A   1      37.409  24.078  25.778  1.00  0.00     0.046 C 
ATOM     16  C   UNL A   1      34.947  23.758  25.277  1.00  0.00     0.022 A 
ATOM     17  O   UNL A   1      32.564  23.444  24.887  1.00  0.00    -0.474 OA
ATOM     18  C   UNL A   1      34.738  25.206  25.322  1.00  0.00     0.027 C 
ATOM     19  C   UNL A   1      32.349  24.863  24.706  1.00  0.00     0.316 C 
BRANCH  19  20
ATOM     20  C   UNL A   1      31.848  25.127  23.276  1.00  0.00     0.430 C 
ATOM     21  F   UNL A   1      32.866  25.449  22.446  1.00  0.00    -0.167 F 
ATOM     22  F   UNL A   1      31.254  24.027  22.751  1.00  0.00    -0.167 F 
ATOM     23  F   UNL A   1      30.948  26.134  23.230  1.00  0.00    -0.167 F 
ENDBRANCH  19  20
ENDBRANCH   4   6
ENDBRANCH   3   4
ENDBRANCH   2   3
ENDBRANCH   1   2
BRANCH   1  24
ATOM     24  O   UNL A   1      32.353  30.134  26.937  1.00  0.00    -0.458 OA
BRANCH  24  25
ATOM     25  C   UNL A   1      33.016  31.277  27.222  1.00  0.00     0.338 C 
ATOM     26  O   UNL A   1      32.578  32.414  27.220  1.00  0.00    -0.246 OA
BRANCH  25  27
ATOM     27  C   UNL A   1      34.397  30.965  27.626  1.00  0.00     0.060 A 
ATOM     28  C   UNL A   1      34.767  29.638  27.807  1.00  0.00     0.016 A 
ATOM     29  C   UNL A   1      35.269  31.986  28.001  1.00  0.00     0.016 A 
ATOM     30  C   UNL A   1      35.930  29.328  28.505  1.00  0.00     0.010 A 
ATOM     31  C   UNL A   1      36.505  31.664  28.578  1.00  0.00     0.010 A 
ATOM     32  C   UNL A   1      36.825  30.332  28.901  1.00  0.00    -0.014 A 
BRANCH  32  33
ATOM     33  C   UNL A   1      38.040  29.986  29.702  1.00  0.00     0.031 A 
ATOM     34  C   UNL A   1      39.126  29.119  29.110  1.00  0.00     0.074 A 
ATOM     35  C   UNL A   1      38.215  30.492  30.942  1.00  0.00     0.049 A 
ATOM     36  N   UNL A   1      40.169  28.581  29.694  1.00  0.00    -0.248 NA
ATOM     37  C   UNL A   1      39.019  28.799  27.677  1.00  0.00     0.031 C 
ATOM     38  C   UNL A   1      37.286  31.389  31.631  1.00  0.00     0.029 A 
ATOM     39  N   UNL A   1      39.251  30.348  31.835  1.00  0.00    -0.354 N 
ATOM     40  C   UNL A   1      40.796  27.810  28.722  1.00  0.00     0.074 A 
ATOM     41  C   UNL A   1      40.017  27.942  27.511  1.00  0.00     0.031 C 
ATOM     42  C   UNL A   1      37.830  31.785  32.791  1.00  0.00     0.029 A 
ATOM     43  C   UNL A   1      39.088  31.076  32.991  1.00  0.00     0.049 A 
ATOM     44  H   UNL A   1      40.036  29.780  31.664  1.00  0.00     0.167 HD
ATOM     45  C   UNL A   1      41.924  27.068  28.828  1.00  0.00     0.037 A 
ATOM     46  C   UNL A   1      39.838  31.137  34.110  1.00  0.00     0.037 A 
ATOM     47  C   UNL A   1      42.749  27.007  30.007  1.00  0.00     0.049 A 
ATOM     48  C   UNL A   1      41.057  30.268  34.223  1.00  0.00     0.074 A 
ATOM     49  C   UNL A   1      43.927  26.305  30.199  1.00  0.00     0.029 A 
ATOM     50  N   UNL A   1      42.497  27.698  31.182  1.00  0.00    -0.354 N 
ATOM     51  N   UNL A   1      41.596  29.484  33.322  1.00  0.00    -0.248 NA
ATOM     52  C   UNL A   1      41.749  30.258  35.520  1.00  0.00     0.031 C 
ATOM     53  C   UNL A   1      44.368  26.542  31.504  1.00  0.00     0.029 A 
ATOM     54  C   UNL A   1      43.487  27.419  32.112  1.00  0.00     0.049 A 
ATOM     55  H   UNL A   1      41.731  28.295  31.334  1.00  0.00     0.167 HD
ATOM     56  C   UNL A   1      42.681  28.881  33.944  1.00  0.00     0.074 A 
ATOM     57  C   UNL A   1      42.745  29.415  35.288  1.00  0.00     0.031 C 
ATOM     58  C   UNL A   1      43.534  27.954  33.448  1.00  0.00     0.037 A 
BRANCH  45  59
ATOM     59  C   UNL A   1      42.338  26.238  27.646  1.00  0.00     0.064 A 
ATOM     60  C   UNL A   1      43.328  26.665  26.749  1.00  0.00     0.173 A 
ATOM     61  C   UNL A   1      41.784  24.963  27.453  1.00  0.00     0.173 A 
ATOM     62  F   UNL A   1      43.882  27.878  26.883  1.00  0.00    -0.203 F 
ATOM     63  C   UNL A   1      43.733  25.852  25.691  1.00  0.00     0.198 A 
ATOM     64  C   UNL A   1      42.211  24.143  26.411  1.00  0.00     0.198 A 
ATOM     65  F   UNL A   1      40.840  24.501  28.288  1.00  0.00    -0.203 F 
ATOM     66  F   UNL A   1      44.654  26.296  24.825  1.00  0.00    -0.200 F 
ATOM     67  C   UNL A   1      43.181  24.590  25.529  1.00  0.00     0.200 A 
ATOM     68  F   UNL A   1      41.688  22.917  26.267  1.00  0.00    -0.200 F 
ATOM     69  F   UNL A   1      43.584  23.805  24.520  1.00  0.00    -0.200 F 
ENDBRANCH  45  59
BRANCH  46  70
ATOM     70  C   UNL A   1      39.421  32.023  35.230  1.00  0.00     0.064 A 
ATOM     71  C   UNL A   1      39.841  33.359  35.284  1.00  0.00     0.173 A 
ATOM     72  C   UNL A   1      38.578  31.564  36.254  1.00  0.00     0.173 A 
ATOM     73  F   UNL A   1      40.673  33.838  34.346  1.00  0.00    -0.203 F 
ATOM     74  C   UNL A   1      39.427  34.203  36.313  1.00  0.00     0.198 A 
ATOM     75  C   UNL A   1      38.139  32.418  37.264  1.00  0.00     0.198 A 
ATOM     76  F   UNL A   1      38.153  30.292  36.255  1.00  0.00    -0.203 F 
ATOM     77  F   UNL A   1      39.867  35.468  36.358  1.00  0.00    -0.200 F 
ATOM     78  C   UNL A   1      38.567  33.735  37.295  1.00  0.00     0.200 A 
ATOM     79  F   UNL A   1      37.294  31.964  38.200  1.00  0.00    -0.200 F 
ATOM     80  F   UNL A   1      38.153  34.552  38.273  1.00  0.00    -0.200 F 
ENDBRANCH  46  70
BRANCH  58  81
ATOM     81  C   UNL A   1      44.608  27.440  34.359  1.00  0.00     0.064 A 
ATOM     82  C   UNL A   1      44.416  26.276  35.115  1.00  0.00     0.173 A 
ATOM     83  C   UNL A   1      45.865  28.061  34.407  1.00  0.00     0.173 A 
ATOM     84  F   UNL A   1      43.226  25.657  35.111  1.00  0.00    -0.203 F 
ATOM     85  C   UNL A   1      45.446  25.751  35.890  1.00  0.00     0.198 A 
ATOM     86  C   UNL A   1      46.900  27.519  35.164  1.00  0.00     0.198 A 
ATOM     87  F   UNL A   1      46.098  29.174  33.695  1.00  0.00    -0.203 F 
ATOM     88  F   UNL A   1      45.235  24.648  36.621  1.00  0.00    -0.200 F 
ATOM     89  C   UNL A   1      46.689  26.366  35.905  1.00  0.00     0.200 A 
ATOM     90  F   UNL A   1      48.104  28.107  35.167  1.00  0.00    -0.200 F 
ATOM     91  F   UNL A   1      47.686  25.846  36.634  1.00  0.00    -0.200 F 
ENDBRANCH  58  81
ENDBRANCH  32  33
ENDBRANCH  25  27
ENDBRANCH  24  25
ENDBRANCH   1  24
TORSDOF 12
ENDMDL
MODEL 3
REMARK VINA RESULT:     -12.7      4.208      9.624
REMARK SMILES Cc1c(Br)c(C)c2c(c1Br)O[C@H](C(F)(F)F)C(C(=O)OCCOC(=O)c1ccc(-c3c4nc(c(-c5c(F)c(F)c(F)c(F)c5F)c5ccc([nH]5)c(-c5c(F)c(F)c(F)c(F)c5F)c5nc(c(-c6c(F)c(F)c(F)c(F)c6F)c6ccc3[nH]6)C=C5)C=C4)cc1)=C2
REMARK SMILES IDX 22 1 21 2 20 3 18 4 19 5 17 6 1 7 2 8 3 9 9 10 4 11 5 12
REMARK SMILES IDX 8 13 10 14 6 15 7 16 11 17 89 18 12 19 13 20 14 21 15 22
REMARK SMILES IDX 16 23 23 24 24 25 25 26 26 27 27 28 88 29 28 30 87 31 29 32
REMARK SMILES IDX 30 33 31 34 81 35 32 36 86 37 80 38 82 39 33 40 85 41 79 42
REMARK SMILES IDX 78 43 34 45 66 46 46 47 65 48 47 49 50 50 64 51 83 52 48 53
REMARK SMILES IDX 49 54 63 56 84 57 51 58 35 59 36 60 44 61 37 62 38 63 42 64
REMARK SMILES IDX 45 65 39 66 40 67 43 68 41 69 67 70 68 71 76 72 69 73 70 74
REMARK SMILES IDX 74 75 77 76 71 77 72 78 75 79 73 80 52 81 53 82 61 83 54 84
REMARK SMILES IDX 55 85 59 86 62 87 56 88 57 89 60 90 58 91
REMARK H PARENT 82 44 50 55
REMARK Flexibility Score: inf
ROOT
ATOM      1  C   UNL A   1      36.254  20.991  25.340  1.00  0.00     0.275 C 
ENDROOT
BRANCH   1   2
ATOM      2  C   UNL A   1      35.089  21.680  24.631  1.00  0.00     0.275 C 
BRANCH   2   3
ATOM      3  O   UNL A   1      35.188  23.117  24.751  1.00  0.00    -0.459 OA
BRANCH   3   4
ATOM      4  C   UNL A   1      34.438  23.673  25.728  1.00  0.00     0.338 C 
ATOM      5  O   UNL A   1      34.339  23.294  26.884  1.00  0.00    -0.246 OA
BRANCH   4   6
ATOM      6  C   UNL A   1      33.728  24.859  25.216  1.00  0.00     0.087 C 
ATOM      7  C   UNL A   1      30.435  30.461  24.465  1.00  0.00     0.047 C 
ATOM      8  C   UNL A   1      31.392  29.333  24.775  1.00  0.00    -0.019 A 
ATOM      9  C   UNL A   1      32.358  29.479  25.804  1.00  0.00     0.025 A 
ATOM     10  C   UNL A   1      31.320  28.095  24.102  1.00  0.00     0.064 A 
ATOM     11  Br  UNL A   1      32.400  31.120  26.805  1.00  0.00    -0.050 Br
ATOM     12  C   UNL A   1      33.256  28.434  26.132  1.00  0.00    -0.026 A 
ATOM     13  C   UNL A   1      32.184  27.035  24.435  1.00  0.00     0.142 A 
ATOM     14  Br  UNL A   1      30.004  27.778  22.744  1.00  0.00    -0.046 Br
ATOM     15  C   UNL A   1      34.317  28.594  27.201  1.00  0.00     0.046 C 
ATOM     16  C   UNL A   1      33.136  27.195  25.450  1.00  0.00     0.022 A 
ATOM     17  O   UNL A   1      32.064  25.879  23.705  1.00  0.00    -0.474 OA
ATOM     18  C   UNL A   1      33.954  26.036  25.809  1.00  0.00     0.027 C 
ATOM     19  C   UNL A   1      32.688  24.657  24.165  1.00  0.00     0.316 C 
BRANCH  19  20
ATOM     20  C   UNL A   1      31.602  23.668  24.622  1.00  0.00     0.430 C 
ATOM     21  F   UNL A   1      31.322  23.813  25.938  1.00  0.00    -0.167 F 
ATOM     22  F   UNL A   1      30.440  23.869  23.954  1.00  0.00    -0.167 F 
ATOM     23  F   UNL A   1      31.969  22.382  24.421  1.00  0.00    -0.167 F 
ENDBRANCH  19  20
ENDBRANCH   4   6
ENDBRANCH   3   4
ENDBRANCH   2   3
ENDBRANCH   1   2
BRANCH   1  24
ATOM     24  O   UNL A   1      37.490  21.634  24.979  1.00  0.00    -0.458 OA
BRANCH  24  25
ATOM     25  C   UNL A   1      38.572  21.278  25.706  1.00  0.00     0.338 C 
ATOM     26  O   UNL A   1      39.101  20.181  25.768  1.00  0.00    -0.246 OA
BRANCH  25  27
ATOM     27  C   UNL A   1      39.113  22.454  26.407  1.00  0.00     0.060 A 
ATOM     28  C   UNL A   1      38.558  23.704  26.158  1.00  0.00     0.016 A 
ATOM     29  C   UNL A   1      40.278  22.350  27.163  1.00  0.00     0.016 A 
ATOM     30  C   UNL A   1      39.247  24.857  26.525  1.00  0.00     0.010 A 
ATOM     31  C   UNL A   1      40.894  23.511  27.651  1.00  0.00     0.010 A 
ATOM     32  C   UNL A   1      40.425  24.785  27.283  1.00  0.00    -0.014 A 
BRANCH  32  33
ATOM     33  C   UNL A   1      41.183  26.030  27.616  1.00  0.00     0.031 A 
ATOM     34  C   UNL A   1      40.571  27.084  28.510  1.00  0.00     0.074 A 
ATOM     35  C   UNL A   1      42.447  26.207  27.176  1.00  0.00     0.049 A 
ATOM     36  N   UNL A   1      40.999  28.292  28.784  1.00  0.00    -0.248 NA
ATOM     37  C   UNL A   1      39.301  26.742  29.172  1.00  0.00     0.031 C 
ATOM     38  C   UNL A   1      43.199  25.258  26.352  1.00  0.00     0.029 A 
ATOM     39  N   UNL A   1      43.339  27.233  27.383  1.00  0.00    -0.354 N 
ATOM     40  C   UNL A   1      40.024  28.871  29.586  1.00  0.00     0.074 A 
ATOM     41  C   UNL A   1      38.976  27.889  29.752  1.00  0.00     0.031 C 
ATOM     42  C   UNL A   1      44.456  25.700  26.201  1.00  0.00     0.029 A 
ATOM     43  C   UNL A   1      44.570  27.020  26.808  1.00  0.00     0.049 A 
ATOM     44  H   UNL A   1      43.118  28.043  27.897  1.00  0.00     0.167 HD
ATOM     45  C   UNL A   1      40.008  30.107  30.140  1.00  0.00     0.037 A 
ATOM     46  C   UNL A   1      45.658  27.812  26.732  1.00  0.00     0.037 A 
ATOM     47  C   UNL A   1      41.090  31.052  30.049  1.00  0.00     0.049 A 
ATOM     48  C   UNL A   1      45.600  29.196  27.312  1.00  0.00     0.074 A 
ATOM     49  C   UNL A   1      41.178  32.318  30.602  1.00  0.00     0.029 A 
ATOM     50  N   UNL A   1      42.284  30.823  29.383  1.00  0.00    -0.354 N 
ATOM     51  N   UNL A   1      44.640  29.760  28.002  1.00  0.00    -0.248 NA
ATOM     52  C   UNL A   1      46.757  30.069  27.066  1.00  0.00     0.031 C 
ATOM     53  C   UNL A   1      42.410  32.869  30.240  1.00  0.00     0.029 A 
ATOM     54  C   UNL A   1      43.105  31.933  29.493  1.00  0.00     0.049 A 
ATOM     55  H   UNL A   1      42.515  29.995  28.903  1.00  0.00     0.167 HD
ATOM     56  C   UNL A   1      45.069  31.053  28.265  1.00  0.00     0.074 A 
ATOM     57  C   UNL A   1      46.392  31.181  27.689  1.00  0.00     0.031 C 
ATOM     58  C   UNL A   1      44.417  32.049  28.910  1.00  0.00     0.037 A 
BRANCH  45  59
ATOM     59  C   UNL A   1      38.776  30.531  30.888  1.00  0.00     0.064 A 
ATOM     60  C   UNL A   1      38.694  30.459  32.285  1.00  0.00     0.173 A 
ATOM     61  C   UNL A   1      37.688  31.085  30.195  1.00  0.00     0.173 A 
ATOM     62  F   UNL A   1      39.702  29.930  32.994  1.00  0.00    -0.203 F 
ATOM     63  C   UNL A   1      37.560  30.910  32.960  1.00  0.00     0.198 A 
ATOM     64  C   UNL A   1      36.568  31.559  30.874  1.00  0.00     0.198 A 
ATOM     65  F   UNL A   1      37.718  31.186  28.857  1.00  0.00    -0.203 F 
ATOM     66  F   UNL A   1      37.490  30.798  34.293  1.00  0.00    -0.200 F 
ATOM     67  C   UNL A   1      36.504  31.467  32.255  1.00  0.00     0.200 A 
ATOM     68  F   UNL A   1      35.556  32.112  30.191  1.00  0.00    -0.200 F 
ATOM     69  F   UNL A   1      35.422  31.913  32.908  1.00  0.00    -0.200 F 
ENDBRANCH  45  59
BRANCH  46  70
ATOM     70  C   UNL A   1      46.880  27.323  26.036  1.00  0.00     0.064 A 
ATOM     71  C   UNL A   1      47.057  27.536  24.663  1.00  0.00     0.173 A 
ATOM     72  C   UNL A   1      47.904  26.660  26.730  1.00  0.00     0.173 A 
ATOM     73  F   UNL A   1      46.094  28.138  23.948  1.00  0.00    -0.203 F 
ATOM     74  C   UNL A   1      48.214  27.110  24.012  1.00  0.00     0.198 A 
ATOM     75  C   UNL A   1      49.074  26.265  26.085  1.00  0.00     0.198 A 
ATOM     76  F   UNL A   1      47.782  26.425  28.045  1.00  0.00    -0.203 F 
ATOM     77  F   UNL A   1      48.346  27.299  22.692  1.00  0.00    -0.200 F 
ATOM     78  C   UNL A   1      49.226  26.486  24.726  1.00  0.00     0.200 A 
ATOM     79  F   UNL A   1      50.055  25.678  26.784  1.00  0.00    -0.200 F 
ATOM     80  F   UNL A   1      50.347  26.097  24.104  1.00  0.00    -0.200 F 
ENDBRANCH  46  70
BRANCH  58  81
ATOM     81  C   UNL A   1      45.108  33.374  29.022  1.00  0.00     0.064 A 
ATOM     82  C   UNL A   1      45.995  33.638  30.074  1.00  0.00     0.173 A 
ATOM     83  C   UNL A   1      44.954  34.350  28.025  1.00  0.00     0.173 A 
ATOM     84  F   UNL A   1      46.163  32.741  31.057  1.00  0.00    -0.203 F 
ATOM     85  C   UNL A   1      46.704  34.835  30.126  1.00  0.00     0.198 A 
ATOM     86  C   UNL A   1      45.683  35.535  28.068  1.00  0.00     0.198 A 
ATOM     87  F   UNL A   1      44.120  34.138  26.995  1.00  0.00    -0.203 F 
ATOM     88  F   UNL A   1      47.532  35.076  31.152  1.00  0.00    -0.200 F 
ATOM     89  C   UNL A   1      46.556  35.776  29.118  1.00  0.00     0.200 A 
ATOM     90  F   UNL A   1      45.550  36.437  27.086  1.00  0.00    -0.200 F 
ATOM     91  F   UNL A   1      47.257  36.918  29.158  1.00  0.00    -0.200 F 
ENDBRANCH  58  81
ENDBRANCH  32  33
ENDBRANCH  25  27
ENDBRANCH  24  25
ENDBRANCH   1  24
TORSDOF 12
ENDMDL
