MODEL 1
REMARK VINA RESULT:     -13.2      0.000      0.000
REMARK SMILES O=C(CC1(C(=O)OCCOC(=O)c2ccc(-c3c4nc(c(-c5c(F)c(F)c(F)c(F)c5F)c5ccc([nH]5)c(-c5c(F)c(F)c(F)c(F)c5F)c5nc(c(-c6c(F)c(F)c(F)c(F)c6F)c6ccc3[nH]6)C=C5)C=C4)cc2)CCCCC1)Nc1ccc(N2CCOC2=O)cc1
REMARK SMILES IDX 8 1 7 2 5 3 6 4 4 5 76 6 80 7 77 8 79 9 78 10 3 11 2 12 1 13
REMARK SMILES IDX 81 14 82 16 83 17 93 18 84 19 92 20 85 21 86 22 87 23 90 24
REMARK SMILES IDX 88 25 89 26 91 27 9 28 10 29 11 30 12 31 13 32 14 33 75 34
REMARK SMILES IDX 15 35 74 36 16 37 17 38 18 39 68 40 19 41 73 42 67 43 69 44
REMARK SMILES IDX 20 45 72 46 66 47 65 48 21 50 53 51 33 52 52 53 34 54 37 55
REMARK SMILES IDX 51 56 70 57 35 58 36 59 50 61 71 62 38 63 22 64 23 65 31 66
REMARK SMILES IDX 24 67 25 68 29 69 32 70 26 71 27 72 30 73 28 74 54 75 55 76
REMARK SMILES IDX 63 77 56 78 57 79 61 80 64 81 58 82 59 83 62 84 60 85 39 86
REMARK SMILES IDX 40 87 48 88 41 89 42 90 46 91 49 92 43 93 44 94 47 95 45 96
REMARK H PARENT 81 15 69 49 37 60
REMARK Flexibility Score: inf
ROOT
ATOM      1  C   UNL A   1      31.758  28.724  27.475  1.00  0.00     0.274 C 
ENDROOT
BRANCH   1   2
ATOM      2  O   UNL A   1      32.547  27.817  26.679  1.00  0.00    -0.462 OA
BRANCH   2   3
ATOM      3  C   UNL A   1      31.897  26.818  26.035  1.00  0.00     0.312 C 
ATOM      4  O   UNL A   1      30.899  26.258  26.480  1.00  0.00    -0.252 OA
BRANCH   3   5
ATOM      5  C   UNL A   1      32.552  26.426  24.688  1.00  0.00     0.077 C 
ATOM      6  C   UNL A   1      33.022  27.745  24.041  1.00  0.00     0.019 C 
ATOM      7  C   UNL A   1      31.599  25.677  23.725  1.00  0.00     0.019 C 
ATOM      8  C   UNL A   1      31.844  28.590  23.548  1.00  0.00     0.001 C 
ATOM      9  C   UNL A   1      30.467  26.512  23.131  1.00  0.00     0.001 C 
ATOM     10  C   UNL A   1      30.979  27.824  22.554  1.00  0.00     0.000 C 
BRANCH   5  11
ATOM     11  C   UNL A   1      33.747  25.508  25.077  1.00  0.00     0.119 C 
BRANCH  11  12
ATOM     12  C   UNL A   1      33.513  24.038  25.361  1.00  0.00     0.225 C 
ATOM     13  O   UNL A   1      33.058  23.665  26.438  1.00  0.00    -0.275 OA
ATOM     14  N   UNL A   1      33.850  23.210  24.310  1.00  0.00    -0.326 N 
ATOM     15  H   UNL A   1      34.196  23.621  23.485  1.00  0.00     0.169 HD
BRANCH  14  16
ATOM     16  C   UNL A   1      33.724  21.818  24.354  1.00  0.00     0.041 A 
ATOM     17  C   UNL A   1      34.798  21.085  24.859  1.00  0.00     0.028 A 
ATOM     18  C   UNL A   1      32.584  21.168  23.889  1.00  0.00     0.028 A 
ATOM     19  C   UNL A   1      34.684  19.704  25.000  1.00  0.00     0.028 A 
ATOM     20  C   UNL A   1      32.525  19.773  23.916  1.00  0.00     0.028 A 
ATOM     21  C   UNL A   1      33.554  19.039  24.514  1.00  0.00     0.047 A 
BRANCH  21  22
ATOM     22  N   UNL A   1      33.424  17.654  24.682  1.00  0.00    -0.274 N 
ATOM     23  C   UNL A   1      32.905  17.057  25.868  1.00  0.00     0.171 C 
ATOM     24  C   UNL A   1      33.754  16.686  23.756  1.00  0.00     0.414 C 
ATOM     25  C   UNL A   1      32.571  15.665  25.392  1.00  0.00     0.257 C 
ATOM     26  O   UNL A   1      33.407  15.453  24.250  1.00  0.00    -0.447 OA
ATOM     27  O   UNL A   1      34.311  16.834  22.682  1.00  0.00    -0.224 OA
ENDBRANCH  21  22
ENDBRANCH  14  16
ENDBRANCH  11  12
ENDBRANCH   5  11
ENDBRANCH   3   5
ENDBRANCH   2   3
ENDBRANCH   1   2
BRANCH   1  28
ATOM     28  C   UNL A   1      31.782  30.125  26.867  1.00  0.00     0.275 C 
BRANCH  28  29
ATOM     29  O   UNL A   1      33.128  30.494  26.519  1.00  0.00    -0.458 OA
BRANCH  29  30
ATOM     30  C   UNL A   1      33.644  31.504  27.252  1.00  0.00     0.338 C 
ATOM     31  O   UNL A   1      33.089  32.526  27.620  1.00  0.00    -0.246 OA
BRANCH  30  32
ATOM     32  C   UNL A   1      34.996  31.156  27.698  1.00  0.00     0.060 A 
ATOM     33  C   UNL A   1      35.239  29.829  28.027  1.00  0.00     0.016 A 
ATOM     34  C   UNL A   1      35.930  32.139  28.004  1.00  0.00     0.016 A 
ATOM     35  C   UNL A   1      36.332  29.493  28.812  1.00  0.00     0.010 A 
ATOM     36  C   UNL A   1      37.113  31.771  28.657  1.00  0.00     0.010 A 
ATOM     37  C   UNL A   1      37.305  30.452  29.113  1.00  0.00    -0.014 A 
BRANCH  37  38
ATOM     38  C   UNL A   1      38.509  30.077  29.908  1.00  0.00     0.031 A 
ATOM     39  C   UNL A   1      39.555  29.167  29.321  1.00  0.00     0.074 A 
ATOM     40  C   UNL A   1      38.673  30.558  31.157  1.00  0.00     0.049 A 
ATOM     41  N   UNL A   1      40.554  28.558  29.911  1.00  0.00    -0.248 NA
ATOM     42  C   UNL A   1      39.453  28.889  27.880  1.00  0.00     0.031 C 
ATOM     43  C   UNL A   1      37.775  31.500  31.830  1.00  0.00     0.029 A 
ATOM     44  N   UNL A   1      39.656  30.326  32.087  1.00  0.00    -0.354 N 
ATOM     45  C   UNL A   1      41.160  27.782  28.929  1.00  0.00     0.074 A 
ATOM     46  C   UNL A   1      40.406  27.986  27.710  1.00  0.00     0.031 C 
ATOM     47  C   UNL A   1      38.271  31.802  33.037  1.00  0.00     0.029 A 
ATOM     48  C   UNL A   1      39.455  30.988  33.273  1.00  0.00     0.049 A 
ATOM     49  H   UNL A   1      40.430  29.741  31.919  1.00  0.00     0.167 HD
ATOM     50  C   UNL A   1      42.245  26.977  29.040  1.00  0.00     0.037 A 
ATOM     51  C   UNL A   1      40.113  30.910  34.445  1.00  0.00     0.037 A 
ATOM     52  C   UNL A   1      43.011  26.821  30.251  1.00  0.00     0.049 A 
ATOM     53  C   UNL A   1      41.265  29.956  34.566  1.00  0.00     0.074 A 
ATOM     54  C   UNL A   1      44.131  26.038  30.472  1.00  0.00     0.029 A 
ATOM     55  N   UNL A   1      42.741  27.473  31.447  1.00  0.00    -0.354 N 
ATOM     56  N   UNL A   1      41.793  29.177  33.653  1.00  0.00    -0.248 NA
ATOM     57  C   UNL A   1      41.898  29.854  35.886  1.00  0.00     0.031 C 
ATOM     58  C   UNL A   1      44.505  26.175  31.813  1.00  0.00     0.029 A 
ATOM     59  C   UNL A   1      43.657  27.091  32.414  1.00  0.00     0.049 A 
ATOM     60  H   UNL A   1      42.006  28.113  31.587  1.00  0.00     0.167 HD
ATOM     61  C   UNL A   1      42.835  28.509  34.281  1.00  0.00     0.074 A 
ATOM     62  C   UNL A   1      42.872  28.987  35.649  1.00  0.00     0.031 C 
ATOM     63  C   UNL A   1      43.681  27.581  33.771  1.00  0.00     0.037 A 
BRANCH  50  64
ATOM     64  C   UNL A   1      42.635  26.166  27.834  1.00  0.00     0.064 A 
ATOM     65  C   UNL A   1      42.060  24.917  27.553  1.00  0.00     0.173 A 
ATOM     66  C   UNL A   1      43.602  26.653  26.940  1.00  0.00     0.173 A 
ATOM     67  F   UNL A   1      41.140  24.396  28.378  1.00  0.00    -0.203 F 
ATOM     68  C   UNL A   1      42.471  24.170  26.450  1.00  0.00     0.198 A 
ATOM     69  C   UNL A   1      43.983  25.920  25.819  1.00  0.00     0.198 A 
ATOM     70  F   UNL A   1      44.182  27.845  27.153  1.00  0.00    -0.203 F 
ATOM     71  F   UNL A   1      41.958  22.948  26.241  1.00  0.00    -0.200 F 
ATOM     72  C   UNL A   1      43.427  24.673  25.582  1.00  0.00     0.200 A 
ATOM     73  F   UNL A   1      44.898  26.416  24.975  1.00  0.00    -0.200 F 
ATOM     74  F   UNL A   1      43.823  23.952  24.524  1.00  0.00    -0.200 F 
ENDBRANCH  50  64
BRANCH  51  75
ATOM     75  C   UNL A   1      39.665  31.733  35.599  1.00  0.00     0.064 A 
ATOM     76  C   UNL A   1      40.286  32.955  35.893  1.00  0.00     0.173 A 
ATOM     77  C   UNL A   1      38.600  31.331  36.418  1.00  0.00     0.173 A 
ATOM     78  F   UNL A   1      41.326  33.372  35.156  1.00  0.00    -0.203 F 
ATOM     79  C   UNL A   1      39.862  33.738  36.965  1.00  0.00     0.198 A 
ATOM     80  C   UNL A   1      38.153  32.131  37.467  1.00  0.00     0.198 A 
ATOM     81  F   UNL A   1      37.970  30.170  36.181  1.00  0.00    -0.203 F 
ATOM     82  F   UNL A   1      40.499  34.883  37.247  1.00  0.00    -0.200 F 
ATOM     83  C   UNL A   1      38.790  33.331  37.744  1.00  0.00     0.200 A 
ATOM     84  F   UNL A   1      37.106  31.741  38.206  1.00  0.00    -0.200 F 
ATOM     85  F   UNL A   1      38.374  34.091  38.765  1.00  0.00    -0.200 F 
ENDBRANCH  51  75
BRANCH  63  86
ATOM     86  C   UNL A   1      44.748  27.057  34.688  1.00  0.00     0.064 A 
ATOM     87  C   UNL A   1      44.558  25.898  35.456  1.00  0.00     0.173 A 
ATOM     88  C   UNL A   1      45.985  27.711  34.781  1.00  0.00     0.173 A 
ATOM     89  F   UNL A   1      43.386  25.247  35.417  1.00  0.00    -0.203 F 
ATOM     90  C   UNL A   1      45.558  25.432  36.305  1.00  0.00     0.198 A 
ATOM     91  C   UNL A   1      46.995  27.223  35.605  1.00  0.00     0.198 A 
ATOM     92  F   UNL A   1      46.219  28.822  34.065  1.00  0.00    -0.203 F 
ATOM     93  F   UNL A   1      45.335  24.356  37.071  1.00  0.00    -0.200 F 
ATOM     94  C   UNL A   1      46.777  26.090  36.373  1.00  0.00     0.200 A 
ATOM     95  F   UNL A   1      48.176  27.852  35.659  1.00  0.00    -0.200 F 
ATOM     96  F   UNL A   1      47.740  25.636  37.187  1.00  0.00    -0.200 F 
ENDBRANCH  63  86
ENDBRANCH  37  38
ENDBRANCH  30  32
ENDBRANCH  29  30
ENDBRANCH  28  29
ENDBRANCH   1  28
TORSDOF 15
ENDMDL
MODEL 2
REMARK VINA RESULT:     -12.9      0.865      2.282
REMARK SMILES O=C(CC1(C(=O)OCCOC(=O)c2ccc(-c3c4nc(c(-c5c(F)c(F)c(F)c(F)c5F)c5ccc([nH]5)c(-c5c(F)c(F)c(F)c(F)c5F)c5nc(c(-c6c(F)c(F)c(F)c(F)c6F)c6ccc3[nH]6)C=C5)C=C4)cc2)CCCCC1)Nc1ccc(N2CCOC2=O)cc1
REMARK SMILES IDX 8 1 7 2 5 3 6 4 4 5 76 6 80 7 77 8 79 9 78 10 3 11 2 12 1 13
REMARK SMILES IDX 81 14 82 16 83 17 93 18 84 19 92 20 85 21 86 22 87 23 90 24
REMARK SMILES IDX 88 25 89 26 91 27 9 28 10 29 11 30 12 31 13 32 14 33 75 34
REMARK SMILES IDX 15 35 74 36 16 37 17 38 18 39 68 40 19 41 73 42 67 43 69 44
REMARK SMILES IDX 20 45 72 46 66 47 65 48 21 50 53 51 33 52 52 53 34 54 37 55
REMARK SMILES IDX 51 56 70 57 35 58 36 59 50 61 71 62 38 63 22 64 23 65 31 66
REMARK SMILES IDX 24 67 25 68 29 69 32 70 26 71 27 72 30 73 28 74 54 75 55 76
REMARK SMILES IDX 63 77 56 78 57 79 61 80 64 81 58 82 59 83 62 84 60 85 39 86
REMARK SMILES IDX 40 87 48 88 41 89 42 90 46 91 49 92 43 93 44 94 47 95 45 96
REMARK H PARENT 81 15 69 49 37 60
REMARK Flexibility Score: inf
ROOT
ATOM      1  C   UNL A   1      31.603  29.580  24.594  1.00  0.00     0.274 C 
ENDROOT
BRANCH   1   2
ATOM      2  O   UNL A   1      32.595  28.534  24.588  1.00  0.00    -0.462 OA
BRANCH   2   3
ATOM      3  C   UNL A   1      32.594  27.673  23.542  1.00  0.00     0.312 C 
ATOM      4  O   UNL A   1      32.658  28.028  22.369  1.00  0.00    -0.252 OA
BRANCH   3   5
ATOM      5  C   UNL A   1      32.478  26.188  23.966  1.00  0.00     0.077 C 
ATOM      6  C   UNL A   1      31.187  25.655  23.311  1.00  0.00     0.019 C 
ATOM      7  C   UNL A   1      32.415  25.980  25.499  1.00  0.00     0.019 C 
ATOM      8  C   UNL A   1      29.932  26.237  23.967  1.00  0.00     0.001 C 
ATOM      9  C   UNL A   1      31.134  26.455  26.180  1.00  0.00     0.001 C 
ATOM     10  C   UNL A   1      29.892  25.944  25.463  1.00  0.00     0.000 C 
BRANCH   5  11
ATOM     11  C   UNL A   1      33.752  25.506  23.387  1.00  0.00     0.119 C 
BRANCH  11  12
ATOM     12  C   UNL A   1      33.804  23.999  23.238  1.00  0.00     0.225 C 
ATOM     13  O   UNL A   1      34.015  23.478  22.147  1.00  0.00    -0.275 OA
ATOM     14  N   UNL A   1      33.604  23.318  24.420  1.00  0.00    -0.326 N 
ATOM     15  H   UNL A   1      33.455  23.842  25.241  1.00  0.00     0.169 HD
BRANCH  14  16
ATOM     16  C   UNL A   1      33.602  21.923  24.515  1.00  0.00     0.041 A 
ATOM     17  C   UNL A   1      32.381  21.264  24.371  1.00  0.00     0.028 A 
ATOM     18  C   UNL A   1      34.765  21.202  24.773  1.00  0.00     0.028 A 
ATOM     19  C   UNL A   1      32.345  19.871  24.375  1.00  0.00     0.028 A 
ATOM     20  C   UNL A   1      34.703  19.813  24.901  1.00  0.00     0.028 A 
ATOM     21  C   UNL A   1      33.502  19.139  24.656  1.00  0.00     0.047 A 
BRANCH  21  22
ATOM     22  N   UNL A   1      33.475  17.739  24.630  1.00  0.00    -0.274 N 
ATOM     23  C   UNL A   1      33.283  16.941  25.795  1.00  0.00     0.171 C 
ATOM     24  C   UNL A   1      33.611  16.941  23.512  1.00  0.00     0.414 C 
ATOM     25  C   UNL A   1      32.902  15.608  25.198  1.00  0.00     0.257 C 
ATOM     26  O   UNL A   1      33.446  15.627  23.874  1.00  0.00    -0.447 OA
ATOM     27  O   UNL A   1      33.886  17.284  22.375  1.00  0.00    -0.224 OA
ENDBRANCH  21  22
ENDBRANCH  14  16
ENDBRANCH  11  12
ENDBRANCH   5  11
ENDBRANCH   3   5
ENDBRANCH   2   3
ENDBRANCH   1   2
BRANCH   1  28
ATOM     28  C   UNL A   1      31.710  30.408  25.873  1.00  0.00     0.275 C 
BRANCH  28  29
ATOM     29  O   UNL A   1      32.989  30.196  26.498  1.00  0.00    -0.458 OA
BRANCH  29  30
ATOM     30  C   UNL A   1      33.474  31.264  27.166  1.00  0.00     0.338 C 
ATOM     31  O   UNL A   1      32.888  32.289  27.473  1.00  0.00    -0.246 OA
BRANCH  30  32
ATOM     32  C   UNL A   1      34.836  30.986  27.629  1.00  0.00     0.060 A 
ATOM     33  C   UNL A   1      35.147  29.672  27.949  1.00  0.00     0.016 A 
ATOM     34  C   UNL A   1      35.711  32.016  27.956  1.00  0.00     0.016 A 
ATOM     35  C   UNL A   1      36.246  29.389  28.747  1.00  0.00     0.010 A 
ATOM     36  C   UNL A   1      36.903  31.707  28.622  1.00  0.00     0.010 A 
ATOM     37  C   UNL A   1      37.161  30.397  29.070  1.00  0.00    -0.014 A 
BRANCH  37  38
ATOM     38  C   UNL A   1      38.373  30.081  29.879  1.00  0.00     0.031 A 
ATOM     39  C   UNL A   1      39.451  29.191  29.318  1.00  0.00     0.074 A 
ATOM     40  C   UNL A   1      38.515  30.597  31.116  1.00  0.00     0.049 A 
ATOM     41  N   UNL A   1      40.466  28.630  29.926  1.00  0.00    -0.248 NA
ATOM     42  C   UNL A   1      39.365  28.875  27.884  1.00  0.00     0.031 C 
ATOM     43  C   UNL A   1      37.584  31.524  31.762  1.00  0.00     0.029 A 
ATOM     44  N   UNL A   1      39.501  30.419  32.055  1.00  0.00    -0.354 N 
ATOM     45  C   UNL A   1      41.101  27.850  28.966  1.00  0.00     0.074 A 
ATOM     46  C   UNL A   1      40.348  27.999  27.739  1.00  0.00     0.031 C 
ATOM     47  C   UNL A   1      38.065  31.871  32.964  1.00  0.00     0.029 A 
ATOM     48  C   UNL A   1      39.273  31.103  33.224  1.00  0.00     0.049 A 
ATOM     49  H   UNL A   1      40.295  29.855  31.904  1.00  0.00     0.167 HD
ATOM     50  C   UNL A   1      42.212  27.084  29.101  1.00  0.00     0.037 A 
ATOM     51  C   UNL A   1      39.928  31.075  34.400  1.00  0.00     0.037 A 
ATOM     52  C   UNL A   1      42.977  26.982  30.319  1.00  0.00     0.049 A 
ATOM     53  C   UNL A   1      41.109  30.162  34.549  1.00  0.00     0.074 A 
ATOM     54  C   UNL A   1      44.120  26.242  30.563  1.00  0.00     0.029 A 
ATOM     55  N   UNL A   1      42.680  27.654  31.497  1.00  0.00    -0.354 N 
ATOM     56  N   UNL A   1      41.667  29.379  33.658  1.00  0.00    -0.248 NA
ATOM     57  C   UNL A   1      41.739  30.112  35.874  1.00  0.00     0.031 C 
ATOM     58  C   UNL A   1      44.484  26.423  31.902  1.00  0.00     0.029 A 
ATOM     59  C   UNL A   1      43.603  27.326  32.477  1.00  0.00     0.049 A 
ATOM     60  H   UNL A   1      41.924  28.273  31.618  1.00  0.00     0.167 HD
ATOM     61  C   UNL A   1      42.726  28.760  34.305  1.00  0.00     0.074 A 
ATOM     62  C   UNL A   1      42.742  29.272  35.661  1.00  0.00     0.031 C 
ATOM     63  C   UNL A   1      43.605  27.848  33.822  1.00  0.00     0.037 A 
BRANCH  50  64
ATOM     64  C   UNL A   1      42.633  26.257  27.917  1.00  0.00     0.064 A 
ATOM     65  C   UNL A   1      43.608  26.693  27.006  1.00  0.00     0.173 A 
ATOM     66  C   UNL A   1      42.051  24.998  27.693  1.00  0.00     0.173 A 
ATOM     67  F   UNL A   1      44.188  27.892  27.161  1.00  0.00    -0.203 F 
ATOM     68  C   UNL A   1      43.948  25.923  25.895  1.00  0.00     0.198 A 
ATOM     69  C   UNL A   1      42.421  24.215  26.602  1.00  0.00     0.198 A 
ATOM     70  F   UNL A   1      41.119  24.524  28.534  1.00  0.00    -0.203 F 
ATOM     71  F   UNL A   1      44.830  26.393  25.001  1.00  0.00    -0.200 F 
ATOM     72  C   UNL A   1      43.360  24.684  25.697  1.00  0.00     0.200 A 
ATOM     73  F   UNL A   1      41.860  23.012  26.422  1.00  0.00    -0.200 F 
ATOM     74  F   UNL A   1      43.687  23.946  24.627  1.00  0.00    -0.200 F 
ENDBRANCH  50  64
BRANCH  51  75
ATOM     75  C   UNL A   1      39.448  31.910  35.533  1.00  0.00     0.064 A 
ATOM     76  C   UNL A   1      38.497  31.416  36.435  1.00  0.00     0.173 A 
ATOM     77  C   UNL A   1      39.941  33.206  35.749  1.00  0.00     0.173 A 
ATOM     78  F   UNL A   1      37.976  30.193  36.257  1.00  0.00    -0.203 F 
ATOM     79  C   UNL A   1      38.054  32.188  37.508  1.00  0.00     0.198 A 
ATOM     80  C   UNL A   1      39.524  33.963  36.841  1.00  0.00     0.198 A 
ATOM     81  F   UNL A   1      40.853  33.727  34.915  1.00  0.00    -0.203 F 
ATOM     82  F   UNL A   1      37.115  31.707  38.333  1.00  0.00    -0.200 F 
ATOM     83  C   UNL A   1      38.575  33.456  37.716  1.00  0.00     0.200 A 
ATOM     84  F   UNL A   1      40.044  35.181  37.047  1.00  0.00    -0.200 F 
ATOM     85  F   UNL A   1      38.158  34.193  38.754  1.00  0.00    -0.200 F 
ENDBRANCH  51  75
BRANCH  63  86
ATOM     86  C   UNL A   1      44.684  27.382  34.755  1.00  0.00     0.064 A 
ATOM     87  C   UNL A   1      45.900  28.069  34.880  1.00  0.00     0.173 A 
ATOM     88  C   UNL A   1      44.487  26.244  35.553  1.00  0.00     0.173 A 
ATOM     89  F   UNL A   1      46.145  29.150  34.126  1.00  0.00    -0.203 F 
ATOM     90  C   UNL A   1      46.891  27.616  35.747  1.00  0.00     0.198 A 
ATOM     91  C   UNL A   1      45.466  25.814  36.444  1.00  0.00     0.198 A 
ATOM     92  F   UNL A   1      43.339  25.553  35.474  1.00  0.00    -0.203 F 
ATOM     93  F   UNL A   1      48.067  28.255  35.809  1.00  0.00    -0.200 F 
ATOM     94  C   UNL A   1      46.670  26.494  36.533  1.00  0.00     0.200 A 
ATOM     95  F   UNL A   1      45.245  24.739  37.212  1.00  0.00    -0.200 F 
ATOM     96  F   UNL A   1      47.622  26.064  37.371  1.00  0.00    -0.200 F 
ENDBRANCH  63  86
ENDBRANCH  37  38
ENDBRANCH  30  32
ENDBRANCH  29  30
ENDBRANCH  28  29
ENDBRANCH   1  28
TORSDOF 15
ENDMDL
MODEL 3
REMARK VINA RESULT:     -12.8      4.485     10.352
REMARK SMILES O=C(CC1(C(=O)OCCOC(=O)c2ccc(-c3c4nc(c(-c5c(F)c(F)c(F)c(F)c5F)c5ccc([nH]5)c(-c5c(F)c(F)c(F)c(F)c5F)c5nc(c(-c6c(F)c(F)c(F)c(F)c6F)c6ccc3[nH]6)C=C5)C=C4)cc2)CCCCC1)Nc1ccc(N2CCOC2=O)cc1
REMARK SMILES IDX 8 1 7 2 5 3 6 4 4 5 76 6 80 7 77 8 79 9 78 10 3 11 2 12 1 13
REMARK SMILES IDX 81 14 82 16 83 17 93 18 84 19 92 20 85 21 86 22 87 23 90 24
REMARK SMILES IDX 88 25 89 26 91 27 9 28 10 29 11 30 12 31 13 32 14 33 75 34
REMARK SMILES IDX 15 35 74 36 16 37 17 38 18 39 68 40 19 41 73 42 67 43 69 44
REMARK SMILES IDX 20 45 72 46 66 47 65 48 21 50 53 51 33 52 52 53 34 54 37 55
REMARK SMILES IDX 51 56 70 57 35 58 36 59 50 61 71 62 38 63 22 64 23 65 31 66
REMARK SMILES IDX 24 67 25 68 29 69 32 70 26 71 27 72 30 73 28 74 54 75 55 76
REMARK SMILES IDX 63 77 56 78 57 79 61 80 64 81 58 82 59 83 62 84 60 85 39 86
REMARK SMILES IDX 40 87 48 88 41 89 42 90 46 91 49 92 43 93 44 94 47 95 45 96
REMARK H PARENT 81 15 69 49 37 60
REMARK Flexibility Score: inf
ROOT
ATOM      1  C   UNL A   1      36.704  22.787  23.663  1.00  0.00     0.274 C 
ENDROOT
BRANCH   1   2
ATOM      2  O   UNL A   1      35.730  23.358  24.560  1.00  0.00    -0.462 OA
BRANCH   2   3
ATOM      3  C   UNL A   1      34.505  23.646  24.058  1.00  0.00     0.312 C 
ATOM      4  O   UNL A   1      34.327  24.238  22.998  1.00  0.00    -0.252 OA
BRANCH   3   5
ATOM      5  C   UNL A   1      33.342  23.178  24.967  1.00  0.00     0.077 C 
ATOM      6  C   UNL A   1      33.817  21.868  25.629  1.00  0.00     0.019 C 
ATOM      7  C   UNL A   1      32.015  22.935  24.208  1.00  0.00     0.019 C 
ATOM      8  C   UNL A   1      33.876  20.712  24.627  1.00  0.00     0.001 C 
ATOM      9  C   UNL A   1      32.000  21.729  23.272  1.00  0.00     0.001 C 
ATOM     10  C   UNL A   1      32.526  20.476  23.960  1.00  0.00     0.000 C 
BRANCH   5  11
ATOM     11  C   UNL A   1      33.160  24.324  26.005  1.00  0.00     0.119 C 
BRANCH  11  12
ATOM     12  C   UNL A   1      32.102  25.386  25.785  1.00  0.00     0.225 C 
ATOM     13  O   UNL A   1      31.102  25.440  26.495  1.00  0.00    -0.275 OA
ATOM     14  N   UNL A   1      32.388  26.247  24.747  1.00  0.00    -0.326 N 
ATOM     15  H   UNL A   1      33.229  26.116  24.251  1.00  0.00     0.169 HD
BRANCH  14  16
ATOM     16  C   UNL A   1      31.548  27.297  24.361  1.00  0.00     0.041 A 
ATOM     17  C   UNL A   1      31.797  28.559  24.899  1.00  0.00     0.028 A 
ATOM     18  C   UNL A   1      30.478  27.099  23.492  1.00  0.00     0.028 A 
ATOM     19  C   UNL A   1      31.038  29.649  24.479  1.00  0.00     0.028 A 
ATOM     20  C   UNL A   1      29.643  28.171  23.171  1.00  0.00     0.028 A 
ATOM     21  C   UNL A   1      29.947  29.458  23.625  1.00  0.00     0.047 A 
BRANCH  21  22
ATOM     22  N   UNL A   1      29.203  30.557  23.177  1.00  0.00    -0.274 N 
ATOM     23  C   UNL A   1      29.145  31.798  23.876  1.00  0.00     0.171 C 
ATOM     24  C   UNL A   1      28.445  30.613  22.025  1.00  0.00     0.414 C 
ATOM     25  C   UNL A   1      28.617  32.728  22.811  1.00  0.00     0.257 C 
ATOM     26  O   UNL A   1      27.933  31.879  21.884  1.00  0.00    -0.447 OA
ATOM     27  O   UNL A   1      28.191  29.707  21.249  1.00  0.00    -0.224 OA
ENDBRANCH  21  22
ENDBRANCH  14  16
ENDBRANCH  11  12
ENDBRANCH   5  11
ENDBRANCH   3   5
ENDBRANCH   2   3
ENDBRANCH   1   2
BRANCH   1  28
ATOM     28  C   UNL A   1      37.391  21.590  24.315  1.00  0.00     0.275 C 
BRANCH  28  29
ATOM     29  O   UNL A   1      37.629  21.851  25.710  1.00  0.00    -0.458 OA
BRANCH  29  30
ATOM     30  C   UNL A   1      38.888  21.593  26.126  1.00  0.00     0.338 C 
ATOM     31  O   UNL A   1      39.557  20.593  25.922  1.00  0.00    -0.246 OA
BRANCH  30  32
ATOM     32  C   UNL A   1      39.448  22.776  26.784  1.00  0.00     0.060 A 
ATOM     33  C   UNL A   1      38.974  24.017  26.379  1.00  0.00     0.016 A 
ATOM     34  C   UNL A   1      40.565  22.683  27.606  1.00  0.00     0.016 A 
ATOM     35  C   UNL A   1      39.706  25.165  26.648  1.00  0.00     0.010 A 
ATOM     36  C   UNL A   1      41.210  23.858  28.010  1.00  0.00     0.010 A 
ATOM     37  C   UNL A   1      40.818  25.110  27.495  1.00  0.00    -0.014 A 
BRANCH  37  38
ATOM     38  C   UNL A   1      41.569  26.353  27.830  1.00  0.00     0.031 A 
ATOM     39  C   UNL A   1      40.931  27.423  28.676  1.00  0.00     0.074 A 
ATOM     40  C   UNL A   1      42.830  26.524  27.384  1.00  0.00     0.049 A 
ATOM     41  N   UNL A   1      41.326  28.651  28.902  1.00  0.00    -0.248 NA
ATOM     42  C   UNL A   1      39.668  27.070  29.342  1.00  0.00     0.031 C 
ATOM     43  C   UNL A   1      43.598  25.545  26.611  1.00  0.00     0.029 A 
ATOM     44  N   UNL A   1      43.695  27.582  27.519  1.00  0.00    -0.354 N 
ATOM     45  C   UNL A   1      40.334  29.232  29.683  1.00  0.00     0.074 A 
ATOM     46  C   UNL A   1      39.312  28.227  29.880  1.00  0.00     0.031 C 
ATOM     47  C   UNL A   1      44.828  26.024  26.384  1.00  0.00     0.029 A 
ATOM     48  C   UNL A   1      44.900  27.387  26.890  1.00  0.00     0.049 A 
ATOM     49  H   UNL A   1      43.472  28.401  28.019  1.00  0.00     0.167 HD
ATOM     50  C   UNL A   1      40.287  30.490  30.189  1.00  0.00     0.037 A 
ATOM     51  C   UNL A   1      45.931  28.229  26.687  1.00  0.00     0.037 A 
ATOM     52  C   UNL A   1      41.335  31.465  30.021  1.00  0.00     0.049 A 
ATOM     53  C   UNL A   1      45.824  29.638  27.191  1.00  0.00     0.074 A 
ATOM     54  C   UNL A   1      41.394  32.764  30.496  1.00  0.00     0.029 A 
ATOM     55  N   UNL A   1      42.519  31.242  29.331  1.00  0.00    -0.354 N 
ATOM     56  N   UNL A   1      44.857  30.202  27.874  1.00  0.00    -0.248 NA
ATOM     57  C   UNL A   1      46.942  30.535  26.876  1.00  0.00     0.031 C 
ATOM     58  C   UNL A   1      42.587  33.342  30.049  1.00  0.00     0.029 A 
ATOM     59  C   UNL A   1      43.302  32.386  29.347  1.00  0.00     0.049 A 
ATOM     60  H   UNL A   1      42.767  30.395  28.894  1.00  0.00     0.167 HD
ATOM     61  C   UNL A   1      45.258  31.512  28.091  1.00  0.00     0.074 A 
ATOM     62  C   UNL A   1      46.565  31.653  27.480  1.00  0.00     0.031 C 
ATOM     63  C   UNL A   1      44.603  32.508  28.735  1.00  0.00     0.037 A 
BRANCH  50  64
ATOM     64  C   UNL A   1      39.040  30.896  30.926  1.00  0.00     0.064 A 
ATOM     65  C   UNL A   1      37.937  31.471  30.275  1.00  0.00     0.173 A 
ATOM     66  C   UNL A   1      38.946  30.701  32.314  1.00  0.00     0.173 A 
ATOM     67  F   UNL A   1      37.975  31.693  28.953  1.00  0.00    -0.203 F 
ATOM     68  C   UNL A   1      36.811  31.875  30.990  1.00  0.00     0.198 A 
ATOM     69  C   UNL A   1      37.805  31.072  33.020  1.00  0.00     0.198 A 
ATOM     70  F   UNL A   1      39.965  30.149  32.990  1.00  0.00    -0.203 F 
ATOM     71  F   UNL A   1      35.800  32.486  30.356  1.00  0.00    -0.200 F 
ATOM     72  C   UNL A   1      36.743  31.671  32.360  1.00  0.00     0.200 A 
ATOM     73  F   UNL A   1      37.737  30.860  34.341  1.00  0.00    -0.200 F 
ATOM     74  F   UNL A   1      35.661  32.062  33.047  1.00  0.00    -0.200 F 
ENDBRANCH  50  64
BRANCH  51  75
ATOM     75  C   UNL A   1      47.129  27.763  25.940  1.00  0.00     0.064 A 
ATOM     76  C   UNL A   1      47.156  27.793  24.539  1.00  0.00     0.173 A 
ATOM     77  C   UNL A   1      48.274  27.300  26.604  1.00  0.00     0.173 A 
ATOM     78  F   UNL A   1      46.077  28.204  23.857  1.00  0.00    -0.203 F 
ATOM     79  C   UNL A   1      48.281  27.372  23.832  1.00  0.00     0.198 A 
ATOM     80  C   UNL A   1      49.411  26.912  25.898  1.00  0.00     0.198 A 
ATOM     81  F   UNL A   1      48.301  27.250  27.944  1.00  0.00    -0.203 F 
ATOM     82  F   UNL A   1      48.266  27.374  22.492  1.00  0.00    -0.200 F 
ATOM     83  C   UNL A   1      49.410  26.942  24.512  1.00  0.00     0.200 A 
ATOM     84  F   UNL A   1      50.505  26.514  26.561  1.00  0.00    -0.200 F 
ATOM     85  F   UNL A   1      50.496  26.550  23.832  1.00  0.00    -0.200 F 
ENDBRANCH  51  75
BRANCH  63  86
ATOM     86  C   UNL A   1      45.312  33.826  28.850  1.00  0.00     0.064 A 
ATOM     87  C   UNL A   1      46.186  34.104  29.911  1.00  0.00     0.173 A 
ATOM     88  C   UNL A   1      45.132  34.814  27.871  1.00  0.00     0.173 A 
ATOM     89  F   UNL A   1      46.378  33.200  30.883  1.00  0.00    -0.203 F 
ATOM     90  C   UNL A   1      46.830  35.335  30.003  1.00  0.00     0.198 A 
ATOM     91  C   UNL A   1      45.803  36.031  27.948  1.00  0.00     0.198 A 
ATOM     92  F   UNL A   1      44.309  34.597  26.833  1.00  0.00    -0.203 F 
ATOM     93  F   UNL A   1      47.616  35.601  31.055  1.00  0.00    -0.200 F 
ATOM     94  C   UNL A   1      46.643  36.294  29.018  1.00  0.00     0.200 A 
ATOM     95  F   UNL A   1      45.632  36.950  26.988  1.00  0.00    -0.200 F 
ATOM     96  F   UNL A   1      47.268  37.476  29.105  1.00  0.00    -0.200 F 
ENDBRANCH  63  86
ENDBRANCH  37  38
ENDBRANCH  30  32
ENDBRANCH  29  30
ENDBRANCH  28  29
ENDBRANCH   1  28
TORSDOF 15
ENDMDL
