MODEL 1
REMARK VINA RESULT:     -11.3      0.000      0.000
REMARK SMILES Cc1cc(C)c2c(c1)C=C(C(=O)OCCOC(=O)c1ccc(-c3c4nc(c(-c5c(F)c(F)c(F)c(F)c5F)c5ccc([nH]5)c(-c5c(F)c(F)c(F)c(F)c5F)c5nc(c(-c6c(F)c(F)c(F)c(F)c6F)c6ccc3[nH]6)C=C5)C=C4)cc1)[C@@H](C(F)(F)F)O2
REMARK SMILES IDX 15 1 14 2 13 3 11 4 12 5 10 6 1 7 2 8 3 9 8 10 4 11 7 12
REMARK SMILES IDX 5 13 6 14 9 15 87 16 82 17 83 18 84 19 85 20 86 21 16 22
REMARK SMILES IDX 17 23 18 24 19 25 20 26 81 27 21 28 80 29 22 30 23 31 24 32
REMARK SMILES IDX 74 33 25 34 79 35 73 36 75 37 26 38 78 39 72 40 71 41 27 43
REMARK SMILES IDX 59 44 39 45 58 46 40 47 43 48 57 49 76 50 41 51 42 52 56 54
REMARK SMILES IDX 77 55 44 56 28 57 29 58 37 59 30 60 31 61 35 62 38 63 32 64
REMARK SMILES IDX 33 65 36 66 34 67 60 68 61 69 69 70 62 71 63 72 67 73 70 74
REMARK SMILES IDX 64 75 65 76 68 77 66 78 45 79 46 80 54 81 47 82 48 83 52 84
REMARK SMILES IDX 55 85 49 86 50 87 53 88 51 89
REMARK H PARENT 75 42 43 53
REMARK Flexibility Score: inf
ROOT
ATOM      1  C   UNL A   1      33.274  33.824  28.085  1.00  0.00     0.275 C 
ENDROOT
BRANCH   1   2
ATOM      2  C   UNL A   1      34.043  34.954  28.766  1.00  0.00     0.275 C 
BRANCH   2   3
ATOM      3  O   UNL A   1      33.916  34.878  30.203  1.00  0.00    -0.459 OA
BRANCH   3   4
ATOM      4  C   UNL A   1      34.508  33.808  30.781  1.00  0.00     0.338 C 
ATOM      5  O   UNL A   1      34.113  32.654  30.759  1.00  0.00    -0.246 OA
BRANCH   4   6
ATOM      6  C   UNL A   1      35.759  34.208  31.449  1.00  0.00     0.087 C 
ATOM      7  C   UNL A   1      41.871  33.769  30.824  1.00  0.00     0.044 C 
ATOM      8  C   UNL A   1      40.576  34.125  31.495  1.00  0.00    -0.050 A 
ATOM      9  C   UNL A   1      40.562  34.554  32.828  1.00  0.00     0.010 A 
ATOM     10  C   UNL A   1      39.362  33.979  30.821  1.00  0.00     0.015 A 
ATOM     11  C   UNL A   1      39.354  34.855  33.481  1.00  0.00    -0.008 A 
ATOM     12  C   UNL A   1      38.152  34.262  31.468  1.00  0.00     0.018 A 
ATOM     13  C   UNL A   1      39.368  35.304  34.915  1.00  0.00     0.048 C 
ATOM     14  C   UNL A   1      38.143  34.704  32.791  1.00  0.00     0.130 A 
ATOM     15  C   UNL A   1      36.900  34.047  30.771  1.00  0.00     0.027 C 
ATOM     16  O   UNL A   1      36.990  35.022  33.458  1.00  0.00    -0.475 OA
ATOM     17  C   UNL A   1      35.712  34.623  32.890  1.00  0.00     0.316 C 
BRANCH  17  18
ATOM     18  C   UNL A   1      35.092  33.525  33.768  1.00  0.00     0.430 C 
ATOM     19  F   UNL A   1      35.361  33.728  35.078  1.00  0.00    -0.167 F 
ATOM     20  F   UNL A   1      33.741  33.504  33.649  1.00  0.00    -0.167 F 
ATOM     21  F   UNL A   1      35.545  32.292  33.445  1.00  0.00    -0.167 F 
ENDBRANCH  17  18
ENDBRANCH   4   6
ENDBRANCH   3   4
ENDBRANCH   2   3
ENDBRANCH   1   2
BRANCH   1  22
ATOM     22  O   UNL A   1      34.177  33.006  27.319  1.00  0.00    -0.458 OA
BRANCH  22  23
ATOM     23  C   UNL A   1      34.058  31.672  27.502  1.00  0.00     0.338 C 
ATOM     24  O   UNL A   1      33.072  30.979  27.317  1.00  0.00    -0.246 OA
BRANCH  23  25
ATOM     25  C   UNL A   1      35.350  31.105  27.923  1.00  0.00     0.060 A 
ATOM     26  C   UNL A   1      35.393  29.800  28.401  1.00  0.00     0.016 A 
ATOM     27  C   UNL A   1      36.478  31.917  28.021  1.00  0.00     0.016 A 
ATOM     28  C   UNL A   1      36.497  29.357  29.123  1.00  0.00     0.010 A 
ATOM     29  C   UNL A   1      37.643  31.415  28.617  1.00  0.00     0.010 A 
ATOM     30  C   UNL A   1      37.649  30.150  29.232  1.00  0.00    -0.014 A 
BRANCH  30  31
ATOM     31  C   UNL A   1      38.818  29.666  30.029  1.00  0.00     0.031 A 
ATOM     32  C   UNL A   1      39.853  28.764  29.400  1.00  0.00     0.074 A 
ATOM     33  C   UNL A   1      38.992  30.077  31.304  1.00  0.00     0.049 A 
ATOM     34  N   UNL A   1      40.869  28.152  29.959  1.00  0.00    -0.248 NA
ATOM     35  C   UNL A   1      39.727  28.503  27.956  1.00  0.00     0.031 C 
ATOM     36  C   UNL A   1      38.100  30.982  32.030  1.00  0.00     0.029 A 
ATOM     37  N   UNL A   1      39.995  29.815  32.207  1.00  0.00    -0.354 N 
ATOM     38  C   UNL A   1      41.461  27.397  28.954  1.00  0.00     0.074 A 
ATOM     39  C   UNL A   1      40.687  27.612  27.752  1.00  0.00     0.031 C 
ATOM     40  C   UNL A   1      38.633  31.266  33.226  1.00  0.00     0.029 A 
ATOM     41  C   UNL A   1      39.849  30.482  33.401  1.00  0.00     0.049 A 
ATOM     42  H   UNL A   1      40.747  29.208  32.016  1.00  0.00     0.167 HD
ATOM     43  C   UNL A   1      42.559  26.607  29.024  1.00  0.00     0.037 A 
ATOM     44  C   UNL A   1      40.589  30.444  34.527  1.00  0.00     0.037 A 
ATOM     45  C   UNL A   1      43.376  26.453  30.200  1.00  0.00     0.049 A 
ATOM     46  C   UNL A   1      41.773  29.522  34.594  1.00  0.00     0.074 A 
ATOM     47  C   UNL A   1      44.522  25.695  30.358  1.00  0.00     0.029 A 
ATOM     48  N   UNL A   1      43.143  27.088  31.410  1.00  0.00    -0.354 N 
ATOM     49  N   UNL A   1      42.289  28.773  33.652  1.00  0.00    -0.248 NA
ATOM     50  C   UNL A   1      42.455  29.409  35.892  1.00  0.00     0.031 C 
ATOM     51  C   UNL A   1      44.966  25.843  31.674  1.00  0.00     0.029 A 
ATOM     52  C   UNL A   1      44.116  26.722  32.326  1.00  0.00     0.049 A 
ATOM     53  H   UNL A   1      42.400  27.706  31.592  1.00  0.00     0.167 HD
ATOM     54  C   UNL A   1      43.350  28.100  34.239  1.00  0.00     0.074 A 
ATOM     55  C   UNL A   1      43.425  28.549  35.613  1.00  0.00     0.031 C 
ATOM     56  C   UNL A   1      44.178  27.180  33.689  1.00  0.00     0.037 A 
BRANCH  43  57
ATOM     57  C   UNL A   1      42.952  25.833  27.798  1.00  0.00     0.064 A 
ATOM     58  C   UNL A   1      42.348  24.612  27.471  1.00  0.00     0.173 A 
ATOM     59  C   UNL A   1      43.893  26.363  26.900  1.00  0.00     0.173 A 
ATOM     60  F   UNL A   1      41.449  24.060  28.300  1.00  0.00    -0.203 F 
ATOM     61  C   UNL A   1      42.683  23.940  26.297  1.00  0.00     0.198 A 
ATOM     62  C   UNL A   1      44.205  25.701  25.715  1.00  0.00     0.198 A 
ATOM     63  F   UNL A   1      44.492  27.535  27.161  1.00  0.00    -0.203 F 
ATOM     64  F   UNL A   1      42.117  22.757  26.020  1.00  0.00    -0.200 F 
ATOM     65  C   UNL A   1      43.603  24.489  25.417  1.00  0.00     0.200 A 
ATOM     66  F   UNL A   1      45.083  26.243  24.859  1.00  0.00    -0.200 F 
ATOM     67  F   UNL A   1      43.912  23.848  24.281  1.00  0.00    -0.200 F 
ENDBRANCH  43  57
BRANCH  44  68
ATOM     68  C   UNL A   1      40.208  31.286  35.692  1.00  0.00     0.064 A 
ATOM     69  C   UNL A   1      41.012  32.362  36.093  1.00  0.00     0.173 A 
ATOM     70  C   UNL A   1      39.027  31.051  36.415  1.00  0.00     0.173 A 
ATOM     71  F   UNL A   1      42.163  32.612  35.454  1.00  0.00    -0.203 F 
ATOM     72  C   UNL A   1      40.648  33.170  37.171  1.00  0.00     0.198 A 
ATOM     73  C   UNL A   1      38.650  31.877  37.471  1.00  0.00     0.198 A 
ATOM     74  F   UNL A   1      38.225  30.030  36.076  1.00  0.00    -0.203 F 
ATOM     75  F   UNL A   1      41.451  34.172  37.554  1.00  0.00    -0.200 F 
ATOM     76  C   UNL A   1      39.463  32.934  37.851  1.00  0.00     0.200 A 
ATOM     77  F   UNL A   1      37.496  31.654  38.114  1.00  0.00    -0.200 F 
ATOM     78  F   UNL A   1      39.107  33.720  38.875  1.00  0.00    -0.200 F 
ENDBRANCH  44  68
BRANCH  56  79
ATOM     79  C   UNL A   1      45.239  26.585  34.565  1.00  0.00     0.064 A 
ATOM     80  C   UNL A   1      45.013  25.392  35.263  1.00  0.00     0.173 A 
ATOM     81  C   UNL A   1      46.519  27.155  34.624  1.00  0.00     0.173 A 
ATOM     82  F   UNL A   1      43.799  24.819  35.246  1.00  0.00    -0.203 F 
ATOM     83  C   UNL A   1      46.033  24.786  35.989  1.00  0.00     0.198 A 
ATOM     84  C   UNL A   1      47.543  26.535  35.332  1.00  0.00     0.198 A 
ATOM     85  F   UNL A   1      46.783  28.295  33.967  1.00  0.00    -0.203 F 
ATOM     86  F   UNL A   1      45.793  23.653  36.662  1.00  0.00    -0.200 F 
ATOM     87  C   UNL A   1      47.300  25.351  36.013  1.00  0.00     0.200 A 
ATOM     88  F   UNL A   1      48.771  27.074  35.343  1.00  0.00    -0.200 F 
ATOM     89  F   UNL A   1      48.288  24.752  36.692  1.00  0.00    -0.200 F 
ENDBRANCH  56  79
ENDBRANCH  30  31
ENDBRANCH  23  25
ENDBRANCH  22  23
ENDBRANCH   1  22
TORSDOF 12
ENDMDL
MODEL 2
REMARK VINA RESULT:     -11.2      3.851      6.522
REMARK SMILES Cc1cc(C)c2c(c1)C=C(C(=O)OCCOC(=O)c1ccc(-c3c4nc(c(-c5c(F)c(F)c(F)c(F)c5F)c5ccc([nH]5)c(-c5c(F)c(F)c(F)c(F)c5F)c5nc(c(-c6c(F)c(F)c(F)c(F)c6F)c6ccc3[nH]6)C=C5)C=C4)cc1)[C@@H](C(F)(F)F)O2
REMARK SMILES IDX 15 1 14 2 13 3 11 4 12 5 10 6 1 7 2 8 3 9 8 10 4 11 7 12
REMARK SMILES IDX 5 13 6 14 9 15 87 16 82 17 83 18 84 19 85 20 86 21 16 22
REMARK SMILES IDX 17 23 18 24 19 25 20 26 81 27 21 28 80 29 22 30 23 31 24 32
REMARK SMILES IDX 74 33 25 34 79 35 73 36 75 37 26 38 78 39 72 40 71 41 27 43
REMARK SMILES IDX 59 44 39 45 58 46 40 47 43 48 57 49 76 50 41 51 42 52 56 54
REMARK SMILES IDX 77 55 44 56 28 57 29 58 37 59 30 60 31 61 35 62 38 63 32 64
REMARK SMILES IDX 33 65 36 66 34 67 60 68 61 69 69 70 62 71 63 72 67 73 70 74
REMARK SMILES IDX 64 75 65 76 68 77 66 78 45 79 46 80 54 81 47 82 48 83 52 84
REMARK SMILES IDX 55 85 49 86 50 87 53 88 51 89
REMARK H PARENT 75 42 43 53
REMARK Flexibility Score: inf
ROOT
ATOM      1  C   UNL A   1      31.650  30.511  25.643  1.00  0.00     0.275 C 
ENDROOT
BRANCH   1   2
ATOM      2  C   UNL A   1      31.476  29.099  25.086  1.00  0.00     0.275 C 
BRANCH   2   3
ATOM      3  O   UNL A   1      32.383  28.173  25.724  1.00  0.00    -0.459 OA
BRANCH   3   4
ATOM      4  C   UNL A   1      31.797  27.230  26.497  1.00  0.00     0.338 C 
ATOM      5  O   UNL A   1      31.016  27.419  27.415  1.00  0.00    -0.246 OA
BRANCH   4   6
ATOM      6  C   UNL A   1      32.209  25.882  26.067  1.00  0.00     0.087 C 
ATOM      7  C   UNL A   1      37.246  22.659  24.592  1.00  0.00     0.044 C 
ATOM      8  C   UNL A   1      35.778  22.919  24.767  1.00  0.00    -0.050 A 
ATOM      9  C   UNL A   1      34.834  22.015  24.266  1.00  0.00     0.010 A 
ATOM     10  C   UNL A   1      35.331  24.090  25.380  1.00  0.00     0.015 A 
ATOM     11  C   UNL A   1      33.455  22.262  24.389  1.00  0.00    -0.008 A 
ATOM     12  C   UNL A   1      33.960  24.353  25.494  1.00  0.00     0.018 A 
ATOM     13  C   UNL A   1      32.464  21.280  23.833  1.00  0.00     0.048 C 
ATOM     14  C   UNL A   1      33.021  23.443  25.008  1.00  0.00     0.130 A 
ATOM     15  C   UNL A   1      33.516  25.602  26.080  1.00  0.00     0.027 C 
ATOM     16  O   UNL A   1      31.671  23.639  25.121  1.00  0.00    -0.475 OA
ATOM     17  C   UNL A   1      31.177  24.955  25.497  1.00  0.00     0.316 C 
BRANCH  17  18
ATOM     18  C   UNL A   1      30.463  25.586  24.292  1.00  0.00     0.430 C 
ATOM     19  F   UNL A   1      31.325  26.281  23.513  1.00  0.00    -0.167 F 
ATOM     20  F   UNL A   1      29.904  24.639  23.499  1.00  0.00    -0.167 F 
ATOM     21  F   UNL A   1      29.477  26.433  24.665  1.00  0.00    -0.167 F 
ENDBRANCH  17  18
ENDBRANCH   4   6
ENDBRANCH   3   4
ENDBRANCH   2   3
ENDBRANCH   1   2
BRANCH   1  22
ATOM     22  O   UNL A   1      32.330  30.460  26.911  1.00  0.00    -0.458 OA
BRANCH  22  23
ATOM     23  C   UNL A   1      33.022  31.571  27.251  1.00  0.00     0.338 C 
ATOM     24  O   UNL A   1      32.628  32.724  27.245  1.00  0.00    -0.246 OA
BRANCH  23  25
ATOM     25  C   UNL A   1      34.372  31.202  27.709  1.00  0.00     0.060 A 
ATOM     26  C   UNL A   1      34.668  29.863  27.935  1.00  0.00     0.016 A 
ATOM     27  C   UNL A   1      35.280  32.188  28.090  1.00  0.00     0.016 A 
ATOM     28  C   UNL A   1      35.785  29.513  28.687  1.00  0.00     0.010 A 
ATOM     29  C   UNL A   1      36.479  31.820  28.715  1.00  0.00     0.010 A 
ATOM     30  C   UNL A   1      36.720  30.482  29.078  1.00  0.00    -0.014 A 
BRANCH  30  31
ATOM     31  C   UNL A   1      37.904  30.090  29.903  1.00  0.00     0.031 A 
ATOM     32  C   UNL A   1      39.009  29.250  29.306  1.00  0.00     0.074 A 
ATOM     33  C   UNL A   1      38.027  30.531  31.173  1.00  0.00     0.049 A 
ATOM     34  N   UNL A   1      40.053  28.717  29.893  1.00  0.00    -0.248 NA
ATOM     35  C   UNL A   1      38.927  28.959  27.865  1.00  0.00     0.031 C 
ATOM     36  C   UNL A   1      37.063  31.385  31.869  1.00  0.00     0.029 A 
ATOM     37  N   UNL A   1      39.029  30.351  32.098  1.00  0.00    -0.354 N 
ATOM     38  C   UNL A   1      40.712  27.987  28.911  1.00  0.00     0.074 A 
ATOM     39  C   UNL A   1      39.948  28.131  27.693  1.00  0.00     0.031 C 
ATOM     40  C   UNL A   1      37.555  31.723  33.069  1.00  0.00     0.029 A 
ATOM     41  C   UNL A   1      38.817  31.025  33.278  1.00  0.00     0.049 A 
ATOM     42  H   UNL A   1      39.822  29.793  31.930  1.00  0.00     0.167 HD
ATOM     43  C   UNL A   1      41.859  27.274  29.013  1.00  0.00     0.037 A 
ATOM     44  C   UNL A   1      39.537  31.054  34.417  1.00  0.00     0.037 A 
ATOM     45  C   UNL A   1      42.663  27.193  30.205  1.00  0.00     0.049 A 
ATOM     46  C   UNL A   1      40.778  30.215  34.520  1.00  0.00     0.074 A 
ATOM     47  C   UNL A   1      43.854  26.516  30.396  1.00  0.00     0.029 A 
ATOM     48  N   UNL A   1      42.366  27.830  31.400  1.00  0.00    -0.354 N 
ATOM     49  N   UNL A   1      41.360  29.487  33.599  1.00  0.00    -0.248 NA
ATOM     50  C   UNL A   1      41.442  30.168  35.831  1.00  0.00     0.031 C 
ATOM     51  C   UNL A   1      44.263  26.714  31.716  1.00  0.00     0.029 A 
ATOM     52  C   UNL A   1      43.344  27.544  32.339  1.00  0.00     0.049 A 
ATOM     53  H   UNL A   1      41.580  28.399  31.559  1.00  0.00     0.167 HD
ATOM     54  C   UNL A   1      42.453  28.896  34.215  1.00  0.00     0.074 A 
ATOM     55  C   UNL A   1      42.473  29.371  35.583  1.00  0.00     0.031 C 
ATOM     56  C   UNL A   1      43.351  28.026  33.695  1.00  0.00     0.037 A 
BRANCH  43  57
ATOM     57  C   UNL A   1      42.326  26.510  27.807  1.00  0.00     0.064 A 
ATOM     58  C   UNL A   1      43.277  27.036  26.923  1.00  0.00     0.173 A 
ATOM     59  C   UNL A   1      41.869  25.201  27.579  1.00  0.00     0.173 A 
ATOM     60  F   UNL A   1      43.739  28.284  27.092  1.00  0.00    -0.203 F 
ATOM     61  C   UNL A   1      43.742  26.287  25.844  1.00  0.00     0.198 A 
ATOM     62  C   UNL A   1      42.357  24.447  26.516  1.00  0.00     0.198 A 
ATOM     63  F   UNL A   1      40.967  24.647  28.403  1.00  0.00    -0.203 F 
ATOM     64  F   UNL A   1      44.628  26.822  24.992  1.00  0.00    -0.200 F 
ATOM     65  C   UNL A   1      43.289  24.992  25.647  1.00  0.00     0.200 A 
ATOM     66  F   UNL A   1      41.929  23.189  26.337  1.00  0.00    -0.200 F 
ATOM     67  F   UNL A   1      43.751  24.267  24.617  1.00  0.00    -0.200 F 
ENDBRANCH  43  57
BRANCH  44  68
ATOM     68  C   UNL A   1      39.079  31.887  35.561  1.00  0.00     0.064 A 
ATOM     69  C   UNL A   1      38.257  31.345  36.559  1.00  0.00     0.173 A 
ATOM     70  C   UNL A   1      39.466  33.229  35.695  1.00  0.00     0.173 A 
ATOM     71  F   UNL A   1      37.836  30.076  36.463  1.00  0.00    -0.203 F 
ATOM     72  C   UNL A   1      37.843  32.113  37.646  1.00  0.00     0.198 A 
ATOM     73  C   UNL A   1      39.077  33.987  36.798  1.00  0.00     0.198 A 
ATOM     74  F   UNL A   1      40.247  33.799  34.765  1.00  0.00    -0.203 F 
ATOM     75  F   UNL A   1      37.031  31.580  38.570  1.00  0.00    -0.200 F 
ATOM     76  C   UNL A   1      38.262  33.429  37.771  1.00  0.00     0.200 A 
ATOM     77  F   UNL A   1      39.499  35.253  36.920  1.00  0.00    -0.200 F 
ATOM     78  F   UNL A   1      37.876  34.162  38.824  1.00  0.00    -0.200 F 
ENDBRANCH  44  68
BRANCH  56  79
ATOM     79  C   UNL A   1      44.433  27.517  34.599  1.00  0.00     0.064 A 
ATOM     80  C   UNL A   1      44.283  26.311  35.296  1.00  0.00     0.173 A 
ATOM     81  C   UNL A   1      45.663  28.186  34.687  1.00  0.00     0.173 A 
ATOM     82  F   UNL A   1      43.118  25.646  35.252  1.00  0.00    -0.203 F 
ATOM     83  C   UNL A   1      45.330  25.788  36.048  1.00  0.00     0.198 A 
ATOM     84  C   UNL A   1      46.714  27.648  35.422  1.00  0.00     0.198 A 
ATOM     85  F   UNL A   1      45.854  29.341  34.032  1.00  0.00    -0.203 F 
ATOM     86  F   UNL A   1      45.162  24.641  36.720  1.00  0.00    -0.200 F 
ATOM     87  C   UNL A   1      46.548  26.450  36.101  1.00  0.00     0.200 A 
ATOM     88  F   UNL A   1      47.896  28.281  35.461  1.00  0.00    -0.200 F 
ATOM     89  F   UNL A   1      47.562  25.931  36.807  1.00  0.00    -0.200 F 
ENDBRANCH  56  79
ENDBRANCH  30  31
ENDBRANCH  23  25
ENDBRANCH  22  23
ENDBRANCH   1  22
TORSDOF 12
ENDMDL
MODEL 3
REMARK VINA RESULT:     -11.2      3.838      6.600
REMARK SMILES Cc1cc(C)c2c(c1)C=C(C(=O)OCCOC(=O)c1ccc(-c3c4nc(c(-c5c(F)c(F)c(F)c(F)c5F)c5ccc([nH]5)c(-c5c(F)c(F)c(F)c(F)c5F)c5nc(c(-c6c(F)c(F)c(F)c(F)c6F)c6ccc3[nH]6)C=C5)C=C4)cc1)[C@@H](C(F)(F)F)O2
REMARK SMILES IDX 15 1 14 2 13 3 11 4 12 5 10 6 1 7 2 8 3 9 8 10 4 11 7 12
REMARK SMILES IDX 5 13 6 14 9 15 87 16 82 17 83 18 84 19 85 20 86 21 16 22
REMARK SMILES IDX 17 23 18 24 19 25 20 26 81 27 21 28 80 29 22 30 23 31 24 32
REMARK SMILES IDX 74 33 25 34 79 35 73 36 75 37 26 38 78 39 72 40 71 41 27 43
REMARK SMILES IDX 59 44 39 45 58 46 40 47 43 48 57 49 76 50 41 51 42 52 56 54
REMARK SMILES IDX 77 55 44 56 28 57 29 58 37 59 30 60 31 61 35 62 38 63 32 64
REMARK SMILES IDX 33 65 36 66 34 67 60 68 61 69 69 70 62 71 63 72 67 73 70 74
REMARK SMILES IDX 64 75 65 76 68 77 66 78 45 79 46 80 54 81 47 82 48 83 52 84
REMARK SMILES IDX 55 85 49 86 50 87 53 88 51 89
REMARK H PARENT 75 42 43 53
REMARK Flexibility Score: inf
ROOT
ATOM      1  C   UNL A   1      31.576  30.537  25.748  1.00  0.00     0.275 C 
ENDROOT
BRANCH   1   2
ATOM      2  C   UNL A   1      31.464  29.154  25.106  1.00  0.00     0.275 C 
BRANCH   2   3
ATOM      3  O   UNL A   1      32.380  28.220  25.720  1.00  0.00    -0.459 OA
BRANCH   3   4
ATOM      4  C   UNL A   1      31.806  27.270  26.492  1.00  0.00     0.338 C 
ATOM      5  O   UNL A   1      31.026  27.450  27.413  1.00  0.00    -0.246 OA
BRANCH   4   6
ATOM      6  C   UNL A   1      32.230  25.927  26.059  1.00  0.00     0.087 C 
ATOM      7  C   UNL A   1      37.296  22.749  24.591  1.00  0.00     0.044 C 
ATOM      8  C   UNL A   1      35.826  22.996  24.761  1.00  0.00    -0.050 A 
ATOM      9  C   UNL A   1      34.890  22.087  24.253  1.00  0.00     0.010 A 
ATOM     10  C   UNL A   1      35.368  24.162  25.377  1.00  0.00     0.015 A 
ATOM     11  C   UNL A   1      33.509  22.323  24.371  1.00  0.00    -0.008 A 
ATOM     12  C   UNL A   1      33.994  24.414  25.487  1.00  0.00     0.018 A 
ATOM     13  C   UNL A   1      32.528  21.336  23.808  1.00  0.00     0.048 C 
ATOM     14  C   UNL A   1      33.064  23.499  24.993  1.00  0.00     0.130 A 
ATOM     15  C   UNL A   1      33.539  25.657  26.076  1.00  0.00     0.027 C 
ATOM     16  O   UNL A   1      31.712  23.685  25.102  1.00  0.00    -0.475 OA
ATOM     17  C   UNL A   1      31.207  24.995  25.481  1.00  0.00     0.316 C 
BRANCH  17  18
ATOM     18  C   UNL A   1      30.493  25.626  24.276  1.00  0.00     0.430 C 
ATOM     19  F   UNL A   1      29.903  24.686  23.501  1.00  0.00    -0.167 F 
ATOM     20  F   UNL A   1      29.509  26.471  24.673  1.00  0.00    -0.167 F 
ATOM     21  F   UNL A   1      31.337  26.331  23.490  1.00  0.00    -0.167 F 
ENDBRANCH  17  18
ENDBRANCH   4   6
ENDBRANCH   3   4
ENDBRANCH   2   3
ENDBRANCH   1   2
BRANCH   1  22
ATOM     22  O   UNL A   1      32.373  30.461  26.944  1.00  0.00    -0.458 OA
BRANCH  22  23
ATOM     23  C   UNL A   1      33.077  31.574  27.251  1.00  0.00     0.338 C 
ATOM     24  O   UNL A   1      32.693  32.731  27.217  1.00  0.00    -0.246 OA
BRANCH  23  25
ATOM     25  C   UNL A   1      34.426  31.206  27.711  1.00  0.00     0.060 A 
ATOM     26  C   UNL A   1      34.723  29.866  27.932  1.00  0.00     0.016 A 
ATOM     27  C   UNL A   1      35.332  32.190  28.098  1.00  0.00     0.016 A 
ATOM     28  C   UNL A   1      35.839  29.514  28.686  1.00  0.00     0.010 A 
ATOM     29  C   UNL A   1      36.530  31.822  28.724  1.00  0.00     0.010 A 
ATOM     30  C   UNL A   1      36.772  30.483  29.084  1.00  0.00    -0.014 A 
BRANCH  30  31
ATOM     31  C   UNL A   1      37.954  30.089  29.910  1.00  0.00     0.031 A 
ATOM     32  C   UNL A   1      39.059  29.249  29.314  1.00  0.00     0.074 A 
ATOM     33  C   UNL A   1      38.075  30.528  31.181  1.00  0.00     0.049 A 
ATOM     34  N   UNL A   1      40.102  28.715  29.902  1.00  0.00    -0.248 NA
ATOM     35  C   UNL A   1      38.980  28.960  27.872  1.00  0.00     0.031 C 
ATOM     36  C   UNL A   1      37.110  31.382  31.877  1.00  0.00     0.029 A 
ATOM     37  N   UNL A   1      39.075  30.346  32.107  1.00  0.00    -0.354 N 
ATOM     38  C   UNL A   1      40.763  27.987  28.920  1.00  0.00     0.074 A 
ATOM     39  C   UNL A   1      40.001  28.133  27.700  1.00  0.00     0.031 C 
ATOM     40  C   UNL A   1      37.600  31.717  33.078  1.00  0.00     0.029 A 
ATOM     41  C   UNL A   1      38.861  31.018  33.288  1.00  0.00     0.049 A 
ATOM     42  H   UNL A   1      39.869  29.788  31.940  1.00  0.00     0.167 HD
ATOM     43  C   UNL A   1      41.910  27.272  29.023  1.00  0.00     0.037 A 
ATOM     44  C   UNL A   1      39.579  31.045  34.428  1.00  0.00     0.037 A 
ATOM     45  C   UNL A   1      42.711  27.190  30.216  1.00  0.00     0.049 A 
ATOM     46  C   UNL A   1      40.819  30.205  34.532  1.00  0.00     0.074 A 
ATOM     47  C   UNL A   1      43.902  26.512  30.408  1.00  0.00     0.029 A 
ATOM     48  N   UNL A   1      42.412  27.825  31.412  1.00  0.00    -0.354 N 
ATOM     49  N   UNL A   1      41.403  29.479  33.612  1.00  0.00    -0.248 NA
ATOM     50  C   UNL A   1      41.481  30.156  35.845  1.00  0.00     0.031 C 
ATOM     51  C   UNL A   1      44.308  26.708  31.730  1.00  0.00     0.029 A 
ATOM     52  C   UNL A   1      43.389  27.537  32.352  1.00  0.00     0.049 A 
ATOM     53  H   UNL A   1      41.626  28.394  31.570  1.00  0.00     0.167 HD
ATOM     54  C   UNL A   1      42.495  28.887  34.229  1.00  0.00     0.074 A 
ATOM     55  C   UNL A   1      42.512  29.359  35.597  1.00  0.00     0.031 C 
ATOM     56  C   UNL A   1      43.393  28.017  33.709  1.00  0.00     0.037 A 
BRANCH  43  57
ATOM     57  C   UNL A   1      42.378  26.510  27.817  1.00  0.00     0.064 A 
ATOM     58  C   UNL A   1      43.327  27.039  26.933  1.00  0.00     0.173 A 
ATOM     59  C   UNL A   1      41.926  25.200  27.589  1.00  0.00     0.173 A 
ATOM     60  F   UNL A   1      43.786  28.289  27.102  1.00  0.00    -0.203 F 
ATOM     61  C   UNL A   1      43.795  26.292  25.853  1.00  0.00     0.198 A 
ATOM     62  C   UNL A   1      42.415  24.448  26.525  1.00  0.00     0.198 A 
ATOM     63  F   UNL A   1      41.026  24.643  28.413  1.00  0.00    -0.203 F 
ATOM     64  F   UNL A   1      44.679  26.830  25.001  1.00  0.00    -0.200 F 
ATOM     65  C   UNL A   1      43.346  24.995  25.656  1.00  0.00     0.200 A 
ATOM     66  F   UNL A   1      41.991  23.188  26.347  1.00  0.00    -0.200 F 
ATOM     67  F   UNL A   1      43.809  24.273  24.626  1.00  0.00    -0.200 F 
ENDBRANCH  43  57
BRANCH  44  68
ATOM     68  C   UNL A   1      39.119  31.876  35.573  1.00  0.00     0.064 A 
ATOM     69  C   UNL A   1      38.275  31.340  36.556  1.00  0.00     0.173 A 
ATOM     70  C   UNL A   1      39.525  33.212  35.723  1.00  0.00     0.173 A 
ATOM     71  F   UNL A   1      37.836  30.078  36.445  1.00  0.00    -0.203 F 
ATOM     72  C   UNL A   1      37.859  32.107  37.644  1.00  0.00     0.198 A 
ATOM     73  C   UNL A   1      39.134  33.967  36.826  1.00  0.00     0.198 A 
ATOM     74  F   UNL A   1      40.328  33.775  34.807  1.00  0.00    -0.203 F 
ATOM     75  F   UNL A   1      37.027  31.580  38.553  1.00  0.00    -0.200 F 
ATOM     76  C   UNL A   1      38.298  33.415  37.784  1.00  0.00     0.200 A 
ATOM     77  F   UNL A   1      39.574  35.225  36.964  1.00  0.00    -0.200 F 
ATOM     78  F   UNL A   1      37.910  34.145  38.838  1.00  0.00    -0.200 F 
ENDBRANCH  44  68
BRANCH  56  79
ATOM     79  C   UNL A   1      44.473  27.506  34.614  1.00  0.00     0.064 A 
ATOM     80  C   UNL A   1      45.662  28.225  34.796  1.00  0.00     0.173 A 
ATOM     81  C   UNL A   1      44.275  26.348  35.379  1.00  0.00     0.173 A 
ATOM     82  F   UNL A   1      45.899  29.331  34.074  1.00  0.00    -0.203 F 
ATOM     83  C   UNL A   1      46.615  27.804  35.718  1.00  0.00     0.198 A 
ATOM     84  C   UNL A   1      45.220  25.943  36.316  1.00  0.00     0.198 A 
ATOM     85  F   UNL A   1      43.149  25.631  35.243  1.00  0.00    -0.203 F 
ATOM     86  F   UNL A   1      47.752  28.498  35.867  1.00  0.00    -0.200 F 
ATOM     87  C   UNL A   1      46.388  26.671  36.485  1.00  0.00     0.200 A 
ATOM     88  F   UNL A   1      44.994  24.855  37.068  1.00  0.00    -0.200 F 
ATOM     89  F   UNL A   1      47.297  26.282  37.390  1.00  0.00    -0.200 F 
ENDBRANCH  56  79
ENDBRANCH  30  31
ENDBRANCH  23  25
ENDBRANCH  22  23
ENDBRANCH   1  22
TORSDOF 12
ENDMDL
