MODEL 1
REMARK VINA RESULT:     -13.8      0.000      0.000
REMARK SMILES CC(C)n1c2c(c3ccccc31)[C@@H](c1ccccc1)N(CC(=O)OCCOC(=O)c1ccc(-c3c4nc(c(-c5c(F)c(F)c(F)c(F)c5F)c5ccc([nH]5)c(-c5c(F)c(F)c(F)c(F)c5F)c5nc(c(-c6c(F)c(F)c(F)c(F)c6F)c6ccc3[nH]6)C=C5)C=C4)cc1)C2=O
REMARK SMILES IDX 25 1 24 2 22 3 23 4 21 5 20 6 4 7 5 8 12 9 6 10 93 11 7 12
REMARK SMILES IDX 11 13 13 14 94 15 8 16 10 17 9 18 2 19 1 20 3 21 14 22 15 23
REMARK SMILES IDX 19 24 16 25 18 26 17 27 26 28 27 29 28 30 29 31 30 32 31 33
REMARK SMILES IDX 92 34 32 35 91 36 33 37 34 38 35 39 85 40 36 41 90 42 84 43
REMARK SMILES IDX 86 44 37 45 89 46 83 47 82 48 38 50 70 51 50 52 69 53 51 54
REMARK SMILES IDX 54 55 68 56 87 57 52 58 53 59 67 61 88 62 55 63 39 64 40 65
REMARK SMILES IDX 48 66 41 67 42 68 46 69 49 70 43 71 44 72 47 73 45 74 71 75
REMARK SMILES IDX 72 76 80 77 73 78 74 79 78 80 81 81 75 82 76 83 79 84 77 85
REMARK SMILES IDX 56 86 57 87 65 88 58 89 59 90 63 91 66 92 60 93 61 94 64 95
REMARK SMILES IDX 62 96
REMARK H PARENT 86 49 54 60
REMARK Flexibility Score: inf
ROOT
ATOM      1  C   UNL A   1      39.880  20.561  26.165  1.00  0.00     0.274 C 
ENDROOT
BRANCH   1   2
ATOM      2  O   UNL A   1      39.519  21.897  25.715  1.00  0.00    -0.461 OA
BRANCH   2   3
ATOM      3  C   UNL A   1      38.189  22.190  25.666  1.00  0.00     0.325 C 
ATOM      4  O   UNL A   1      37.658  23.081  26.324  1.00  0.00    -0.250 OA
BRANCH   3   5
ATOM      5  C   UNL A   1      37.389  21.361  24.640  1.00  0.00     0.243 C 
BRANCH   5   6
ATOM      6  N   UNL A   1      35.976  21.588  24.409  1.00  0.00    -0.315 N 
ATOM      7  N   UNL A   1      33.457  24.019  23.833  1.00  0.00    -0.334 N 
ATOM      8  C   UNL A   1      34.338  23.021  24.054  1.00  0.00     0.114 A 
ATOM      9  C   UNL A   1      32.424  23.871  24.756  1.00  0.00     0.049 A 
ATOM     10  C   UNL A   1      33.871  22.158  25.000  1.00  0.00     0.018 A 
ATOM     11  C   UNL A   1      35.651  22.703  23.634  1.00  0.00     0.272 C 
ATOM     12  C   UNL A   1      32.685  22.705  25.514  1.00  0.00     0.006 A 
ATOM     13  C   UNL A   1      31.292  24.658  25.013  1.00  0.00     0.027 A 
ATOM     14  C   UNL A   1      34.818  21.022  25.203  1.00  0.00     0.150 C 
ATOM     15  O   UNL A   1      36.378  23.327  22.889  1.00  0.00    -0.267 OA
ATOM     16  C   UNL A   1      31.802  22.334  26.545  1.00  0.00     0.011 A 
ATOM     17  C   UNL A   1      30.433  24.269  26.046  1.00  0.00     0.002 A 
ATOM     18  C   UNL A   1      30.683  23.128  26.803  1.00  0.00     0.001 A 
BRANCH   7  19
ATOM     19  C   UNL A   1      33.654  25.052  22.823  1.00  0.00     0.082 C 
ATOM     20  C   UNL A   1      32.718  24.892  21.630  1.00  0.00     0.031 C 
ATOM     21  C   UNL A   1      33.652  26.455  23.419  1.00  0.00     0.031 C 
ENDBRANCH   7  19
BRANCH  14  22
ATOM     22  C   UNL A   1      34.157  19.744  24.625  1.00  0.00    -0.021 A 
ATOM     23  C   UNL A   1      32.912  19.804  23.968  1.00  0.00     0.006 A 
ATOM     24  C   UNL A   1      34.747  18.463  24.626  1.00  0.00     0.006 A 
ATOM     25  C   UNL A   1      32.286  18.702  23.371  1.00  0.00     0.000 A 
ATOM     26  C   UNL A   1      34.140  17.352  24.011  1.00  0.00     0.000 A 
ATOM     27  C   UNL A   1      32.904  17.468  23.389  1.00  0.00     0.000 A 
ENDBRANCH  14  22
ENDBRANCH   5   6
ENDBRANCH   3   5
ENDBRANCH   2   3
ENDBRANCH   1   2
BRANCH   1  28
ATOM     28  C   UNL A   1      40.929  20.617  27.285  1.00  0.00     0.275 C 
BRANCH  28  29
ATOM     29  O   UNL A   1      41.105  21.987  27.691  1.00  0.00    -0.458 OA
BRANCH  29  30
ATOM     30  C   UNL A   1      42.323  22.510  27.430  1.00  0.00     0.338 C 
ATOM     31  O   UNL A   1      43.204  22.033  26.734  1.00  0.00    -0.246 OA
BRANCH  30  32
ATOM     32  C   UNL A   1      42.185  23.952  27.690  1.00  0.00     0.060 A 
ATOM     33  C   UNL A   1      43.013  24.727  28.479  1.00  0.00     0.016 A 
ATOM     34  C   UNL A   1      41.001  24.489  27.208  1.00  0.00     0.016 A 
ATOM     35  C   UNL A   1      42.559  25.998  28.856  1.00  0.00     0.010 A 
ATOM     36  C   UNL A   1      40.572  25.765  27.527  1.00  0.00     0.010 A 
ATOM     37  C   UNL A   1      41.298  26.487  28.440  1.00  0.00    -0.014 A 
BRANCH  37  38
ATOM     38  C   UNL A   1      40.883  27.859  28.724  1.00  0.00     0.031 A 
ATOM     39  C   UNL A   1      41.843  28.799  28.116  1.00  0.00     0.074 A 
ATOM     40  C   UNL A   1      39.787  28.336  29.359  1.00  0.00     0.049 A 
ATOM     41  N   UNL A   1      42.858  29.289  28.737  1.00  0.00    -0.248 NA
ATOM     42  C   UNL A   1      41.853  29.019  26.665  1.00  0.00     0.031 C 
ATOM     43  C   UNL A   1      38.563  27.663  29.794  1.00  0.00     0.029 A 
ATOM     44  N   UNL A   1      39.577  29.628  29.777  1.00  0.00    -0.354 N 
ATOM     45  C   UNL A   1      43.547  30.047  27.811  1.00  0.00     0.074 A 
ATOM     46  C   UNL A   1      42.992  29.705  26.526  1.00  0.00     0.031 C 
ATOM     47  C   UNL A   1      37.672  28.581  30.258  1.00  0.00     0.029 A 
ATOM     48  C   UNL A   1      38.315  29.886  30.313  1.00  0.00     0.049 A 
ATOM     49  H   UNL A   1      40.269  30.324  29.702  1.00  0.00     0.167 HD
ATOM     50  C   UNL A   1      44.342  31.056  28.255  1.00  0.00     0.037 A 
ATOM     51  C   UNL A   1      37.869  31.069  30.828  1.00  0.00     0.037 A 
ATOM     52  C   UNL A   1      44.606  30.904  29.672  1.00  0.00     0.049 A 
ATOM     53  C   UNL A   1      39.069  31.832  31.250  1.00  0.00     0.074 A 
ATOM     54  C   UNL A   1      45.216  29.941  30.454  1.00  0.00     0.029 A 
ATOM     55  N   UNL A   1      43.833  31.643  30.534  1.00  0.00    -0.354 N 
ATOM     56  N   UNL A   1      39.833  31.488  32.247  1.00  0.00    -0.248 NA
ATOM     57  C   UNL A   1      39.666  32.728  30.275  1.00  0.00     0.031 C 
ATOM     58  C   UNL A   1      44.426  29.863  31.641  1.00  0.00     0.029 A 
ATOM     59  C   UNL A   1      43.423  30.829  31.557  1.00  0.00     0.049 A 
ATOM     60  H   UNL A   1      43.610  32.598  30.434  1.00  0.00     0.167 HD
ATOM     61  C   UNL A   1      41.117  31.729  31.790  1.00  0.00     0.074 A 
ATOM     62  C   UNL A   1      40.949  32.561  30.599  1.00  0.00     0.031 C 
ATOM     63  C   UNL A   1      42.169  30.996  32.253  1.00  0.00     0.037 A 
BRANCH  50  64
ATOM     64  C   UNL A   1      44.495  32.380  27.551  1.00  0.00     0.064 A 
ATOM     65  C   UNL A   1      45.632  32.573  26.741  1.00  0.00     0.173 A 
ATOM     66  C   UNL A   1      43.779  33.548  27.886  1.00  0.00     0.173 A 
ATOM     67  F   UNL A   1      46.389  31.532  26.362  1.00  0.00    -0.203 F 
ATOM     68  C   UNL A   1      46.082  33.848  26.396  1.00  0.00     0.198 A 
ATOM     69  C   UNL A   1      44.205  34.816  27.497  1.00  0.00     0.198 A 
ATOM     70  F   UNL A   1      42.712  33.537  28.688  1.00  0.00    -0.203 F 
ATOM     71  F   UNL A   1      47.248  33.987  25.752  1.00  0.00    -0.200 F 
ATOM     72  C   UNL A   1      45.375  34.969  26.785  1.00  0.00     0.200 A 
ATOM     73  F   UNL A   1      43.515  35.892  27.900  1.00  0.00    -0.200 F 
ATOM     74  F   UNL A   1      45.841  36.195  26.518  1.00  0.00    -0.200 F 
ENDBRANCH  50  64
BRANCH  51  75
ATOM     75  C   UNL A   1      36.557  31.764  30.682  1.00  0.00     0.064 A 
ATOM     76  C   UNL A   1      35.783  32.104  31.815  1.00  0.00     0.173 A 
ATOM     77  C   UNL A   1      36.215  32.418  29.487  1.00  0.00     0.173 A 
ATOM     78  F   UNL A   1      36.062  31.566  33.012  1.00  0.00    -0.203 F 
ATOM     79  C   UNL A   1      34.770  33.072  31.761  1.00  0.00     0.198 A 
ATOM     80  C   UNL A   1      35.203  33.384  29.434  1.00  0.00     0.198 A 
ATOM     81  F   UNL A   1      36.928  32.210  28.371  1.00  0.00    -0.203 F 
ATOM     82  F   UNL A   1      34.115  33.422  32.878  1.00  0.00    -0.200 F 
ATOM     83  C   UNL A   1      34.494  33.725  30.573  1.00  0.00     0.200 A 
ATOM     84  F   UNL A   1      34.970  34.040  28.289  1.00  0.00    -0.200 F 
ATOM     85  F   UNL A   1      33.582  34.706  30.535  1.00  0.00    -0.200 F 
ENDBRANCH  51  75
BRANCH  63  86
ATOM     86  C   UNL A   1      41.953  30.139  33.471  1.00  0.00     0.064 A 
ATOM     87  C   UNL A   1      41.560  28.789  33.438  1.00  0.00     0.173 A 
ATOM     88  C   UNL A   1      42.318  30.673  34.714  1.00  0.00     0.173 A 
ATOM     89  F   UNL A   1      41.262  28.184  32.281  1.00  0.00    -0.203 F 
ATOM     90  C   UNL A   1      41.529  28.018  34.601  1.00  0.00     0.198 A 
ATOM     91  C   UNL A   1      42.320  29.892  35.866  1.00  0.00     0.198 A 
ATOM     92  F   UNL A   1      42.732  31.947  34.800  1.00  0.00    -0.203 F 
ATOM     93  F   UNL A   1      41.157  26.730  34.547  1.00  0.00    -0.200 F 
ATOM     94  C   UNL A   1      41.924  28.567  35.810  1.00  0.00     0.200 A 
ATOM     95  F   UNL A   1      42.744  30.418  37.024  1.00  0.00    -0.200 F 
ATOM     96  F   UNL A   1      41.950  27.812  36.918  1.00  0.00    -0.200 F 
ENDBRANCH  63  86
ENDBRANCH  37  38
ENDBRANCH  30  32
ENDBRANCH  29  30
ENDBRANCH  28  29
ENDBRANCH   1  28
TORSDOF 14
ENDMDL
MODEL 2
REMARK VINA RESULT:     -13.8      3.916      9.486
REMARK SMILES CC(C)n1c2c(c3ccccc31)[C@@H](c1ccccc1)N(CC(=O)OCCOC(=O)c1ccc(-c3c4nc(c(-c5c(F)c(F)c(F)c(F)c5F)c5ccc([nH]5)c(-c5c(F)c(F)c(F)c(F)c5F)c5nc(c(-c6c(F)c(F)c(F)c(F)c6F)c6ccc3[nH]6)C=C5)C=C4)cc1)C2=O
REMARK SMILES IDX 25 1 24 2 22 3 23 4 21 5 20 6 4 7 5 8 12 9 6 10 93 11 7 12
REMARK SMILES IDX 11 13 13 14 94 15 8 16 10 17 9 18 2 19 1 20 3 21 14 22 15 23
REMARK SMILES IDX 19 24 16 25 18 26 17 27 26 28 27 29 28 30 29 31 30 32 31 33
REMARK SMILES IDX 92 34 32 35 91 36 33 37 34 38 35 39 85 40 36 41 90 42 84 43
REMARK SMILES IDX 86 44 37 45 89 46 83 47 82 48 38 50 70 51 50 52 69 53 51 54
REMARK SMILES IDX 54 55 68 56 87 57 52 58 53 59 67 61 88 62 55 63 39 64 40 65
REMARK SMILES IDX 48 66 41 67 42 68 46 69 49 70 43 71 44 72 47 73 45 74 71 75
REMARK SMILES IDX 72 76 80 77 73 78 74 79 78 80 81 81 75 82 76 83 79 84 77 85
REMARK SMILES IDX 56 86 57 87 65 88 58 89 59 90 63 91 66 92 60 93 61 94 64 95
REMARK SMILES IDX 62 96
REMARK H PARENT 86 49 54 60
REMARK Flexibility Score: inf
ROOT
ATOM      1  C   UNL A   1      33.349  32.803  27.722  1.00  0.00     0.274 C 
ENDROOT
BRANCH   1   2
ATOM      2  O   UNL A   1      33.690  31.442  28.105  1.00  0.00    -0.461 OA
BRANCH   2   3
ATOM      3  C   UNL A   1      33.444  30.465  27.186  1.00  0.00     0.325 C 
ATOM      4  O   UNL A   1      34.311  29.743  26.702  1.00  0.00    -0.250 OA
BRANCH   3   5
ATOM      5  C   UNL A   1      31.951  30.268  26.847  1.00  0.00     0.243 C 
BRANCH   5   6
ATOM      6  N   UNL A   1      31.495  29.173  26.015  1.00  0.00    -0.315 N 
ATOM      7  N   UNL A   1      31.704  25.687  25.390  1.00  0.00    -0.334 N 
ATOM      8  C   UNL A   1      31.561  27.020  25.542  1.00  0.00     0.114 A 
ATOM      9  C   UNL A   1      32.033  25.455  24.057  1.00  0.00     0.049 A 
ATOM     10  C   UNL A   1      31.668  27.662  24.344  1.00  0.00     0.018 A 
ATOM     11  C   UNL A   1      31.436  27.919  26.627  1.00  0.00     0.272 C 
ATOM     12  C   UNL A   1      32.031  26.702  23.387  1.00  0.00     0.006 A 
ATOM     13  C   UNL A   1      32.352  24.273  23.374  1.00  0.00     0.027 A 
ATOM     14  C   UNL A   1      31.452  29.131  24.503  1.00  0.00     0.150 C 
ATOM     15  O   UNL A   1      31.425  27.672  27.815  1.00  0.00    -0.267 OA
ATOM     16  C   UNL A   1      32.362  26.758  22.021  1.00  0.00     0.011 A 
ATOM     17  C   UNL A   1      32.680  24.357  22.017  1.00  0.00     0.002 A 
ATOM     18  C   UNL A   1      32.689  25.578  21.349  1.00  0.00     0.001 A 
BRANCH   7  19
ATOM     19  C   UNL A   1      31.567  24.737  26.488  1.00  0.00     0.082 C 
ATOM     20  C   UNL A   1      30.280  23.923  26.403  1.00  0.00     0.031 C 
ATOM     21  C   UNL A   1      32.817  23.886  26.678  1.00  0.00     0.031 C 
ENDBRANCH   7  19
BRANCH  14  22
ATOM     22  C   UNL A   1      30.091  29.485  23.850  1.00  0.00    -0.021 A 
ATOM     23  C   UNL A   1      29.594  30.803  23.876  1.00  0.00     0.006 A 
ATOM     24  C   UNL A   1      29.287  28.580  23.126  1.00  0.00     0.006 A 
ATOM     25  C   UNL A   1      28.404  31.205  23.256  1.00  0.00     0.000 A 
ATOM     26  C   UNL A   1      28.100  28.975  22.480  1.00  0.00     0.000 A 
ATOM     27  C   UNL A   1      27.653  30.287  22.551  1.00  0.00     0.000 A 
ENDBRANCH  14  22
ENDBRANCH   5   6
ENDBRANCH   3   5
ENDBRANCH   2   3
ENDBRANCH   1   2
BRANCH   1  28
ATOM     28  C   UNL A   1      34.167  33.827  28.522  1.00  0.00     0.275 C 
BRANCH  28  29
ATOM     29  O   UNL A   1      35.564  33.641  28.225  1.00  0.00    -0.458 OA
BRANCH  29  30
ATOM     30  C   UNL A   1      36.379  33.601  29.303  1.00  0.00     0.338 C 
ATOM     31  O   UNL A   1      36.182  34.091  30.402  1.00  0.00    -0.246 OA
BRANCH  30  32
ATOM     32  C   UNL A   1      37.259  32.445  29.075  1.00  0.00     0.060 A 
ATOM     33  C   UNL A   1      36.934  31.286  28.396  1.00  0.00     0.016 A 
ATOM     34  C   UNL A   1      38.454  32.514  29.776  1.00  0.00     0.016 A 
ATOM     35  C   UNL A   1      37.782  30.180  28.541  1.00  0.00     0.010 A 
ATOM     36  C   UNL A   1      39.327  31.445  29.876  1.00  0.00     0.010 A 
ATOM     37  C   UNL A   1      38.943  30.238  29.348  1.00  0.00    -0.014 A 
BRANCH  37  38
ATOM     38  C   UNL A   1      39.894  29.130  29.394  1.00  0.00     0.031 A 
ATOM     39  C   UNL A   1      40.187  28.790  30.799  1.00  0.00     0.074 A 
ATOM     40  C   UNL A   1      40.441  28.395  28.397  1.00  0.00     0.049 A 
ATOM     41  N   UNL A   1      41.174  29.278  31.464  1.00  0.00    -0.248 NA
ATOM     42  C   UNL A   1      39.197  28.076  31.613  1.00  0.00     0.031 C 
ATOM     43  C   UNL A   1      40.118  28.323  26.972  1.00  0.00     0.029 A 
ATOM     44  N   UNL A   1      41.491  27.515  28.505  1.00  0.00    -0.354 N 
ATOM     45  C   UNL A   1      41.054  28.784  32.748  1.00  0.00     0.074 A 
ATOM     46  C   UNL A   1      39.739  28.203  32.829  1.00  0.00     0.031 C 
ATOM     47  C   UNL A   1      40.838  27.329  26.385  1.00  0.00     0.029 A 
ATOM     48  C   UNL A   1      41.795  26.800  27.346  1.00  0.00     0.049 A 
ATOM     49  H   UNL A   1      41.993  27.398  29.343  1.00  0.00     0.167 HD
ATOM     50  C   UNL A   1      42.167  28.706  33.524  1.00  0.00     0.037 A 
ATOM     51  C   UNL A   1      42.806  25.898  27.181  1.00  0.00     0.037 A 
ATOM     52  C   UNL A   1      43.230  29.520  32.965  1.00  0.00     0.049 A 
ATOM     53  C   UNL A   1      43.840  26.224  28.193  1.00  0.00     0.074 A 
ATOM     54  C   UNL A   1      43.388  30.866  32.693  1.00  0.00     0.029 A 
ATOM     55  N   UNL A   1      44.175  28.875  32.205  1.00  0.00    -0.354 N 
ATOM     56  N   UNL A   1      44.568  27.304  28.164  1.00  0.00    -0.248 NA
ATOM     57  C   UNL A   1      43.746  25.558  29.481  1.00  0.00     0.031 C 
ATOM     58  C   UNL A   1      44.094  30.918  31.453  1.00  0.00     0.029 A 
ATOM     59  C   UNL A   1      44.395  29.611  31.071  1.00  0.00     0.049 A 
ATOM     60  H   UNL A   1      44.621  28.028  32.437  1.00  0.00     0.167 HD
ATOM     61  C   UNL A   1      44.628  27.709  29.486  1.00  0.00     0.074 A 
ATOM     62  C   UNL A   1      44.167  26.556  30.260  1.00  0.00     0.031 C 
ATOM     63  C   UNL A   1      44.770  29.026  29.804  1.00  0.00     0.037 A 
BRANCH  50  64
ATOM     64  C   UNL A   1      42.445  27.582  34.488  1.00  0.00     0.064 A 
ATOM     65  C   UNL A   1      42.944  26.370  33.970  1.00  0.00     0.173 A 
ATOM     66  C   UNL A   1      41.948  27.522  35.807  1.00  0.00     0.173 A 
ATOM     67  F   UNL A   1      43.441  26.310  32.725  1.00  0.00    -0.203 F 
ATOM     68  C   UNL A   1      42.841  25.170  34.674  1.00  0.00     0.198 A 
ATOM     69  C   UNL A   1      41.892  26.330  36.525  1.00  0.00     0.198 A 
ATOM     70  F   UNL A   1      41.394  28.572  36.419  1.00  0.00    -0.203 F 
ATOM     71  F   UNL A   1      43.192  24.021  34.081  1.00  0.00    -0.200 F 
ATOM     72  C   UNL A   1      42.303  25.149  35.946  1.00  0.00     0.200 A 
ATOM     73  F   UNL A   1      41.351  26.328  37.751  1.00  0.00    -0.200 F 
ATOM     74  F   UNL A   1      42.136  23.991  36.596  1.00  0.00    -0.200 F 
ENDBRANCH  50  64
BRANCH  51  75
ATOM     75  C   UNL A   1      42.832  24.577  26.488  1.00  0.00     0.064 A 
ATOM     76  C   UNL A   1      43.676  24.355  25.376  1.00  0.00     0.173 A 
ATOM     77  C   UNL A   1      42.315  23.427  27.106  1.00  0.00     0.173 A 
ATOM     78  F   UNL A   1      44.253  25.390  24.747  1.00  0.00    -0.203 F 
ATOM     79  C   UNL A   1      44.019  23.065  24.949  1.00  0.00     0.198 A 
ATOM     80  C   UNL A   1      42.659  22.139  26.677  1.00  0.00     0.198 A 
ATOM     81  F   UNL A   1      41.554  23.529  28.204  1.00  0.00    -0.203 F 
ATOM     82  F   UNL A   1      44.888  22.900  23.940  1.00  0.00    -0.200 F 
ATOM     83  C   UNL A   1      43.524  21.957  25.612  1.00  0.00     0.200 A 
ATOM     84  F   UNL A   1      42.207  21.072  27.352  1.00  0.00    -0.200 F 
ATOM     85  F   UNL A   1      43.912  20.724  25.257  1.00  0.00    -0.200 F 
ENDBRANCH  51  75
BRANCH  63  86
ATOM     86  C   UNL A   1      45.156  29.982  28.707  1.00  0.00     0.064 A 
ATOM     87  C   UNL A   1      44.245  30.612  27.841  1.00  0.00     0.173 A 
ATOM     88  C   UNL A   1      46.494  30.392  28.644  1.00  0.00     0.173 A 
ATOM     89  F   UNL A   1      42.937  30.328  27.886  1.00  0.00    -0.203 F 
ATOM     90  C   UNL A   1      44.664  31.602  26.950  1.00  0.00     0.198 A 
ATOM     91  C   UNL A   1      46.903  31.403  27.780  1.00  0.00     0.198 A 
ATOM     92  F   UNL A   1      47.402  29.846  29.469  1.00  0.00    -0.203 F 
ATOM     93  F   UNL A   1      43.778  32.195  26.136  1.00  0.00    -0.200 F 
ATOM     94  C   UNL A   1      45.989  32.005  26.932  1.00  0.00     0.200 A 
ATOM     95  F   UNL A   1      48.177  31.818  27.798  1.00  0.00    -0.200 F 
ATOM     96  F   UNL A   1      46.382  32.996  26.118  1.00  0.00    -0.200 F 
ENDBRANCH  63  86
ENDBRANCH  37  38
ENDBRANCH  30  32
ENDBRANCH  29  30
ENDBRANCH  28  29
ENDBRANCH   1  28
TORSDOF 14
ENDMDL
MODEL 3
REMARK VINA RESULT:     -13.5      0.588      1.792
REMARK SMILES CC(C)n1c2c(c3ccccc31)[C@@H](c1ccccc1)N(CC(=O)OCCOC(=O)c1ccc(-c3c4nc(c(-c5c(F)c(F)c(F)c(F)c5F)c5ccc([nH]5)c(-c5c(F)c(F)c(F)c(F)c5F)c5nc(c(-c6c(F)c(F)c(F)c(F)c6F)c6ccc3[nH]6)C=C5)C=C4)cc1)C2=O
REMARK SMILES IDX 25 1 24 2 22 3 23 4 21 5 20 6 4 7 5 8 12 9 6 10 93 11 7 12
REMARK SMILES IDX 11 13 13 14 94 15 8 16 10 17 9 18 2 19 1 20 3 21 14 22 15 23
REMARK SMILES IDX 19 24 16 25 18 26 17 27 26 28 27 29 28 30 29 31 30 32 31 33
REMARK SMILES IDX 92 34 32 35 91 36 33 37 34 38 35 39 85 40 36 41 90 42 84 43
REMARK SMILES IDX 86 44 37 45 89 46 83 47 82 48 38 50 70 51 50 52 69 53 51 54
REMARK SMILES IDX 54 55 68 56 87 57 52 58 53 59 67 61 88 62 55 63 39 64 40 65
REMARK SMILES IDX 48 66 41 67 42 68 46 69 49 70 43 71 44 72 47 73 45 74 71 75
REMARK SMILES IDX 72 76 80 77 73 78 74 79 78 80 81 81 75 82 76 83 79 84 77 85
REMARK SMILES IDX 56 86 57 87 65 88 58 89 59 90 63 91 66 92 60 93 61 94 64 95
REMARK SMILES IDX 62 96
REMARK H PARENT 86 49 54 60
REMARK Flexibility Score: inf
ROOT
ATOM      1  C   UNL A   1      39.884  20.571  26.365  1.00  0.00     0.274 C 
ENDROOT
BRANCH   1   2
ATOM      2  O   UNL A   1      39.519  21.842  25.761  1.00  0.00    -0.461 OA
BRANCH   2   3
ATOM      3  C   UNL A   1      38.190  22.140  25.711  1.00  0.00     0.325 C 
ATOM      4  O   UNL A   1      37.651  22.998  26.405  1.00  0.00    -0.250 OA
BRANCH   3   5
ATOM      5  C   UNL A   1      37.402  21.363  24.634  1.00  0.00     0.243 C 
BRANCH   5   6
ATOM      6  N   UNL A   1      35.988  21.592  24.408  1.00  0.00    -0.315 N 
ATOM      7  N   UNL A   1      33.469  24.026  23.847  1.00  0.00    -0.334 N 
ATOM      8  C   UNL A   1      34.351  23.027  24.062  1.00  0.00     0.114 A 
ATOM      9  C   UNL A   1      32.439  23.877  24.772  1.00  0.00     0.049 A 
ATOM     10  C   UNL A   1      33.886  22.162  25.007  1.00  0.00     0.018 A 
ATOM     11  C   UNL A   1      35.662  22.710  23.637  1.00  0.00     0.272 C 
ATOM     12  C   UNL A   1      32.701  22.708  25.526  1.00  0.00     0.006 A 
ATOM     13  C   UNL A   1      31.309  24.663  25.034  1.00  0.00     0.027 A 
ATOM     14  C   UNL A   1      34.833  21.025  25.204  1.00  0.00     0.150 C 
ATOM     15  O   UNL A   1      36.387  23.335  22.892  1.00  0.00    -0.267 OA
ATOM     16  C   UNL A   1      31.822  22.335  26.559  1.00  0.00     0.011 A 
ATOM     17  C   UNL A   1      30.452  24.272  26.069  1.00  0.00     0.002 A 
ATOM     18  C   UNL A   1      30.704  23.129  26.822  1.00  0.00     0.001 A 
BRANCH   7  19
ATOM     19  C   UNL A   1      33.664  25.061  22.838  1.00  0.00     0.082 C 
ATOM     20  C   UNL A   1      32.732  24.899  21.642  1.00  0.00     0.031 C 
ATOM     21  C   UNL A   1      33.653  26.464  23.436  1.00  0.00     0.031 C 
ENDBRANCH   7  19
BRANCH  14  22
ATOM     22  C   UNL A   1      34.169  19.749  24.625  1.00  0.00    -0.021 A 
ATOM     23  C   UNL A   1      34.847  18.513  24.628  1.00  0.00     0.006 A 
ATOM     24  C   UNL A   1      32.849  19.681  24.134  1.00  0.00     0.006 A 
ATOM     25  C   UNL A   1      34.287  17.311  24.177  1.00  0.00     0.000 A 
ATOM     26  C   UNL A   1      32.266  18.476  23.699  1.00  0.00     0.000 A 
ATOM     27  C   UNL A   1      32.987  17.290  23.712  1.00  0.00     0.000 A 
ENDBRANCH  14  22
ENDBRANCH   5   6
ENDBRANCH   3   5
ENDBRANCH   2   3
ENDBRANCH   1   2
BRANCH   1  28
ATOM     28  C   UNL A   1      41.157  20.703  27.214  1.00  0.00     0.275 C 
BRANCH  28  29
ATOM     29  O   UNL A   1      41.104  21.944  27.942  1.00  0.00    -0.458 OA
BRANCH  29  30
ATOM     30  C   UNL A   1      42.146  22.778  27.729  1.00  0.00     0.338 C 
ATOM     31  O   UNL A   1      43.127  22.579  27.032  1.00  0.00    -0.246 OA
BRANCH  30  32
ATOM     32  C   UNL A   1      41.634  24.120  28.047  1.00  0.00     0.060 A 
ATOM     33  C   UNL A   1      40.464  24.684  27.576  1.00  0.00     0.016 A 
ATOM     34  C   UNL A   1      42.536  24.903  28.751  1.00  0.00     0.016 A 
ATOM     35  C   UNL A   1      40.292  26.066  27.736  1.00  0.00     0.010 A 
ATOM     36  C   UNL A   1      42.347  26.257  28.964  1.00  0.00     0.010 A 
ATOM     37  C   UNL A   1      41.275  26.867  28.364  1.00  0.00    -0.014 A 
BRANCH  37  38
ATOM     38  C   UNL A   1      41.037  28.281  28.647  1.00  0.00     0.031 A 
ATOM     39  C   UNL A   1      42.087  29.094  28.005  1.00  0.00     0.074 A 
ATOM     40  C   UNL A   1      40.026  28.891  29.308  1.00  0.00     0.049 A 
ATOM     41  N   UNL A   1      43.171  29.461  28.594  1.00  0.00    -0.248 NA
ATOM     42  C   UNL A   1      42.082  29.304  26.553  1.00  0.00     0.031 C 
ATOM     43  C   UNL A   1      38.742  28.373  29.782  1.00  0.00     0.029 A 
ATOM     44  N   UNL A   1      39.984  30.201  29.720  1.00  0.00    -0.354 N 
ATOM     45  C   UNL A   1      43.919  30.125  27.643  1.00  0.00     0.074 A 
ATOM     46  C   UNL A   1      43.292  29.846  26.377  1.00  0.00     0.031 C 
ATOM     47  C   UNL A   1      37.981  29.395  30.262  1.00  0.00     0.029 A 
ATOM     48  C   UNL A   1      38.779  30.612  30.288  1.00  0.00     0.049 A 
ATOM     49  H   UNL A   1      40.753  30.807  29.620  1.00  0.00     0.167 HD
ATOM     50  C   UNL A   1      44.843  31.033  28.056  1.00  0.00     0.037 A 
ATOM     51  C   UNL A   1      38.494  31.843  30.805  1.00  0.00     0.037 A 
ATOM     52  C   UNL A   1      45.126  30.858  29.467  1.00  0.00     0.049 A 
ATOM     53  C   UNL A   1      39.788  32.458  31.187  1.00  0.00     0.074 A 
ATOM     54  C   UNL A   1      45.637  29.832  30.240  1.00  0.00     0.029 A 
ATOM     55  N   UNL A   1      44.473  31.689  30.343  1.00  0.00    -0.354 N 
ATOM     56  N   UNL A   1      40.533  32.029  32.166  1.00  0.00    -0.248 NA
ATOM     57  C   UNL A   1      40.462  33.270  30.188  1.00  0.00     0.031 C 
ATOM     58  C   UNL A   1      44.877  29.857  31.449  1.00  0.00     0.029 A 
ATOM     59  C   UNL A   1      43.997  30.936  31.384  1.00  0.00     0.049 A 
ATOM     60  H   UNL A   1      44.364  32.664  30.241  1.00  0.00     0.167 HD
ATOM     61  C   UNL A   1      41.824  32.110  31.672  1.00  0.00     0.074 A 
ATOM     62  C   UNL A   1      41.724  32.951  30.478  1.00  0.00     0.031 C 
ATOM     63  C   UNL A   1      42.792  31.258  32.112  1.00  0.00     0.037 A 
BRANCH  50  64
ATOM     64  C   UNL A   1      45.135  32.325  27.337  1.00  0.00     0.064 A 
ATOM     65  C   UNL A   1      46.410  32.488  26.758  1.00  0.00     0.173 A 
ATOM     66  C   UNL A   1      44.371  33.502  27.471  1.00  0.00     0.173 A 
ATOM     67  F   UNL A   1      47.223  31.436  26.583  1.00  0.00    -0.203 F 
ATOM     68  C   UNL A   1      46.922  33.749  26.451  1.00  0.00     0.198 A 
ATOM     69  C   UNL A   1      44.868  34.754  27.116  1.00  0.00     0.198 A 
ATOM     70  F   UNL A   1      43.166  33.521  28.048  1.00  0.00    -0.203 F 
ATOM     71  F   UNL A   1      48.193  33.866  26.043  1.00  0.00    -0.200 F 
ATOM     72  C   UNL A   1      46.156  34.882  26.642  1.00  0.00     0.200 A 
ATOM     73  F   UNL A   1      44.115  35.843  27.327  1.00  0.00    -0.200 F 
ATOM     74  F   UNL A   1      46.669  36.098  26.417  1.00  0.00    -0.200 F 
ENDBRANCH  50  64
BRANCH  51  75
ATOM     75  C   UNL A   1      37.272  32.692  30.689  1.00  0.00     0.064 A 
ATOM     76  C   UNL A   1      36.905  33.274  29.454  1.00  0.00     0.173 A 
ATOM     77  C   UNL A   1      36.270  32.653  31.672  1.00  0.00     0.173 A 
ATOM     78  F   UNL A   1      37.781  33.317  28.438  1.00  0.00    -0.203 F 
ATOM     79  C   UNL A   1      35.605  33.736  29.208  1.00  0.00     0.198 A 
ATOM     80  C   UNL A   1      34.971  33.116  31.424  1.00  0.00     0.198 A 
ATOM     81  F   UNL A   1      36.500  32.067  32.855  1.00  0.00    -0.203 F 
ATOM     82  F   UNL A   1      35.277  34.207  27.995  1.00  0.00    -0.200 F 
ATOM     83  C   UNL A   1      34.634  33.639  30.188  1.00  0.00     0.200 A 
ATOM     84  F   UNL A   1      34.027  32.981  32.366  1.00  0.00    -0.200 F 
ATOM     85  F   UNL A   1      33.371  34.007  29.930  1.00  0.00    -0.200 F 
ENDBRANCH  51  75
BRANCH  63  86
ATOM     86  C   UNL A   1      42.508  30.440  33.343  1.00  0.00     0.064 A 
ATOM     87  C   UNL A   1      42.622  30.915  34.661  1.00  0.00     0.173 A 
ATOM     88  C   UNL A   1      41.942  29.170  33.163  1.00  0.00     0.173 A 
ATOM     89  F   UNL A   1      43.087  32.144  34.916  1.00  0.00    -0.203 F 
ATOM     90  C   UNL A   1      42.194  30.146  35.745  1.00  0.00     0.198 A 
ATOM     91  C   UNL A   1      41.484  28.421  34.242  1.00  0.00     0.198 A 
ATOM     92  F   UNL A   1      41.779  28.679  31.924  1.00  0.00    -0.203 F 
ATOM     93  F   UNL A   1      42.307  30.620  36.995  1.00  0.00    -0.200 F 
ATOM     94  C   UNL A   1      41.613  28.907  35.532  1.00  0.00     0.200 A 
ATOM     95  F   UNL A   1      40.884  27.242  34.025  1.00  0.00    -0.200 F 
ATOM     96  F   UNL A   1      41.149  28.191  36.567  1.00  0.00    -0.200 F 
ENDBRANCH  63  86
ENDBRANCH  37  38
ENDBRANCH  30  32
ENDBRANCH  29  30
ENDBRANCH  28  29
ENDBRANCH   1  28
TORSDOF 14
ENDMDL
