MODEL 1
REMARK VINA RESULT:     -10.1      0.000      0.000
REMARK SMILES O=C(CCCC[C@@H]1CCSS1)OCCOC(=O)c1ccc(-c2c3nc(c(-c4c(F)c(F)c(F)c(F)c4F)c4ccc([nH]4)c(-c4c(F)c(F)c(F)c(F)c4F)c4nc(c(-c5c(F)c(F)c(F)c(F)c5F)c5ccc2[nH]5)C=C4)C=C3)cc1
REMARK SMILES IDX 13 1 12 2 2 3 1 4 3 5 4 6 5 7 6 8 7 9 8 10 11 11 9 12 10 13
REMARK SMILES IDX 14 14 15 15 16 16 17 17 18 18 19 19 80 20 20 21 79 22 21 23
REMARK SMILES IDX 22 24 23 25 73 26 24 27 78 28 72 29 74 30 25 31 77 32 71 33
REMARK SMILES IDX 70 34 26 36 58 37 38 38 57 39 39 40 42 41 56 42 75 43 40 44
REMARK SMILES IDX 41 45 55 47 76 48 43 49 27 50 28 51 36 52 29 53 30 54 34 55
REMARK SMILES IDX 37 56 31 57 32 58 35 59 33 60 59 61 60 62 68 63 61 64 62 65
REMARK SMILES IDX 66 66 69 67 63 68 64 69 67 70 65 71 44 72 45 73 53 74 46 75
REMARK SMILES IDX 47 76 51 77 54 78 48 79 49 80 52 81 50 82
REMARK H PARENT 74 35 42 46
REMARK Flexibility Score: inf
ROOT
ATOM      1  C   UNL A   1      31.335  31.815  26.453  1.00  0.00     0.274 C 
ENDROOT
BRANCH   1   2
ATOM      2  O   UNL A   1      31.921  30.652  27.063  1.00  0.00    -0.462 OA
BRANCH   2   3
ATOM      3  C   UNL A   1      32.422  29.673  26.265  1.00  0.00     0.305 C 
ATOM      4  O   UNL A   1      33.469  29.831  25.645  1.00  0.00    -0.252 OA
BRANCH   3   5
ATOM      5  C   UNL A   1      31.518  28.481  26.023  1.00  0.00     0.123 C 
BRANCH   5   6
ATOM      6  C   UNL A   1      31.192  28.213  24.555  1.00  0.00     0.012 C 
BRANCH   6   7
ATOM      7  C   UNL A   1      30.366  29.300  23.855  1.00  0.00     0.002 C 
BRANCH   7   8
ATOM      8  C   UNL A   1      29.121  28.822  23.091  1.00  0.00     0.015 C 
BRANCH   8   9
ATOM      9  C   UNL A   1      28.210  29.908  22.510  1.00  0.00     0.059 C 
ATOM     10  C   UNL A   1      28.818  30.452  21.203  1.00  0.00     0.027 C 
ATOM     11  S   UNL A   1      28.040  31.306  23.668  1.00  0.00    -0.091 SA
ATOM     12  C   UNL A   1      28.246  31.817  20.850  1.00  0.00     0.083 C 
ATOM     13  S   UNL A   1      28.451  32.812  22.340  1.00  0.00    -0.094 SA
ENDBRANCH   8   9
ENDBRANCH   7   8
ENDBRANCH   6   7
ENDBRANCH   5   6
ENDBRANCH   3   5
ENDBRANCH   2   3
ENDBRANCH   1   2
BRANCH   1  14
ATOM     14  C   UNL A   1      31.995  33.123  26.906  1.00  0.00     0.275 C 
BRANCH  14  15
ATOM     15  O   UNL A   1      32.949  32.900  27.959  1.00  0.00    -0.458 OA
BRANCH  15  16
ATOM     16  C   UNL A   1      34.055  33.689  27.883  1.00  0.00     0.338 C 
ATOM     17  O   UNL A   1      34.089  34.873  27.614  1.00  0.00    -0.246 OA
BRANCH  16  18
ATOM     18  C   UNL A   1      35.241  32.932  28.341  1.00  0.00     0.060 A 
ATOM     19  C   UNL A   1      35.063  31.582  28.665  1.00  0.00     0.016 A 
ATOM     20  C   UNL A   1      36.500  33.526  28.468  1.00  0.00     0.016 A 
ATOM     21  C   UNL A   1      36.132  30.831  29.156  1.00  0.00     0.010 A 
ATOM     22  C   UNL A   1      37.570  32.775  28.964  1.00  0.00     0.010 A 
ATOM     23  C   UNL A   1      37.384  31.432  29.339  1.00  0.00    -0.014 A 
BRANCH  23  24
ATOM     24  C   UNL A   1      38.453  30.709  30.068  1.00  0.00     0.031 A 
ATOM     25  C   UNL A   1      38.700  31.048  31.512  1.00  0.00     0.074 A 
ATOM     26  C   UNL A   1      39.202  29.773  29.460  1.00  0.00     0.049 A 
ATOM     27  N   UNL A   1      39.604  30.577  32.333  1.00  0.00    -0.248 NA
ATOM     28  C   UNL A   1      37.812  32.059  32.105  1.00  0.00     0.031 C 
ATOM     29  C   UNL A   1      39.052  29.342  28.073  1.00  0.00     0.029 A 
ATOM     30  N   UNL A   1      40.254  29.031  29.936  1.00  0.00    -0.354 N 
ATOM     31  C   UNL A   1      39.394  31.234  33.538  1.00  0.00     0.074 A 
ATOM     32  C   UNL A   1      38.300  32.159  33.333  1.00  0.00     0.031 C 
ATOM     33  C   UNL A   1      39.997  28.425  27.800  1.00  0.00     0.029 A 
ATOM     34  C   UNL A   1      40.829  28.223  28.986  1.00  0.00     0.049 A 
ATOM     35  H   UNL A   1      40.566  29.073  30.869  1.00  0.00     0.167 HD
ATOM     36  C   UNL A   1      40.048  31.075  34.711  1.00  0.00     0.037 A 
ATOM     37  C   UNL A   1      41.916  27.430  29.062  1.00  0.00     0.037 A 
ATOM     38  C   UNL A   1      41.136  30.158  34.921  1.00  0.00     0.049 A 
ATOM     39  C   UNL A   1      42.666  27.312  30.364  1.00  0.00     0.074 A 
ATOM     40  C   UNL A   1      41.828  29.892  36.090  1.00  0.00     0.029 A 
ATOM     41  N   UNL A   1      41.697  29.365  33.932  1.00  0.00    -0.354 N 
ATOM     42  N   UNL A   1      42.424  27.890  31.514  1.00  0.00    -0.248 NA
ATOM     43  C   UNL A   1      43.840  26.426  30.377  1.00  0.00     0.031 C 
ATOM     44  C   UNL A   1      42.842  28.975  35.796  1.00  0.00     0.029 A 
ATOM     45  C   UNL A   1      42.752  28.635  34.455  1.00  0.00     0.049 A 
ATOM     46  H   UNL A   1      41.392  29.327  32.996  1.00  0.00     0.167 HD
ATOM     47  C   UNL A   1      43.393  27.421  32.392  1.00  0.00     0.074 A 
ATOM     48  C   UNL A   1      44.228  26.506  31.643  1.00  0.00     0.031 C 
ATOM     49  C   UNL A   1      43.572  27.721  33.701  1.00  0.00     0.037 A 
BRANCH  36  50
ATOM     50  C   UNL A   1      39.617  31.937  35.858  1.00  0.00     0.064 A 
ATOM     51  C   UNL A   1      40.277  33.136  36.167  1.00  0.00     0.173 A 
ATOM     52  C   UNL A   1      38.521  31.564  36.650  1.00  0.00     0.173 A 
ATOM     53  F   UNL A   1      41.339  33.526  35.447  1.00  0.00    -0.203 F 
ATOM     54  C   UNL A   1      39.872  33.917  37.246  1.00  0.00     0.198 A 
ATOM     55  C   UNL A   1      38.103  32.360  37.713  1.00  0.00     0.198 A 
ATOM     56  F   UNL A   1      37.857  30.427  36.394  1.00  0.00    -0.203 F 
ATOM     57  F   UNL A   1      40.546  35.033  37.553  1.00  0.00    -0.200 F 
ATOM     58  C   UNL A   1      38.783  33.531  38.015  1.00  0.00     0.200 A 
ATOM     59  F   UNL A   1      37.049  31.990  38.451  1.00  0.00    -0.200 F 
ATOM     60  F   UNL A   1      38.396  34.283  39.054  1.00  0.00    -0.200 F 
ENDBRANCH  36  50
BRANCH  37  61
ATOM     61  C   UNL A   1      42.373  26.694  27.856  1.00  0.00     0.064 A 
ATOM     62  C   UNL A   1      41.939  25.388  27.595  1.00  0.00     0.173 A 
ATOM     63  C   UNL A   1      43.261  27.285  26.944  1.00  0.00     0.173 A 
ATOM     64  F   UNL A   1      41.111  24.775  28.453  1.00  0.00    -0.203 F 
ATOM     65  C   UNL A   1      42.384  24.695  26.471  1.00  0.00     0.198 A 
ATOM     66  C   UNL A   1      43.687  26.600  25.810  1.00  0.00     0.198 A 
ATOM     67  F   UNL A   1      43.707  28.532  27.154  1.00  0.00    -0.203 F 
ATOM     68  F   UNL A   1      41.984  23.434  26.262  1.00  0.00    -0.200 F 
ATOM     69  C   UNL A   1      43.254  25.303  25.576  1.00  0.00     0.200 A 
ATOM     70  F   UNL A   1      44.521  27.193  24.945  1.00  0.00    -0.200 F 
ATOM     71  F   UNL A   1      43.679  24.637  24.495  1.00  0.00    -0.200 F 
ENDBRANCH  37  61
BRANCH  49  72
ATOM     72  C   UNL A   1      44.694  27.040  34.428  1.00  0.00     0.064 A 
ATOM     73  C   UNL A   1      44.527  25.776  35.011  1.00  0.00     0.173 A 
ATOM     74  C   UNL A   1      45.969  27.623  34.473  1.00  0.00     0.173 A 
ATOM     75  F   UNL A   1      43.324  25.184  35.006  1.00  0.00    -0.203 F 
ATOM     76  C   UNL A   1      45.596  25.124  35.621  1.00  0.00     0.198 A 
ATOM     77  C   UNL A   1      47.041  26.959  35.062  1.00  0.00     0.198 A 
ATOM     78  F   UNL A   1      46.180  28.829  33.922  1.00  0.00    -0.203 F 
ATOM     79  F   UNL A   1      45.411  23.927  36.195  1.00  0.00    -0.200 F 
ATOM     80  C   UNL A   1      46.853  25.712  35.638  1.00  0.00     0.200 A 
ATOM     81  F   UNL A   1      48.257  27.523  35.066  1.00  0.00    -0.200 F 
ATOM     82  F   UNL A   1      47.884  25.074  36.210  1.00  0.00    -0.200 F 
ENDBRANCH  49  72
ENDBRANCH  23  24
ENDBRANCH  16  18
ENDBRANCH  15  16
ENDBRANCH  14  15
ENDBRANCH   1  14
TORSDOF 15
ENDMDL
MODEL 2
REMARK VINA RESULT:     -10.0      5.488     10.693
REMARK SMILES O=C(CCCC[C@@H]1CCSS1)OCCOC(=O)c1ccc(-c2c3nc(c(-c4c(F)c(F)c(F)c(F)c4F)c4ccc([nH]4)c(-c4c(F)c(F)c(F)c(F)c4F)c4nc(c(-c5c(F)c(F)c(F)c(F)c5F)c5ccc2[nH]5)C=C4)C=C3)cc1
REMARK SMILES IDX 13 1 12 2 2 3 1 4 3 5 4 6 5 7 6 8 7 9 8 10 11 11 9 12 10 13
REMARK SMILES IDX 14 14 15 15 16 16 17 17 18 18 19 19 80 20 20 21 79 22 21 23
REMARK SMILES IDX 22 24 23 25 73 26 24 27 78 28 72 29 74 30 25 31 77 32 71 33
REMARK SMILES IDX 70 34 26 36 58 37 38 38 57 39 39 40 42 41 56 42 75 43 40 44
REMARK SMILES IDX 41 45 55 47 76 48 43 49 27 50 28 51 36 52 29 53 30 54 34 55
REMARK SMILES IDX 37 56 31 57 32 58 35 59 33 60 59 61 60 62 68 63 61 64 62 65
REMARK SMILES IDX 66 66 69 67 63 68 64 69 67 70 65 71 44 72 45 73 53 74 46 75
REMARK SMILES IDX 47 76 51 77 54 78 48 79 49 80 52 81 50 82
REMARK H PARENT 74 35 42 46
REMARK Flexibility Score: inf
ROOT
ATOM      1  C   UNL A   1      42.514  21.774  25.730  1.00  0.00     0.274 C 
ENDROOT
BRANCH   1   2
ATOM      2  O   UNL A   1      42.874  21.546  27.103  1.00  0.00    -0.462 OA
BRANCH   2   3
ATOM      3  C   UNL A   1      41.995  21.896  28.079  1.00  0.00     0.305 C 
ATOM      4  O   UNL A   1      40.852  21.452  28.095  1.00  0.00    -0.252 OA
BRANCH   3   5
ATOM      5  C   UNL A   1      42.437  23.010  29.008  1.00  0.00     0.123 C 
BRANCH   5   6
ATOM      6  C   UNL A   1      43.906  22.952  29.422  1.00  0.00     0.012 C 
BRANCH   6   7
ATOM      7  C   UNL A   1      44.888  23.636  28.460  1.00  0.00     0.002 C 
BRANCH   7   8
ATOM      8  C   UNL A   1      45.642  24.856  29.012  1.00  0.00     0.015 C 
BRANCH   8   9
ATOM      9  C   UNL A   1      46.476  25.661  28.011  1.00  0.00     0.059 C 
ATOM     10  C   UNL A   1      47.691  24.828  27.559  1.00  0.00     0.027 C 
ATOM     11  S   UNL A   1      47.107  27.194  28.771  1.00  0.00    -0.091 SA
ATOM     12  C   UNL A   1      48.782  25.711  26.973  1.00  0.00     0.083 C 
ATOM     13  S   UNL A   1      49.067  26.991  28.211  1.00  0.00    -0.094 SA
ENDBRANCH   8   9
ENDBRANCH   7   8
ENDBRANCH   6   7
ENDBRANCH   5   6
ENDBRANCH   3   5
ENDBRANCH   2   3
ENDBRANCH   1   2
BRANCH   1  14
ATOM     14  C   UNL A   1      43.539  22.633  24.980  1.00  0.00     0.275 C 
BRANCH  14  15
ATOM     15  O   UNL A   1      43.020  23.940  24.680  1.00  0.00    -0.458 OA
BRANCH  15  16
ATOM     16  C   UNL A   1      43.823  24.962  25.081  1.00  0.00     0.338 C 
ATOM     17  O   UNL A   1      44.910  25.258  24.626  1.00  0.00    -0.246 OA
BRANCH  16  18
ATOM     18  C   UNL A   1      43.111  25.797  26.074  1.00  0.00     0.060 A 
ATOM     19  C   UNL A   1      43.658  27.048  26.381  1.00  0.00     0.016 A 
ATOM     20  C   UNL A   1      41.940  25.367  26.707  1.00  0.00     0.016 A 
ATOM     21  C   UNL A   1      43.063  27.857  27.349  1.00  0.00     0.010 A 
ATOM     22  C   UNL A   1      41.347  26.176  27.681  1.00  0.00     0.010 A 
ATOM     23  C   UNL A   1      41.922  27.411  28.028  1.00  0.00    -0.014 A 
BRANCH  23  24
ATOM     24  C   UNL A   1      41.423  28.157  29.208  1.00  0.00     0.031 A 
ATOM     25  C   UNL A   1      42.108  27.959  30.531  1.00  0.00     0.074 A 
ATOM     26  C   UNL A   1      40.374  28.992  29.113  1.00  0.00     0.049 A 
ATOM     27  N   UNL A   1      41.821  28.472  31.701  1.00  0.00    -0.248 NA
ATOM     28  C   UNL A   1      43.268  27.056  30.536  1.00  0.00     0.031 C 
ATOM     29  C   UNL A   1      39.636  29.284  27.887  1.00  0.00     0.029 A 
ATOM     30  N   UNL A   1      39.738  29.732  30.077  1.00  0.00    -0.354 N 
ATOM     31  C   UNL A   1      42.762  27.953  32.579  1.00  0.00     0.074 A 
ATOM     32  C   UNL A   1      43.609  27.061  31.816  1.00  0.00     0.031 C 
ATOM     33  C   UNL A   1      38.628  30.125  28.178  1.00  0.00     0.029 A 
ATOM     34  C   UNL A   1      38.639  30.412  29.613  1.00  0.00     0.049 A 
ATOM     35  H   UNL A   1      40.041  29.773  31.014  1.00  0.00     0.167 HD
ATOM     36  C   UNL A   1      42.912  28.203  33.900  1.00  0.00     0.037 A 
ATOM     37  C   UNL A   1      37.735  31.159  30.275  1.00  0.00     0.037 A 
ATOM     38  C   UNL A   1      42.074  29.089  34.663  1.00  0.00     0.049 A 
ATOM     39  C   UNL A   1      37.888  31.379  31.758  1.00  0.00     0.074 A 
ATOM     40  C   UNL A   1      42.181  29.443  35.997  1.00  0.00     0.029 A 
ATOM     41  N   UNL A   1      40.964  29.749  34.159  1.00  0.00    -0.354 N 
ATOM     42  N   UNL A   1      38.815  30.933  32.569  1.00  0.00    -0.248 NA
ATOM     43  C   UNL A   1      36.868  32.209  32.417  1.00  0.00     0.031 C 
ATOM     44  C   UNL A   1      41.105  30.279  36.312  1.00  0.00     0.029 A 
ATOM     45  C   UNL A   1      40.356  30.482  35.165  1.00  0.00     0.049 A 
ATOM     46  H   UNL A   1      40.654  29.704  33.226  1.00  0.00     0.167 HD
ATOM     47  C   UNL A   1      38.509  31.447  33.823  1.00  0.00     0.074 A 
ATOM     48  C   UNL A   1      37.309  32.243  33.667  1.00  0.00     0.031 C 
ATOM     49  C   UNL A   1      39.165  31.276  34.996  1.00  0.00     0.037 A 
BRANCH  36  50
ATOM     50  C   UNL A   1      44.017  27.484  34.612  1.00  0.00     0.064 A 
ATOM     51  C   UNL A   1      45.299  28.041  34.734  1.00  0.00     0.173 A 
ATOM     52  C   UNL A   1      43.786  26.227  35.190  1.00  0.00     0.173 A 
ATOM     53  F   UNL A   1      45.571  29.234  34.184  1.00  0.00    -0.203 F 
ATOM     54  C   UNL A   1      46.318  27.352  35.385  1.00  0.00     0.198 A 
ATOM     55  C   UNL A   1      44.801  25.553  35.863  1.00  0.00     0.198 A 
ATOM     56  F   UNL A   1      42.577  25.653  35.101  1.00  0.00    -0.203 F 
ATOM     57  F   UNL A   1      47.548  27.881  35.448  1.00  0.00    -0.200 F 
ATOM     58  C   UNL A   1      46.068  26.111  35.953  1.00  0.00     0.200 A 
ATOM     59  F   UNL A   1      44.557  24.357  36.415  1.00  0.00    -0.200 F 
ATOM     60  F   UNL A   1      47.051  25.449  36.577  1.00  0.00    -0.200 F 
ENDBRANCH  36  50
BRANCH  37  61
ATOM     61  C   UNL A   1      36.587  31.746  29.538  1.00  0.00     0.064 A 
ATOM     62  C   UNL A   1      35.526  30.947  29.091  1.00  0.00     0.173 A 
ATOM     63  C   UNL A   1      36.534  33.121  29.261  1.00  0.00     0.173 A 
ATOM     64  F   UNL A   1      35.548  29.625  29.310  1.00  0.00    -0.203 F 
ATOM     65  C   UNL A   1      34.459  31.500  28.385  1.00  0.00     0.198 A 
ATOM     66  C   UNL A   1      35.457  33.675  28.575  1.00  0.00     0.198 A 
ATOM     67  F   UNL A   1      37.528  33.925  29.665  1.00  0.00    -0.203 F 
ATOM     68  F   UNL A   1      33.475  30.709  27.936  1.00  0.00    -0.200 F 
ATOM     69  C   UNL A   1      34.422  32.864  28.132  1.00  0.00     0.200 A 
ATOM     70  F   UNL A   1      35.422  34.993  28.340  1.00  0.00    -0.200 F 
ATOM     71  F   UNL A   1      33.395  33.394  27.456  1.00  0.00    -0.200 F 
ENDBRANCH  37  61
BRANCH  49  72
ATOM     72  C   UNL A   1      38.627  31.979  36.208  1.00  0.00     0.064 A 
ATOM     73  C   UNL A   1      37.837  31.308  37.153  1.00  0.00     0.173 A 
ATOM     74  C   UNL A   1      38.969  33.315  36.465  1.00  0.00     0.173 A 
ATOM     75  F   UNL A   1      37.472  30.035  36.945  1.00  0.00    -0.203 F 
ATOM     76  C   UNL A   1      37.404  31.953  38.309  1.00  0.00     0.198 A 
ATOM     77  C   UNL A   1      38.554  33.950  37.632  1.00  0.00     0.198 A 
ATOM     78  F   UNL A   1      39.729  33.997  35.594  1.00  0.00    -0.203 F 
ATOM     79  F   UNL A   1      36.629  31.303  39.187  1.00  0.00    -0.200 F 
ATOM     80  C   UNL A   1      37.770  33.269  38.551  1.00  0.00     0.200 A 
ATOM     81  F   UNL A   1      38.920  35.217  37.871  1.00  0.00    -0.200 F 
ATOM     82  F   UNL A   1      37.366  33.883  39.673  1.00  0.00    -0.200 F 
ENDBRANCH  49  72
ENDBRANCH  23  24
ENDBRANCH  16  18
ENDBRANCH  15  16
ENDBRANCH  14  15
ENDBRANCH   1  14
TORSDOF 15
ENDMDL
MODEL 3
REMARK VINA RESULT:      -9.9      7.295     13.026
REMARK SMILES O=C(CCCC[C@@H]1CCSS1)OCCOC(=O)c1ccc(-c2c3nc(c(-c4c(F)c(F)c(F)c(F)c4F)c4ccc([nH]4)c(-c4c(F)c(F)c(F)c(F)c4F)c4nc(c(-c5c(F)c(F)c(F)c(F)c5F)c5ccc2[nH]5)C=C4)C=C3)cc1
REMARK SMILES IDX 13 1 12 2 2 3 1 4 3 5 4 6 5 7 6 8 7 9 8 10 11 11 9 12 10 13
REMARK SMILES IDX 14 14 15 15 16 16 17 17 18 18 19 19 80 20 20 21 79 22 21 23
REMARK SMILES IDX 22 24 23 25 73 26 24 27 78 28 72 29 74 30 25 31 77 32 71 33
REMARK SMILES IDX 70 34 26 36 58 37 38 38 57 39 39 40 42 41 56 42 75 43 40 44
REMARK SMILES IDX 41 45 55 47 76 48 43 49 27 50 28 51 36 52 29 53 30 54 34 55
REMARK SMILES IDX 37 56 31 57 32 58 35 59 33 60 59 61 60 62 68 63 61 64 62 65
REMARK SMILES IDX 66 66 69 67 63 68 64 69 67 70 65 71 44 72 45 73 53 74 46 75
REMARK SMILES IDX 47 76 51 77 54 78 48 79 49 80 52 81 50 82
REMARK H PARENT 74 35 42 46
REMARK Flexibility Score: inf
ROOT
ATOM      1  C   UNL A   1      41.515  19.513  26.164  1.00  0.00     0.274 C 
ENDROOT
BRANCH   1   2
ATOM      2  O   UNL A   1      41.491  20.949  26.108  1.00  0.00    -0.462 OA
BRANCH   2   3
ATOM      3  C   UNL A   1      41.399  21.650  27.269  1.00  0.00     0.305 C 
ATOM      4  O   UNL A   1      40.336  22.140  27.635  1.00  0.00    -0.252 OA
BRANCH   3   5
ATOM      5  C   UNL A   1      42.710  21.966  27.963  1.00  0.00     0.123 C 
BRANCH   5   6
ATOM      6  C   UNL A   1      42.594  22.934  29.139  1.00  0.00     0.012 C 
BRANCH   6   7
ATOM      7  C   UNL A   1      43.923  23.491  29.666  1.00  0.00     0.002 C 
BRANCH   7   8
ATOM      8  C   UNL A   1      43.944  24.989  30.007  1.00  0.00     0.015 C 
BRANCH   8   9
ATOM      9  C   UNL A   1      45.194  25.516  30.721  1.00  0.00     0.059 C 
ATOM     10  C   UNL A   1      44.945  26.955  31.210  1.00  0.00     0.027 C 
ATOM     11  S   UNL A   1      46.625  25.552  29.592  1.00  0.00    -0.091 SA
ATOM     12  C   UNL A   1      46.253  27.685  31.477  1.00  0.00     0.083 C 
ATOM     13  S   UNL A   1      47.224  27.474  29.972  1.00  0.00    -0.094 SA
ENDBRANCH   8   9
ENDBRANCH   7   8
ENDBRANCH   6   7
ENDBRANCH   5   6
ENDBRANCH   3   5
ENDBRANCH   2   3
ENDBRANCH   1   2
BRANCH   1  14
ATOM     14  C   UNL A   1      42.877  18.924  25.775  1.00  0.00     0.275 C 
BRANCH  14  15
ATOM     15  O   UNL A   1      43.291  19.362  24.469  1.00  0.00    -0.458 OA
BRANCH  15  16
ATOM     16  C   UNL A   1      44.631  19.563  24.350  1.00  0.00     0.338 C 
ATOM     17  O   UNL A   1      45.455  18.768  23.944  1.00  0.00    -0.246 OA
BRANCH  16  18
ATOM     18  C   UNL A   1      44.952  20.978  24.638  1.00  0.00     0.060 A 
ATOM     19  C   UNL A   1      45.658  21.256  25.815  1.00  0.00     0.016 A 
ATOM     20  C   UNL A   1      44.562  22.019  23.789  1.00  0.00     0.016 A 
ATOM     21  C   UNL A   1      45.941  22.576  26.169  1.00  0.00     0.010 A 
ATOM     22  C   UNL A   1      44.841  23.341  24.147  1.00  0.00     0.010 A 
ATOM     23  C   UNL A   1      45.505  23.628  25.353  1.00  0.00    -0.014 A 
BRANCH  23  24
ATOM     24  C   UNL A   1      45.601  25.027  25.835  1.00  0.00     0.031 A 
ATOM     25  C   UNL A   1      46.941  25.707  25.820  1.00  0.00     0.074 A 
ATOM     26  C   UNL A   1      44.520  25.684  26.288  1.00  0.00     0.049 A 
ATOM     27  N   UNL A   1      47.270  26.906  26.229  1.00  0.00    -0.248 NA
ATOM     28  C   UNL A   1      48.063  24.926  25.275  1.00  0.00     0.031 C 
ATOM     29  C   UNL A   1      43.164  25.145  26.339  1.00  0.00     0.029 A 
ATOM     30  N   UNL A   1      44.403  26.948  26.811  1.00  0.00    -0.354 N 
ATOM     31  C   UNL A   1      48.633  27.021  25.993  1.00  0.00     0.074 A 
ATOM     32  C   UNL A   1      49.077  25.762  25.435  1.00  0.00     0.031 C 
ATOM     33  C   UNL A   1      42.352  26.064  26.889  1.00  0.00     0.029 A 
ATOM     34  C   UNL A   1      43.136  27.246  27.247  1.00  0.00     0.049 A 
ATOM     35  H   UNL A   1      45.156  27.580  26.868  1.00  0.00     0.167 HD
ATOM     36  C   UNL A   1      49.441  28.084  26.214  1.00  0.00     0.037 A 
ATOM     37  C   UNL A   1      42.671  28.339  27.882  1.00  0.00     0.037 A 
ATOM     38  C   UNL A   1      49.006  29.338  26.768  1.00  0.00     0.049 A 
ATOM     39  C   UNL A   1      43.600  29.490  28.171  1.00  0.00     0.074 A 
ATOM     40  C   UNL A   1      49.743  30.490  26.981  1.00  0.00     0.029 A 
ATOM     41  N   UNL A   1      47.717  29.598  27.208  1.00  0.00    -0.354 N 
ATOM     42  N   UNL A   1      44.874  29.615  27.890  1.00  0.00    -0.248 NA
ATOM     43  C   UNL A   1      43.025  30.653  28.864  1.00  0.00     0.031 C 
ATOM     44  C   UNL A   1      48.911  31.431  27.598  1.00  0.00     0.029 A 
ATOM     45  C   UNL A   1      47.646  30.881  27.725  1.00  0.00     0.049 A 
ATOM     46  H   UNL A   1      46.964  28.966  27.160  1.00  0.00     0.167 HD
ATOM     47  C   UNL A   1      45.246  30.874  28.345  1.00  0.00     0.074 A 
ATOM     48  C   UNL A   1      44.062  31.479  28.918  1.00  0.00     0.031 C 
ATOM     49  C   UNL A   1      46.459  31.475  28.288  1.00  0.00     0.037 A 
BRANCH  36  50
ATOM     50  C   UNL A   1      50.892  27.924  25.876  1.00  0.00     0.064 A 
ATOM     51  C   UNL A   1      51.368  28.109  24.569  1.00  0.00     0.173 A 
ATOM     52  C   UNL A   1      51.819  27.593  26.876  1.00  0.00     0.173 A 
ATOM     53  F   UNL A   1      50.516  28.411  23.578  1.00  0.00    -0.203 F 
ATOM     54  C   UNL A   1      52.716  27.940  24.270  1.00  0.00     0.198 A 
ATOM     55  C   UNL A   1      53.171  27.450  26.577  1.00  0.00     0.198 A 
ATOM     56  F   UNL A   1      51.412  27.407  28.140  1.00  0.00    -0.203 F 
ATOM     57  F   UNL A   1      53.142  28.074  23.007  1.00  0.00    -0.200 F 
ATOM     58  C   UNL A   1      53.618  27.616  25.274  1.00  0.00     0.200 A 
ATOM     59  F   UNL A   1      54.041  27.143  27.548  1.00  0.00    -0.200 F 
ATOM     60  F   UNL A   1      54.915  27.453  24.983  1.00  0.00    -0.200 F 
ENDBRANCH  36  50
BRANCH  37  61
ATOM     61  C   UNL A   1      41.248  28.392  28.307  1.00  0.00     0.064 A 
ATOM     62  C   UNL A   1      40.256  28.900  27.459  1.00  0.00     0.173 A 
ATOM     63  C   UNL A   1      40.858  27.939  29.576  1.00  0.00     0.173 A 
ATOM     64  F   UNL A   1      40.588  29.368  26.247  1.00  0.00    -0.203 F 
ATOM     65  C   UNL A   1      38.925  28.963  27.868  1.00  0.00     0.198 A 
ATOM     66  C   UNL A   1      39.524  27.982  29.975  1.00  0.00     0.198 A 
ATOM     67  F   UNL A   1      41.773  27.448  30.425  1.00  0.00    -0.203 F 
ATOM     68  F   UNL A   1      38.001  29.487  27.053  1.00  0.00    -0.200 F 
ATOM     69  C   UNL A   1      38.559  28.499  29.124  1.00  0.00     0.200 A 
ATOM     70  F   UNL A   1      39.175  27.526  31.186  1.00  0.00    -0.200 F 
ATOM     71  F   UNL A   1      37.280  28.557  29.515  1.00  0.00    -0.200 F 
ENDBRANCH  37  61
BRANCH  49  72
ATOM     72  C   UNL A   1      46.577  32.868  28.833  1.00  0.00     0.064 A 
ATOM     73  C   UNL A   1      46.265  33.989  28.050  1.00  0.00     0.173 A 
ATOM     74  C   UNL A   1      46.928  33.079  30.175  1.00  0.00     0.173 A 
ATOM     75  F   UNL A   1      45.937  33.839  26.759  1.00  0.00    -0.203 F 
ATOM     76  C   UNL A   1      46.310  35.272  28.590  1.00  0.00     0.198 A 
ATOM     77  C   UNL A   1      46.949  34.360  30.718  1.00  0.00     0.198 A 
ATOM     78  F   UNL A   1      47.228  32.037  30.966  1.00  0.00    -0.203 F 
ATOM     79  F   UNL A   1      46.033  36.332  27.819  1.00  0.00    -0.200 F 
ATOM     80  C   UNL A   1      46.642  35.455  29.925  1.00  0.00     0.200 A 
ATOM     81  F   UNL A   1      47.257  34.534  32.010  1.00  0.00    -0.200 F 
ATOM     82  F   UNL A   1      46.667  36.690  30.447  1.00  0.00    -0.200 F 
ENDBRANCH  49  72
ENDBRANCH  23  24
ENDBRANCH  16  18
ENDBRANCH  15  16
ENDBRANCH  14  15
ENDBRANCH   1  14
TORSDOF 15
ENDMDL
