MODEL 1
REMARK VINA RESULT:     -12.3      0.000      0.000
REMARK SMILES COc1ccccc1CCNC(=O)[C@@H]1[C@@H](C(=O)OCCOC(=O)c2ccc(-c3c4nc(c(-c5c(F)c(F)c(F)c(F)c5F)c5ccc([nH]5)c(-c5c(F)c(F)c(F)c(F)c5F)c5nc(c(-c6c(F)c(F)c(F)c(F)c6F)c6ccc3[nH]6)C=C5)C=C4)cc2)[C@H]2C=C[C@@H]1CC2
REMARK SMILES IDX 18 1 16 2 17 3 15 4 14 5 90 6 87 7 89 8 91 9 88 10 92 11
REMARK SMILES IDX 12 12 11 13 13 15 10 16 9 17 8 18 3 19 4 20 5 21 7 22 6 23
REMARK SMILES IDX 2 24 1 25 19 26 20 27 21 28 22 29 23 30 24 31 25 32 86 33
REMARK SMILES IDX 26 34 85 35 27 36 28 37 29 38 79 39 30 40 84 41 78 42 80 43
REMARK SMILES IDX 31 44 83 45 77 46 76 47 32 49 64 50 44 51 63 52 45 53 48 54
REMARK SMILES IDX 62 55 81 56 46 57 47 58 61 60 82 61 49 62 33 63 34 64 42 65
REMARK SMILES IDX 35 66 36 67 40 68 43 69 37 70 38 71 41 72 39 73 65 74 66 75
REMARK SMILES IDX 74 76 67 77 68 78 72 79 75 80 69 81 70 82 73 83 71 84 50 85
REMARK SMILES IDX 51 86 59 87 52 88 53 89 57 90 60 91 54 92 55 93 58 94 56 95
REMARK H PARENT 11 14 80 48 48 59
REMARK Flexibility Score: inf
ROOT
ATOM      1  O   UNL A   1      31.833  28.105  24.818  1.00  0.00    -0.462 OA
ENDROOT
BRANCH   1   2
ATOM      2  C   UNL A   1      32.205  27.000  25.522  1.00  0.00     0.310 C 
ATOM      3  O   UNL A   1      33.067  27.003  26.392  1.00  0.00    -0.252 OA
BRANCH   2   4
ATOM      4  C   UNL A   1      31.413  25.763  25.092  1.00  0.00     0.119 C 
ATOM      5  C   UNL A   1      32.038  24.481  25.705  1.00  0.00     0.100 C 
ATOM      6  C   UNL A   1      32.432  23.499  24.553  1.00  0.00     0.025 C 
ATOM      7  C   UNL A   1      31.438  25.667  23.533  1.00  0.00     0.026 C 
ATOM      8  C   UNL A   1      33.369  24.238  23.615  1.00  0.00    -0.027 C 
ATOM      9  C   UNL A   1      31.168  23.161  23.731  1.00  0.00     0.009 C 
ATOM     10  C   UNL A   1      32.845  25.345  23.068  1.00  0.00    -0.027 C 
ATOM     11  C   UNL A   1      30.566  24.455  23.132  1.00  0.00     0.009 C 
BRANCH   5  12
ATOM     12  C   UNL A   1      31.443  23.677  26.868  1.00  0.00     0.224 C 
ATOM     13  N   UNL A   1      32.099  22.846  27.701  1.00  0.00    -0.355 N 
ATOM     14  H   UNL A   1      31.498  22.249  28.203  1.00  0.00     0.163 HD
ATOM     15  O   UNL A   1      30.216  23.720  27.047  1.00  0.00    -0.275 OA
BRANCH  13  16
ATOM     16  C   UNL A   1      33.498  22.640  28.014  1.00  0.00     0.120 C 
BRANCH  16  17
ATOM     17  C   UNL A   1      34.074  21.478  27.200  1.00  0.00     0.060 C 
BRANCH  17  18
ATOM     18  C   UNL A   1      35.064  21.949  26.160  1.00  0.00    -0.004 A 
ATOM     19  C   UNL A   1      35.452  21.127  25.093  1.00  0.00     0.122 A 
ATOM     20  C   UNL A   1      36.447  21.532  24.202  1.00  0.00     0.047 A 
ATOM     21  C   UNL A   1      37.047  22.782  24.348  1.00  0.00     0.004 A 
ATOM     22  C   UNL A   1      35.670  23.209  26.291  1.00  0.00     0.007 A 
ATOM     23  C   UNL A   1      36.654  23.622  25.389  1.00  0.00     0.001 A 
BRANCH  19  24
ATOM     24  O   UNL A   1      34.942  19.865  24.945  1.00  0.00    -0.496 OA
ATOM     25  C   UNL A   1      33.696  19.880  24.245  1.00  0.00     0.278 C 
ENDBRANCH  19  24
ENDBRANCH  17  18
ENDBRANCH  16  17
ENDBRANCH  13  16
ENDBRANCH   5  12
ENDBRANCH   2   4
ENDBRANCH   1   2
BRANCH   1  26
ATOM     26  C   UNL A   1      32.626  29.286  25.079  1.00  0.00     0.274 C 
BRANCH  26  27
ATOM     27  C   UNL A   1      31.824  30.357  25.816  1.00  0.00     0.275 C 
BRANCH  27  28
ATOM     28  O   UNL A   1      32.330  30.535  27.152  1.00  0.00    -0.458 OA
BRANCH  28  29
ATOM     29  C   UNL A   1      33.125  31.612  27.333  1.00  0.00     0.338 C 
ATOM     30  O   UNL A   1      32.790  32.789  27.266  1.00  0.00    -0.246 OA
BRANCH  29  31
ATOM     31  C   UNL A   1      34.505  31.215  27.673  1.00  0.00     0.060 A 
ATOM     32  C   UNL A   1      34.820  29.884  27.923  1.00  0.00     0.016 A 
ATOM     33  C   UNL A   1      35.451  32.205  27.941  1.00  0.00     0.016 A 
ATOM     34  C   UNL A   1      35.976  29.567  28.639  1.00  0.00     0.010 A 
ATOM     35  C   UNL A   1      36.682  31.860  28.509  1.00  0.00     0.010 A 
ATOM     36  C   UNL A   1      36.933  30.547  28.945  1.00  0.00    -0.014 A 
BRANCH  36  37
ATOM     37  C   UNL A   1      38.143  30.239  29.774  1.00  0.00     0.031 A 
ATOM     38  C   UNL A   1      39.272  29.417  29.191  1.00  0.00     0.074 A 
ATOM     39  C   UNL A   1      38.278  30.692  31.037  1.00  0.00     0.049 A 
ATOM     40  N   UNL A   1      40.253  28.796  29.802  1.00  0.00    -0.248 NA
ATOM     41  C   UNL A   1      39.282  29.246  27.731  1.00  0.00     0.031 C 
ATOM     42  C   UNL A   1      37.330  31.553  31.742  1.00  0.00     0.029 A 
ATOM     43  N   UNL A   1      39.290  30.505  31.951  1.00  0.00    -0.354 N 
ATOM     44  C   UNL A   1      40.924  28.079  28.818  1.00  0.00     0.074 A 
ATOM     45  C   UNL A   1      40.254  28.360  27.565  1.00  0.00     0.031 C 
ATOM     46  C   UNL A   1      37.841  31.890  32.935  1.00  0.00     0.029 A 
ATOM     47  C   UNL A   1      39.096  31.174  33.134  1.00  0.00     0.049 A 
ATOM     48  H   UNL A   1      40.079  29.945  31.772  1.00  0.00     0.167 HD
ATOM     49  C   UNL A   1      41.991  27.255  28.949  1.00  0.00     0.037 A 
ATOM     50  C   UNL A   1      39.817  31.182  34.271  1.00  0.00     0.037 A 
ATOM     51  C   UNL A   1      42.734  27.072  30.170  1.00  0.00     0.049 A 
ATOM     52  C   UNL A   1      41.019  30.292  34.393  1.00  0.00     0.074 A 
ATOM     53  C   UNL A   1      43.829  26.257  30.407  1.00  0.00     0.029 A 
ATOM     54  N   UNL A   1      42.485  27.756  31.350  1.00  0.00    -0.354 N 
ATOM     55  N   UNL A   1      41.551  29.494  33.501  1.00  0.00    -0.248 NA
ATOM     56  C   UNL A   1      41.697  30.274  35.697  1.00  0.00     0.031 C 
ATOM     57  C   UNL A   1      44.237  26.443  31.734  1.00  0.00     0.029 A 
ATOM     58  C   UNL A   1      43.413  27.393  32.314  1.00  0.00     0.049 A 
ATOM     59  H   UNL A   1      41.758  28.405  31.483  1.00  0.00     0.167 HD
ATOM     60  C   UNL A   1      42.620  28.876  34.133  1.00  0.00     0.074 A 
ATOM     61  C   UNL A   1      42.680  29.410  35.477  1.00  0.00     0.031 C 
ATOM     62  C   UNL A   1      43.466  27.937  33.644  1.00  0.00     0.037 A 
BRANCH  49  63
ATOM     63  C   UNL A   1      42.399  26.449  27.750  1.00  0.00     0.064 A 
ATOM     64  C   UNL A   1      41.849  25.191  27.467  1.00  0.00     0.173 A 
ATOM     65  C   UNL A   1      43.344  26.968  26.849  1.00  0.00     0.173 A 
ATOM     66  F   UNL A   1      40.950  24.645  28.300  1.00  0.00    -0.203 F 
ATOM     67  C   UNL A   1      42.254  24.468  26.347  1.00  0.00     0.198 A 
ATOM     68  C   UNL A   1      43.726  26.255  25.716  1.00  0.00     0.198 A 
ATOM     69  F   UNL A   1      43.894  28.172  27.066  1.00  0.00    -0.203 F 
ATOM     70  F   UNL A   1      41.751  23.247  26.122  1.00  0.00    -0.200 F 
ATOM     71  C   UNL A   1      43.187  25.002  25.470  1.00  0.00     0.200 A 
ATOM     72  F   UNL A   1      44.617  26.781  24.863  1.00  0.00    -0.200 F 
ATOM     73  F   UNL A   1      43.571  24.307  24.390  1.00  0.00    -0.200 F 
ENDBRANCH  49  63
BRANCH  50  74
ATOM     74  C   UNL A   1      39.393  32.048  35.401  1.00  0.00     0.064 A 
ATOM     75  C   UNL A   1      39.806  33.387  35.466  1.00  0.00     0.173 A 
ATOM     76  C   UNL A   1      38.549  31.574  36.414  1.00  0.00     0.173 A 
ATOM     77  F   UNL A   1      40.638  33.877  34.535  1.00  0.00    -0.203 F 
ATOM     78  C   UNL A   1      39.383  34.219  36.500  1.00  0.00     0.198 A 
ATOM     79  C   UNL A   1      38.105  32.414  37.431  1.00  0.00     0.198 A 
ATOM     80  F   UNL A   1      38.132  30.299  36.399  1.00  0.00    -0.203 F 
ATOM     81  F   UNL A   1      39.811  35.487  36.553  1.00  0.00    -0.200 F 
ATOM     82  C   UNL A   1      38.523  33.736  37.475  1.00  0.00     0.200 A 
ATOM     83  F   UNL A   1      37.262  31.947  38.364  1.00  0.00    -0.200 F 
ATOM     84  F   UNL A   1      38.100  34.542  38.458  1.00  0.00    -0.200 F 
ENDBRANCH  50  74
BRANCH  62  85
ATOM     85  C   UNL A   1      44.543  27.449  34.563  1.00  0.00     0.064 A 
ATOM     86  C   UNL A   1      44.355  26.321  35.374  1.00  0.00     0.173 A 
ATOM     87  C   UNL A   1      45.781  28.106  34.620  1.00  0.00     0.173 A 
ATOM     88  F   UNL A   1      43.182  25.671  35.365  1.00  0.00    -0.203 F 
ATOM     89  C   UNL A   1      45.364  25.878  36.226  1.00  0.00     0.198 A 
ATOM     90  C   UNL A   1      46.793  27.650  35.460  1.00  0.00     0.198 A 
ATOM     91  F   UNL A   1      46.007  29.188  33.862  1.00  0.00    -0.203 F 
ATOM     92  F   UNL A   1      45.151  24.822  37.022  1.00  0.00    -0.200 F 
ATOM     93  C   UNL A   1      46.581  26.541  36.266  1.00  0.00     0.200 A 
ATOM     94  F   UNL A   1      47.972  28.287  35.495  1.00  0.00    -0.200 F 
ATOM     95  F   UNL A   1      47.550  26.115  37.089  1.00  0.00    -0.200 F 
ENDBRANCH  62  85
ENDBRANCH  36  37
ENDBRANCH  29  31
ENDBRANCH  28  29
ENDBRANCH  27  28
ENDBRANCH  26  27
ENDBRANCH   1  26
TORSDOF 16
ENDMDL
MODEL 2
REMARK VINA RESULT:     -12.1      4.010      9.458
REMARK SMILES COc1ccccc1CCNC(=O)[C@@H]1[C@@H](C(=O)OCCOC(=O)c2ccc(-c3c4nc(c(-c5c(F)c(F)c(F)c(F)c5F)c5ccc([nH]5)c(-c5c(F)c(F)c(F)c(F)c5F)c5nc(c(-c6c(F)c(F)c(F)c(F)c6F)c6ccc3[nH]6)C=C5)C=C4)cc2)[C@H]2C=C[C@@H]1CC2
REMARK SMILES IDX 18 1 16 2 17 3 15 4 14 5 90 6 87 7 89 8 91 9 88 10 92 11
REMARK SMILES IDX 12 12 11 13 13 15 10 16 9 17 8 18 3 19 4 20 5 21 7 22 6 23
REMARK SMILES IDX 2 24 1 25 19 26 20 27 21 28 22 29 23 30 24 31 25 32 86 33
REMARK SMILES IDX 26 34 85 35 27 36 28 37 29 38 79 39 30 40 84 41 78 42 80 43
REMARK SMILES IDX 31 44 83 45 77 46 76 47 32 49 64 50 44 51 63 52 45 53 48 54
REMARK SMILES IDX 62 55 81 56 46 57 47 58 61 60 82 61 49 62 33 63 34 64 42 65
REMARK SMILES IDX 35 66 36 67 40 68 43 69 37 70 38 71 41 72 39 73 65 74 66 75
REMARK SMILES IDX 74 76 67 77 68 78 72 79 75 80 69 81 70 82 73 83 71 84 50 85
REMARK SMILES IDX 51 86 59 87 52 88 53 89 57 90 60 91 54 92 55 93 58 94 56 95
REMARK H PARENT 11 14 80 48 48 59
REMARK Flexibility Score: inf
ROOT
ATOM      1  O   UNL A   1      34.798  22.494  25.349  1.00  0.00    -0.462 OA
ENDROOT
BRANCH   1   2
ATOM      2  C   UNL A   1      34.844  23.651  24.631  1.00  0.00     0.310 C 
ATOM      3  O   UNL A   1      35.878  24.149  24.205  1.00  0.00    -0.252 OA
BRANCH   2   4
ATOM      4  C   UNL A   1      33.449  24.244  24.427  1.00  0.00     0.119 C 
ATOM      5  C   UNL A   1      32.385  23.391  25.170  1.00  0.00     0.100 C 
ATOM      6  C   UNL A   1      31.320  22.887  24.142  1.00  0.00     0.025 C 
ATOM      7  C   UNL A   1      33.130  24.267  22.897  1.00  0.00     0.026 C 
ATOM      8  C   UNL A   1      32.052  22.124  23.054  1.00  0.00    -0.027 C 
ATOM      9  C   UNL A   1      30.669  24.110  23.456  1.00  0.00     0.009 C 
ATOM     10  C   UNL A   1      32.970  22.845  22.393  1.00  0.00    -0.027 C 
ATOM     11  C   UNL A   1      31.750  24.942  22.723  1.00  0.00     0.009 C 
BRANCH   5  12
ATOM     12  C   UNL A   1      31.676  23.799  26.468  1.00  0.00     0.224 C 
ATOM     13  N   UNL A   1      31.029  24.955  26.711  1.00  0.00    -0.355 N 
ATOM     14  H   UNL A   1      30.869  25.113  27.670  1.00  0.00     0.163 HD
ATOM     15  O   UNL A   1      31.743  23.033  27.441  1.00  0.00    -0.275 OA
BRANCH  13  16
ATOM     16  C   UNL A   1      30.521  26.017  25.867  1.00  0.00     0.120 C 
BRANCH  16  17
ATOM     17  C   UNL A   1      31.218  27.343  26.179  1.00  0.00     0.060 C 
BRANCH  17  18
ATOM     18  C   UNL A   1      32.028  27.849  25.009  1.00  0.00    -0.004 A 
ATOM     19  C   UNL A   1      31.423  28.499  23.924  1.00  0.00     0.122 A 
ATOM     20  C   UNL A   1      32.166  28.863  22.801  1.00  0.00     0.047 A 
ATOM     21  C   UNL A   1      33.537  28.608  22.760  1.00  0.00     0.004 A 
ATOM     22  C   UNL A   1      33.410  27.605  24.957  1.00  0.00     0.007 A 
ATOM     23  C   UNL A   1      34.159  27.985  23.840  1.00  0.00     0.001 A 
BRANCH  19  24
ATOM     24  O   UNL A   1      30.071  28.712  23.888  1.00  0.00    -0.496 OA
ATOM     25  C   UNL A   1      29.585  28.779  22.545  1.00  0.00     0.278 C 
ENDBRANCH  19  24
ENDBRANCH  17  18
ENDBRANCH  16  17
ENDBRANCH  13  16
ENDBRANCH   5  12
ENDBRANCH   2   4
ENDBRANCH   1   2
BRANCH   1  26
ATOM     26  C   UNL A   1      35.338  21.337  24.669  1.00  0.00     0.274 C 
BRANCH  26  27
ATOM     27  C   UNL A   1      36.566  20.779  25.387  1.00  0.00     0.275 C 
BRANCH  27  28
ATOM     28  O   UNL A   1      37.745  21.518  25.017  1.00  0.00    -0.458 OA
BRANCH  28  29
ATOM     29  C   UNL A   1      38.844  21.268  25.760  1.00  0.00     0.338 C 
ATOM     30  O   UNL A   1      39.451  20.206  25.836  1.00  0.00    -0.246 OA
BRANCH  29  31
ATOM     31  C   UNL A   1      39.291  22.471  26.489  1.00  0.00     0.060 A 
ATOM     32  C   UNL A   1      38.755  23.720  26.191  1.00  0.00     0.016 A 
ATOM     33  C   UNL A   1      40.396  22.383  27.335  1.00  0.00     0.016 A 
ATOM     34  C   UNL A   1      39.449  24.876  26.553  1.00  0.00     0.010 A 
ATOM     35  C   UNL A   1      40.991  23.549  27.831  1.00  0.00     0.010 A 
ATOM     36  C   UNL A   1      40.580  24.816  27.383  1.00  0.00    -0.014 A 
BRANCH  36  37
ATOM     37  C   UNL A   1      41.378  26.038  27.721  1.00  0.00     0.031 A 
ATOM     38  C   UNL A   1      40.801  27.090  28.644  1.00  0.00     0.074 A 
ATOM     39  C   UNL A   1      42.624  26.233  27.242  1.00  0.00     0.049 A 
ATOM     40  N   UNL A   1      41.180  28.331  28.834  1.00  0.00    -0.248 NA
ATOM     41  C   UNL A   1      39.623  26.703  29.434  1.00  0.00     0.031 C 
ATOM     42  C   UNL A   1      43.370  25.302  26.398  1.00  0.00     0.029 A 
ATOM     43  N   UNL A   1      43.497  27.281  27.422  1.00  0.00    -0.354 N 
ATOM     44  C   UNL A   1      40.228  28.897  29.675  1.00  0.00     0.074 A 
ATOM     45  C   UNL A   1      39.267  27.858  29.978  1.00  0.00     0.031 C 
ATOM     46  C   UNL A   1      44.611  25.774  26.207  1.00  0.00     0.029 A 
ATOM     47  C   UNL A   1      44.713  27.098  26.811  1.00  0.00     0.049 A 
ATOM     48  H   UNL A   1      43.271  28.087  27.940  1.00  0.00     0.167 HD
ATOM     49  C   UNL A   1      40.158  30.167  30.142  1.00  0.00     0.037 A 
ATOM     50  C   UNL A   1      45.779  27.914  26.704  1.00  0.00     0.037 A 
ATOM     51  C   UNL A   1      41.178  31.165  29.943  1.00  0.00     0.049 A 
ATOM     52  C   UNL A   1      45.703  29.308  27.257  1.00  0.00     0.074 A 
ATOM     53  C   UNL A   1      41.200  32.482  30.372  1.00  0.00     0.029 A 
ATOM     54  N   UNL A   1      42.384  30.938  29.297  1.00  0.00    -0.354 N 
ATOM     55  N   UNL A   1      44.729  29.885  27.914  1.00  0.00    -0.248 NA
ATOM     56  C   UNL A   1      46.863  30.178  27.014  1.00  0.00     0.031 C 
ATOM     57  C   UNL A   1      42.416  33.054  29.977  1.00  0.00     0.029 A 
ATOM     58  C   UNL A   1      43.162  32.085  29.328  1.00  0.00     0.049 A 
ATOM     59  H   UNL A   1      42.649  30.087  28.879  1.00  0.00     0.167 HD
ATOM     60  C   UNL A   1      45.152  31.183  28.161  1.00  0.00     0.074 A 
ATOM     61  C   UNL A   1      46.484  31.303  27.605  1.00  0.00     0.031 C 
ATOM     62  C   UNL A   1      44.487  32.189  28.778  1.00  0.00     0.037 A 
BRANCH  49  63
ATOM     63  C   UNL A   1      38.914  30.569  30.879  1.00  0.00     0.064 A 
ATOM     64  C   UNL A   1      38.824  30.535  32.277  1.00  0.00     0.173 A 
ATOM     65  C   UNL A   1      37.795  31.025  30.162  1.00  0.00     0.173 A 
ATOM     66  F   UNL A   1      39.860  30.099  33.009  1.00  0.00    -0.203 F 
ATOM     67  C   UNL A   1      37.652  30.911  32.929  1.00  0.00     0.198 A 
ATOM     68  C   UNL A   1      36.634  31.426  30.817  1.00  0.00     0.198 A 
ATOM     69  F   UNL A   1      37.831  31.088  28.822  1.00  0.00    -0.203 F 
ATOM     70  F   UNL A   1      37.572  30.825  34.263  1.00  0.00    -0.200 F 
ATOM     71  C   UNL A   1      36.560  31.361  32.200  1.00  0.00     0.200 A 
ATOM     72  F   UNL A   1      35.587  31.874  30.110  1.00  0.00    -0.200 F 
ATOM     73  F   UNL A   1      35.435  31.727  32.830  1.00  0.00    -0.200 F 
ENDBRANCH  49  63
BRANCH  50  74
ATOM     74  C   UNL A   1      47.003  27.435  26.014  1.00  0.00     0.064 A 
ATOM     75  C   UNL A   1      47.149  27.597  24.629  1.00  0.00     0.173 A 
ATOM     76  C   UNL A   1      48.059  26.839  26.718  1.00  0.00     0.173 A 
ATOM     77  F   UNL A   1      46.153  28.135  23.909  1.00  0.00    -0.203 F 
ATOM     78  C   UNL A   1      48.310  27.187  23.976  1.00  0.00     0.198 A 
ATOM     79  C   UNL A   1      49.229  26.455  26.069  1.00  0.00     0.198 A 
ATOM     80  F   UNL A   1      47.963  26.657  28.043  1.00  0.00    -0.203 F 
ATOM     81  F   UNL A   1      48.415  27.330  22.649  1.00  0.00    -0.200 F 
ATOM     82  C   UNL A   1      49.353  26.628  24.698  1.00  0.00     0.200 A 
ATOM     83  F   UNL A   1      50.241  25.928  26.772  1.00  0.00    -0.200 F 
ATOM     84  F   UNL A   1      50.477  26.252  24.073  1.00  0.00    -0.200 F 
ENDBRANCH  50  74
BRANCH  62  85
ATOM     85  C   UNL A   1      45.203  33.498  28.907  1.00  0.00     0.064 A 
ATOM     86  C   UNL A   1      45.075  34.499  27.934  1.00  0.00     0.173 A 
ATOM     87  C   UNL A   1      46.011  33.759  30.023  1.00  0.00     0.173 A 
ATOM     88  F   UNL A   1      44.327  34.286  26.842  1.00  0.00    -0.203 F 
ATOM     89  C   UNL A   1      45.748  35.711  28.065  1.00  0.00     0.198 A 
ATOM     90  C   UNL A   1      46.668  34.980  30.158  1.00  0.00     0.198 A 
ATOM     91  F   UNL A   1      46.162  32.832  30.980  1.00  0.00    -0.203 F 
ATOM     92  F   UNL A   1      45.644  36.640  27.104  1.00  0.00    -0.200 F 
ATOM     93  C   UNL A   1      46.540  35.951  29.177  1.00  0.00     0.200 A 
ATOM     94  F   UNL A   1      47.430  35.213  31.236  1.00  0.00    -0.200 F 
ATOM     95  F   UNL A   1      47.190  37.117  29.299  1.00  0.00    -0.200 F 
ENDBRANCH  62  85
ENDBRANCH  36  37
ENDBRANCH  29  31
ENDBRANCH  28  29
ENDBRANCH  27  28
ENDBRANCH  26  27
ENDBRANCH   1  26
TORSDOF 16
ENDMDL
MODEL 3
REMARK VINA RESULT:     -12.0      1.014      1.985
REMARK SMILES COc1ccccc1CCNC(=O)[C@@H]1[C@@H](C(=O)OCCOC(=O)c2ccc(-c3c4nc(c(-c5c(F)c(F)c(F)c(F)c5F)c5ccc([nH]5)c(-c5c(F)c(F)c(F)c(F)c5F)c5nc(c(-c6c(F)c(F)c(F)c(F)c6F)c6ccc3[nH]6)C=C5)C=C4)cc2)[C@H]2C=C[C@@H]1CC2
REMARK SMILES IDX 18 1 16 2 17 3 15 4 14 5 90 6 87 7 89 8 91 9 88 10 92 11
REMARK SMILES IDX 12 12 11 13 13 15 10 16 9 17 8 18 3 19 4 20 5 21 7 22 6 23
REMARK SMILES IDX 2 24 1 25 19 26 20 27 21 28 22 29 23 30 24 31 25 32 86 33
REMARK SMILES IDX 26 34 85 35 27 36 28 37 29 38 79 39 30 40 84 41 78 42 80 43
REMARK SMILES IDX 31 44 83 45 77 46 76 47 32 49 64 50 44 51 63 52 45 53 48 54
REMARK SMILES IDX 62 55 81 56 46 57 47 58 61 60 82 61 49 62 33 63 34 64 42 65
REMARK SMILES IDX 35 66 36 67 40 68 43 69 37 70 38 71 41 72 39 73 65 74 66 75
REMARK SMILES IDX 74 76 67 77 68 78 72 79 75 80 69 81 70 82 73 83 71 84 50 85
REMARK SMILES IDX 51 86 59 87 52 88 53 89 57 90 60 91 54 92 55 93 58 94 56 95
REMARK H PARENT 11 14 80 48 48 59
REMARK Flexibility Score: inf
ROOT
ATOM      1  O   UNL A   1      33.399  28.004  24.877  1.00  0.00    -0.462 OA
ENDROOT
BRANCH   1   2
ATOM      2  C   UNL A   1      33.091  27.001  24.007  1.00  0.00     0.310 C 
ATOM      3  O   UNL A   1      33.081  27.134  22.790  1.00  0.00    -0.252 OA
BRANCH   2   4
ATOM      4  C   UNL A   1      32.764  25.699  24.739  1.00  0.00     0.119 C 
ATOM      5  C   UNL A   1      31.862  24.795  23.856  1.00  0.00     0.100 C 
ATOM      6  C   UNL A   1      30.534  24.486  24.624  1.00  0.00     0.025 C 
ATOM      7  C   UNL A   1      32.023  26.042  26.071  1.00  0.00     0.026 C 
ATOM      8  C   UNL A   1      29.890  25.812  24.985  1.00  0.00    -0.027 C 
ATOM      9  C   UNL A   1      30.880  23.789  25.959  1.00  0.00     0.009 C 
ATOM     10  C   UNL A   1      30.651  26.605  25.755  1.00  0.00    -0.027 C 
ATOM     11  C   UNL A   1      31.779  24.711  26.819  1.00  0.00     0.009 C 
BRANCH   5  12
ATOM     12  C   UNL A   1      32.325  23.527  23.127  1.00  0.00     0.224 C 
ATOM     13  N   UNL A   1      33.583  23.216  22.760  1.00  0.00    -0.355 N 
ATOM     14  H   UNL A   1      33.623  22.491  22.094  1.00  0.00     0.163 HD
ATOM     15  O   UNL A   1      31.466  22.711  22.761  1.00  0.00    -0.275 OA
BRANCH  13  16
ATOM     16  C   UNL A   1      34.890  23.718  23.132  1.00  0.00     0.120 C 
BRANCH  16  17
ATOM     17  C   UNL A   1      35.686  22.655  23.896  1.00  0.00     0.060 C 
BRANCH  17  18
ATOM     18  C   UNL A   1      35.030  22.287  25.205  1.00  0.00    -0.004 A 
ATOM     19  C   UNL A   1      34.183  21.175  25.314  1.00  0.00     0.122 A 
ATOM     20  C   UNL A   1      33.499  20.909  26.500  1.00  0.00     0.047 A 
ATOM     21  C   UNL A   1      33.676  21.737  27.608  1.00  0.00     0.004 A 
ATOM     22  C   UNL A   1      35.206  23.108  26.331  1.00  0.00     0.007 A 
ATOM     23  C   UNL A   1      34.534  22.832  27.525  1.00  0.00     0.001 A 
BRANCH  19  24
ATOM     24  O   UNL A   1      33.924  20.371  24.237  1.00  0.00    -0.496 OA
ATOM     25  C   UNL A   1      32.585  19.870  24.264  1.00  0.00     0.278 C 
ENDBRANCH  19  24
ENDBRANCH  17  18
ENDBRANCH  16  17
ENDBRANCH  13  16
ENDBRANCH   5  12
ENDBRANCH   2   4
ENDBRANCH   1   2
BRANCH   1  26
ATOM     26  C   UNL A   1      32.966  29.320  24.463  1.00  0.00     0.274 C 
BRANCH  26  27
ATOM     27  C   UNL A   1      31.933  29.906  25.424  1.00  0.00     0.275 C 
BRANCH  27  28
ATOM     28  O   UNL A   1      32.450  29.926  26.767  1.00  0.00    -0.458 OA
BRANCH  28  29
ATOM     29  C   UNL A   1      33.063  31.072  27.136  1.00  0.00     0.338 C 
ATOM     30  O   UNL A   1      32.555  32.185  27.208  1.00  0.00    -0.246 OA
BRANCH  29  31
ATOM     31  C   UNL A   1      34.475  30.838  27.498  1.00  0.00     0.060 A 
ATOM     32  C   UNL A   1      34.979  29.545  27.590  1.00  0.00     0.016 A 
ATOM     33  C   UNL A   1      35.249  31.909  27.944  1.00  0.00     0.016 A 
ATOM     34  C   UNL A   1      36.144  29.305  28.322  1.00  0.00     0.010 A 
ATOM     35  C   UNL A   1      36.498  31.673  28.530  1.00  0.00     0.010 A 
ATOM     36  C   UNL A   1      36.930  30.363  28.805  1.00  0.00    -0.014 A 
BRANCH  36  37
ATOM     37  C   UNL A   1      38.142  30.124  29.652  1.00  0.00     0.031 A 
ATOM     38  C   UNL A   1      39.311  29.339  29.100  1.00  0.00     0.074 A 
ATOM     39  C   UNL A   1      38.243  30.609  30.907  1.00  0.00     0.049 A 
ATOM     40  N   UNL A   1      40.311  28.773  29.734  1.00  0.00    -0.248 NA
ATOM     41  C   UNL A   1      39.345  29.137  27.643  1.00  0.00     0.031 C 
ATOM     42  C   UNL A   1      37.252  31.443  31.584  1.00  0.00     0.029 A 
ATOM     43  N   UNL A   1      39.252  30.485  31.835  1.00  0.00    -0.354 N 
ATOM     44  C   UNL A   1      41.022  28.064  28.772  1.00  0.00     0.074 A 
ATOM     45  C   UNL A   1      40.355  28.290  27.507  1.00  0.00     0.031 C 
ATOM     46  C   UNL A   1      37.735  31.828  32.775  1.00  0.00     0.029 A 
ATOM     47  C   UNL A   1      39.017  31.170  33.002  1.00  0.00     0.049 A 
ATOM     48  H   UNL A   1      40.066  29.955  31.677  1.00  0.00     0.167 HD
ATOM     49  C   UNL A   1      42.122  27.289  28.932  1.00  0.00     0.037 A 
ATOM     50  C   UNL A   1      39.724  31.233  34.146  1.00  0.00     0.037 A 
ATOM     51  C   UNL A   1      42.858  27.164  30.164  1.00  0.00     0.049 A 
ATOM     52  C   UNL A   1      40.961  30.397  34.299  1.00  0.00     0.074 A 
ATOM     53  C   UNL A   1      43.983  26.401  30.430  1.00  0.00     0.029 A 
ATOM     54  N   UNL A   1      42.567  27.862  31.327  1.00  0.00    -0.354 N 
ATOM     55  N   UNL A   1      41.536  29.603  33.430  1.00  0.00    -0.248 NA
ATOM     56  C   UNL A   1      41.625  30.435  35.610  1.00  0.00     0.031 C 
ATOM     57  C   UNL A   1      44.368  26.632  31.757  1.00  0.00     0.029 A 
ATOM     58  C   UNL A   1      43.499  27.558  32.308  1.00  0.00     0.049 A 
ATOM     59  H   UNL A   1      41.811  28.482  31.438  1.00  0.00     0.167 HD
ATOM     60  C   UNL A   1      42.624  29.045  34.086  1.00  0.00     0.074 A 
ATOM     61  C   UNL A   1      42.646  29.609  35.419  1.00  0.00     0.031 C 
ATOM     62  C   UNL A   1      43.514  28.132  33.627  1.00  0.00     0.037 A 
BRANCH  49  63
ATOM     63  C   UNL A   1      42.576  26.476  27.755  1.00  0.00     0.064 A 
ATOM     64  C   UNL A   1      42.112  25.175  27.515  1.00  0.00     0.173 A 
ATOM     65  C   UNL A   1      43.478  27.030  26.831  1.00  0.00     0.173 A 
ATOM     66  F   UNL A   1      41.257  24.596  28.371  1.00  0.00    -0.203 F 
ATOM     67  C   UNL A   1      42.559  24.448  26.414  1.00  0.00     0.198 A 
ATOM     68  C   UNL A   1      43.902  26.311  25.717  1.00  0.00     0.198 A 
ATOM     69  F   UNL A   1      43.946  28.276  27.007  1.00  0.00    -0.203 F 
ATOM     70  F   UNL A   1      42.139  23.188  26.231  1.00  0.00    -0.200 F 
ATOM     71  C   UNL A   1      43.448  25.017  25.514  1.00  0.00     0.200 A 
ATOM     72  F   UNL A   1      44.749  26.869  24.842  1.00  0.00    -0.200 F 
ATOM     73  F   UNL A   1      43.872  24.316  24.453  1.00  0.00    -0.200 F 
ENDBRANCH  49  63
BRANCH  50  74
ATOM     74  C   UNL A   1      39.252  32.103  35.252  1.00  0.00     0.064 A 
ATOM     75  C   UNL A   1      38.488  31.571  36.301  1.00  0.00     0.173 A 
ATOM     76  C   UNL A   1      39.576  33.466  35.305  1.00  0.00     0.173 A 
ATOM     77  F   UNL A   1      38.128  30.279  36.278  1.00  0.00    -0.203 F 
ATOM     78  C   UNL A   1      38.074  32.370  37.364  1.00  0.00     0.198 A 
ATOM     79  C   UNL A   1      39.185  34.257  36.382  1.00  0.00     0.198 A 
ATOM     80  F   UNL A   1      40.300  34.022  34.322  1.00  0.00    -0.203 F 
ATOM     81  F   UNL A   1      37.324  31.844  38.341  1.00  0.00    -0.200 F 
ATOM     82  C   UNL A   1      38.432  33.709  37.410  1.00  0.00     0.200 A 
ATOM     83  F   UNL A   1      39.545  35.547  36.430  1.00  0.00    -0.200 F 
ATOM     84  F   UNL A   1      38.050  34.472  38.443  1.00  0.00    -0.200 F 
ENDBRANCH  50  74
BRANCH  62  85
ATOM     85  C   UNL A   1      44.600  27.710  34.567  1.00  0.00     0.064 A 
ATOM     86  C   UNL A   1      44.463  26.574  35.377  1.00  0.00     0.173 A 
ATOM     87  C   UNL A   1      45.795  28.439  34.645  1.00  0.00     0.173 A 
ATOM     88  F   UNL A   1      43.331  25.857  35.348  1.00  0.00    -0.203 F 
ATOM     89  C   UNL A   1      45.480  26.193  36.249  1.00  0.00     0.198 A 
ATOM     90  C   UNL A   1      46.817  28.044  35.506  1.00  0.00     0.198 A 
ATOM     91  F   UNL A   1      45.971  29.532  33.889  1.00  0.00    -0.203 F 
ATOM     92  F   UNL A   1      45.315  25.127  37.044  1.00  0.00    -0.200 F 
ATOM     93  C   UNL A   1      46.656  26.926  36.310  1.00  0.00     0.200 A 
ATOM     94  F   UNL A   1      47.955  28.750  35.561  1.00  0.00    -0.200 F 
ATOM     95  F   UNL A   1      47.631  26.559  37.152  1.00  0.00    -0.200 F 
ENDBRANCH  62  85
ENDBRANCH  36  37
ENDBRANCH  29  31
ENDBRANCH  28  29
ENDBRANCH  27  28
ENDBRANCH  26  27
ENDBRANCH   1  26
TORSDOF 16
ENDMDL
