MODEL 1
REMARK VINA RESULT:     -10.1      0.000      0.000
REMARK SMILES O=C(OCCOC(=O)[C@H]1C[C@](F)(c2cccc(F)c2)C1)c1ccc(-c2c3nc(c(-c4c(F)c(F)c(F)c(F)c4F)c4ccc([nH]4)c(-c4c(F)c(F)c(F)c(F)c4F)c4nc(c(-c5c(F)c(F)c(F)c(F)c5F)c5ccc2[nH]5)C=C4)C=C3)cc1
REMARK SMILES IDX 4 1 3 2 2 3 1 4 21 5 22 6 83 7 23 8 82 9 24 10 25 11 26 12
REMARK SMILES IDX 76 13 27 14 81 15 75 16 77 17 28 18 80 19 74 20 73 21 29 23
REMARK SMILES IDX 61 24 41 25 60 26 42 27 45 28 59 29 78 30 43 31 44 32 58 34
REMARK SMILES IDX 79 35 46 36 30 37 31 38 39 39 32 40 33 41 37 42 40 43 34 44
REMARK SMILES IDX 35 45 38 46 36 47 62 48 63 49 71 50 64 51 65 52 69 53 72 54
REMARK SMILES IDX 66 55 67 56 70 57 68 58 47 59 48 60 56 61 49 62 50 63 54 64
REMARK SMILES IDX 57 65 51 66 52 67 55 68 53 69 5 70 6 71 7 72 8 73 9 74 10 75
REMARK SMILES IDX 20 76 11 77 12 78 13 79 14 80 19 81 15 82 17 83 16 84 18 85
REMARK H PARENT 77 22 45 33
REMARK Flexibility Score: inf
ROOT
ATOM      1  C   UNL A   1      43.101  18.415  26.145  1.00  0.00     0.275 C 
ENDROOT
BRANCH   1   2
ATOM      2  O   UNL A   1      41.926  19.039  25.616  1.00  0.00    -0.458 OA
BRANCH   2   3
ATOM      3  C   UNL A   1      41.132  19.978  26.176  1.00  0.00     0.338 C 
ATOM      4  O   UNL A   1      39.918  19.776  26.201  1.00  0.00    -0.246 OA
BRANCH   3   5
ATOM      5  C   UNL A   1      41.620  21.321  26.636  1.00  0.00     0.060 A 
ATOM      6  C   UNL A   1      41.907  22.438  25.846  1.00  0.00     0.016 A 
ATOM      7  C   UNL A   1      41.763  21.462  28.022  1.00  0.00     0.016 A 
ATOM      8  C   UNL A   1      42.196  23.687  26.419  1.00  0.00     0.010 A 
ATOM      9  C   UNL A   1      42.041  22.704  28.593  1.00  0.00     0.010 A 
ATOM     10  C   UNL A   1      42.216  23.845  27.802  1.00  0.00    -0.014 A 
BRANCH  10  11
ATOM     11  C   UNL A   1      42.485  25.164  28.432  1.00  0.00     0.031 A 
ATOM     12  C   UNL A   1      43.868  25.442  28.949  1.00  0.00     0.074 A 
ATOM     13  C   UNL A   1      41.514  26.094  28.565  1.00  0.00     0.049 A 
ATOM     14  N   UNL A   1      44.338  26.525  29.511  1.00  0.00    -0.248 NA
ATOM     15  C   UNL A   1      44.862  24.362  28.809  1.00  0.00     0.031 C 
ATOM     16  C   UNL A   1      40.137  25.968  28.087  1.00  0.00     0.029 A 
ATOM     17  N   UNL A   1      41.530  27.339  29.153  1.00  0.00    -0.354 N 
ATOM     18  C   UNL A   1      45.680  26.265  29.744  1.00  0.00     0.074 A 
ATOM     19  C   UNL A   1      45.924  24.888  29.393  1.00  0.00     0.031 C 
ATOM     20  C   UNL A   1      39.429  27.053  28.445  1.00  0.00     0.029 A 
ATOM     21  C   UNL A   1      40.312  27.980  29.141  1.00  0.00     0.049 A 
ATOM     22  H   UNL A   1      42.341  27.734  29.548  1.00  0.00     0.167 HD
ATOM     23  C   UNL A   1      46.648  27.127  30.125  1.00  0.00     0.037 A 
ATOM     24  C   UNL A   1      39.954  29.194  29.605  1.00  0.00     0.037 A 
ATOM     25  C   UNL A   1      46.411  28.502  30.448  1.00  0.00     0.049 A 
ATOM     26  C   UNL A   1      41.031  30.101  30.137  1.00  0.00     0.074 A 
ATOM     27  C   UNL A   1      47.325  29.471  30.814  1.00  0.00     0.029 A 
ATOM     28  N   UNL A   1      45.160  29.101  30.445  1.00  0.00    -0.354 N 
ATOM     29  N   UNL A   1      42.318  29.876  30.242  1.00  0.00    -0.248 NA
ATOM     30  C   UNL A   1      40.620  31.448  30.559  1.00  0.00     0.031 C 
ATOM     31  C   UNL A   1      46.622  30.649  31.073  1.00  0.00     0.029 A 
ATOM     32  C   UNL A   1      45.275  30.425  30.827  1.00  0.00     0.049 A 
ATOM     33  H   UNL A   1      44.317  28.652  30.207  1.00  0.00     0.167 HD
ATOM     34  C   UNL A   1      42.878  31.065  30.687  1.00  0.00     0.074 A 
ATOM     35  C   UNL A   1      41.790  32.010  30.831  1.00  0.00     0.031 C 
ATOM     36  C   UNL A   1      44.177  31.351  30.942  1.00  0.00     0.037 A 
BRANCH  23  37
ATOM     37  C   UNL A   1      48.051  26.607  30.141  1.00  0.00     0.064 A 
ATOM     38  C   UNL A   1      48.530  25.850  31.216  1.00  0.00     0.173 A 
ATOM     39  C   UNL A   1      48.929  26.874  29.077  1.00  0.00     0.173 A 
ATOM     40  F   UNL A   1      47.729  25.564  32.253  1.00  0.00    -0.203 F 
ATOM     41  C   UNL A   1      49.842  25.380  31.229  1.00  0.00     0.198 A 
ATOM     42  C   UNL A   1      50.230  26.381  29.080  1.00  0.00     0.198 A 
ATOM     43  F   UNL A   1      48.508  27.575  28.013  1.00  0.00    -0.203 F 
ATOM     44  F   UNL A   1      50.287  24.670  32.274  1.00  0.00    -0.200 F 
ATOM     45  C   UNL A   1      50.687  25.641  30.159  1.00  0.00     0.200 A 
ATOM     46  F   UNL A   1      51.032  26.607  28.031  1.00  0.00    -0.200 F 
ATOM     47  F   UNL A   1      51.942  25.171  30.165  1.00  0.00    -0.200 F 
ENDBRANCH  23  37
BRANCH  24  48
ATOM     48  C   UNL A   1      38.543  29.660  29.509  1.00  0.00     0.064 A 
ATOM     49  C   UNL A   1      37.751  29.833  30.654  1.00  0.00     0.173 A 
ATOM     50  C   UNL A   1      37.966  29.974  28.270  1.00  0.00     0.173 A 
ATOM     51  F   UNL A   1      38.248  29.541  31.865  1.00  0.00    -0.203 F 
ATOM     52  C   UNL A   1      36.443  30.314  30.563  1.00  0.00     0.198 A 
ATOM     53  C   UNL A   1      36.667  30.475  28.181  1.00  0.00     0.198 A 
ATOM     54  F   UNL A   1      38.684  29.838  27.146  1.00  0.00    -0.203 F 
ATOM     55  F   UNL A   1      35.708  30.466  31.672  1.00  0.00    -0.200 F 
ATOM     56  C   UNL A   1      35.906  30.644  29.327  1.00  0.00     0.200 A 
ATOM     57  F   UNL A   1      36.162  30.814  26.986  1.00  0.00    -0.200 F 
ATOM     58  F   UNL A   1      34.661  31.132  29.243  1.00  0.00    -0.200 F 
ENDBRANCH  24  48
BRANCH  36  59
ATOM     59  C   UNL A   1      44.509  32.746  31.379  1.00  0.00     0.064 A 
ATOM     60  C   UNL A   1      44.812  33.732  30.427  1.00  0.00     0.173 A 
ATOM     61  C   UNL A   1      44.624  33.077  32.736  1.00  0.00     0.173 A 
ATOM     62  F   UNL A   1      44.724  33.459  29.117  1.00  0.00    -0.203 F 
ATOM     63  C   UNL A   1      45.244  34.994  30.821  1.00  0.00     0.198 A 
ATOM     64  C   UNL A   1      45.023  34.351  33.126  1.00  0.00     0.198 A 
ATOM     65  F   UNL A   1      44.330  32.170  33.679  1.00  0.00    -0.203 F 
ATOM     66  F   UNL A   1      45.577  35.905  29.897  1.00  0.00    -0.200 F 
ATOM     67  C   UNL A   1      45.348  35.303  32.169  1.00  0.00     0.200 A 
ATOM     68  F   UNL A   1      45.097  34.657  34.428  1.00  0.00    -0.200 F 
ATOM     69  F   UNL A   1      45.759  36.520  32.548  1.00  0.00    -0.200 F 
ENDBRANCH  36  59
ENDBRANCH  10  11
ENDBRANCH   3   5
ENDBRANCH   2   3
ENDBRANCH   1   2
BRANCH   1  70
ATOM     70  C   UNL A   1      44.375  18.648  25.324  1.00  0.00     0.274 C 
BRANCH  70  71
ATOM     71  O   UNL A   1      44.374  19.853  24.528  1.00  0.00    -0.462 OA
BRANCH  71  72
ATOM     72  C   UNL A   1      45.544  20.575  24.543  1.00  0.00     0.309 C 
ATOM     73  O   UNL A   1      46.649  20.037  24.478  1.00  0.00    -0.252 OA
BRANCH  72  74
ATOM     74  C   UNL A   1      45.354  22.111  24.677  1.00  0.00     0.106 C 
ATOM     75  C   UNL A   1      46.343  23.116  24.070  1.00  0.00     0.061 C 
ATOM     76  C   UNL A   1      45.658  22.717  26.060  1.00  0.00     0.061 C 
ATOM     77  C   UNL A   1      46.333  23.945  25.385  1.00  0.00     0.137 C 
ATOM     78  F   UNL A   1      47.576  24.193  25.855  1.00  0.00    -0.239 F 
BRANCH  77  79
ATOM     79  C   UNL A   1      45.645  25.374  25.451  1.00  0.00    -0.008 A 
ATOM     80  C   UNL A   1      46.310  26.478  26.041  1.00  0.00     0.007 A 
ATOM     81  C   UNL A   1      44.287  25.573  25.137  1.00  0.00     0.046 A 
ATOM     82  C   UNL A   1      45.657  27.688  26.311  1.00  0.00     0.003 A 
ATOM     83  C   UNL A   1      43.641  26.777  25.404  1.00  0.00     0.123 A 
ATOM     84  C   UNL A   1      44.312  27.835  25.993  1.00  0.00     0.039 A 
ATOM     85  F   UNL A   1      42.336  26.892  25.125  1.00  0.00    -0.207 F 
ENDBRANCH  77  79
ENDBRANCH  72  74
ENDBRANCH  71  72
ENDBRANCH  70  71
ENDBRANCH   1  70
TORSDOF 12
ENDMDL
MODEL 2
REMARK VINA RESULT:     -10.0      3.898      5.752
REMARK SMILES O=C(OCCOC(=O)[C@H]1C[C@](F)(c2cccc(F)c2)C1)c1ccc(-c2c3nc(c(-c4c(F)c(F)c(F)c(F)c4F)c4ccc([nH]4)c(-c4c(F)c(F)c(F)c(F)c4F)c4nc(c(-c5c(F)c(F)c(F)c(F)c5F)c5ccc2[nH]5)C=C4)C=C3)cc1
REMARK SMILES IDX 4 1 3 2 2 3 1 4 21 5 22 6 83 7 23 8 82 9 24 10 25 11 26 12
REMARK SMILES IDX 76 13 27 14 81 15 75 16 77 17 28 18 80 19 74 20 73 21 29 23
REMARK SMILES IDX 61 24 41 25 60 26 42 27 45 28 59 29 78 30 43 31 44 32 58 34
REMARK SMILES IDX 79 35 46 36 30 37 31 38 39 39 32 40 33 41 37 42 40 43 34 44
REMARK SMILES IDX 35 45 38 46 36 47 62 48 63 49 71 50 64 51 65 52 69 53 72 54
REMARK SMILES IDX 66 55 67 56 70 57 68 58 47 59 48 60 56 61 49 62 50 63 54 64
REMARK SMILES IDX 57 65 51 66 52 67 55 68 53 69 5 70 6 71 7 72 8 73 9 74 10 75
REMARK SMILES IDX 20 76 11 77 12 78 13 79 14 80 19 81 15 82 17 83 16 84 18 85
REMARK H PARENT 77 22 45 33
REMARK Flexibility Score: inf
ROOT
ATOM      1  C   UNL A   1      45.659  22.593  24.320  1.00  0.00     0.275 C 
ENDROOT
BRANCH   1   2
ATOM      2  O   UNL A   1      44.659  23.551  24.683  1.00  0.00    -0.458 OA
BRANCH   2   3
ATOM      3  C   UNL A   1      44.807  24.843  25.050  1.00  0.00     0.338 C 
ATOM      4  O   UNL A   1      45.783  25.462  24.626  1.00  0.00    -0.246 OA
BRANCH   3   5
ATOM      5  C   UNL A   1      43.939  25.530  26.064  1.00  0.00     0.060 A 
ATOM      6  C   UNL A   1      42.769  25.042  26.654  1.00  0.00     0.016 A 
ATOM      7  C   UNL A   1      44.389  26.789  26.482  1.00  0.00     0.016 A 
ATOM      8  C   UNL A   1      42.144  25.718  27.713  1.00  0.00     0.010 A 
ATOM      9  C   UNL A   1      43.776  27.457  27.542  1.00  0.00     0.010 A 
ATOM     10  C   UNL A   1      42.671  26.909  28.203  1.00  0.00    -0.014 A 
BRANCH  10  11
ATOM     11  C   UNL A   1      42.048  27.626  29.347  1.00  0.00     0.031 A 
ATOM     12  C   UNL A   1      42.653  27.457  30.712  1.00  0.00     0.074 A 
ATOM     13  C   UNL A   1      40.949  28.395  29.185  1.00  0.00     0.049 A 
ATOM     14  N   UNL A   1      42.296  28.001  31.846  1.00  0.00    -0.248 NA
ATOM     15  C   UNL A   1      43.823  26.566  30.818  1.00  0.00     0.031 C 
ATOM     16  C   UNL A   1      40.274  28.666  27.916  1.00  0.00     0.029 A 
ATOM     17  N   UNL A   1      40.192  29.092  30.099  1.00  0.00    -0.354 N 
ATOM     18  C   UNL A   1      43.221  27.551  32.776  1.00  0.00     0.074 A 
ATOM     19  C   UNL A   1      44.071  26.591  32.116  1.00  0.00     0.031 C 
ATOM     20  C   UNL A   1      39.181  29.417  28.132  1.00  0.00     0.029 A 
ATOM     21  C   UNL A   1      39.097  29.725  29.553  1.00  0.00     0.049 A 
ATOM     22  H   UNL A   1      40.414  29.135  31.057  1.00  0.00     0.167 HD
ATOM     23  C   UNL A   1      43.410  27.973  34.046  1.00  0.00     0.037 A 
ATOM     24  C   UNL A   1      38.152  30.495  30.127  1.00  0.00     0.037 A 
ATOM     25  C   UNL A   1      42.583  28.947  34.694  1.00  0.00     0.049 A 
ATOM     26  C   UNL A   1      38.314  30.863  31.578  1.00  0.00     0.074 A 
ATOM     27  C   UNL A   1      42.705  29.470  35.966  1.00  0.00     0.029 A 
ATOM     28  N   UNL A   1      41.473  29.541  34.112  1.00  0.00    -0.354 N 
ATOM     29  N   UNL A   1      39.264  30.517  32.413  1.00  0.00    -0.248 NA
ATOM     30  C   UNL A   1      37.311  31.770  32.153  1.00  0.00     0.031 C 
ATOM     31  C   UNL A   1      41.643  30.354  36.171  1.00  0.00     0.029 A 
ATOM     32  C   UNL A   1      40.885  30.412  35.011  1.00  0.00     0.049 A 
ATOM     33  H   UNL A   1      41.152  29.369  33.197  1.00  0.00     0.167 HD
ATOM     34  C   UNL A   1      39.008  31.206  33.590  1.00  0.00     0.074 A 
ATOM     35  C   UNL A   1      37.812  31.991  33.361  1.00  0.00     0.031 C 
ATOM     36  C   UNL A   1      39.705  31.198  34.750  1.00  0.00     0.037 A 
BRANCH  23  37
ATOM     37  C   UNL A   1      44.597  27.425  34.774  1.00  0.00     0.064 A 
ATOM     38  C   UNL A   1      45.821  28.102  34.776  1.00  0.00     0.173 A 
ATOM     39  C   UNL A   1      44.514  26.206  35.469  1.00  0.00     0.173 A 
ATOM     40  F   UNL A   1      45.948  29.272  34.132  1.00  0.00    -0.203 F 
ATOM     41  C   UNL A   1      46.924  27.579  35.446  1.00  0.00     0.198 A 
ATOM     42  C   UNL A   1      45.609  25.700  36.160  1.00  0.00     0.198 A 
ATOM     43  F   UNL A   1      43.355  25.532  35.515  1.00  0.00    -0.203 F 
ATOM     44  F   UNL A   1      48.092  28.235  35.425  1.00  0.00    -0.200 F 
ATOM     45  C   UNL A   1      46.816  26.382  36.141  1.00  0.00     0.200 A 
ATOM     46  F   UNL A   1      45.492  24.561  36.856  1.00  0.00    -0.200 F 
ATOM     47  F   UNL A   1      47.873  25.891  36.801  1.00  0.00    -0.200 F 
ENDBRANCH  23  37
BRANCH  24  48
ATOM     48  C   UNL A   1      37.025  31.044  29.323  1.00  0.00     0.064 A 
ATOM     49  C   UNL A   1      35.925  30.249  28.968  1.00  0.00     0.173 A 
ATOM     50  C   UNL A   1      37.009  32.387  28.921  1.00  0.00     0.173 A 
ATOM     51  F   UNL A   1      35.890  28.955  29.320  1.00  0.00    -0.203 F 
ATOM     52  C   UNL A   1      34.850  30.780  28.254  1.00  0.00     0.198 A 
ATOM     53  C   UNL A   1      35.925  32.923  28.225  1.00  0.00     0.198 A 
ATOM     54  F   UNL A   1      38.030  33.194  29.245  1.00  0.00    -0.203 F 
ATOM     55  F   UNL A   1      33.814  29.997  27.924  1.00  0.00    -0.200 F 
ATOM     56  C   UNL A   1      34.847  32.119  27.892  1.00  0.00     0.200 A 
ATOM     57  F   UNL A   1      35.918  34.223  27.899  1.00  0.00    -0.200 F 
ATOM     58  F   UNL A   1      33.802  32.635  27.230  1.00  0.00    -0.200 F 
ENDBRANCH  24  48
BRANCH  36  59
ATOM     59  C   UNL A   1      39.219  32.079  35.860  1.00  0.00     0.064 A 
ATOM     60  C   UNL A   1      39.739  33.374  36.017  1.00  0.00     0.173 A 
ATOM     61  C   UNL A   1      38.315  31.608  36.823  1.00  0.00     0.173 A 
ATOM     62  F   UNL A   1      40.612  33.865  35.124  1.00  0.00    -0.203 F 
ATOM     63  C   UNL A   1      39.391  34.154  37.113  1.00  0.00     0.198 A 
ATOM     64  C   UNL A   1      37.943  32.405  37.900  1.00  0.00     0.198 A 
ATOM     65  F   UNL A   1      37.782  30.383  36.706  1.00  0.00    -0.203 F 
ATOM     66  F   UNL A   1      39.937  35.368  37.271  1.00  0.00    -0.200 F 
ATOM     67  C   UNL A   1      38.492  33.671  38.053  1.00  0.00     0.200 A 
ATOM     68  F   UNL A   1      37.055  31.947  38.793  1.00  0.00    -0.200 F 
ATOM     69  F   UNL A   1      38.153  34.426  39.106  1.00  0.00    -0.200 F 
ENDBRANCH  36  59
ENDBRANCH  10  11
ENDBRANCH   3   5
ENDBRANCH   2   3
ENDBRANCH   1   2
BRANCH   1  70
ATOM     70  C   UNL A   1      45.651  21.309  25.159  1.00  0.00     0.274 C 
BRANCH  70  71
ATOM     71  O   UNL A   1      44.970  20.191  24.552  1.00  0.00    -0.462 OA
BRANCH  71  72
ATOM     72  C   UNL A   1      44.001  19.596  25.325  1.00  0.00     0.309 C 
ATOM     73  O   UNL A   1      44.121  18.452  25.765  1.00  0.00    -0.252 OA
BRANCH  72  74
ATOM     74  C   UNL A   1      42.739  20.470  25.568  1.00  0.00     0.106 C 
ATOM     75  C   UNL A   1      42.563  21.322  26.833  1.00  0.00     0.061 C 
ATOM     76  C   UNL A   1      41.451  19.718  25.949  1.00  0.00     0.061 C 
ATOM     77  C   UNL A   1      41.097  20.827  26.981  1.00  0.00     0.137 C 
ATOM     78  F   UNL A   1      40.832  20.341  28.215  1.00  0.00    -0.239 F 
BRANCH  77  79
ATOM     79  C   UNL A   1      39.870  21.800  26.721  1.00  0.00    -0.008 A 
ATOM     80  C   UNL A   1      38.846  21.457  25.804  1.00  0.00     0.007 A 
ATOM     81  C   UNL A   1      39.840  23.122  27.206  1.00  0.00     0.046 A 
ATOM     82  C   UNL A   1      37.873  22.376  25.390  1.00  0.00     0.003 A 
ATOM     83  C   UNL A   1      38.871  24.033  26.795  1.00  0.00     0.123 A 
ATOM     84  C   UNL A   1      37.889  23.673  25.887  1.00  0.00     0.039 A 
ATOM     85  F   UNL A   1      38.920  25.290  27.256  1.00  0.00    -0.207 F 
ENDBRANCH  77  79
ENDBRANCH  72  74
ENDBRANCH  71  72
ENDBRANCH  70  71
ENDBRANCH   1  70
TORSDOF 12
ENDMDL
MODEL 3
REMARK VINA RESULT:      -9.9      1.679      2.793
REMARK SMILES O=C(OCCOC(=O)[C@H]1C[C@](F)(c2cccc(F)c2)C1)c1ccc(-c2c3nc(c(-c4c(F)c(F)c(F)c(F)c4F)c4ccc([nH]4)c(-c4c(F)c(F)c(F)c(F)c4F)c4nc(c(-c5c(F)c(F)c(F)c(F)c5F)c5ccc2[nH]5)C=C4)C=C3)cc1
REMARK SMILES IDX 4 1 3 2 2 3 1 4 21 5 22 6 83 7 23 8 82 9 24 10 25 11 26 12
REMARK SMILES IDX 76 13 27 14 81 15 75 16 77 17 28 18 80 19 74 20 73 21 29 23
REMARK SMILES IDX 61 24 41 25 60 26 42 27 45 28 59 29 78 30 43 31 44 32 58 34
REMARK SMILES IDX 79 35 46 36 30 37 31 38 39 39 32 40 33 41 37 42 40 43 34 44
REMARK SMILES IDX 35 45 38 46 36 47 62 48 63 49 71 50 64 51 65 52 69 53 72 54
REMARK SMILES IDX 66 55 67 56 70 57 68 58 47 59 48 60 56 61 49 62 50 63 54 64
REMARK SMILES IDX 57 65 51 66 52 67 55 68 53 69 5 70 6 71 7 72 8 73 9 74 10 75
REMARK SMILES IDX 20 76 11 77 12 78 13 79 14 80 19 81 15 82 17 83 16 84 18 85
REMARK H PARENT 77 22 45 33
REMARK Flexibility Score: inf
ROOT
ATOM      1  C   UNL A   1      42.277  18.657  26.562  1.00  0.00     0.275 C 
ENDROOT
BRANCH   1   2
ATOM      2  O   UNL A   1      42.030  19.788  27.406  1.00  0.00    -0.458 OA
BRANCH   2   3
ATOM      3  C   UNL A   1      41.238  20.860  27.187  1.00  0.00     0.338 C 
ATOM      4  O   UNL A   1      40.324  20.752  26.369  1.00  0.00    -0.246 OA
BRANCH   3   5
ATOM      5  C   UNL A   1      41.492  22.221  27.766  1.00  0.00     0.060 A 
ATOM      6  C   UNL A   1      42.312  22.545  28.851  1.00  0.00     0.016 A 
ATOM      7  C   UNL A   1      40.854  23.280  27.107  1.00  0.00     0.016 A 
ATOM      8  C   UNL A   1      42.594  23.878  29.186  1.00  0.00     0.010 A 
ATOM      9  C   UNL A   1      41.141  24.606  27.432  1.00  0.00     0.010 A 
ATOM     10  C   UNL A   1      42.050  24.925  28.446  1.00  0.00    -0.014 A 
BRANCH  10  11
ATOM     11  C   UNL A   1      42.361  26.345  28.759  1.00  0.00     0.031 A 
ATOM     12  C   UNL A   1      43.800  26.778  28.762  1.00  0.00     0.074 A 
ATOM     13  C   UNL A   1      41.387  27.232  29.058  1.00  0.00     0.049 A 
ATOM     14  N   UNL A   1      44.305  27.964  28.981  1.00  0.00    -0.248 NA
ATOM     15  C   UNL A   1      44.809  25.743  28.470  1.00  0.00     0.031 C 
ATOM     16  C   UNL A   1      39.951  26.955  29.067  1.00  0.00     0.029 A 
ATOM     17  N   UNL A   1      41.454  28.558  29.422  1.00  0.00    -0.354 N 
ATOM     18  C   UNL A   1      45.673  27.818  28.809  1.00  0.00     0.074 A 
ATOM     19  C   UNL A   1      45.939  26.415  28.603  1.00  0.00     0.031 C 
ATOM     20  C   UNL A   1      39.279  28.047  29.471  1.00  0.00     0.029 A 
ATOM     21  C   UNL A   1      40.231  29.123  29.706  1.00  0.00     0.049 A 
ATOM     22  H   UNL A   1      42.302  29.056  29.476  1.00  0.00     0.167 HD
ATOM     23  C   UNL A   1      46.617  28.781  28.732  1.00  0.00     0.037 A 
ATOM     24  C   UNL A   1      39.909  30.378  30.078  1.00  0.00     0.037 A 
ATOM     25  C   UNL A   1      46.350  30.177  28.910  1.00  0.00     0.049 A 
ATOM     26  C   UNL A   1      40.998  31.418  30.101  1.00  0.00     0.074 A 
ATOM     27  C   UNL A   1      47.228  31.240  28.821  1.00  0.00     0.029 A 
ATOM     28  N   UNL A   1      45.103  30.700  29.219  1.00  0.00    -0.354 N 
ATOM     29  N   UNL A   1      42.272  31.281  29.822  1.00  0.00    -0.248 NA
ATOM     30  C   UNL A   1      40.600  32.793  30.432  1.00  0.00     0.031 C 
ATOM     31  C   UNL A   1      46.519  32.407  29.115  1.00  0.00     0.029 A 
ATOM     32  C   UNL A   1      45.193  32.075  29.347  1.00  0.00     0.049 A 
ATOM     33  H   UNL A   1      44.279  30.174  29.330  1.00  0.00     0.167 HD
ATOM     34  C   UNL A   1      42.816  32.556  29.887  1.00  0.00     0.074 A 
ATOM     35  C   UNL A   1      41.732  33.454  30.232  1.00  0.00     0.031 C 
ATOM     36  C   UNL A   1      44.093  32.949  29.670  1.00  0.00     0.037 A 
BRANCH  23  37
ATOM     37  C   UNL A   1      48.004  28.345  28.375  1.00  0.00     0.064 A 
ATOM     38  C   UNL A   1      48.501  28.504  27.077  1.00  0.00     0.173 A 
ATOM     39  C   UNL A   1      48.841  27.754  29.337  1.00  0.00     0.173 A 
ATOM     40  F   UNL A   1      47.742  29.068  26.126  1.00  0.00    -0.203 F 
ATOM     41  C   UNL A   1      49.788  28.084  26.751  1.00  0.00     0.198 A 
ATOM     42  C   UNL A   1      50.135  27.360  29.015  1.00  0.00     0.198 A 
ATOM     43  F   UNL A   1      48.417  27.602  30.601  1.00  0.00    -0.203 F 
ATOM     44  F   UNL A   1      50.242  28.231  25.499  1.00  0.00    -0.200 F 
ATOM     45  C   UNL A   1      50.606  27.518  27.720  1.00  0.00     0.200 A 
ATOM     46  F   UNL A   1      50.932  26.844  29.961  1.00  0.00    -0.200 F 
ATOM     47  F   UNL A   1      51.850  27.133  27.408  1.00  0.00    -0.200 F 
ENDBRANCH  23  37
BRANCH  24  48
ATOM     48  C   UNL A   1      38.497  30.747  30.370  1.00  0.00     0.064 A 
ATOM     49  C   UNL A   1      38.024  30.844  31.688  1.00  0.00     0.173 A 
ATOM     50  C   UNL A   1      37.597  31.044  29.337  1.00  0.00     0.173 A 
ATOM     51  F   UNL A   1      38.839  30.565  32.716  1.00  0.00    -0.203 F 
ATOM     52  C   UNL A   1      36.711  31.235  31.958  1.00  0.00     0.198 A 
ATOM     53  C   UNL A   1      36.291  31.454  29.607  1.00  0.00     0.198 A 
ATOM     54  F   UNL A   1      38.001  30.979  28.060  1.00  0.00    -0.203 F 
ATOM     55  F   UNL A   1      36.285  31.315  33.225  1.00  0.00    -0.200 F 
ATOM     56  C   UNL A   1      35.849  31.549  30.917  1.00  0.00     0.200 A 
ATOM     57  F   UNL A   1      35.470  31.779  28.599  1.00  0.00    -0.200 F 
ATOM     58  F   UNL A   1      34.598  31.951  31.178  1.00  0.00    -0.200 F 
ENDBRANCH  24  48
BRANCH  36  59
ATOM     59  C   UNL A   1      44.398  34.412  29.771  1.00  0.00     0.064 A 
ATOM     60  C   UNL A   1      44.753  34.979  31.005  1.00  0.00     0.173 A 
ATOM     61  C   UNL A   1      44.240  35.267  28.671  1.00  0.00     0.173 A 
ATOM     62  F   UNL A   1      44.907  34.201  32.088  1.00  0.00    -0.203 F 
ATOM     63  C   UNL A   1      44.914  36.353  31.139  1.00  0.00     0.198 A 
ATOM     64  C   UNL A   1      44.436  36.638  28.801  1.00  0.00     0.198 A 
ATOM     65  F   UNL A   1      43.916  34.768  27.469  1.00  0.00    -0.203 F 
ATOM     66  F   UNL A   1      45.204  36.879  32.337  1.00  0.00    -0.200 F 
ATOM     67  C   UNL A   1      44.758  37.181  30.038  1.00  0.00     0.200 A 
ATOM     68  F   UNL A   1      44.311  37.434  27.731  1.00  0.00    -0.200 F 
ATOM     69  F   UNL A   1      44.919  38.505  30.166  1.00  0.00    -0.200 F 
ENDBRANCH  36  59
ENDBRANCH  10  11
ENDBRANCH   3   5
ENDBRANCH   2   3
ENDBRANCH   1   2
BRANCH   1  70
ATOM     70  C   UNL A   1      43.204  18.936  25.372  1.00  0.00     0.274 C 
BRANCH  70  71
ATOM     71  O   UNL A   1      44.614  18.850  25.667  1.00  0.00    -0.462 OA
BRANCH  71  72
ATOM     72  C   UNL A   1      45.443  19.535  24.810  1.00  0.00     0.309 C 
ATOM     73  O   UNL A   1      46.127  18.964  23.960  1.00  0.00    -0.252 OA
BRANCH  72  74
ATOM     74  C   UNL A   1      45.467  21.073  25.025  1.00  0.00     0.106 C 
ATOM     75  C   UNL A   1      44.491  21.784  25.974  1.00  0.00     0.061 C 
ATOM     76  C   UNL A   1      44.903  21.931  23.876  1.00  0.00     0.061 C 
ATOM     77  C   UNL A   1      44.225  22.881  24.904  1.00  0.00     0.137 C 
ATOM     78  F   UNL A   1      42.907  23.069  24.666  1.00  0.00    -0.239 F 
BRANCH  77  79
ATOM     79  C   UNL A   1      44.758  24.363  25.097  1.00  0.00    -0.008 A 
ATOM     80  C   UNL A   1      43.865  25.462  25.131  1.00  0.00     0.007 A 
ATOM     81  C   UNL A   1      46.126  24.688  25.024  1.00  0.00     0.046 A 
ATOM     82  C   UNL A   1      44.308  26.790  25.081  1.00  0.00     0.003 A 
ATOM     83  C   UNL A   1      46.566  26.008  24.977  1.00  0.00     0.123 A 
ATOM     84  C   UNL A   1      45.669  27.063  25.000  1.00  0.00     0.039 A 
ATOM     85  F   UNL A   1      47.877  26.256  24.864  1.00  0.00    -0.207 F 
ENDBRANCH  77  79
ENDBRANCH  72  74
ENDBRANCH  71  72
ENDBRANCH  70  71
ENDBRANCH   1  70
TORSDOF 12
ENDMDL
