MODEL 1
REMARK VINA RESULT:     -12.0      0.000      0.000
REMARK SMILES COc1ccc(OCCNc2ccc(C)cc2C(=O)OCCOC(=O)c2ccc(-c3c4nc(c(-c5c(F)c(F)c(F)c(F)c5F)c5ccc([nH]5)c(-c5c(F)c(F)c(F)c(F)c5F)c5nc(c(-c6c(F)c(F)c(F)c(F)c6F)c6ccc3[nH]6)C=C5)C=C4)cc2)cc1
REMARK SMILES IDX 18 1 19 2 17 3 11 4 12 5 13 6 16 7 14 8 15 9 10 10 9 12 8 13
REMARK SMILES IDX 7 14 6 15 3 16 4 17 90 18 5 19 89 20 2 21 1 22 20 23 21 24
REMARK SMILES IDX 22 25 23 26 24 27 25 28 26 29 27 30 88 31 28 32 87 33 29 34
REMARK SMILES IDX 30 35 31 36 81 37 32 38 86 39 80 40 82 41 33 42 85 43 79 44
REMARK SMILES IDX 78 45 34 47 66 48 46 49 65 50 47 51 50 52 64 53 83 54 48 55
REMARK SMILES IDX 49 56 63 58 84 59 51 60 35 61 36 62 44 63 37 64 38 65 42 66
REMARK SMILES IDX 45 67 39 68 40 69 43 70 41 71 67 72 68 73 76 74 69 75 70 76
REMARK SMILES IDX 74 77 77 78 71 79 72 80 75 81 73 82 52 83 53 84 61 85 54 86
REMARK SMILES IDX 55 87 59 88 62 89 56 90 57 91 60 92 58 93
REMARK H PARENT 10 11 82 46 50 57
REMARK Flexibility Score: inf
ROOT
ATOM      1  C   UNL A   1      33.452  27.014  24.555  1.00  0.00     0.340 C 
ATOM      2  O   UNL A   1      33.774  27.123  23.386  1.00  0.00    -0.246 OA
ENDROOT
BRANCH   1   3
ATOM      3  C   UNL A   1      33.452  25.714  25.272  1.00  0.00     0.083 A 
ATOM      4  C   UNL A   1      32.414  25.293  26.116  1.00  0.00     0.049 A 
ATOM      5  C   UNL A   1      32.600  24.067  26.785  1.00  0.00     0.027 A 
ATOM      6  C   UNL A   1      33.766  23.306  26.662  1.00  0.00     0.005 A 
ATOM      7  C   UNL A   1      34.617  24.926  25.120  1.00  0.00     0.021 A 
ATOM      8  C   UNL A   1      34.804  23.750  25.852  1.00  0.00    -0.050 A 
ATOM      9  C   UNL A   1      36.084  22.972  25.776  1.00  0.00     0.044 C 
BRANCH   4  10
ATOM     10  N   UNL A   1      31.202  25.918  26.316  1.00  0.00    -0.381 N 
ATOM     11  H   UNL A   1      31.206  26.679  26.942  1.00  0.00     0.160 HD
BRANCH  10  12
ATOM     12  C   UNL A   1      29.915  25.591  25.716  1.00  0.00     0.154 C 
BRANCH  12  13
ATOM     13  C   UNL A   1      29.817  26.085  24.259  1.00  0.00     0.250 C 
BRANCH  13  14
ATOM     14  O   UNL A   1      28.553  26.684  23.937  1.00  0.00    -0.492 OA
BRANCH  14  15
ATOM     15  C   UNL A   1      28.565  27.890  23.294  1.00  0.00     0.119 A 
ATOM     16  C   UNL A   1      28.886  30.452  22.222  1.00  0.00     0.119 A 
ATOM     17  C   UNL A   1      29.979  29.595  22.308  1.00  0.00     0.050 A 
ATOM     18  C   UNL A   1      27.616  29.995  22.567  1.00  0.00     0.050 A 
ATOM     19  C   UNL A   1      29.818  28.317  22.848  1.00  0.00     0.050 A 
ATOM     20  C   UNL A   1      27.455  28.710  23.091  1.00  0.00     0.050 A 
BRANCH  16  21
ATOM     21  O   UNL A   1      29.097  31.712  21.735  1.00  0.00    -0.497 OA
ATOM     22  C   UNL A   1      28.703  32.716  22.673  1.00  0.00     0.278 C 
ENDBRANCH  16  21
ENDBRANCH  14  15
ENDBRANCH  13  14
ENDBRANCH  12  13
ENDBRANCH  10  12
ENDBRANCH   4  10
ENDBRANCH   1   3
BRANCH   1  23
ATOM     23  O   UNL A   1      33.149  28.029  25.406  1.00  0.00    -0.458 OA
BRANCH  23  24
ATOM     24  C   UNL A   1      32.895  29.323  24.824  1.00  0.00     0.275 C 
BRANCH  24  25
ATOM     25  C   UNL A   1      31.925  30.112  25.698  1.00  0.00     0.275 C 
BRANCH  25  26
ATOM     26  O   UNL A   1      32.525  30.284  26.992  1.00  0.00    -0.458 OA
BRANCH  26  27
ATOM     27  C   UNL A   1      33.137  31.467  27.202  1.00  0.00     0.338 C 
ATOM     28  O   UNL A   1      32.686  32.593  27.062  1.00  0.00    -0.246 OA
BRANCH  27  29
ATOM     29  C   UNL A   1      34.476  31.198  27.737  1.00  0.00     0.060 A 
ATOM     30  C   UNL A   1      34.798  29.885  28.065  1.00  0.00     0.016 A 
ATOM     31  C   UNL A   1      35.360  32.235  28.019  1.00  0.00     0.016 A 
ATOM     32  C   UNL A   1      35.976  29.599  28.745  1.00  0.00     0.010 A 
ATOM     33  C   UNL A   1      36.583  31.936  28.627  1.00  0.00     0.010 A 
ATOM     34  C   UNL A   1      36.891  30.620  29.028  1.00  0.00    -0.014 A 
BRANCH  34  35
ATOM     35  C   UNL A   1      38.132  30.333  29.801  1.00  0.00     0.031 A 
ATOM     36  C   UNL A   1      39.193  29.452  29.198  1.00  0.00     0.074 A 
ATOM     37  C   UNL A   1      38.322  30.857  31.028  1.00  0.00     0.049 A 
ATOM     38  N   UNL A   1      40.220  28.876  29.770  1.00  0.00    -0.248 NA
ATOM     39  C   UNL A   1      39.071  29.168  27.759  1.00  0.00     0.031 C 
ATOM     40  C   UNL A   1      37.414  31.779  31.710  1.00  0.00     0.029 A 
ATOM     41  N   UNL A   1      39.350  30.683  31.924  1.00  0.00    -0.354 N 
ATOM     42  C   UNL A   1      40.816  28.101  28.783  1.00  0.00     0.074 A 
ATOM     43  C   UNL A   1      40.046  28.290  27.572  1.00  0.00     0.031 C 
ATOM     44  C   UNL A   1      37.934  32.111  32.901  1.00  0.00     0.029 A 
ATOM     45  C   UNL A   1      39.160  31.349  33.111  1.00  0.00     0.049 A 
ATOM     46  H   UNL A   1      40.145  30.134  31.734  1.00  0.00     0.167 HD
ATOM     47  C   UNL A   1      41.903  27.299  28.886  1.00  0.00     0.037 A 
ATOM     48  C   UNL A   1      39.860  31.308  34.262  1.00  0.00     0.037 A 
ATOM     49  C   UNL A   1      42.705  27.177  30.076  1.00  0.00     0.049 A 
ATOM     50  C   UNL A   1      41.053  30.397  34.359  1.00  0.00     0.074 A 
ATOM     51  C   UNL A   1      43.840  26.412  30.278  1.00  0.00     0.029 A 
ATOM     52  N   UNL A   1      42.466  27.858  31.261  1.00  0.00    -0.354 N 
ATOM     53  N   UNL A   1      41.569  29.609  33.447  1.00  0.00    -0.248 NA
ATOM     54  C   UNL A   1      41.747  30.353  35.652  1.00  0.00     0.031 C 
ATOM     55  C   UNL A   1      44.269  26.604  31.595  1.00  0.00     0.029 A 
ATOM     56  C   UNL A   1      43.427  27.521  32.201  1.00  0.00     0.049 A 
ATOM     57  H   UNL A   1      41.724  28.486  31.411  1.00  0.00     0.167 HD
ATOM     58  C   UNL A   1      42.648  28.981  34.051  1.00  0.00     0.074 A 
ATOM     59  C   UNL A   1      42.729  29.499  35.402  1.00  0.00     0.031 C 
ATOM     60  C   UNL A   1      43.491  28.052  33.538  1.00  0.00     0.037 A 
BRANCH  47  61
ATOM     61  C   UNL A   1      42.264  26.455  27.699  1.00  0.00     0.064 A 
ATOM     62  C   UNL A   1      43.264  26.828  26.790  1.00  0.00     0.173 A 
ATOM     63  C   UNL A   1      41.614  25.227  27.491  1.00  0.00     0.173 A 
ATOM     64  F   UNL A   1      43.905  27.997  26.935  1.00  0.00    -0.203 F 
ATOM     65  C   UNL A   1      43.585  26.015  25.706  1.00  0.00     0.198 A 
ATOM     66  C   UNL A   1      41.958  24.404  26.422  1.00  0.00     0.198 A 
ATOM     67  F   UNL A   1      40.653  24.820  28.333  1.00  0.00    -0.203 F 
ATOM     68  F   UNL A   1      44.515  26.412  24.825  1.00  0.00    -0.200 F 
ATOM     69  C   UNL A   1      42.939  24.801  25.527  1.00  0.00     0.200 A 
ATOM     70  F   UNL A   1      41.340  23.226  26.260  1.00  0.00    -0.200 F 
ATOM     71  F   UNL A   1      43.256  24.016  24.488  1.00  0.00    -0.200 F 
ENDBRANCH  47  61
BRANCH  48  72
ATOM     72  C   UNL A   1      39.410  32.108  35.431  1.00  0.00     0.064 A 
ATOM     73  C   UNL A   1      39.853  33.424  35.622  1.00  0.00     0.173 A 
ATOM     74  C   UNL A   1      38.523  31.576  36.379  1.00  0.00     0.173 A 
ATOM     75  F   UNL A   1      40.724  33.967  34.760  1.00  0.00    -0.203 F 
ATOM     76  C   UNL A   1      39.430  34.174  36.718  1.00  0.00     0.198 A 
ATOM     77  C   UNL A   1      38.075  32.337  37.456  1.00  0.00     0.198 A 
ATOM     78  F   UNL A   1      38.072  30.319  36.248  1.00  0.00    -0.203 F 
ATOM     79  F   UNL A   1      39.901  35.415  36.899  1.00  0.00    -0.200 F 
ATOM     80  C   UNL A   1      38.534  33.633  37.628  1.00  0.00     0.200 A 
ATOM     81  F   UNL A   1      37.198  31.815  38.324  1.00  0.00    -0.200 F 
ATOM     82  F   UNL A   1      38.119  34.359  38.675  1.00  0.00    -0.200 F 
ENDBRANCH  48  72
BRANCH  60  83
ATOM     83  C   UNL A   1      44.589  27.560  34.432  1.00  0.00     0.064 A 
ATOM     84  C   UNL A   1      44.388  26.499  35.327  1.00  0.00     0.173 A 
ATOM     85  C   UNL A   1      45.866  28.138  34.372  1.00  0.00     0.173 A 
ATOM     86  F   UNL A   1      43.179  25.926  35.433  1.00  0.00    -0.203 F 
ATOM     87  C   UNL A   1      45.420  26.050  36.146  1.00  0.00     0.198 A 
ATOM     88  C   UNL A   1      46.903  27.669  35.173  1.00  0.00     0.198 A 
ATOM     89  F   UNL A   1      46.110  29.153  33.528  1.00  0.00    -0.203 F 
ATOM     90  F   UNL A   1      45.193  25.066  37.027  1.00  0.00    -0.200 F 
ATOM     91  C   UNL A   1      46.677  26.631  36.064  1.00  0.00     0.200 A 
ATOM     92  F   UNL A   1      48.120  28.224  35.085  1.00  0.00    -0.200 F 
ATOM     93  F   UNL A   1      47.670  26.194  36.851  1.00  0.00    -0.200 F 
ENDBRANCH  60  83
ENDBRANCH  34  35
ENDBRANCH  27  29
ENDBRANCH  26  27
ENDBRANCH  25  26
ENDBRANCH  24  25
ENDBRANCH  23  24
ENDBRANCH   1  23
TORSDOF 17
ENDMDL
MODEL 2
REMARK VINA RESULT:     -11.8      1.498      3.271
REMARK SMILES COc1ccc(OCCNc2ccc(C)cc2C(=O)OCCOC(=O)c2ccc(-c3c4nc(c(-c5c(F)c(F)c(F)c(F)c5F)c5ccc([nH]5)c(-c5c(F)c(F)c(F)c(F)c5F)c5nc(c(-c6c(F)c(F)c(F)c(F)c6F)c6ccc3[nH]6)C=C5)C=C4)cc2)cc1
REMARK SMILES IDX 18 1 19 2 17 3 11 4 12 5 13 6 16 7 14 8 15 9 10 10 9 12 8 13
REMARK SMILES IDX 7 14 6 15 3 16 4 17 90 18 5 19 89 20 2 21 1 22 20 23 21 24
REMARK SMILES IDX 22 25 23 26 24 27 25 28 26 29 27 30 88 31 28 32 87 33 29 34
REMARK SMILES IDX 30 35 31 36 81 37 32 38 86 39 80 40 82 41 33 42 85 43 79 44
REMARK SMILES IDX 78 45 34 47 66 48 46 49 65 50 47 51 50 52 64 53 83 54 48 55
REMARK SMILES IDX 49 56 63 58 84 59 51 60 35 61 36 62 44 63 37 64 38 65 42 66
REMARK SMILES IDX 45 67 39 68 40 69 43 70 41 71 67 72 68 73 76 74 69 75 70 76
REMARK SMILES IDX 74 77 77 78 71 79 72 80 75 81 73 82 52 83 53 84 61 85 54 86
REMARK SMILES IDX 55 87 59 88 62 89 56 90 57 91 60 92 58 93
REMARK H PARENT 10 11 82 46 50 57
REMARK Flexibility Score: inf
ROOT
ATOM      1  C   UNL A   1      31.421  26.571  26.306  1.00  0.00     0.340 C 
ATOM      2  O   UNL A   1      30.290  26.120  26.310  1.00  0.00    -0.246 OA
ENDROOT
BRANCH   1   3
ATOM      3  C   UNL A   1      32.626  25.718  26.149  1.00  0.00     0.083 A 
ATOM      4  C   UNL A   1      33.693  26.031  25.294  1.00  0.00     0.049 A 
ATOM      5  C   UNL A   1      34.728  25.079  25.198  1.00  0.00     0.027 A 
ATOM      6  C   UNL A   1      34.701  23.860  25.880  1.00  0.00     0.005 A 
ATOM      7  C   UNL A   1      32.617  24.498  26.866  1.00  0.00     0.021 A 
ATOM      8  C   UNL A   1      33.622  23.542  26.696  1.00  0.00    -0.050 A 
ATOM      9  C   UNL A   1      33.558  22.204  27.370  1.00  0.00     0.044 C 
BRANCH   4  10
ATOM     10  N   UNL A   1      33.871  27.198  24.582  1.00  0.00    -0.381 N 
ATOM     11  H   UNL A   1      34.185  27.975  25.099  1.00  0.00     0.160 HD
BRANCH  10  12
ATOM     12  C   UNL A   1      33.650  27.424  23.160  1.00  0.00     0.154 C 
BRANCH  12  13
ATOM     13  C   UNL A   1      32.190  27.149  22.753  1.00  0.00     0.250 C 
BRANCH  13  14
ATOM     14  O   UNL A   1      32.045  26.074  21.812  1.00  0.00    -0.492 OA
BRANCH  14  15
ATOM     15  C   UNL A   1      32.077  24.795  22.296  1.00  0.00     0.119 A 
ATOM     16  C   UNL A   1      32.086  22.345  23.639  1.00  0.00     0.119 A 
ATOM     17  C   UNL A   1      31.022  23.224  23.810  1.00  0.00     0.050 A 
ATOM     18  C   UNL A   1      33.089  22.637  22.718  1.00  0.00     0.050 A 
ATOM     19  C   UNL A   1      31.020  24.450  23.142  1.00  0.00     0.050 A 
ATOM     20  C   UNL A   1      33.076  23.857  22.037  1.00  0.00     0.050 A 
BRANCH  16  21
ATOM     21  O   UNL A   1      32.073  21.177  24.351  1.00  0.00    -0.497 OA
ATOM     22  C   UNL A   1      33.337  20.512  24.302  1.00  0.00     0.278 C 
ENDBRANCH  16  21
ENDBRANCH  14  15
ENDBRANCH  13  14
ENDBRANCH  12  13
ENDBRANCH  10  12
ENDBRANCH   4  10
ENDBRANCH   1   3
BRANCH   1  23
ATOM     23  O   UNL A   1      31.766  27.884  26.338  1.00  0.00    -0.458 OA
BRANCH  23  24
ATOM     24  C   UNL A   1      31.036  28.778  25.474  1.00  0.00     0.275 C 
BRANCH  24  25
ATOM     25  C   UNL A   1      31.760  30.117  25.369  1.00  0.00     0.275 C 
BRANCH  25  26
ATOM     26  O   UNL A   1      32.985  30.025  26.114  1.00  0.00    -0.458 OA
BRANCH  26  27
ATOM     27  C   UNL A   1      33.266  31.074  26.912  1.00  0.00     0.338 C 
ATOM     28  O   UNL A   1      32.552  32.021  27.205  1.00  0.00    -0.246 OA
BRANCH  27  29
ATOM     29  C   UNL A   1      34.600  30.866  27.486  1.00  0.00     0.060 A 
ATOM     30  C   UNL A   1      34.990  29.564  27.780  1.00  0.00     0.016 A 
ATOM     31  C   UNL A   1      35.409  31.942  27.834  1.00  0.00     0.016 A 
ATOM     32  C   UNL A   1      36.159  29.323  28.492  1.00  0.00     0.010 A 
ATOM     33  C   UNL A   1      36.627  31.695  28.475  1.00  0.00     0.010 A 
ATOM     34  C   UNL A   1      37.001  30.386  28.842  1.00  0.00    -0.014 A 
BRANCH  34  35
ATOM     35  C   UNL A   1      38.230  30.145  29.649  1.00  0.00     0.031 A 
ATOM     36  C   UNL A   1      39.326  29.281  29.087  1.00  0.00     0.074 A 
ATOM     37  C   UNL A   1      38.378  30.697  30.869  1.00  0.00     0.049 A 
ATOM     38  N   UNL A   1      40.354  28.742  29.693  1.00  0.00    -0.248 NA
ATOM     39  C   UNL A   1      39.246  28.967  27.652  1.00  0.00     0.031 C 
ATOM     40  C   UNL A   1      37.431  31.608  31.512  1.00  0.00     0.029 A 
ATOM     41  N   UNL A   1      39.389  30.566  31.792  1.00  0.00    -0.354 N 
ATOM     42  C   UNL A   1      40.992  27.964  28.736  1.00  0.00     0.074 A 
ATOM     43  C   UNL A   1      40.247  28.110  27.505  1.00  0.00     0.031 C 
ATOM     44  C   UNL A   1      37.915  31.976  32.708  1.00  0.00     0.029 A 
ATOM     45  C   UNL A   1      39.155  31.250  32.961  1.00  0.00     0.049 A 
ATOM     46  H   UNL A   1      40.201  30.034  31.631  1.00  0.00     0.167 HD
ATOM     47  C   UNL A   1      42.096  27.192  28.880  1.00  0.00     0.037 A 
ATOM     48  C   UNL A   1      39.828  31.248  34.128  1.00  0.00     0.037 A 
ATOM     49  C   UNL A   1      42.873  27.113  30.089  1.00  0.00     0.049 A 
ATOM     50  C   UNL A   1      41.041  30.370  34.270  1.00  0.00     0.074 A 
ATOM     51  C   UNL A   1      44.022  26.381  30.333  1.00  0.00     0.029 A 
ATOM     52  N   UNL A   1      42.590  27.809  31.255  1.00  0.00    -0.354 N 
ATOM     53  N   UNL A   1      41.597  29.579  33.386  1.00  0.00    -0.248 NA
ATOM     54  C   UNL A   1      41.705  30.368  35.580  1.00  0.00     0.031 C 
ATOM     55  C   UNL A   1      44.414  26.608  31.656  1.00  0.00     0.029 A 
ATOM     56  C   UNL A   1      43.536  27.516  32.224  1.00  0.00     0.049 A 
ATOM     57  H   UNL A   1      41.828  28.421  31.377  1.00  0.00     0.167 HD
ATOM     58  C   UNL A   1      42.677  28.989  34.027  1.00  0.00     0.074 A 
ATOM     59  C   UNL A   1      42.714  29.535  35.369  1.00  0.00     0.031 C 
ATOM     60  C   UNL A   1      43.555  28.073  33.552  1.00  0.00     0.037 A 
BRANCH  47  61
ATOM     61  C   UNL A   1      42.506  26.335  27.718  1.00  0.00     0.064 A 
ATOM     62  C   UNL A   1      41.921  25.087  27.462  1.00  0.00     0.173 A 
ATOM     63  C   UNL A   1      43.482  26.798  26.820  1.00  0.00     0.173 A 
ATOM     64  F   UNL A   1      40.994  24.593  28.297  1.00  0.00    -0.203 F 
ATOM     65  C   UNL A   1      42.315  24.323  26.366  1.00  0.00     0.198 A 
ATOM     66  C   UNL A   1      43.852  26.044  25.709  1.00  0.00     0.198 A 
ATOM     67  F   UNL A   1      44.070  27.987  27.014  1.00  0.00    -0.203 F 
ATOM     68  F   UNL A   1      41.773  23.113  26.167  1.00  0.00    -0.200 F 
ATOM     69  C   UNL A   1      43.272  24.805  25.486  1.00  0.00     0.200 A 
ATOM     70  F   UNL A   1      44.768  26.518  24.854  1.00  0.00    -0.200 F 
ATOM     71  F   UNL A   1      43.643  24.071  24.427  1.00  0.00    -0.200 F 
ENDBRANCH  47  61
BRANCH  48  72
ATOM     72  C   UNL A   1      39.331  32.058  35.270  1.00  0.00     0.064 A 
ATOM     73  C   UNL A   1      39.649  33.418  35.386  1.00  0.00     0.173 A 
ATOM     74  C   UNL A   1      38.522  31.491  36.268  1.00  0.00     0.173 A 
ATOM     75  F   UNL A   1      40.442  34.000  34.475  1.00  0.00    -0.203 F 
ATOM     76  C   UNL A   1      39.181  34.178  36.458  1.00  0.00     0.198 A 
ATOM     77  C   UNL A   1      38.029  32.259  37.320  1.00  0.00     0.198 A 
ATOM     78  F   UNL A   1      38.192  30.193  36.208  1.00  0.00    -0.203 F 
ATOM     79  F   UNL A   1      39.534  35.466  36.567  1.00  0.00    -0.200 F 
ATOM     80  C   UNL A   1      38.364  33.600  37.418  1.00  0.00     0.200 A 
ATOM     81  F   UNL A   1      37.228  31.699  38.236  1.00  0.00    -0.200 F 
ATOM     82  F   UNL A   1      37.906  34.334  38.441  1.00  0.00    -0.200 F 
ENDBRANCH  48  72
BRANCH  60  83
ATOM     83  C   UNL A   1      44.644  27.626  34.480  1.00  0.00     0.064 A 
ATOM     84  C   UNL A   1      45.817  28.377  34.650  1.00  0.00     0.173 A 
ATOM     85  C   UNL A   1      44.500  26.449  35.230  1.00  0.00     0.173 A 
ATOM     86  F   UNL A   1      46.007  29.501  33.943  1.00  0.00    -0.203 F 
ATOM     87  C   UNL A   1      46.816  27.952  35.521  1.00  0.00     0.198 A 
ATOM     88  C   UNL A   1      45.489  26.042  36.120  1.00  0.00     0.198 A 
ATOM     89  F   UNL A   1      43.395  25.700  35.106  1.00  0.00    -0.203 F 
ATOM     90  F   UNL A   1      47.949  28.660  35.634  1.00  0.00    -0.200 F 
ATOM     91  C   UNL A   1      46.649  26.789  36.259  1.00  0.00     0.200 A 
ATOM     92  F   UNL A   1      45.322  24.924  36.839  1.00  0.00    -0.200 F 
ATOM     93  F   UNL A   1      47.612  26.384  37.099  1.00  0.00    -0.200 F 
ENDBRANCH  60  83
ENDBRANCH  34  35
ENDBRANCH  27  29
ENDBRANCH  26  27
ENDBRANCH  25  26
ENDBRANCH  24  25
ENDBRANCH  23  24
ENDBRANCH   1  23
TORSDOF 17
ENDMDL
MODEL 3
REMARK VINA RESULT:     -11.6      1.513      3.038
REMARK SMILES COc1ccc(OCCNc2ccc(C)cc2C(=O)OCCOC(=O)c2ccc(-c3c4nc(c(-c5c(F)c(F)c(F)c(F)c5F)c5ccc([nH]5)c(-c5c(F)c(F)c(F)c(F)c5F)c5nc(c(-c6c(F)c(F)c(F)c(F)c6F)c6ccc3[nH]6)C=C5)C=C4)cc2)cc1
REMARK SMILES IDX 18 1 19 2 17 3 11 4 12 5 13 6 16 7 14 8 15 9 10 10 9 12 8 13
REMARK SMILES IDX 7 14 6 15 3 16 4 17 90 18 5 19 89 20 2 21 1 22 20 23 21 24
REMARK SMILES IDX 22 25 23 26 24 27 25 28 26 29 27 30 88 31 28 32 87 33 29 34
REMARK SMILES IDX 30 35 31 36 81 37 32 38 86 39 80 40 82 41 33 42 85 43 79 44
REMARK SMILES IDX 78 45 34 47 66 48 46 49 65 50 47 51 50 52 64 53 83 54 48 55
REMARK SMILES IDX 49 56 63 58 84 59 51 60 35 61 36 62 44 63 37 64 38 65 42 66
REMARK SMILES IDX 45 67 39 68 40 69 43 70 41 71 67 72 68 73 76 74 69 75 70 76
REMARK SMILES IDX 74 77 77 78 71 79 72 80 75 81 73 82 52 83 53 84 61 85 54 86
REMARK SMILES IDX 55 87 59 88 62 89 56 90 57 91 60 92 58 93
REMARK H PARENT 10 11 82 46 50 57
REMARK Flexibility Score: inf
ROOT
ATOM      1  C   UNL A   1      31.520  26.622  26.256  1.00  0.00     0.340 C 
ATOM      2  O   UNL A   1      30.386  26.180  26.230  1.00  0.00    -0.246 OA
ENDROOT
BRANCH   1   3
ATOM      3  C   UNL A   1      32.719  25.776  26.029  1.00  0.00     0.083 A 
ATOM      4  C   UNL A   1      33.701  26.062  25.070  1.00  0.00     0.049 A 
ATOM      5  C   UNL A   1      34.737  25.118  24.923  1.00  0.00     0.027 A 
ATOM      6  C   UNL A   1      34.787  23.929  25.654  1.00  0.00     0.005 A 
ATOM      7  C   UNL A   1      32.789  24.588  26.794  1.00  0.00     0.021 A 
ATOM      8  C   UNL A   1      33.789  23.635  26.575  1.00  0.00    -0.050 A 
ATOM      9  C   UNL A   1      33.802  22.327  27.307  1.00  0.00     0.044 C 
BRANCH   4  10
ATOM     10  N   UNL A   1      33.800  27.200  24.298  1.00  0.00    -0.381 N 
ATOM     11  H   UNL A   1      34.125  28.008  24.758  1.00  0.00     0.160 HD
BRANCH  10  12
ATOM     12  C   UNL A   1      33.481  27.354  22.884  1.00  0.00     0.154 C 
BRANCH  12  13
ATOM     13  C   UNL A   1      31.978  27.158  22.608  1.00  0.00     0.250 C 
BRANCH  13  14
ATOM     14  O   UNL A   1      31.682  25.990  21.828  1.00  0.00    -0.492 OA
BRANCH  14  15
ATOM     15  C   UNL A   1      31.916  24.768  22.397  1.00  0.00     0.119 A 
ATOM     16  C   UNL A   1      32.435  22.139  23.189  1.00  0.00     0.119 A 
ATOM     17  C   UNL A   1      33.322  22.794  22.340  1.00  0.00     0.050 A 
ATOM     18  C   UNL A   1      31.351  22.827  23.728  1.00  0.00     0.050 A 
ATOM     19  C   UNL A   1      33.059  24.107  21.942  1.00  0.00     0.050 A 
ATOM     20  C   UNL A   1      31.099  24.146  23.341  1.00  0.00     0.050 A 
BRANCH  16  21
ATOM     21  O   UNL A   1      32.703  20.838  23.514  1.00  0.00    -0.497 OA
ATOM     22  C   UNL A   1      32.148  20.483  24.783  1.00  0.00     0.278 C 
ENDBRANCH  16  21
ENDBRANCH  14  15
ENDBRANCH  13  14
ENDBRANCH  12  13
ENDBRANCH  10  12
ENDBRANCH   4  10
ENDBRANCH   1   3
BRANCH   1  23
ATOM     23  O   UNL A   1      31.875  27.927  26.387  1.00  0.00    -0.458 OA
BRANCH  23  24
ATOM     24  C   UNL A   1      31.196  28.881  25.547  1.00  0.00     0.275 C 
BRANCH  24  25
ATOM     25  C   UNL A   1      31.835  30.259  25.691  1.00  0.00     0.275 C 
BRANCH  25  26
ATOM     26  O   UNL A   1      32.671  30.246  26.859  1.00  0.00    -0.458 OA
BRANCH  26  27
ATOM     27  C   UNL A   1      33.233  31.425  27.191  1.00  0.00     0.338 C 
ATOM     28  O   UNL A   1      32.743  32.543  27.144  1.00  0.00    -0.246 OA
BRANCH  27  29
ATOM     29  C   UNL A   1      34.570  31.157  27.732  1.00  0.00     0.060 A 
ATOM     30  C   UNL A   1      34.889  29.845  28.068  1.00  0.00     0.016 A 
ATOM     31  C   UNL A   1      35.455  32.193  28.011  1.00  0.00     0.016 A 
ATOM     32  C   UNL A   1      36.064  29.560  28.753  1.00  0.00     0.010 A 
ATOM     33  C   UNL A   1      36.675  31.895  28.625  1.00  0.00     0.010 A 
ATOM     34  C   UNL A   1      36.980  30.581  29.033  1.00  0.00    -0.014 A 
BRANCH  34  35
ATOM     35  C   UNL A   1      38.218  30.295  29.812  1.00  0.00     0.031 A 
ATOM     36  C   UNL A   1      39.282  29.415  29.214  1.00  0.00     0.074 A 
ATOM     37  C   UNL A   1      38.403  30.819  31.039  1.00  0.00     0.049 A 
ATOM     38  N   UNL A   1      40.308  28.840  29.790  1.00  0.00    -0.248 NA
ATOM     39  C   UNL A   1      39.167  29.131  27.775  1.00  0.00     0.031 C 
ATOM     40  C   UNL A   1      37.490  31.741  31.717  1.00  0.00     0.029 A 
ATOM     41  N   UNL A   1      39.427  30.647  31.940  1.00  0.00    -0.354 N 
ATOM     42  C   UNL A   1      40.909  28.066  28.806  1.00  0.00     0.074 A 
ATOM     43  C   UNL A   1      40.144  28.253  27.592  1.00  0.00     0.031 C 
ATOM     44  C   UNL A   1      38.006  32.074  32.910  1.00  0.00     0.029 A 
ATOM     45  C   UNL A   1      39.231  31.314  33.126  1.00  0.00     0.049 A 
ATOM     46  H   UNL A   1      40.223  30.099  31.754  1.00  0.00     0.167 HD
ATOM     47  C   UNL A   1      41.996  27.265  28.914  1.00  0.00     0.037 A 
ATOM     48  C   UNL A   1      39.926  31.273  34.279  1.00  0.00     0.037 A 
ATOM     49  C   UNL A   1      42.794  27.144  30.107  1.00  0.00     0.049 A 
ATOM     50  C   UNL A   1      41.120  30.364  34.382  1.00  0.00     0.074 A 
ATOM     51  C   UNL A   1      43.929  26.381  30.314  1.00  0.00     0.029 A 
ATOM     52  N   UNL A   1      42.549  27.825  31.291  1.00  0.00    -0.354 N 
ATOM     53  N   UNL A   1      41.640  29.576  33.473  1.00  0.00    -0.248 NA
ATOM     54  C   UNL A   1      41.808  30.321  35.678  1.00  0.00     0.031 C 
ATOM     55  C   UNL A   1      44.351  26.573  31.633  1.00  0.00     0.029 A 
ATOM     56  C   UNL A   1      43.505  27.490  32.236  1.00  0.00     0.049 A 
ATOM     57  H   UNL A   1      41.805  28.453  31.438  1.00  0.00     0.167 HD
ATOM     58  C   UNL A   1      42.717  28.949  34.081  1.00  0.00     0.074 A 
ATOM     59  C   UNL A   1      42.793  29.468  35.432  1.00  0.00     0.031 C 
ATOM     60  C   UNL A   1      43.564  28.021  33.572  1.00  0.00     0.037 A 
BRANCH  47  61
ATOM     61  C   UNL A   1      42.363  26.421  27.728  1.00  0.00     0.064 A 
ATOM     62  C   UNL A   1      43.368  26.793  26.825  1.00  0.00     0.173 A 
ATOM     63  C   UNL A   1      41.714  25.193  27.518  1.00  0.00     0.173 A 
ATOM     64  F   UNL A   1      44.008  27.963  26.973  1.00  0.00    -0.203 F 
ATOM     65  C   UNL A   1      43.694  25.980  25.742  1.00  0.00     0.198 A 
ATOM     66  C   UNL A   1      42.064  24.369  26.451  1.00  0.00     0.198 A 
ATOM     67  F   UNL A   1      40.749  24.786  28.355  1.00  0.00    -0.203 F 
ATOM     68  F   UNL A   1      44.628  26.377  24.866  1.00  0.00    -0.200 F 
ATOM     69  C   UNL A   1      43.049  24.766  25.560  1.00  0.00     0.200 A 
ATOM     70  F   UNL A   1      41.446  23.191  26.286  1.00  0.00    -0.200 F 
ATOM     71  F   UNL A   1      43.371  23.981  24.523  1.00  0.00    -0.200 F 
ENDBRANCH  47  61
BRANCH  48  72
ATOM     72  C   UNL A   1      39.471  32.073  35.446  1.00  0.00     0.064 A 
ATOM     73  C   UNL A   1      38.570  31.544  36.381  1.00  0.00     0.173 A 
ATOM     74  C   UNL A   1      39.933  33.382  35.656  1.00  0.00     0.173 A 
ATOM     75  F   UNL A   1      38.077  30.310  36.209  1.00  0.00    -0.203 F 
ATOM     76  C   UNL A   1      38.145  32.295  37.475  1.00  0.00     0.198 A 
ATOM     77  C   UNL A   1      39.533  34.119  36.768  1.00  0.00     0.198 A 
ATOM     78  F   UNL A   1      40.792  33.939  34.790  1.00  0.00    -0.203 F 
ATOM     79  F   UNL A   1      37.251  31.780  38.331  1.00  0.00    -0.200 F 
ATOM     80  C   UNL A   1      38.634  33.578  37.673  1.00  0.00     0.200 A 
ATOM     81  F   UNL A   1      40.021  35.352  36.963  1.00  0.00    -0.200 F 
ATOM     82  F   UNL A   1      38.235  34.294  38.733  1.00  0.00    -0.200 F 
ENDBRANCH  48  72
BRANCH  60  83
ATOM     83  C   UNL A   1      44.659  27.531  34.471  1.00  0.00     0.064 A 
ATOM     84  C   UNL A   1      44.496  26.390  35.271  1.00  0.00     0.173 A 
ATOM     85  C   UNL A   1      45.895  28.193  34.510  1.00  0.00     0.173 A 
ATOM     86  F   UNL A   1      43.326  25.734  35.280  1.00  0.00    -0.203 F 
ATOM     87  C   UNL A   1      45.525  25.944  36.096  1.00  0.00     0.198 A 
ATOM     88  C   UNL A   1      46.930  27.728  35.315  1.00  0.00     0.198 A 
ATOM     89  F   UNL A   1      46.101  29.286  33.760  1.00  0.00    -0.203 F 
ATOM     90  F   UNL A   1      45.333  24.880  36.887  1.00  0.00    -0.200 F 
ATOM     91  C   UNL A   1      46.743  26.610  36.113  1.00  0.00     0.200 A 
ATOM     92  F   UNL A   1      48.109  28.366  35.323  1.00  0.00    -0.200 F 
ATOM     93  F   UNL A   1      47.733  26.176  36.905  1.00  0.00    -0.200 F 
ENDBRANCH  60  83
ENDBRANCH  34  35
ENDBRANCH  27  29
ENDBRANCH  26  27
ENDBRANCH  25  26
ENDBRANCH  24  25
ENDBRANCH  23  24
ENDBRANCH   1  23
TORSDOF 17
ENDMDL
