MODEL 1
REMARK VINA RESULT:     -12.5      0.000      0.000
REMARK SMILES Cc1nc(S[C@@H](C(=O)OCCOC(=O)c2ccc(-c3c4nc(c(-c5c(F)c(F)c(F)c(F)c5F)c5ccc([nH]5)c(-c5c(F)c(F)c(F)c(F)c5F)c5nc(c(-c6c(F)c(F)c(F)c(F)c6F)c6ccc3[nH]6)C=C5)C=C4)cc2)c2ccccc2)nc2ccccc12
REMARK SMILES IDX 10 1 9 2 7 3 8 4 6 5 5 6 4 7 1 8 2 9 3 10 90 11 85 12 89 13
REMARK SMILES IDX 84 14 86 15 88 16 87 17 78 18 79 19 83 20 80 21 82 22 81 23
REMARK SMILES IDX 11 24 12 25 13 26 14 27 15 28 16 29 77 30 17 31 76 32 18 33
REMARK SMILES IDX 19 34 20 35 70 36 21 37 75 38 69 39 71 40 22 41 74 42 68 43
REMARK SMILES IDX 67 44 23 46 55 47 35 48 54 49 36 50 39 51 53 52 72 53 37 54
REMARK SMILES IDX 38 55 52 57 73 58 40 59 24 60 25 61 33 62 26 63 27 64 31 65
REMARK SMILES IDX 34 66 28 67 29 68 32 69 30 70 56 71 57 72 65 73 58 74 59 75
REMARK SMILES IDX 63 76 66 77 60 78 61 79 64 80 62 81 41 82 42 83 50 84 43 85
REMARK SMILES IDX 44 86 48 87 51 88 45 89 46 90 49 91 47 92
REMARK H PARENT 71 45 39 56
REMARK Flexibility Score: inf
ROOT
ATOM      1  C   UNL A   1      31.750  28.888  27.214  1.00  0.00     0.274 C 
ENDROOT
BRANCH   1   2
ATOM      2  O   UNL A   1      32.292  27.729  26.542  1.00  0.00    -0.461 OA
BRANCH   2   3
ATOM      3  C   UNL A   1      31.372  26.879  25.998  1.00  0.00     0.324 C 
ATOM      4  O   UNL A   1      30.700  26.119  26.694  1.00  0.00    -0.251 OA
BRANCH   3   5
ATOM      5  C   UNL A   1      31.381  26.825  24.458  1.00  0.00     0.194 C 
BRANCH   5   6
ATOM      6  S   UNL A   1      33.041  26.606  23.727  1.00  0.00    -0.066 SA
BRANCH   6   7
ATOM      7  C   UNL A   1      33.619  25.005  24.239  1.00  0.00     0.189 A 
ATOM      8  C   UNL A   1      36.475  23.298  25.762  1.00  0.00     0.067 C 
ATOM      9  C   UNL A   1      35.133  23.524  25.123  1.00  0.00     0.050 A 
ATOM     10  N   UNL A   1      34.781  24.821  24.879  1.00  0.00    -0.227 NA
ATOM     11  C   UNL A   1      34.329  22.422  24.785  1.00  0.00     0.022 A 
ATOM     12  C   UNL A   1      33.166  22.749  24.089  1.00  0.00     0.075 A 
ATOM     13  C   UNL A   1      34.610  21.058  25.071  1.00  0.00     0.012 A 
ATOM     14  N   UNL A   1      32.819  24.008  23.818  1.00  0.00    -0.222 NA
ATOM     15  C   UNL A   1      32.346  21.719  23.642  1.00  0.00     0.029 A 
ATOM     16  C   UNL A   1      33.766  20.043  24.627  1.00  0.00     0.001 A 
ATOM     17  C   UNL A   1      32.636  20.375  23.897  1.00  0.00     0.002 A 
ENDBRANCH   6   7
ENDBRANCH   5   6
BRANCH   5  18
ATOM     18  C   UNL A   1      30.377  27.747  23.742  1.00  0.00    -0.023 A 
ATOM     19  C   UNL A   1      30.742  28.896  23.020  1.00  0.00     0.005 A 
ATOM     20  C   UNL A   1      29.005  27.411  23.736  1.00  0.00     0.005 A 
ATOM     21  C   UNL A   1      29.783  29.702  22.392  1.00  0.00     0.000 A 
ATOM     22  C   UNL A   1      28.045  28.218  23.118  1.00  0.00     0.000 A 
ATOM     23  C   UNL A   1      28.434  29.372  22.453  1.00  0.00     0.000 A 
ENDBRANCH   5  18
ENDBRANCH   3   5
ENDBRANCH   2   3
ENDBRANCH   1   2
BRANCH   1  24
ATOM     24  C   UNL A   1      31.926  30.155  26.379  1.00  0.00     0.275 C 
BRANCH  24  25
ATOM     25  O   UNL A   1      33.315  30.521  26.348  1.00  0.00    -0.458 OA
BRANCH  25  26
ATOM     26  C   UNL A   1      33.709  31.441  27.251  1.00  0.00     0.338 C 
ATOM     27  O   UNL A   1      33.163  32.499  27.531  1.00  0.00    -0.246 OA
BRANCH  26  28
ATOM     28  C   UNL A   1      34.968  30.997  27.874  1.00  0.00     0.060 A 
ATOM     29  C   UNL A   1      36.022  31.898  28.022  1.00  0.00     0.016 A 
ATOM     30  C   UNL A   1      35.055  29.722  28.433  1.00  0.00     0.016 A 
ATOM     31  C   UNL A   1      37.172  31.508  28.715  1.00  0.00     0.010 A 
ATOM     32  C   UNL A   1      36.186  29.340  29.149  1.00  0.00     0.010 A 
ATOM     33  C   UNL A   1      37.256  30.228  29.285  1.00  0.00    -0.014 A 
BRANCH  33  34
ATOM     34  C   UNL A   1      38.474  29.783  29.996  1.00  0.00     0.031 A 
ATOM     35  C   UNL A   1      38.771  30.333  31.358  1.00  0.00     0.074 A 
ATOM     36  C   UNL A   1      39.350  28.957  29.395  1.00  0.00     0.049 A 
ATOM     37  N   UNL A   1      39.721  29.999  32.192  1.00  0.00    -0.248 NA
ATOM     38  C   UNL A   1      37.894  31.412  31.838  1.00  0.00     0.031 C 
ATOM     39  C   UNL A   1      39.235  28.448  28.029  1.00  0.00     0.029 A 
ATOM     40  N   UNL A   1      40.529  28.425  29.854  1.00  0.00    -0.354 N 
ATOM     41  C   UNL A   1      39.533  30.798  33.310  1.00  0.00     0.074 A 
ATOM     42  C   UNL A   1      38.423  31.681  33.024  1.00  0.00     0.031 C 
ATOM     43  C   UNL A   1      40.312  27.690  27.754  1.00  0.00     0.029 A 
ATOM     44  C   UNL A   1      41.176  27.642  28.932  1.00  0.00     0.049 A 
ATOM     45  H   UNL A   1      40.876  28.589  30.760  1.00  0.00     0.167 HD
ATOM     46  C   UNL A   1      40.210  30.772  34.481  1.00  0.00     0.037 A 
ATOM     47  C   UNL A   1      42.327  26.950  29.039  1.00  0.00     0.037 A 
ATOM     48  C   UNL A   1      41.328  29.911  34.752  1.00  0.00     0.049 A 
ATOM     49  C   UNL A   1      43.050  26.915  30.359  1.00  0.00     0.074 A 
ATOM     50  C   UNL A   1      42.035  29.757  35.931  1.00  0.00     0.029 A 
ATOM     51  N   UNL A   1      41.917  29.073  33.818  1.00  0.00    -0.354 N 
ATOM     52  N   UNL A   1      42.765  27.542  31.474  1.00  0.00    -0.248 NA
ATOM     53  C   UNL A   1      44.231  26.045  30.448  1.00  0.00     0.031 C 
ATOM     54  C   UNL A   1      43.076  28.853  35.701  1.00  0.00     0.029 A 
ATOM     55  C   UNL A   1      42.990  28.411  34.391  1.00  0.00     0.049 A 
ATOM     56  H   UNL A   1      41.618  28.964  32.887  1.00  0.00     0.167 HD
ATOM     57  C   UNL A   1      43.700  27.110  32.405  1.00  0.00     0.074 A 
ATOM     58  C   UNL A   1      44.564  26.167  31.726  1.00  0.00     0.031 C 
ATOM     59  C   UNL A   1      43.824  27.457  33.709  1.00  0.00     0.037 A 
BRANCH  46  60
ATOM     60  C   UNL A   1      39.733  31.672  35.578  1.00  0.00     0.064 A 
ATOM     61  C   UNL A   1      40.281  32.952  35.747  1.00  0.00     0.173 A 
ATOM     62  C   UNL A   1      38.671  31.293  36.411  1.00  0.00     0.173 A 
ATOM     63  F   UNL A   1      41.305  33.355  34.977  1.00  0.00    -0.203 F 
ATOM     64  C   UNL A   1      39.785  33.821  36.714  1.00  0.00     0.198 A 
ATOM     65  C   UNL A   1      38.164  32.173  37.363  1.00  0.00     0.198 A 
ATOM     66  F   UNL A   1      38.113  30.080  36.286  1.00  0.00    -0.203 F 
ATOM     67  F   UNL A   1      40.335  35.033  36.868  1.00  0.00    -0.200 F 
ATOM     68  C   UNL A   1      38.721  33.434  37.514  1.00  0.00     0.200 A 
ATOM     69  F   UNL A   1      37.129  31.803  38.130  1.00  0.00    -0.200 F 
ATOM     70  F   UNL A   1      38.232  34.279  38.431  1.00  0.00    -0.200 F 
ENDBRANCH  46  60
BRANCH  47  71
ATOM     71  C   UNL A   1      42.831  26.168  27.882  1.00  0.00     0.064 A 
ATOM     72  C   UNL A   1      43.729  26.736  26.969  1.00  0.00     0.173 A 
ATOM     73  C   UNL A   1      42.413  24.850  27.658  1.00  0.00     0.173 A 
ATOM     74  F   UNL A   1      44.140  28.002  27.133  1.00  0.00    -0.203 F 
ATOM     75  C   UNL A   1      44.174  26.021  25.860  1.00  0.00     0.198 A 
ATOM     76  C   UNL A   1      42.875  24.128  26.558  1.00  0.00     0.198 A 
ATOM     77  F   UNL A   1      41.556  24.263  28.507  1.00  0.00    -0.203 F 
ATOM     78  F   UNL A   1      45.000  26.602  24.978  1.00  0.00    -0.200 F 
ATOM     79  C   UNL A   1      43.749  24.717  25.656  1.00  0.00     0.200 A 
ATOM     80  F   UNL A   1      42.467  22.866  26.369  1.00  0.00    -0.200 F 
ATOM     81  F   UNL A   1      44.174  24.031  24.588  1.00  0.00    -0.200 F 
ENDBRANCH  47  71
BRANCH  59  82
ATOM     82  C   UNL A   1      44.898  26.783  34.510  1.00  0.00     0.064 A 
ATOM     83  C   UNL A   1      46.169  27.353  34.665  1.00  0.00     0.173 A 
ATOM     84  C   UNL A   1      44.626  25.582  35.185  1.00  0.00     0.173 A 
ATOM     85  F   UNL A   1      46.480  28.493  34.032  1.00  0.00    -0.203 F 
ATOM     86  C   UNL A   1      47.137  26.735  35.455  1.00  0.00     0.198 A 
ATOM     87  C   UNL A   1      45.587  24.982  35.992  1.00  0.00     0.198 A 
ATOM     88  F   UNL A   1      43.422  25.002  35.074  1.00  0.00    -0.203 F 
ATOM     89  F   UNL A   1      48.356  27.279  35.563  1.00  0.00    -0.200 F 
ATOM     90  C   UNL A   1      46.842  25.555  36.123  1.00  0.00     0.200 A 
ATOM     91  F   UNL A   1      45.297  23.849  36.647  1.00  0.00    -0.200 F 
ATOM     92  F   UNL A   1      47.771  24.970  36.891  1.00  0.00    -0.200 F 
ENDBRANCH  59  82
ENDBRANCH  33  34
ENDBRANCH  26  28
ENDBRANCH  25  26
ENDBRANCH  24  25
ENDBRANCH   1  24
TORSDOF 14
ENDMDL
MODEL 2
REMARK VINA RESULT:     -12.4      4.439     10.001
REMARK SMILES Cc1nc(S[C@@H](C(=O)OCCOC(=O)c2ccc(-c3c4nc(c(-c5c(F)c(F)c(F)c(F)c5F)c5ccc([nH]5)c(-c5c(F)c(F)c(F)c(F)c5F)c5nc(c(-c6c(F)c(F)c(F)c(F)c6F)c6ccc3[nH]6)C=C5)C=C4)cc2)c2ccccc2)nc2ccccc12
REMARK SMILES IDX 10 1 9 2 7 3 8 4 6 5 5 6 4 7 1 8 2 9 3 10 90 11 85 12 89 13
REMARK SMILES IDX 84 14 86 15 88 16 87 17 78 18 79 19 83 20 80 21 82 22 81 23
REMARK SMILES IDX 11 24 12 25 13 26 14 27 15 28 16 29 77 30 17 31 76 32 18 33
REMARK SMILES IDX 19 34 20 35 70 36 21 37 75 38 69 39 71 40 22 41 74 42 68 43
REMARK SMILES IDX 67 44 23 46 55 47 35 48 54 49 36 50 39 51 53 52 72 53 37 54
REMARK SMILES IDX 38 55 52 57 73 58 40 59 24 60 25 61 33 62 26 63 27 64 31 65
REMARK SMILES IDX 34 66 28 67 29 68 32 69 30 70 56 71 57 72 65 73 58 74 59 75
REMARK SMILES IDX 63 76 66 77 60 78 61 79 64 80 62 81 41 82 42 83 50 84 43 85
REMARK SMILES IDX 44 86 48 87 51 88 45 89 46 90 49 91 47 92
REMARK H PARENT 71 45 39 56
REMARK Flexibility Score: inf
ROOT
ATOM      1  C   UNL A   1      36.614  22.434  23.913  1.00  0.00     0.274 C 
ENDROOT
BRANCH   1   2
ATOM      2  O   UNL A   1      35.329  22.777  24.478  1.00  0.00    -0.461 OA
BRANCH   2   3
ATOM      3  C   UNL A   1      34.264  22.675  23.630  1.00  0.00     0.324 C 
ATOM      4  O   UNL A   1      34.207  23.317  22.582  1.00  0.00    -0.251 OA
BRANCH   3   5
ATOM      5  C   UNL A   1      33.085  21.848  24.178  1.00  0.00     0.194 C 
BRANCH   5   6
ATOM      6  S   UNL A   1      32.433  22.443  25.777  1.00  0.00    -0.066 SA
BRANCH   6   7
ATOM      7  C   UNL A   1      31.962  24.139  25.538  1.00  0.00     0.189 A 
ATOM      8  C   UNL A   1      29.403  26.256  24.001  1.00  0.00     0.067 C 
ATOM      9  C   UNL A   1      30.641  25.841  24.747  1.00  0.00     0.050 A 
ATOM     10  N   UNL A   1      30.819  24.501  24.942  1.00  0.00    -0.227 NA
ATOM     11  C   UNL A   1      31.555  26.818  25.178  1.00  0.00     0.022 A 
ATOM     12  C   UNL A   1      32.719  26.308  25.748  1.00  0.00     0.075 A 
ATOM     13  C   UNL A   1      31.394  28.226  25.063  1.00  0.00     0.012 A 
ATOM     14  N   UNL A   1      32.923  25.000  25.922  1.00  0.00    -0.222 NA
ATOM     15  C   UNL A   1      33.718  27.196  26.132  1.00  0.00     0.029 A 
ATOM     16  C   UNL A   1      32.401  29.099  25.469  1.00  0.00     0.001 A 
ATOM     17  C   UNL A   1      33.574  28.580  25.993  1.00  0.00     0.002 A 
ENDBRANCH   6   7
ENDBRANCH   5   6
BRANCH   5  18
ATOM     18  C   UNL A   1      33.150  20.329  23.927  1.00  0.00    -0.023 A 
ATOM     19  C   UNL A   1      33.961  19.446  24.659  1.00  0.00     0.005 A 
ATOM     20  C   UNL A   1      32.307  19.748  22.954  1.00  0.00     0.005 A 
ATOM     21  C   UNL A   1      33.983  18.072  24.383  1.00  0.00     0.000 A 
ATOM     22  C   UNL A   1      32.333  18.379  22.670  1.00  0.00     0.000 A 
ATOM     23  C   UNL A   1      33.181  17.541  23.380  1.00  0.00     0.000 A 
ENDBRANCH   5  18
ENDBRANCH   3   5
ENDBRANCH   2   3
ENDBRANCH   1   2
BRANCH   1  24
ATOM     24  C   UNL A   1      37.257  21.261  24.649  1.00  0.00     0.275 C 
BRANCH  24  25
ATOM     25  O   UNL A   1      37.718  21.697  25.938  1.00  0.00    -0.458 OA
BRANCH  25  26
ATOM     26  C   UNL A   1      39.030  21.520  26.194  1.00  0.00     0.338 C 
ATOM     27  O   UNL A   1      39.679  20.487  26.101  1.00  0.00    -0.246 OA
BRANCH  26  28
ATOM     28  C   UNL A   1      39.609  22.795  26.651  1.00  0.00     0.060 A 
ATOM     29  C   UNL A   1      40.563  22.796  27.668  1.00  0.00     0.016 A 
ATOM     30  C   UNL A   1      39.303  23.979  25.977  1.00  0.00     0.016 A 
ATOM     31  C   UNL A   1      41.195  23.993  28.021  1.00  0.00     0.010 A 
ATOM     32  C   UNL A   1      39.951  25.166  26.307  1.00  0.00     0.010 A 
ATOM     33  C   UNL A   1      40.893  25.182  27.338  1.00  0.00    -0.014 A 
BRANCH  33  34
ATOM     34  C   UNL A   1      41.525  26.464  27.715  1.00  0.00     0.031 A 
ATOM     35  C   UNL A   1      42.951  26.720  27.331  1.00  0.00     0.074 A 
ATOM     36  C   UNL A   1      40.857  27.358  28.465  1.00  0.00     0.049 A 
ATOM     37  N   UNL A   1      43.659  27.811  27.468  1.00  0.00    -0.248 NA
ATOM     38  C   UNL A   1      43.683  25.595  26.728  1.00  0.00     0.031 C 
ATOM     39  C   UNL A   1      39.509  27.177  29.003  1.00  0.00     0.029 A 
ATOM     40  N   UNL A   1      41.240  28.593  28.929  1.00  0.00    -0.354 N 
ATOM     41  C   UNL A   1      44.904  27.517  26.934  1.00  0.00     0.074 A 
ATOM     42  C   UNL A   1      44.882  26.128  26.533  1.00  0.00     0.031 C 
ATOM     43  C   UNL A   1      39.183  28.254  29.739  1.00  0.00     0.029 A 
ATOM     44  C   UNL A   1      40.289  29.209  29.704  1.00  0.00     0.049 A 
ATOM     45  H   UNL A   1      42.113  28.997  28.724  1.00  0.00     0.167 HD
ATOM     46  C   UNL A   1      45.961  28.346  26.768  1.00  0.00     0.037 A 
ATOM     47  C   UNL A   1      40.307  30.417  30.299  1.00  0.00     0.037 A 
ATOM     48  C   UNL A   1      45.988  29.720  27.192  1.00  0.00     0.049 A 
ATOM     49  C   UNL A   1      41.482  31.333  30.079  1.00  0.00     0.074 A 
ATOM     50  C   UNL A   1      46.982  30.663  27.004  1.00  0.00     0.029 A 
ATOM     51  N   UNL A   1      44.978  30.339  27.912  1.00  0.00    -0.354 N 
ATOM     52  N   UNL A   1      42.593  31.109  29.420  1.00  0.00    -0.248 NA
ATOM     53  C   UNL A   1      41.390  32.684  30.651  1.00  0.00     0.031 C 
ATOM     54  C   UNL A   1      46.590  31.843  27.641  1.00  0.00     0.029 A 
ATOM     55  C   UNL A   1      45.333  31.648  28.190  1.00  0.00     0.049 A 
ATOM     56  H   UNL A   1      44.134  29.912  28.185  1.00  0.00     0.167 HD
ATOM     57  C   UNL A   1      43.308  32.299  29.460  1.00  0.00     0.074 A 
ATOM     58  C   UNL A   1      42.507  33.244  30.209  1.00  0.00     0.031 C 
ATOM     59  C   UNL A   1      44.515  32.584  28.915  1.00  0.00     0.037 A 
BRANCH  46  60
ATOM     60  C   UNL A   1      47.162  27.805  26.059  1.00  0.00     0.064 A 
ATOM     61  C   UNL A   1      47.228  27.803  24.657  1.00  0.00     0.173 A 
ATOM     62  C   UNL A   1      48.285  27.367  26.774  1.00  0.00     0.173 A 
ATOM     63  F   UNL A   1      46.174  28.207  23.931  1.00  0.00    -0.203 F 
ATOM     64  C   UNL A   1      48.375  27.376  23.996  1.00  0.00     0.198 A 
ATOM     65  C   UNL A   1      49.438  26.960  26.109  1.00  0.00     0.198 A 
ATOM     66  F   UNL A   1      48.270  27.353  28.115  1.00  0.00    -0.203 F 
ATOM     67  F   UNL A   1      48.410  27.365  22.657  1.00  0.00    -0.200 F 
ATOM     68  C   UNL A   1      49.483  26.964  24.722  1.00  0.00     0.200 A 
ATOM     69  F   UNL A   1      50.512  26.571  26.810  1.00  0.00    -0.200 F 
ATOM     70  F   UNL A   1      50.593  26.572  24.085  1.00  0.00    -0.200 F 
ENDBRANCH  46  60
BRANCH  47  71
ATOM     71  C   UNL A   1      39.142  30.866  31.100  1.00  0.00     0.064 A 
ATOM     72  C   UNL A   1      39.077  30.614  32.477  1.00  0.00     0.173 A 
ATOM     73  C   UNL A   1      38.065  31.538  30.504  1.00  0.00     0.173 A 
ATOM     74  F   UNL A   1      40.075  29.955  33.084  1.00  0.00    -0.203 F 
ATOM     75  C   UNL A   1      37.966  30.997  33.225  1.00  0.00     0.198 A 
ATOM     76  C   UNL A   1      36.964  31.938  31.259  1.00  0.00     0.198 A 
ATOM     77  F   UNL A   1      38.084  31.804  29.190  1.00  0.00    -0.203 F 
ATOM     78  F   UNL A   1      37.910  30.705  34.533  1.00  0.00    -0.200 F 
ATOM     79  C   UNL A   1      36.912  31.660  32.617  1.00  0.00     0.200 A 
ATOM     80  F   UNL A   1      35.950  32.586  30.669  1.00  0.00    -0.200 F 
ATOM     81  F   UNL A   1      35.843  32.026  33.337  1.00  0.00    -0.200 F 
ENDBRANCH  47  71
BRANCH  59  82
ATOM     82  C   UNL A   1      45.031  33.984  29.059  1.00  0.00     0.064 A 
ATOM     83  C   UNL A   1      45.856  34.359  30.129  1.00  0.00     0.173 A 
ATOM     84  C   UNL A   1      44.749  34.945  28.075  1.00  0.00     0.173 A 
ATOM     85  F   UNL A   1      46.143  33.480  31.099  1.00  0.00    -0.203 F 
ATOM     86  C   UNL A   1      46.365  35.653  30.218  1.00  0.00     0.198 A 
ATOM     87  C   UNL A   1      45.281  36.228  28.154  1.00  0.00     0.198 A 
ATOM     88  F   UNL A   1      43.972  34.632  27.027  1.00  0.00    -0.203 F 
ATOM     89  F   UNL A   1      47.123  36.000  31.266  1.00  0.00    -0.200 F 
ATOM     90  C   UNL A   1      46.085  36.582  29.227  1.00  0.00     0.200 A 
ATOM     91  F   UNL A   1      45.020  37.121  27.190  1.00  0.00    -0.200 F 
ATOM     92  F   UNL A   1      46.586  37.822  29.309  1.00  0.00    -0.200 F 
ENDBRANCH  59  82
ENDBRANCH  33  34
ENDBRANCH  26  28
ENDBRANCH  25  26
ENDBRANCH  24  25
ENDBRANCH   1  24
TORSDOF 14
ENDMDL
MODEL 3
REMARK VINA RESULT:     -12.4      0.523      2.008
REMARK SMILES Cc1nc(S[C@@H](C(=O)OCCOC(=O)c2ccc(-c3c4nc(c(-c5c(F)c(F)c(F)c(F)c5F)c5ccc([nH]5)c(-c5c(F)c(F)c(F)c(F)c5F)c5nc(c(-c6c(F)c(F)c(F)c(F)c6F)c6ccc3[nH]6)C=C5)C=C4)cc2)c2ccccc2)nc2ccccc12
REMARK SMILES IDX 10 1 9 2 7 3 8 4 6 5 5 6 4 7 1 8 2 9 3 10 90 11 85 12 89 13
REMARK SMILES IDX 84 14 86 15 88 16 87 17 78 18 79 19 83 20 80 21 82 22 81 23
REMARK SMILES IDX 11 24 12 25 13 26 14 27 15 28 16 29 77 30 17 31 76 32 18 33
REMARK SMILES IDX 19 34 20 35 70 36 21 37 75 38 69 39 71 40 22 41 74 42 68 43
REMARK SMILES IDX 67 44 23 46 55 47 35 48 54 49 36 50 39 51 53 52 72 53 37 54
REMARK SMILES IDX 38 55 52 57 73 58 40 59 24 60 25 61 33 62 26 63 27 64 31 65
REMARK SMILES IDX 34 66 28 67 29 68 32 69 30 70 56 71 57 72 65 73 58 74 59 75
REMARK SMILES IDX 63 76 66 77 60 78 61 79 64 80 62 81 41 82 42 83 50 84 43 85
REMARK SMILES IDX 44 86 48 87 51 88 45 89 46 90 49 91 47 92
REMARK H PARENT 71 45 39 56
REMARK Flexibility Score: inf
ROOT
ATOM      1  C   UNL A   1      31.700  28.440  26.652  1.00  0.00     0.274 C 
ENDROOT
BRANCH   1   2
ATOM      2  O   UNL A   1      31.950  27.430  25.649  1.00  0.00    -0.461 OA
BRANCH   2   3
ATOM      3  C   UNL A   1      30.868  26.681  25.283  1.00  0.00     0.324 C 
ATOM      4  O   UNL A   1      30.296  25.938  26.079  1.00  0.00    -0.251 OA
BRANCH   3   5
ATOM      5  C   UNL A   1      30.551  26.706  23.775  1.00  0.00     0.194 C 
BRANCH   5   6
ATOM      6  S   UNL A   1      31.964  26.264  22.706  1.00  0.00    -0.066 SA
BRANCH   6   7
ATOM      7  C   UNL A   1      32.782  24.890  23.481  1.00  0.00     0.189 A 
ATOM      8  C   UNL A   1      35.790  23.983  25.358  1.00  0.00     0.067 C 
ATOM      9  C   UNL A   1      34.474  23.860  24.640  1.00  0.00     0.050 A 
ATOM     10  N   UNL A   1      33.913  25.020  24.186  1.00  0.00    -0.227 NA
ATOM     11  C   UNL A   1      33.904  22.591  24.446  1.00  0.00     0.022 A 
ATOM     12  C   UNL A   1      32.750  22.591  23.664  1.00  0.00     0.075 A 
ATOM     13  C   UNL A   1      34.404  21.360  24.950  1.00  0.00     0.012 A 
ATOM     14  N   UNL A   1      32.203  23.711  23.188  1.00  0.00    -0.222 NA
ATOM     15  C   UNL A   1      32.158  21.373  23.350  1.00  0.00     0.029 A 
ATOM     16  C   UNL A   1      33.785  20.151  24.636  1.00  0.00     0.001 A 
ATOM     17  C   UNL A   1      32.665  20.158  23.821  1.00  0.00     0.002 A 
ENDBRANCH   6   7
ENDBRANCH   5   6
BRANCH   5  18
ATOM     18  C   UNL A   1      29.588  27.812  23.305  1.00  0.00    -0.023 A 
ATOM     19  C   UNL A   1      29.994  28.963  22.609  1.00  0.00     0.005 A 
ATOM     20  C   UNL A   1      28.199  27.660  23.511  1.00  0.00     0.005 A 
ATOM     21  C   UNL A   1      29.073  29.941  22.210  1.00  0.00     0.000 A 
ATOM     22  C   UNL A   1      27.278  28.638  23.121  1.00  0.00     0.000 A 
ATOM     23  C   UNL A   1      27.718  29.786  22.478  1.00  0.00     0.000 A 
ENDBRANCH   5  18
ENDBRANCH   3   5
ENDBRANCH   2   3
ENDBRANCH   1   2
BRANCH   1  24
ATOM     24  C   UNL A   1      31.776  29.847  26.064  1.00  0.00     0.275 C 
BRANCH  24  25
ATOM     25  O   UNL A   1      33.141  30.296  26.069  1.00  0.00    -0.458 OA
BRANCH  25  26
ATOM     26  C   UNL A   1      33.457  31.235  26.983  1.00  0.00     0.338 C 
ATOM     27  O   UNL A   1      32.838  32.254  27.255  1.00  0.00    -0.246 OA
BRANCH  26  28
ATOM     28  C   UNL A   1      34.728  30.868  27.632  1.00  0.00     0.060 A 
ATOM     29  C   UNL A   1      35.622  31.867  28.015  1.00  0.00     0.016 A 
ATOM     30  C   UNL A   1      34.972  29.539  27.982  1.00  0.00     0.016 A 
ATOM     31  C   UNL A   1      36.774  31.526  28.732  1.00  0.00     0.010 A 
ATOM     32  C   UNL A   1      36.101  29.200  28.721  1.00  0.00     0.010 A 
ATOM     33  C   UNL A   1      37.015  30.191  29.091  1.00  0.00    -0.014 A 
BRANCH  33  34
ATOM     34  C   UNL A   1      38.240  29.802  29.822  1.00  0.00     0.031 A 
ATOM     35  C   UNL A   1      38.503  30.387  31.176  1.00  0.00     0.074 A 
ATOM     36  C   UNL A   1      39.151  28.997  29.245  1.00  0.00     0.049 A 
ATOM     37  N   UNL A   1      39.455  30.102  32.027  1.00  0.00    -0.248 NA
ATOM     38  C   UNL A   1      37.583  31.443  31.628  1.00  0.00     0.031 C 
ATOM     39  C   UNL A   1      39.069  28.459  27.888  1.00  0.00     0.029 A 
ATOM     40  N   UNL A   1      40.343  28.516  29.726  1.00  0.00    -0.354 N 
ATOM     41  C   UNL A   1      39.227  30.914  33.127  1.00  0.00     0.074 A 
ATOM     42  C   UNL A   1      38.090  31.752  32.814  1.00  0.00     0.031 C 
ATOM     43  C   UNL A   1      40.174  27.735  27.638  1.00  0.00     0.029 A 
ATOM     44  C   UNL A   1      41.027  27.739  28.825  1.00  0.00     0.049 A 
ATOM     45  H   UNL A   1      40.675  28.708  30.633  1.00  0.00     0.167 HD
ATOM     46  C   UNL A   1      39.892  30.934  34.305  1.00  0.00     0.037 A 
ATOM     47  C   UNL A   1      42.201  27.091  28.956  1.00  0.00     0.037 A 
ATOM     48  C   UNL A   1      41.037  30.118  34.603  1.00  0.00     0.049 A 
ATOM     49  C   UNL A   1      42.910  27.106  30.284  1.00  0.00     0.074 A 
ATOM     50  C   UNL A   1      41.737  30.011  35.792  1.00  0.00     0.029 A 
ATOM     51  N   UNL A   1      41.666  29.284  33.691  1.00  0.00    -0.354 N 
ATOM     52  N   UNL A   1      42.592  27.743  31.384  1.00  0.00    -0.248 NA
ATOM     53  C   UNL A   1      44.120  26.280  30.401  1.00  0.00     0.031 C 
ATOM     54  C   UNL A   1      42.811  29.140  35.589  1.00  0.00     0.029 A 
ATOM     55  C   UNL A   1      42.755  28.671  34.287  1.00  0.00     0.049 A 
ATOM     56  H   UNL A   1      41.380  29.148  32.759  1.00  0.00     0.167 HD
ATOM     57  C   UNL A   1      43.532  27.361  32.333  1.00  0.00     0.074 A 
ATOM     58  C   UNL A   1      44.435  26.437  31.680  1.00  0.00     0.031 C 
ATOM     59  C   UNL A   1      43.630  27.736  33.631  1.00  0.00     0.037 A 
BRANCH  46  60
ATOM     60  C   UNL A   1      39.372  31.835  35.381  1.00  0.00     0.064 A 
ATOM     61  C   UNL A   1      38.448  31.366  36.327  1.00  0.00     0.173 A 
ATOM     62  C   UNL A   1      39.856  33.143  35.522  1.00  0.00     0.173 A 
ATOM     63  F   UNL A   1      37.952  30.123  36.227  1.00  0.00    -0.203 F 
ATOM     64  C   UNL A   1      38.024  32.177  37.375  1.00  0.00     0.198 A 
ATOM     65  C   UNL A   1      39.445  33.944  36.584  1.00  0.00     0.198 A 
ATOM     66  F   UNL A   1      40.741  33.635  34.643  1.00  0.00    -0.203 F 
ATOM     67  F   UNL A   1      37.129  31.714  38.258  1.00  0.00    -0.200 F 
ATOM     68  C   UNL A   1      38.530  33.461  37.509  1.00  0.00     0.200 A 
ATOM     69  F   UNL A   1      39.941  35.181  36.719  1.00  0.00    -0.200 F 
ATOM     70  F   UNL A   1      38.137  34.233  38.530  1.00  0.00    -0.200 F 
ENDBRANCH  46  60
BRANCH  47  71
ATOM     71  C   UNL A   1      42.744  26.307  27.819  1.00  0.00     0.064 A 
ATOM     72  C   UNL A   1      42.395  24.961  27.643  1.00  0.00     0.173 A 
ATOM     73  C   UNL A   1      43.632  26.880  26.899  1.00  0.00     0.173 A 
ATOM     74  F   UNL A   1      41.564  24.367  28.512  1.00  0.00    -0.203 F 
ATOM     75  C   UNL A   1      42.933  24.210  26.602  1.00  0.00     0.198 A 
ATOM     76  C   UNL A   1      44.155  26.132  25.846  1.00  0.00     0.198 A 
ATOM     77  F   UNL A   1      43.993  28.165  27.025  1.00  0.00    -0.203 F 
ATOM     78  F   UNL A   1      42.616  22.913  26.481  1.00  0.00    -0.200 F 
ATOM     79  C   UNL A   1      43.810  24.795  25.702  1.00  0.00     0.200 A 
ATOM     80  F   UNL A   1      44.997  26.703  24.974  1.00  0.00    -0.200 F 
ATOM     81  F   UNL A   1      44.331  24.071  24.703  1.00  0.00    -0.200 F 
ENDBRANCH  47  71
BRANCH  59  82
ATOM     82  C   UNL A   1      44.718  27.115  34.454  1.00  0.00     0.064 A 
ATOM     83  C   UNL A   1      44.522  25.913  35.149  1.00  0.00     0.173 A 
ATOM     84  C   UNL A   1      45.994  27.697  34.491  1.00  0.00     0.173 A 
ATOM     85  F   UNL A   1      43.317  25.325  35.153  1.00  0.00    -0.203 F 
ATOM     86  C   UNL A   1      45.561  25.327  35.868  1.00  0.00     0.198 A 
ATOM     87  C   UNL A   1      47.037  27.095  35.189  1.00  0.00     0.198 A 
ATOM     88  F   UNL A   1      46.234  28.843  33.835  1.00  0.00    -0.203 F 
ATOM     89  F   UNL A   1      45.344  24.197  36.554  1.00  0.00    -0.200 F 
ATOM     90  C   UNL A   1      46.819  25.914  35.880  1.00  0.00     0.200 A 
ATOM     91  F   UNL A   1      48.253  27.656  35.190  1.00  0.00    -0.200 F 
ATOM     92  F   UNL A   1      47.819  25.341  36.563  1.00  0.00    -0.200 F 
ENDBRANCH  59  82
ENDBRANCH  33  34
ENDBRANCH  26  28
ENDBRANCH  25  26
ENDBRANCH  24  25
ENDBRANCH   1  24
TORSDOF 14
ENDMDL
