MODEL 1
REMARK VINA RESULT:     -10.5      0.000      0.000
REMARK SMILES CCC[NH2+][C@]1(C(=O)OCCOC(=O)c2ccc(-c3c4nc(c(-c5c(F)c(F)c(F)c(F)c5F)c5ccc([nH]5)c(-c5c(F)c(F)c(F)c(F)c5F)c5nc(c(-c6c(F)c(F)c(F)c(F)c6F)c6ccc3[nH]6)C=C5)C=C4)cc2)CC[C@@H](OC(C)(C)C)C1
REMARK SMILES IDX 9 1 8 2 6 3 7 4 5 5 77 6 85 7 78 8 79 9 4 10 3 13 2 14 1 15
REMARK SMILES IDX 80 16 81 17 82 18 83 19 84 20 10 21 11 22 12 23 13 24 14 25
REMARK SMILES IDX 15 26 76 27 16 28 75 29 17 30 18 31 19 32 69 33 20 34 74 35
REMARK SMILES IDX 68 36 70 37 21 38 73 39 67 40 66 41 22 43 54 44 34 45 53 46
REMARK SMILES IDX 35 47 38 48 52 49 71 50 36 51 37 52 51 54 72 55 39 56 23 57
REMARK SMILES IDX 24 58 32 59 25 60 26 61 30 62 33 63 27 64 28 65 31 66 29 67
REMARK SMILES IDX 55 68 56 69 64 70 57 71 58 72 62 73 65 74 59 75 60 76 63 77
REMARK SMILES IDX 61 78 40 79 41 80 49 81 42 82 43 83 47 84 50 85 44 86 45 87
REMARK SMILES IDX 48 88 46 89
REMARK H PARENT 4 11 4 12 70 42 38 53
REMARK Flexibility Score: inf
ROOT
ATOM      1  C   UNL A   1      35.167  20.971  25.546  1.00  0.00     0.274 C 
ENDROOT
BRANCH   1   2
ATOM      2  O   UNL A   1      34.993  22.381  25.288  1.00  0.00    -0.457 OA
BRANCH   2   3
ATOM      3  C   UNL A   1      34.316  23.077  26.236  1.00  0.00     0.368 C 
ATOM      4  O   UNL A   1      34.478  22.926  27.447  1.00  0.00    -0.245 OA
BRANCH   3   5
ATOM      5  C   UNL A   1      33.338  24.159  25.666  1.00  0.00     0.196 C 
ATOM      6  C   UNL A   1      32.164  24.374  26.640  1.00  0.00     0.084 C 
ATOM      7  C   UNL A   1      33.989  25.560  25.593  1.00  0.00     0.113 C 
ATOM      8  C   UNL A   1      31.663  25.786  26.377  1.00  0.00     0.039 C 
ATOM      9  C   UNL A   1      32.912  26.573  26.023  1.00  0.00     0.126 C 
BRANCH   5  10
ATOM     10  N   UNL A   1      32.973  23.651  24.310  1.00  0.00    -0.332 N 
ATOM     11  H   UNL A   1      33.576  22.849  24.126  1.00  0.00     0.347 HD
ATOM     12  H   UNL A   1      31.971  23.481  24.391  1.00  0.00     0.347 HD
BRANCH  10  13
ATOM     13  C   UNL A   1      33.067  24.519  23.148  1.00  0.00     0.261 C 
BRANCH  13  14
ATOM     14  C   UNL A   1      31.680  25.043  22.741  1.00  0.00     0.058 C 
ATOM     15  C   UNL A   1      30.543  24.165  23.256  1.00  0.00     0.010 C 
ENDBRANCH  13  14
ENDBRANCH  10  13
ENDBRANCH   5  10
BRANCH   9  16
ATOM     16  O   UNL A   1      33.325  27.588  26.925  1.00  0.00    -0.372 OA
BRANCH  16  17
ATOM     17  C   UNL A   1      33.365  28.999  26.685  1.00  0.00     0.060 C 
ATOM     18  C   UNL A   1      32.159  29.769  27.236  1.00  0.00     0.042 C 
ATOM     19  C   UNL A   1      34.662  29.665  27.136  1.00  0.00     0.042 C 
ATOM     20  C   UNL A   1      33.294  29.102  25.148  1.00  0.00     0.042 C 
ENDBRANCH  16  17
ENDBRANCH   9  16
ENDBRANCH   3   5
ENDBRANCH   2   3
ENDBRANCH   1   2
BRANCH   1  21
ATOM     21  C   UNL A   1      36.514  20.488  25.014  1.00  0.00     0.275 C 
BRANCH  21  22
ATOM     22  O   UNL A   1      37.479  21.546  25.146  1.00  0.00    -0.458 OA
BRANCH  22  23
ATOM     23  C   UNL A   1      38.628  21.218  25.778  1.00  0.00     0.338 C 
ATOM     24  O   UNL A   1      39.163  20.124  25.821  1.00  0.00    -0.246 OA
BRANCH  23  25
ATOM     25  C   UNL A   1      39.211  22.422  26.401  1.00  0.00     0.060 A 
ATOM     26  C   UNL A   1      38.647  23.672  26.158  1.00  0.00     0.016 A 
ATOM     27  C   UNL A   1      40.403  22.329  27.118  1.00  0.00     0.016 A 
ATOM     28  C   UNL A   1      39.322  24.833  26.520  1.00  0.00     0.010 A 
ATOM     29  C   UNL A   1      41.028  23.494  27.578  1.00  0.00     0.010 A 
ATOM     30  C   UNL A   1      40.522  24.763  27.240  1.00  0.00    -0.014 A 
BRANCH  30  31
ATOM     31  C   UNL A   1      41.268  26.009  27.570  1.00  0.00     0.031 A 
ATOM     32  C   UNL A   1      40.629  27.069  28.432  1.00  0.00     0.074 A 
ATOM     33  C   UNL A   1      42.540  26.175  27.153  1.00  0.00     0.049 A 
ATOM     34  N   UNL A   1      41.062  28.269  28.728  1.00  0.00    -0.248 NA
ATOM     35  C   UNL A   1      39.328  26.739  29.035  1.00  0.00     0.031 C 
ATOM     36  C   UNL A   1      43.306  25.215  26.356  1.00  0.00     0.029 A 
ATOM     37  N   UNL A   1      43.424  27.207  27.362  1.00  0.00    -0.354 N 
ATOM     38  C   UNL A   1      40.071  28.850  29.508  1.00  0.00     0.074 A 
ATOM     39  C   UNL A   1      39.009  27.875  29.637  1.00  0.00     0.031 C 
ATOM     40  C   UNL A   1      44.554  25.677  26.188  1.00  0.00     0.029 A 
ATOM     41  C   UNL A   1      44.658  26.999  26.797  1.00  0.00     0.049 A 
ATOM     42  H   UNL A   1      43.193  28.019  27.869  1.00  0.00     0.167 HD
ATOM     43  C   UNL A   1      40.047  30.083  30.070  1.00  0.00     0.037 A 
ATOM     44  C   UNL A   1      45.745  27.793  26.748  1.00  0.00     0.037 A 
ATOM     45  C   UNL A   1      41.120  31.038  29.988  1.00  0.00     0.049 A 
ATOM     46  C   UNL A   1      45.689  29.157  27.376  1.00  0.00     0.074 A 
ATOM     47  C   UNL A   1      41.171  32.329  30.485  1.00  0.00     0.029 A 
ATOM     48  N   UNL A   1      42.347  30.791  29.391  1.00  0.00    -0.354 N 
ATOM     49  N   UNL A   1      44.708  29.728  28.031  1.00  0.00    -0.248 NA
ATOM     50  C   UNL A   1      46.888  29.996  27.241  1.00  0.00     0.031 C 
ATOM     51  C   UNL A   1      42.427  32.868  30.180  1.00  0.00     0.029 A 
ATOM     52  C   UNL A   1      43.165  31.902  29.519  1.00  0.00     0.049 A 
ATOM     53  H   UNL A   1      42.599  29.951  28.944  1.00  0.00     0.167 HD
ATOM     54  C   UNL A   1      45.169  30.987  28.385  1.00  0.00     0.074 A 
ATOM     55  C   UNL A   1      46.530  31.087  27.902  1.00  0.00     0.031 C 
ATOM     56  C   UNL A   1      44.519  31.979  29.039  1.00  0.00     0.037 A 
BRANCH  43  57
ATOM     57  C   UNL A   1      38.809  30.481  30.816  1.00  0.00     0.064 A 
ATOM     58  C   UNL A   1      38.743  30.420  32.215  1.00  0.00     0.173 A 
ATOM     59  C   UNL A   1      37.693  30.975  30.124  1.00  0.00     0.173 A 
ATOM     60  F   UNL A   1      39.778  29.939  32.919  1.00  0.00    -0.203 F 
ATOM     61  C   UNL A   1      37.597  30.826  32.894  1.00  0.00     0.198 A 
ATOM     62  C   UNL A   1      36.558  31.400  30.807  1.00  0.00     0.198 A 
ATOM     63  F   UNL A   1      37.710  31.055  28.785  1.00  0.00    -0.203 F 
ATOM     64  F   UNL A   1      37.541  30.731  34.229  1.00  0.00    -0.200 F 
ATOM     65  C   UNL A   1      36.508  31.323  32.190  1.00  0.00     0.200 A 
ATOM     66  F   UNL A   1      35.510  31.888  30.126  1.00  0.00    -0.200 F 
ATOM     67  F   UNL A   1      35.410  31.723  32.846  1.00  0.00    -0.200 F 
ENDBRANCH  43  57
BRANCH  44  68
ATOM     68  C   UNL A   1      46.973  27.330  26.054  1.00  0.00     0.064 A 
ATOM     69  C   UNL A   1      47.982  26.651  26.752  1.00  0.00     0.173 A 
ATOM     70  C   UNL A   1      47.173  27.573  24.688  1.00  0.00     0.173 A 
ATOM     71  F   UNL A   1      47.848  26.420  28.066  1.00  0.00    -0.203 F 
ATOM     72  C   UNL A   1      49.151  26.246  26.111  1.00  0.00     0.198 A 
ATOM     73  C   UNL A   1      48.328  27.142  24.042  1.00  0.00     0.198 A 
ATOM     74  F   UNL A   1      46.238  28.222  23.978  1.00  0.00    -0.203 F 
ATOM     75  F   UNL A   1      50.119  25.639  26.809  1.00  0.00    -0.200 F 
ATOM     76  C   UNL A   1      49.321  26.486  24.755  1.00  0.00     0.200 A 
ATOM     77  F   UNL A   1      48.483  27.368  22.730  1.00  0.00    -0.200 F 
ATOM     78  F   UNL A   1      50.444  26.096  24.139  1.00  0.00    -0.200 F 
ENDBRANCH  44  68
BRANCH  56  79
ATOM     79  C   UNL A   1      45.281  33.245  29.283  1.00  0.00     0.064 A 
ATOM     80  C   UNL A   1      45.246  34.305  28.365  1.00  0.00     0.173 A 
ATOM     81  C   UNL A   1      46.042  33.405  30.449  1.00  0.00     0.173 A 
ATOM     82  F   UNL A   1      44.545  34.189  27.228  1.00  0.00    -0.203 F 
ATOM     83  C   UNL A   1      45.967  35.472  28.595  1.00  0.00     0.198 A 
ATOM     84  C   UNL A   1      46.746  34.582  30.686  1.00  0.00     0.198 A 
ATOM     85  F   UNL A   1      46.104  32.420  31.357  1.00  0.00    -0.203 F 
ATOM     86  F   UNL A   1      45.957  36.456  27.685  1.00  0.00    -0.200 F 
ATOM     87  C   UNL A   1      46.714  35.611  29.757  1.00  0.00     0.200 A 
ATOM     88  F   UNL A   1      47.463  34.718  31.811  1.00  0.00    -0.200 F 
ATOM     89  F   UNL A   1      47.412  36.735  29.975  1.00  0.00    -0.200 F 
ENDBRANCH  56  79
ENDBRANCH  30  31
ENDBRANCH  23  25
ENDBRANCH  22  23
ENDBRANCH  21  22
ENDBRANCH   1  21
TORSDOF 16
ENDMDL
MODEL 2
REMARK VINA RESULT:     -10.5      1.472      3.662
REMARK SMILES CCC[NH2+][C@]1(C(=O)OCCOC(=O)c2ccc(-c3c4nc(c(-c5c(F)c(F)c(F)c(F)c5F)c5ccc([nH]5)c(-c5c(F)c(F)c(F)c(F)c5F)c5nc(c(-c6c(F)c(F)c(F)c(F)c6F)c6ccc3[nH]6)C=C5)C=C4)cc2)CC[C@@H](OC(C)(C)C)C1
REMARK SMILES IDX 9 1 8 2 6 3 7 4 5 5 77 6 85 7 78 8 79 9 4 10 3 13 2 14 1 15
REMARK SMILES IDX 80 16 81 17 82 18 83 19 84 20 10 21 11 22 12 23 13 24 14 25
REMARK SMILES IDX 15 26 76 27 16 28 75 29 17 30 18 31 19 32 69 33 20 34 74 35
REMARK SMILES IDX 68 36 70 37 21 38 73 39 67 40 66 41 22 43 54 44 34 45 53 46
REMARK SMILES IDX 35 47 38 48 52 49 71 50 36 51 37 52 51 54 72 55 39 56 23 57
REMARK SMILES IDX 24 58 32 59 25 60 26 61 30 62 33 63 27 64 28 65 31 66 29 67
REMARK SMILES IDX 55 68 56 69 64 70 57 71 58 72 62 73 65 74 59 75 60 76 63 77
REMARK SMILES IDX 61 78 40 79 41 80 49 81 42 82 43 83 47 84 50 85 44 86 45 87
REMARK SMILES IDX 48 88 46 89
REMARK H PARENT 4 11 4 12 70 42 38 53
REMARK Flexibility Score: inf
ROOT
ATOM      1  C   UNL A   1      36.648  22.543  23.940  1.00  0.00     0.274 C 
ENDROOT
BRANCH   1   2
ATOM      2  O   UNL A   1      35.531  22.893  24.784  1.00  0.00    -0.457 OA
BRANCH   2   3
ATOM      3  C   UNL A   1      34.328  22.993  24.163  1.00  0.00     0.368 C 
ATOM      4  O   UNL A   1      34.049  23.865  23.341  1.00  0.00    -0.245 OA
BRANCH   3   5
ATOM      5  C   UNL A   1      33.319  21.852  24.528  1.00  0.00     0.196 C 
ATOM      6  C   UNL A   1      32.867  21.120  23.250  1.00  0.00     0.084 C 
ATOM      7  C   UNL A   1      33.978  20.726  25.358  1.00  0.00     0.113 C 
ATOM      8  C   UNL A   1      32.457  19.725  23.696  1.00  0.00     0.039 C 
ATOM      9  C   UNL A   1      33.407  19.395  24.835  1.00  0.00     0.126 C 
BRANCH   5  10
ATOM     10  N   UNL A   1      32.241  22.543  25.296  1.00  0.00    -0.332 N 
ATOM     11  H   UNL A   1      31.906  23.306  24.709  1.00  0.00     0.347 HD
ATOM     12  H   UNL A   1      31.590  21.787  25.507  1.00  0.00     0.347 HD
BRANCH  10  13
ATOM     13  C   UNL A   1      32.518  23.114  26.605  1.00  0.00     0.261 C 
BRANCH  13  14
ATOM     14  C   UNL A   1      31.743  24.425  26.807  1.00  0.00     0.058 C 
ATOM     15  C   UNL A   1      32.259  25.557  25.923  1.00  0.00     0.010 C 
ENDBRANCH  13  14
ENDBRANCH  10  13
ENDBRANCH   5  10
BRANCH   9  16
ATOM     16  O   UNL A   1      34.339  18.346  24.628  1.00  0.00    -0.372 OA
BRANCH  16  17
ATOM     17  C   UNL A   1      34.080  16.938  24.648  1.00  0.00     0.060 C 
ATOM     18  C   UNL A   1      35.199  16.098  25.276  1.00  0.00     0.042 C 
ATOM     19  C   UNL A   1      32.736  16.567  25.269  1.00  0.00     0.042 C 
ATOM     20  C   UNL A   1      34.026  16.563  23.153  1.00  0.00     0.042 C 
ENDBRANCH  16  17
ENDBRANCH   9  16
ENDBRANCH   3   5
ENDBRANCH   2   3
ENDBRANCH   1   2
BRANCH   1  21
ATOM     21  C   UNL A   1      37.379  21.322  24.493  1.00  0.00     0.275 C 
BRANCH  21  22
ATOM     22  O   UNL A   1      37.729  21.564  25.866  1.00  0.00    -0.458 OA
BRANCH  22  23
ATOM     23  C   UNL A   1      39.034  21.398  26.179  1.00  0.00     0.338 C 
ATOM     24  O   UNL A   1      39.714  20.401  26.013  1.00  0.00    -0.246 OA
BRANCH  23  25
ATOM     25  C   UNL A   1      39.574  22.655  26.732  1.00  0.00     0.060 A 
ATOM     26  C   UNL A   1      39.079  23.879  26.286  1.00  0.00     0.016 A 
ATOM     27  C   UNL A   1      40.669  22.624  27.593  1.00  0.00     0.016 A 
ATOM     28  C   UNL A   1      39.742  25.062  26.597  1.00  0.00     0.010 A 
ATOM     29  C   UNL A   1      41.270  23.824  27.994  1.00  0.00     0.010 A 
ATOM     30  C   UNL A   1      40.845  25.054  27.460  1.00  0.00    -0.014 A 
BRANCH  30  31
ATOM     31  C   UNL A   1      41.584  26.317  27.739  1.00  0.00     0.031 A 
ATOM     32  C   UNL A   1      40.956  27.390  28.593  1.00  0.00     0.074 A 
ATOM     33  C   UNL A   1      42.841  26.490  27.282  1.00  0.00     0.049 A 
ATOM     34  N   UNL A   1      41.380  28.602  28.848  1.00  0.00    -0.248 NA
ATOM     35  C   UNL A   1      39.676  27.058  29.240  1.00  0.00     0.031 C 
ATOM     36  C   UNL A   1      43.597  25.520  26.486  1.00  0.00     0.029 A 
ATOM     37  N   UNL A   1      43.716  27.538  27.441  1.00  0.00    -0.354 N 
ATOM     38  C   UNL A   1      40.404  29.189  29.642  1.00  0.00     0.074 A 
ATOM     39  C   UNL A   1      39.359  28.204  29.825  1.00  0.00     0.031 C 
ATOM     40  C   UNL A   1      44.833  25.994  26.271  1.00  0.00     0.029 A 
ATOM     41  C   UNL A   1      44.937  27.331  26.845  1.00  0.00     0.049 A 
ATOM     42  H   UNL A   1      43.489  28.358  27.934  1.00  0.00     0.167 HD
ATOM     43  C   UNL A   1      40.379  30.434  30.175  1.00  0.00     0.037 A 
ATOM     44  C   UNL A   1      46.011  28.137  26.747  1.00  0.00     0.037 A 
ATOM     45  C   UNL A   1      41.437  31.401  30.039  1.00  0.00     0.049 A 
ATOM     46  C   UNL A   1      45.955  29.515  27.343  1.00  0.00     0.074 A 
ATOM     47  C   UNL A   1      41.485  32.705  30.503  1.00  0.00     0.029 A 
ATOM     48  N   UNL A   1      42.649  31.155  29.414  1.00  0.00    -0.354 N 
ATOM     49  N   UNL A   1      44.986  30.090  28.012  1.00  0.00    -0.248 NA
ATOM     50  C   UNL A   1      47.139  30.367  27.153  1.00  0.00     0.031 C 
ATOM     51  C   UNL A   1      42.724  33.252  30.150  1.00  0.00     0.029 A 
ATOM     52  C   UNL A   1      43.456  32.280  29.491  1.00  0.00     0.049 A 
ATOM     53  H   UNL A   1      42.900  30.308  28.980  1.00  0.00     0.167 HD
ATOM     54  C   UNL A   1      45.440  31.363  28.322  1.00  0.00     0.074 A 
ATOM     55  C   UNL A   1      46.785  31.469  27.798  1.00  0.00     0.031 C 
ATOM     56  C   UNL A   1      44.794  32.362  28.971  1.00  0.00     0.037 A 
BRANCH  43  57
ATOM     57  C   UNL A   1      39.158  30.835  30.946  1.00  0.00     0.064 A 
ATOM     58  C   UNL A   1      38.055  31.432  30.318  1.00  0.00     0.173 A 
ATOM     59  C   UNL A   1      39.071  30.575  32.322  1.00  0.00     0.173 A 
ATOM     60  F   UNL A   1      38.098  31.716  29.008  1.00  0.00    -0.203 F 
ATOM     61  C   UNL A   1      36.915  31.767  31.043  1.00  0.00     0.198 A 
ATOM     62  C   UNL A   1      37.922  30.891  33.040  1.00  0.00     0.198 A 
ATOM     63  F   UNL A   1      40.099  30.002  32.967  1.00  0.00    -0.203 F 
ATOM     64  F   UNL A   1      35.885  32.366  30.431  1.00  0.00    -0.200 F 
ATOM     65  C   UNL A   1      36.846  31.489  32.402  1.00  0.00     0.200 A 
ATOM     66  F   UNL A   1      37.853  30.614  34.350  1.00  0.00    -0.200 F 
ATOM     67  F   UNL A   1      35.744  31.803  33.097  1.00  0.00    -0.200 F 
ENDBRANCH  43  57
BRANCH  44  68
ATOM     68  C   UNL A   1      47.226  27.673  26.029  1.00  0.00     0.064 A 
ATOM     69  C   UNL A   1      48.330  27.171  26.732  1.00  0.00     0.173 A 
ATOM     70  C   UNL A   1      47.315  27.741  24.631  1.00  0.00     0.173 A 
ATOM     71  F   UNL A   1      48.301  27.113  28.072  1.00  0.00    -0.203 F 
ATOM     72  C   UNL A   1      49.483  26.767  26.063  1.00  0.00     0.198 A 
ATOM     73  C   UNL A   1      48.458  27.309  23.963  1.00  0.00     0.198 A 
ATOM     74  F   UNL A   1      46.286  28.217  23.914  1.00  0.00    -0.203 F 
ATOM     75  F   UNL A   1      50.541  26.333  26.760  1.00  0.00    -0.200 F 
ATOM     76  C   UNL A   1      49.545  26.831  24.679  1.00  0.00     0.200 A 
ATOM     77  F   UNL A   1      48.508  27.364  22.624  1.00  0.00    -0.200 F 
ATOM     78  F   UNL A   1      50.653  26.441  24.036  1.00  0.00    -0.200 F 
ENDBRANCH  44  68
BRANCH  56  79
ATOM     79  C   UNL A   1      45.547  33.643  29.163  1.00  0.00     0.064 A 
ATOM     80  C   UNL A   1      45.473  34.679  28.221  1.00  0.00     0.173 A 
ATOM     81  C   UNL A   1      46.336  33.842  30.303  1.00  0.00     0.173 A 
ATOM     82  F   UNL A   1      44.742  34.526  27.106  1.00  0.00    -0.203 F 
ATOM     83  C   UNL A   1      46.184  35.861  28.402  1.00  0.00     0.198 A 
ATOM     84  C   UNL A   1      47.032  35.033  30.492  1.00  0.00     0.198 A 
ATOM     85  F   UNL A   1      46.437  32.880  31.233  1.00  0.00    -0.203 F 
ATOM     86  F   UNL A   1      46.136  36.821  27.469  1.00  0.00    -0.200 F 
ATOM     87  C   UNL A   1      46.960  36.038  29.539  1.00  0.00     0.200 A 
ATOM     88  F   UNL A   1      47.777  35.205  31.592  1.00  0.00    -0.200 F 
ATOM     89  F   UNL A   1      47.649  37.175  29.710  1.00  0.00    -0.200 F 
ENDBRANCH  56  79
ENDBRANCH  30  31
ENDBRANCH  23  25
ENDBRANCH  22  23
ENDBRANCH  21  22
ENDBRANCH   1  21
TORSDOF 16
ENDMDL
MODEL 3
REMARK VINA RESULT:     -10.3      4.024      9.641
REMARK SMILES CCC[NH2+][C@]1(C(=O)OCCOC(=O)c2ccc(-c3c4nc(c(-c5c(F)c(F)c(F)c(F)c5F)c5ccc([nH]5)c(-c5c(F)c(F)c(F)c(F)c5F)c5nc(c(-c6c(F)c(F)c(F)c(F)c6F)c6ccc3[nH]6)C=C5)C=C4)cc2)CC[C@@H](OC(C)(C)C)C1
REMARK SMILES IDX 9 1 8 2 6 3 7 4 5 5 77 6 85 7 78 8 79 9 4 10 3 13 2 14 1 15
REMARK SMILES IDX 80 16 81 17 82 18 83 19 84 20 10 21 11 22 12 23 13 24 14 25
REMARK SMILES IDX 15 26 76 27 16 28 75 29 17 30 18 31 19 32 69 33 20 34 74 35
REMARK SMILES IDX 68 36 70 37 21 38 73 39 67 40 66 41 22 43 54 44 34 45 53 46
REMARK SMILES IDX 35 47 38 48 52 49 71 50 36 51 37 52 51 54 72 55 39 56 23 57
REMARK SMILES IDX 24 58 32 59 25 60 26 61 30 62 33 63 27 64 28 65 31 66 29 67
REMARK SMILES IDX 55 68 56 69 64 70 57 71 58 72 62 73 65 74 59 75 60 76 63 77
REMARK SMILES IDX 61 78 40 79 41 80 49 81 42 82 43 83 47 84 50 85 44 86 45 87
REMARK SMILES IDX 48 88 46 89
REMARK H PARENT 4 11 4 12 70 42 38 53
REMARK Flexibility Score: inf
ROOT
ATOM      1  C   UNL A   1      31.742  28.958  25.495  1.00  0.00     0.274 C 
ENDROOT
BRANCH   1   2
ATOM      2  O   UNL A   1      32.380  27.833  26.135  1.00  0.00    -0.457 OA
BRANCH   2   3
ATOM      3  C   UNL A   1      31.680  26.671  26.125  1.00  0.00     0.368 C 
ATOM      4  O   UNL A   1      30.658  26.478  26.783  1.00  0.00    -0.245 OA
BRANCH   3   5
ATOM      5  C   UNL A   1      32.241  25.589  25.142  1.00  0.00     0.196 C 
ATOM      6  C   UNL A   1      33.101  26.261  24.055  1.00  0.00     0.084 C 
ATOM      7  C   UNL A   1      33.239  24.629  25.830  1.00  0.00     0.113 C 
ATOM      8  C   UNL A   1      34.075  25.193  23.580  1.00  0.00     0.039 C 
ATOM      9  C   UNL A   1      34.377  24.374  24.824  1.00  0.00     0.126 C 
BRANCH   5  10
ATOM     10  N   UNL A   1      31.028  24.865  24.656  1.00  0.00    -0.332 N 
ATOM     11  H   UNL A   1      30.260  25.136  25.270  1.00  0.00     0.347 HD
ATOM     12  H   UNL A   1      30.973  25.143  23.677  1.00  0.00     0.347 HD
BRANCH  10  13
ATOM     13  C   UNL A   1      31.016  23.412  24.587  1.00  0.00     0.261 C 
BRANCH  13  14
ATOM     14  C   UNL A   1      31.297  22.928  23.156  1.00  0.00     0.058 C 
ATOM     15  C   UNL A   1      32.353  21.827  23.103  1.00  0.00     0.010 C 
ENDBRANCH  13  14
ENDBRANCH  10  13
ENDBRANCH   5  10
BRANCH   9  16
ATOM     16  O   UNL A   1      35.698  24.425  25.338  1.00  0.00    -0.372 OA
BRANCH  16  17
ATOM     17  C   UNL A   1      36.666  23.371  25.351  1.00  0.00     0.060 C 
ATOM     18  C   UNL A   1      37.026  22.826  23.964  1.00  0.00     0.042 C 
ATOM     19  C   UNL A   1      37.937  23.709  26.126  1.00  0.00     0.042 C 
ATOM     20  C   UNL A   1      35.945  22.234  26.103  1.00  0.00     0.042 C 
ENDBRANCH  16  17
ENDBRANCH   9  16
ENDBRANCH   3   5
ENDBRANCH   2   3
ENDBRANCH   1   2
BRANCH   1  21
ATOM     21  C   UNL A   1      31.734  30.172  26.421  1.00  0.00     0.275 C 
BRANCH  21  22
ATOM     22  O   UNL A   1      32.896  30.976  26.153  1.00  0.00    -0.458 OA
BRANCH  22  23
ATOM     23  C   UNL A   1      33.275  31.812  27.145  1.00  0.00     0.338 C 
ATOM     24  O   UNL A   1      32.656  32.763  27.590  1.00  0.00    -0.246 OA
BRANCH  23  25
ATOM     25  C   UNL A   1      34.580  31.380  27.684  1.00  0.00     0.060 A 
ATOM     26  C   UNL A   1      34.787  30.041  28.008  1.00  0.00     0.016 A 
ATOM     27  C   UNL A   1      35.552  32.327  27.998  1.00  0.00     0.016 A 
ATOM     28  C   UNL A   1      35.902  29.660  28.748  1.00  0.00     0.010 A 
ATOM     29  C   UNL A   1      36.726  31.925  28.648  1.00  0.00     0.010 A 
ATOM     30  C   UNL A   1      36.892  30.596  29.076  1.00  0.00    -0.014 A 
BRANCH  30  31
ATOM     31  C   UNL A   1      38.051  30.191  29.920  1.00  0.00     0.031 A 
ATOM     32  C   UNL A   1      39.125  29.297  29.353  1.00  0.00     0.074 A 
ATOM     33  C   UNL A   1      38.182  30.667  31.175  1.00  0.00     0.049 A 
ATOM     34  N   UNL A   1      40.142  28.736  29.958  1.00  0.00    -0.248 NA
ATOM     35  C   UNL A   1      39.041  28.986  27.917  1.00  0.00     0.031 C 
ATOM     36  C   UNL A   1      37.250  31.579  31.840  1.00  0.00     0.029 A 
ATOM     37  N   UNL A   1      39.168  30.464  32.111  1.00  0.00    -0.354 N 
ATOM     38  C   UNL A   1      40.787  27.973  28.993  1.00  0.00     0.074 A 
ATOM     39  C   UNL A   1      40.046  28.137  27.761  1.00  0.00     0.031 C 
ATOM     40  C   UNL A   1      37.732  31.897  33.051  1.00  0.00     0.029 A 
ATOM     41  C   UNL A   1      38.966  31.154  33.282  1.00  0.00     0.049 A 
ATOM     42  H   UNL A   1      39.945  29.880  31.957  1.00  0.00     0.167 HD
ATOM     43  C   UNL A   1      41.898  27.209  29.119  1.00  0.00     0.037 A 
ATOM     44  C   UNL A   1      39.678  31.166  34.425  1.00  0.00     0.037 A 
ATOM     45  C   UNL A   1      42.668  27.081  30.328  1.00  0.00     0.049 A 
ATOM     46  C   UNL A   1      40.904  30.305  34.539  1.00  0.00     0.074 A 
ATOM     47  C   UNL A   1      43.783  26.294  30.568  1.00  0.00     0.029 A 
ATOM     48  N   UNL A   1      42.418  27.785  31.496  1.00  0.00    -0.354 N 
ATOM     49  N   UNL A   1      41.449  29.517  33.645  1.00  0.00    -0.248 NA
ATOM     50  C   UNL A   1      41.605  30.321  35.831  1.00  0.00     0.031 C 
ATOM     51  C   UNL A   1      44.202  26.516  31.885  1.00  0.00     0.029 A 
ATOM     52  C   UNL A   1      43.365  27.460  32.455  1.00  0.00     0.049 A 
ATOM     53  H   UNL A   1      41.679  28.422  31.625  1.00  0.00     0.167 HD
ATOM     54  C   UNL A   1      42.551  28.946  34.263  1.00  0.00     0.074 A 
ATOM     55  C   UNL A   1      42.620  29.502  35.598  1.00  0.00     0.031 C 
ATOM     56  C   UNL A   1      43.422  28.030  33.774  1.00  0.00     0.037 A 
BRANCH  43  57
ATOM     57  C   UNL A   1      42.345  26.431  27.918  1.00  0.00     0.064 A 
ATOM     58  C   UNL A   1      41.831  25.158  27.634  1.00  0.00     0.173 A 
ATOM     59  C   UNL A   1      43.263  26.988  27.014  1.00  0.00     0.173 A 
ATOM     60  F   UNL A   1      40.964  24.577  28.478  1.00  0.00    -0.203 F 
ATOM     61  C   UNL A   1      42.232  24.464  26.496  1.00  0.00     0.198 A 
ATOM     62  C   UNL A   1      43.644  26.300  25.866  1.00  0.00     0.198 A 
ATOM     63  F   UNL A   1      43.780  28.205  27.241  1.00  0.00    -0.203 F 
ATOM     64  F   UNL A   1      41.753  23.234  26.259  1.00  0.00    -0.200 F 
ATOM     65  C   UNL A   1      43.132  25.038  25.609  1.00  0.00     0.200 A 
ATOM     66  F   UNL A   1      44.508  26.860  25.006  1.00  0.00    -0.200 F 
ATOM     67  F   UNL A   1      43.509  24.372  24.508  1.00  0.00    -0.200 F 
ENDBRANCH  43  57
BRANCH  44  68
ATOM     68  C   UNL A   1      39.234  32.004  35.568  1.00  0.00     0.064 A 
ATOM     69  C   UNL A   1      39.696  33.318  35.721  1.00  0.00     0.173 A 
ATOM     70  C   UNL A   1      38.356  31.502  36.540  1.00  0.00     0.173 A 
ATOM     71  F   UNL A   1      40.559  33.832  34.831  1.00  0.00    -0.203 F 
ATOM     72  C   UNL A   1      39.308  34.094  36.811  1.00  0.00     0.198 A 
ATOM     73  C   UNL A   1      37.946  32.288  37.613  1.00  0.00     0.198 A 
ATOM     74  F   UNL A   1      37.889  30.248  36.440  1.00  0.00    -0.203 F 
ATOM     75  F   UNL A   1      39.799  35.332  36.958  1.00  0.00    -0.200 F 
ATOM     76  C   UNL A   1      38.428  33.581  37.753  1.00  0.00     0.200 A 
ATOM     77  F   UNL A   1      37.089  31.791  38.515  1.00  0.00    -0.200 F 
ATOM     78  F   UNL A   1      38.054  34.327  38.800  1.00  0.00    -0.200 F 
ENDBRANCH  44  68
BRANCH  56  79
ATOM     79  C   UNL A   1      44.529  27.593  34.683  1.00  0.00     0.064 A 
ATOM     80  C   UNL A   1      44.384  26.481  35.525  1.00  0.00     0.173 A 
ATOM     81  C   UNL A   1      45.749  28.282  34.702  1.00  0.00     0.173 A 
ATOM     82  F   UNL A   1      43.228  25.801  35.551  1.00  0.00    -0.203 F 
ATOM     83  C   UNL A   1      45.413  26.089  36.374  1.00  0.00     0.198 A 
ATOM     84  C   UNL A   1      46.785  27.877  35.539  1.00  0.00     0.198 A 
ATOM     85  F   UNL A   1      45.935  29.351  33.913  1.00  0.00    -0.203 F 
ATOM     86  F   UNL A   1      45.239  25.052  37.204  1.00  0.00    -0.200 F 
ATOM     87  C   UNL A   1      46.614  26.785  36.378  1.00  0.00     0.200 A 
ATOM     88  F   UNL A   1      47.946  28.546  35.539  1.00  0.00    -0.200 F 
ATOM     89  F   UNL A   1      47.604  26.410  37.201  1.00  0.00    -0.200 F 
ENDBRANCH  56  79
ENDBRANCH  30  31
ENDBRANCH  23  25
ENDBRANCH  22  23
ENDBRANCH  21  22
ENDBRANCH   1  21
TORSDOF 16
ENDMDL
