MODEL 1
REMARK VINA RESULT:     -11.8      0.000      0.000
REMARK SMILES CC[C@@](C)(NC(=O)c1c(C)cc(C)[nH]c1=O)C(=O)OCCOC(=O)c1ccc(-c2c3nc(c(-c4c(F)c(F)c(F)c(F)c4F)c4ccc([nH]4)c(-c4c(F)c(F)c(F)c(F)c4F)c4nc(c(-c5c(F)c(F)c(F)c(F)c5F)c5ccc2[nH]5)C=C4)C=C3)cc1
REMARK SMILES IDX 20 1 19 2 17 3 18 4 3 5 4 6 2 7 1 8 5 9 6 10 7 12 8 13 9 14
REMARK SMILES IDX 15 15 10 16 11 17 14 18 16 19 12 20 13 22 21 23 22 24 23 25
REMARK SMILES IDX 24 26 25 27 26 28 87 29 27 30 86 31 28 32 29 33 30 34 80 35
REMARK SMILES IDX 31 36 85 37 79 38 81 39 32 40 84 41 78 42 77 43 33 45 65 46
REMARK SMILES IDX 45 47 64 48 46 49 49 50 63 51 82 52 47 53 48 54 62 56 83 57
REMARK SMILES IDX 50 58 34 59 35 60 43 61 36 62 37 63 41 64 44 65 38 66 39 67
REMARK SMILES IDX 42 68 40 69 66 70 67 71 75 72 68 73 69 74 73 75 76 76 70 77
REMARK SMILES IDX 71 78 74 79 72 80 51 81 52 82 60 83 53 84 54 85 58 86 61 87
REMARK SMILES IDX 55 88 56 89 59 90 57 91
REMARK H PARENT 5 11 14 21 81 44 49 55
REMARK Flexibility Score: inf
ROOT
ATOM      1  C   UNL A   1      31.443  29.165  25.129  1.00  0.00     0.274 C 
ENDROOT
BRANCH   1   2
ATOM      2  O   UNL A   1      32.337  28.124  25.591  1.00  0.00    -0.460 OA
BRANCH   2   3
ATOM      3  C   UNL A   1      31.773  27.120  26.299  1.00  0.00     0.331 C 
ATOM      4  O   UNL A   1      31.048  27.320  27.270  1.00  0.00    -0.249 OA
BRANCH   3   5
ATOM      5  C   UNL A   1      32.207  25.691  25.852  1.00  0.00     0.135 C 
ATOM      6  C   UNL A   1      31.234  24.735  26.567  1.00  0.00     0.047 C 
BRANCH   5   7
ATOM      7  C   UNL A   1      32.003  25.573  24.294  1.00  0.00     0.037 C 
ATOM      8  C   UNL A   1      30.606  25.344  23.725  1.00  0.00     0.007 C 
ENDBRANCH   5   7
BRANCH   5   9
ATOM      9  N   UNL A   1      33.608  25.165  26.040  1.00  0.00    -0.336 N 
ATOM     10  C   UNL A   1      34.366  24.171  25.497  1.00  0.00     0.258 C 
ATOM     11  H   UNL A   1      34.100  25.667  26.729  1.00  0.00     0.165 HD
ATOM     12  O   UNL A   1      35.547  24.428  25.253  1.00  0.00    -0.269 OA
BRANCH  10  13
ATOM     13  C   UNL A   1      33.907  22.772  25.500  1.00  0.00     0.107 A 
ATOM     14  C   UNL A   1      33.583  22.173  24.329  1.00  0.00    -0.031 A 
ATOM     15  C   UNL A   1      33.661  22.046  26.775  1.00  0.00     0.261 A 
ATOM     16  C   UNL A   1      33.628  22.804  22.961  1.00  0.00     0.045 C 
ATOM     17  C   UNL A   1      33.189  20.769  24.324  1.00  0.00     0.025 A 
ATOM     18  N   UNL A   1      33.257  20.731  26.662  1.00  0.00    -0.326 N 
ATOM     19  O   UNL A   1      33.849  22.558  27.875  1.00  0.00    -0.269 OA
ATOM     20  C   UNL A   1      33.064  20.081  25.467  1.00  0.00     0.015 A 
ATOM     21  H   UNL A   1      33.097  20.226  27.492  1.00  0.00     0.169 HD
ATOM     22  C   UNL A   1      32.833  18.601  25.504  1.00  0.00     0.064 C 
ENDBRANCH  10  13
ENDBRANCH   5   9
ENDBRANCH   3   5
ENDBRANCH   2   3
ENDBRANCH   1   2
BRANCH   1  23
ATOM     23  C   UNL A   1      31.766  30.472  25.835  1.00  0.00     0.275 C 
BRANCH  23  24
ATOM     24  O   UNL A   1      33.098  30.384  26.350  1.00  0.00    -0.458 OA
BRANCH  24  25
ATOM     25  C   UNL A   1      33.482  31.413  27.137  1.00  0.00     0.338 C 
ATOM     26  O   UNL A   1      32.941  32.482  27.327  1.00  0.00    -0.246 OA
BRANCH  25  27
ATOM     27  C   UNL A   1      34.741  31.022  27.761  1.00  0.00     0.060 A 
ATOM     28  C   UNL A   1      35.659  32.010  28.114  1.00  0.00     0.016 A 
ATOM     29  C   UNL A   1      34.987  29.674  28.003  1.00  0.00     0.016 A 
ATOM     30  C   UNL A   1      36.851  31.650  28.717  1.00  0.00     0.010 A 
ATOM     31  C   UNL A   1      36.146  29.319  28.681  1.00  0.00     0.010 A 
ATOM     32  C   UNL A   1      37.075  30.307  29.048  1.00  0.00    -0.014 A 
BRANCH  32  33
ATOM     33  C   UNL A   1      38.266  29.957  29.842  1.00  0.00     0.031 A 
ATOM     34  C   UNL A   1      39.305  29.055  29.262  1.00  0.00     0.074 A 
ATOM     35  C   UNL A   1      38.388  30.495  31.071  1.00  0.00     0.049 A 
ATOM     36  N   UNL A   1      40.385  28.582  29.824  1.00  0.00    -0.248 NA
ATOM     37  C   UNL A   1      39.109  28.623  27.868  1.00  0.00     0.031 C 
ATOM     38  C   UNL A   1      37.424  31.412  31.686  1.00  0.00     0.029 A 
ATOM     39  N   UNL A   1      39.373  30.371  32.014  1.00  0.00    -0.354 N 
ATOM     40  C   UNL A   1      40.985  27.782  28.863  1.00  0.00     0.074 A 
ATOM     41  C   UNL A   1      40.149  27.821  27.684  1.00  0.00     0.031 C 
ATOM     42  C   UNL A   1      37.886  31.802  32.883  1.00  0.00     0.029 A 
ATOM     43  C   UNL A   1      39.138  31.106  33.151  1.00  0.00     0.049 A 
ATOM     44  H   UNL A   1      40.172  29.810  31.890  1.00  0.00     0.167 HD
ATOM     45  C   UNL A   1      42.140  27.088  28.971  1.00  0.00     0.037 A 
ATOM     46  C   UNL A   1      39.847  31.182  34.292  1.00  0.00     0.037 A 
ATOM     47  C   UNL A   1      42.959  27.092  30.153  1.00  0.00     0.049 A 
ATOM     48  C   UNL A   1      41.098  30.356  34.395  1.00  0.00     0.074 A 
ATOM     49  C   UNL A   1      44.150  26.429  30.378  1.00  0.00     0.029 A 
ATOM     50  N   UNL A   1      42.666  27.806  31.308  1.00  0.00    -0.354 N 
ATOM     51  N   UNL A   1      41.657  29.592  33.486  1.00  0.00    -0.248 NA
ATOM     52  C   UNL A   1      41.804  30.375  35.681  1.00  0.00     0.031 C 
ATOM     53  C   UNL A   1      44.560  26.713  31.685  1.00  0.00     0.029 A 
ATOM     54  C   UNL A   1      43.642  27.578  32.260  1.00  0.00     0.049 A 
ATOM     55  H   UNL A   1      41.880  28.387  31.430  1.00  0.00     0.167 HD
ATOM     56  C   UNL A   1      42.772  29.033  34.089  1.00  0.00     0.074 A 
ATOM     57  C   UNL A   1      42.832  29.576  35.432  1.00  0.00     0.031 C 
ATOM     58  C   UNL A   1      43.657  28.139  33.589  1.00  0.00     0.037 A 
BRANCH  45  59
ATOM     59  C   UNL A   1      42.572  26.256  27.804  1.00  0.00     0.064 A 
ATOM     60  C   UNL A   1      42.054  24.972  27.585  1.00  0.00     0.173 A 
ATOM     61  C   UNL A   1      43.468  26.776  26.858  1.00  0.00     0.173 A 
ATOM     62  F   UNL A   1      41.208  24.425  28.471  1.00  0.00    -0.203 F 
ATOM     63  C   UNL A   1      42.422  24.236  26.462  1.00  0.00     0.198 A 
ATOM     64  C   UNL A   1      43.819  26.044  25.726  1.00  0.00     0.198 A 
ATOM     65  F   UNL A   1      43.993  27.999  27.024  1.00  0.00    -0.203 F 
ATOM     66  F   UNL A   1      41.933  23.001  26.283  1.00  0.00    -0.200 F 
ATOM     67  C   UNL A   1      43.296  24.775  25.529  1.00  0.00     0.200 A 
ATOM     68  F   UNL A   1      44.658  26.570  24.824  1.00  0.00    -0.200 F 
ATOM     69  F   UNL A   1      43.637  24.071  24.441  1.00  0.00    -0.200 F 
ENDBRANCH  45  59
BRANCH  46  70
ATOM     70  C   UNL A   1      39.371  32.029  35.417  1.00  0.00     0.064 A 
ATOM     71  C   UNL A   1      39.751  33.374  35.522  1.00  0.00     0.173 A 
ATOM     72  C   UNL A   1      38.519  31.517  36.408  1.00  0.00     0.173 A 
ATOM     73  F   UNL A   1      40.580  33.909  34.613  1.00  0.00    -0.203 F 
ATOM     74  C   UNL A   1      39.307  34.169  36.578  1.00  0.00     0.198 A 
ATOM     75  C   UNL A   1      38.051  32.321  37.446  1.00  0.00     0.198 A 
ATOM     76  F   UNL A   1      38.122  30.237  36.357  1.00  0.00    -0.203 F 
ATOM     77  F   UNL A   1      39.719  35.441  36.676  1.00  0.00    -0.200 F 
ATOM     78  C   UNL A   1      38.452  33.644  37.534  1.00  0.00     0.200 A 
ATOM     79  F   UNL A   1      37.211  31.811  38.357  1.00  0.00    -0.200 F 
ATOM     80  F   UNL A   1      38.019  34.410  38.546  1.00  0.00    -0.200 F 
ENDBRANCH  46  70
BRANCH  58  81
ATOM     81  C   UNL A   1      44.746  27.675  34.504  1.00  0.00     0.064 A 
ATOM     82  C   UNL A   1      45.939  28.399  34.623  1.00  0.00     0.173 A 
ATOM     83  C   UNL A   1      44.554  26.563  35.336  1.00  0.00     0.173 A 
ATOM     84  F   UNL A   1      46.167  29.460  33.835  1.00  0.00    -0.203 F 
ATOM     85  C   UNL A   1      46.908  28.024  35.548  1.00  0.00     0.198 A 
ATOM     86  C   UNL A   1      45.514  26.206  36.277  1.00  0.00     0.198 A 
ATOM     87  F   UNL A   1      43.422  25.848  35.259  1.00  0.00    -0.203 F 
ATOM     88  F   UNL A   1      48.052  28.716  35.634  1.00  0.00    -0.200 F 
ATOM     89  C   UNL A   1      46.689  26.936  36.381  1.00  0.00     0.200 A 
ATOM     90  F   UNL A   1      45.296  25.166  37.092  1.00  0.00    -0.200 F 
ATOM     91  F   UNL A   1      47.613  26.592  37.289  1.00  0.00    -0.200 F 
ENDBRANCH  58  81
ENDBRANCH  32  33
ENDBRANCH  25  27
ENDBRANCH  24  25
ENDBRANCH  23  24
ENDBRANCH   1  23
TORSDOF 14
ENDMDL
MODEL 2
REMARK VINA RESULT:     -11.7      4.195      9.616
REMARK SMILES CC[C@@](C)(NC(=O)c1c(C)cc(C)[nH]c1=O)C(=O)OCCOC(=O)c1ccc(-c2c3nc(c(-c4c(F)c(F)c(F)c(F)c4F)c4ccc([nH]4)c(-c4c(F)c(F)c(F)c(F)c4F)c4nc(c(-c5c(F)c(F)c(F)c(F)c5F)c5ccc2[nH]5)C=C4)C=C3)cc1
REMARK SMILES IDX 20 1 19 2 17 3 18 4 3 5 4 6 2 7 1 8 5 9 6 10 7 12 8 13 9 14
REMARK SMILES IDX 15 15 10 16 11 17 14 18 16 19 12 20 13 22 21 23 22 24 23 25
REMARK SMILES IDX 24 26 25 27 26 28 87 29 27 30 86 31 28 32 29 33 30 34 80 35
REMARK SMILES IDX 31 36 85 37 79 38 81 39 32 40 84 41 78 42 77 43 33 45 65 46
REMARK SMILES IDX 45 47 64 48 46 49 49 50 63 51 82 52 47 53 48 54 62 56 83 57
REMARK SMILES IDX 50 58 34 59 35 60 43 61 36 62 37 63 41 64 44 65 38 66 39 67
REMARK SMILES IDX 42 68 40 69 66 70 67 71 75 72 68 73 69 74 73 75 76 76 70 77
REMARK SMILES IDX 71 78 74 79 72 80 51 81 52 82 60 83 53 84 54 85 58 86 61 87
REMARK SMILES IDX 55 88 56 89 59 90 57 91
REMARK H PARENT 5 11 14 21 81 44 49 55
REMARK Flexibility Score: inf
ROOT
ATOM      1  C   UNL A   1      36.783  22.405  23.687  1.00  0.00     0.274 C 
ENDROOT
BRANCH   1   2
ATOM      2  O   UNL A   1      35.658  23.144  24.220  1.00  0.00    -0.460 OA
BRANCH   2   3
ATOM      3  C   UNL A   1      34.483  22.998  23.568  1.00  0.00     0.331 C 
ATOM      4  O   UNL A   1      34.350  23.258  22.375  1.00  0.00    -0.249 OA
BRANCH   3   5
ATOM      5  C   UNL A   1      33.287  22.581  24.478  1.00  0.00     0.135 C 
ATOM      6  C   UNL A   1      33.286  21.042  24.456  1.00  0.00     0.047 C 
BRANCH   5   7
ATOM      7  C   UNL A   1      33.577  23.082  25.943  1.00  0.00     0.037 C 
ATOM      8  C   UNL A   1      32.774  22.521  27.112  1.00  0.00     0.007 C 
ENDBRANCH   5   7
BRANCH   5   9
ATOM      9  N   UNL A   1      31.876  23.058  24.242  1.00  0.00    -0.336 N 
ATOM     10  C   UNL A   1      31.275  24.248  23.961  1.00  0.00     0.258 C 
ATOM     11  H   UNL A   1      31.223  22.324  24.309  1.00  0.00     0.165 HD
ATOM     12  O   UNL A   1      30.367  24.241  23.126  1.00  0.00    -0.269 OA
BRANCH  10  13
ATOM     13  C   UNL A   1      31.460  25.422  24.830  1.00  0.00     0.107 A 
ATOM     14  C   UNL A   1      32.352  26.379  24.478  1.00  0.00    -0.031 A 
ATOM     15  C   UNL A   1      30.790  25.513  26.155  1.00  0.00     0.261 A 
ATOM     16  C   UNL A   1      33.225  26.378  23.249  1.00  0.00     0.045 C 
ATOM     17  C   UNL A   1      32.491  27.572  25.305  1.00  0.00     0.025 A 
ATOM     18  N   UNL A   1      31.013  26.668  26.876  1.00  0.00    -0.326 N 
ATOM     19  O   UNL A   1      30.038  24.639  26.577  1.00  0.00    -0.269 OA
ATOM     20  C   UNL A   1      31.810  27.703  26.452  1.00  0.00     0.015 A 
ATOM     21  H   UNL A   1      30.573  26.755  27.753  1.00  0.00     0.169 HD
ATOM     22  C   UNL A   1      31.787  28.976  27.242  1.00  0.00     0.064 C 
ENDBRANCH  10  13
ENDBRANCH   5   9
ENDBRANCH   3   5
ENDBRANCH   2   3
ENDBRANCH   1   2
BRANCH   1  23
ATOM     23  C   UNL A   1      37.115  21.239  24.605  1.00  0.00     0.275 C 
BRANCH  23  24
ATOM     24  O   UNL A   1      37.582  21.769  25.850  1.00  0.00    -0.458 OA
BRANCH  24  25
ATOM     25  C   UNL A   1      38.884  21.535  26.124  1.00  0.00     0.338 C 
ATOM     26  O   UNL A   1      39.516  20.503  26.041  1.00  0.00    -0.246 OA
BRANCH  25  27
ATOM     27  C   UNL A   1      39.454  22.798  26.580  1.00  0.00     0.060 A 
ATOM     28  C   UNL A   1      40.555  22.777  27.435  1.00  0.00     0.016 A 
ATOM     29  C   UNL A   1      38.895  23.993  26.136  1.00  0.00     0.016 A 
ATOM     30  C   UNL A   1      41.110  23.969  27.863  1.00  0.00     0.010 A 
ATOM     31  C   UNL A   1      39.501  25.188  26.500  1.00  0.00     0.010 A 
ATOM     32  C   UNL A   1      40.616  25.178  27.356  1.00  0.00    -0.014 A 
BRANCH  32  33
ATOM     33  C   UNL A   1      41.321  26.429  27.682  1.00  0.00     0.031 A 
ATOM     34  C   UNL A   1      40.637  27.475  28.498  1.00  0.00     0.074 A 
ATOM     35  C   UNL A   1      42.588  26.575  27.246  1.00  0.00     0.049 A 
ATOM     36  N   UNL A   1      41.064  28.664  28.832  1.00  0.00    -0.248 NA
ATOM     37  C   UNL A   1      39.294  27.151  29.006  1.00  0.00     0.031 C 
ATOM     38  C   UNL A   1      43.329  25.575  26.471  1.00  0.00     0.029 A 
ATOM     39  N   UNL A   1      43.483  27.598  27.406  1.00  0.00    -0.354 N 
ATOM     40  C   UNL A   1      40.039  29.235  29.571  1.00  0.00     0.074 A 
ATOM     41  C   UNL A   1      38.961  28.273  29.630  1.00  0.00     0.031 C 
ATOM     42  C   UNL A   1      44.578  26.015  26.261  1.00  0.00     0.029 A 
ATOM     43  C   UNL A   1      44.703  27.355  26.820  1.00  0.00     0.049 A 
ATOM     44  H   UNL A   1      43.274  28.427  27.893  1.00  0.00     0.167 HD
ATOM     45  C   UNL A   1      40.019  30.456  30.148  1.00  0.00     0.037 A 
ATOM     46  C   UNL A   1      45.787  28.146  26.725  1.00  0.00     0.037 A 
ATOM     47  C   UNL A   1      41.121  31.379  30.089  1.00  0.00     0.049 A 
ATOM     48  C   UNL A   1      45.709  29.517  27.334  1.00  0.00     0.074 A 
ATOM     49  C   UNL A   1      41.217  32.643  30.637  1.00  0.00     0.029 A 
ATOM     50  N   UNL A   1      42.323  31.123  29.442  1.00  0.00    -0.354 N 
ATOM     51  N   UNL A   1      44.732  30.057  28.024  1.00  0.00    -0.248 NA
ATOM     52  C   UNL A   1      46.865  30.400  27.134  1.00  0.00     0.031 C 
ATOM     53  C   UNL A   1      42.465  33.169  30.290  1.00  0.00     0.029 A 
ATOM     54  C   UNL A   1      43.159  32.220  29.556  1.00  0.00     0.049 A 
ATOM     55  H   UNL A   1      42.547  30.287  28.973  1.00  0.00     0.167 HD
ATOM     56  C   UNL A   1      45.148  31.343  28.333  1.00  0.00     0.074 A 
ATOM     57  C   UNL A   1      46.483  31.490  27.787  1.00  0.00     0.031 C 
ATOM     58  C   UNL A   1      44.481  32.321  28.991  1.00  0.00     0.037 A 
BRANCH  45  59
ATOM     59  C   UNL A   1      38.775  30.874  30.868  1.00  0.00     0.064 A 
ATOM     60  C   UNL A   1      38.651  30.739  32.258  1.00  0.00     0.173 A 
ATOM     61  C   UNL A   1      37.720  31.476  30.168  1.00  0.00     0.173 A 
ATOM     62  F   UNL A   1      39.626  30.154  32.970  1.00  0.00    -0.203 F 
ATOM     63  C   UNL A   1      37.510  31.189  32.920  1.00  0.00     0.198 A 
ATOM     64  C   UNL A   1      36.590  31.941  30.835  1.00  0.00     0.198 A 
ATOM     65  F   UNL A   1      37.790  31.625  28.836  1.00  0.00    -0.203 F 
ATOM     66  F   UNL A   1      37.401  31.030  34.246  1.00  0.00    -0.200 F 
ATOM     67  C   UNL A   1      36.486  31.797  32.210  1.00  0.00     0.200 A 
ATOM     68  F   UNL A   1      35.604  32.534  30.147  1.00  0.00    -0.200 F 
ATOM     69  F   UNL A   1      35.396  32.242  32.851  1.00  0.00    -0.200 F 
ENDBRANCH  45  59
BRANCH  46  70
ATOM     70  C   UNL A   1      46.998  27.676  26.001  1.00  0.00     0.064 A 
ATOM     71  C   UNL A   1      48.097  27.152  26.694  1.00  0.00     0.173 A 
ATOM     72  C   UNL A   1      47.080  27.731  24.601  1.00  0.00     0.173 A 
ATOM     73  F   UNL A   1      48.079  27.093  28.034  1.00  0.00    -0.203 F 
ATOM     74  C   UNL A   1      49.235  26.713  26.016  1.00  0.00     0.198 A 
ATOM     75  C   UNL A   1      48.204  27.264  23.923  1.00  0.00     0.198 A 
ATOM     76  F   UNL A   1      46.057  28.223  23.887  1.00  0.00    -0.203 F 
ATOM     77  F   UNL A   1      50.288  26.253  26.707  1.00  0.00    -0.200 F 
ATOM     78  C   UNL A   1      49.283  26.762  24.632  1.00  0.00     0.200 A 
ATOM     79  F   UNL A   1      48.238  27.299  22.584  1.00  0.00    -0.200 F 
ATOM     80  F   UNL A   1      50.374  26.333  23.980  1.00  0.00    -0.200 F 
ENDBRANCH  46  70
BRANCH  58  81
ATOM     81  C   UNL A   1      45.176  33.639  29.133  1.00  0.00     0.064 A 
ATOM     82  C   UNL A   1      46.057  33.874  30.196  1.00  0.00     0.173 A 
ATOM     83  C   UNL A   1      45.038  34.629  28.150  1.00  0.00     0.173 A 
ATOM     84  F   UNL A   1      46.206  32.958  31.165  1.00  0.00    -0.203 F 
ATOM     85  C   UNL A   1      46.779  35.060  30.271  1.00  0.00     0.198 A 
ATOM     86  C   UNL A   1      45.779  35.803  28.215  1.00  0.00     0.198 A 
ATOM     87  F   UNL A   1      44.210  34.439  27.111  1.00  0.00    -0.203 F 
ATOM     88  F   UNL A   1      47.602  35.277  31.306  1.00  0.00    -0.200 F 
ATOM     89  C   UNL A   1      46.648  36.017  29.275  1.00  0.00     0.200 A 
ATOM     90  F   UNL A   1      45.665  36.720  27.245  1.00  0.00    -0.200 F 
ATOM     91  F   UNL A   1      47.364  37.149  29.336  1.00  0.00    -0.200 F 
ENDBRANCH  58  81
ENDBRANCH  32  33
ENDBRANCH  25  27
ENDBRANCH  24  25
ENDBRANCH  23  24
ENDBRANCH   1  23
TORSDOF 14
ENDMDL
MODEL 3
REMARK VINA RESULT:     -11.7      4.231      9.637
REMARK SMILES CC[C@@](C)(NC(=O)c1c(C)cc(C)[nH]c1=O)C(=O)OCCOC(=O)c1ccc(-c2c3nc(c(-c4c(F)c(F)c(F)c(F)c4F)c4ccc([nH]4)c(-c4c(F)c(F)c(F)c(F)c4F)c4nc(c(-c5c(F)c(F)c(F)c(F)c5F)c5ccc2[nH]5)C=C4)C=C3)cc1
REMARK SMILES IDX 20 1 19 2 17 3 18 4 3 5 4 6 2 7 1 8 5 9 6 10 7 12 8 13 9 14
REMARK SMILES IDX 15 15 10 16 11 17 14 18 16 19 12 20 13 22 21 23 22 24 23 25
REMARK SMILES IDX 24 26 25 27 26 28 87 29 27 30 86 31 28 32 29 33 30 34 80 35
REMARK SMILES IDX 31 36 85 37 79 38 81 39 32 40 84 41 78 42 77 43 33 45 65 46
REMARK SMILES IDX 45 47 64 48 46 49 49 50 63 51 82 52 47 53 48 54 62 56 83 57
REMARK SMILES IDX 50 58 34 59 35 60 43 61 36 62 37 63 41 64 44 65 38 66 39 67
REMARK SMILES IDX 42 68 40 69 66 70 67 71 75 72 68 73 69 74 73 75 76 76 70 77
REMARK SMILES IDX 71 78 74 79 72 80 51 81 52 82 60 83 53 84 54 85 58 86 61 87
REMARK SMILES IDX 55 88 56 89 59 90 57 91
REMARK H PARENT 5 11 14 21 81 44 49 55
REMARK Flexibility Score: inf
ROOT
ATOM      1  C   UNL A   1      36.837  22.292  23.680  1.00  0.00     0.274 C 
ENDROOT
BRANCH   1   2
ATOM      2  O   UNL A   1      35.765  23.108  24.208  1.00  0.00    -0.460 OA
BRANCH   2   3
ATOM      3  C   UNL A   1      34.575  23.017  23.575  1.00  0.00     0.331 C 
ATOM      4  O   UNL A   1      34.425  23.332  22.397  1.00  0.00    -0.249 OA
BRANCH   3   5
ATOM      5  C   UNL A   1      33.386  22.588  24.489  1.00  0.00     0.135 C 
ATOM      6  C   UNL A   1      33.410  21.048  24.480  1.00  0.00     0.047 C 
BRANCH   5   7
ATOM      7  C   UNL A   1      33.670  23.106  25.950  1.00  0.00     0.037 C 
ATOM      8  C   UNL A   1      33.119  22.340  27.149  1.00  0.00     0.007 C 
ENDBRANCH   5   7
BRANCH   5   9
ATOM      9  N   UNL A   1      31.967  23.039  24.251  1.00  0.00    -0.336 N 
ATOM     10  C   UNL A   1      31.346  24.217  23.960  1.00  0.00     0.258 C 
ATOM     11  H   UNL A   1      31.327  22.295  24.325  1.00  0.00     0.165 HD
ATOM     12  O   UNL A   1      30.438  24.188  23.127  1.00  0.00    -0.269 OA
BRANCH  10  13
ATOM     13  C   UNL A   1      31.514  25.402  24.818  1.00  0.00     0.107 A 
ATOM     14  C   UNL A   1      32.348  26.396  24.429  1.00  0.00    -0.031 A 
ATOM     15  C   UNL A   1      30.893  25.469  26.168  1.00  0.00     0.261 A 
ATOM     16  C   UNL A   1      33.172  26.427  23.166  1.00  0.00     0.045 C 
ATOM     17  C   UNL A   1      32.467  27.597  25.246  1.00  0.00     0.025 A 
ATOM     18  N   UNL A   1      31.093  26.636  26.877  1.00  0.00    -0.326 N 
ATOM     19  O   UNL A   1      30.197  24.564  26.621  1.00  0.00    -0.269 OA
ATOM     20  C   UNL A   1      31.827  27.703  26.419  1.00  0.00     0.015 A 
ATOM     21  H   UNL A   1      30.684  26.707  27.770  1.00  0.00     0.169 HD
ATOM     22  C   UNL A   1      31.778  28.977  27.206  1.00  0.00     0.064 C 
ENDBRANCH  10  13
ENDBRANCH   5   9
ENDBRANCH   3   5
ENDBRANCH   2   3
ENDBRANCH   1   2
BRANCH   1  23
ATOM     23  C   UNL A   1      37.178  21.186  24.667  1.00  0.00     0.275 C 
BRANCH  23  24
ATOM     24  O   UNL A   1      37.646  21.795  25.875  1.00  0.00    -0.458 OA
BRANCH  24  25
ATOM     25  C   UNL A   1      38.943  21.562  26.173  1.00  0.00     0.338 C 
ATOM     26  O   UNL A   1      39.573  20.527  26.119  1.00  0.00    -0.246 OA
BRANCH  25  27
ATOM     27  C   UNL A   1      39.510  22.832  26.612  1.00  0.00     0.060 A 
ATOM     28  C   UNL A   1      40.601  22.824  27.481  1.00  0.00     0.016 A 
ATOM     29  C   UNL A   1      38.960  24.019  26.139  1.00  0.00     0.016 A 
ATOM     30  C   UNL A   1      41.153  24.023  27.894  1.00  0.00     0.010 A 
ATOM     31  C   UNL A   1      39.564  25.220  26.489  1.00  0.00     0.010 A 
ATOM     32  C   UNL A   1      40.667  25.223  27.358  1.00  0.00    -0.014 A 
BRANCH  32  33
ATOM     33  C   UNL A   1      41.372  26.479  27.670  1.00  0.00     0.031 A 
ATOM     34  C   UNL A   1      40.684  27.537  28.466  1.00  0.00     0.074 A 
ATOM     35  C   UNL A   1      42.641  26.618  27.240  1.00  0.00     0.049 A 
ATOM     36  N   UNL A   1      41.109  28.730  28.786  1.00  0.00    -0.248 NA
ATOM     37  C   UNL A   1      39.338  27.221  28.972  1.00  0.00     0.031 C 
ATOM     38  C   UNL A   1      43.386  25.606  26.483  1.00  0.00     0.029 A 
ATOM     39  N   UNL A   1      43.536  27.642  27.389  1.00  0.00    -0.354 N 
ATOM     40  C   UNL A   1      40.080  29.312  29.511  1.00  0.00     0.074 A 
ATOM     41  C   UNL A   1      39.002  28.352  29.577  1.00  0.00     0.031 C 
ATOM     42  C   UNL A   1      44.636  26.043  26.274  1.00  0.00     0.029 A 
ATOM     43  C   UNL A   1      44.759  27.391  26.814  1.00  0.00     0.049 A 
ATOM     44  H   UNL A   1      43.324  28.479  27.863  1.00  0.00     0.167 HD
ATOM     45  C   UNL A   1      40.058  30.542  30.070  1.00  0.00     0.037 A 
ATOM     46  C   UNL A   1      45.844  28.180  26.713  1.00  0.00     0.037 A 
ATOM     47  C   UNL A   1      41.160  31.464  30.003  1.00  0.00     0.049 A 
ATOM     48  C   UNL A   1      45.764  29.560  27.303  1.00  0.00     0.074 A 
ATOM     49  C   UNL A   1      41.254  32.736  30.533  1.00  0.00     0.029 A 
ATOM     50  N   UNL A   1      42.366  31.198  29.367  1.00  0.00    -0.354 N 
ATOM     51  N   UNL A   1      44.783  30.110  27.978  1.00  0.00    -0.248 NA
ATOM     52  C   UNL A   1      46.920  30.439  27.096  1.00  0.00     0.031 C 
ATOM     53  C   UNL A   1      42.504  33.256  30.186  1.00  0.00     0.029 A 
ATOM     54  C   UNL A   1      43.202  32.295  29.470  1.00  0.00     0.049 A 
ATOM     55  H   UNL A   1      42.593  30.355  28.911  1.00  0.00     0.167 HD
ATOM     56  C   UNL A   1      45.197  31.400  28.271  1.00  0.00     0.074 A 
ATOM     57  C   UNL A   1      46.535  31.538  27.731  1.00  0.00     0.031 C 
ATOM     58  C   UNL A   1      44.528  32.388  28.910  1.00  0.00     0.037 A 
BRANCH  45  59
ATOM     59  C   UNL A   1      38.810  30.971  30.776  1.00  0.00     0.064 A 
ATOM     60  C   UNL A   1      37.711  31.488  30.077  1.00  0.00     0.173 A 
ATOM     61  C   UNL A   1      38.688  30.803  32.163  1.00  0.00     0.173 A 
ATOM     62  F   UNL A   1      37.785  31.684  28.752  1.00  0.00    -0.203 F 
ATOM     63  C   UNL A   1      36.535  31.826  30.743  1.00  0.00     0.198 A 
ATOM     64  C   UNL A   1      37.505  31.124  32.824  1.00  0.00     0.198 A 
ATOM     65  F   UNL A   1      39.713  30.314  32.878  1.00  0.00    -0.203 F 
ATOM     66  F   UNL A   1      35.503  32.340  30.059  1.00  0.00    -0.200 F 
ATOM     67  C   UNL A   1      36.429  31.635  32.112  1.00  0.00     0.200 A 
ATOM     68  F   UNL A   1      37.403  30.933  34.146  1.00  0.00    -0.200 F 
ATOM     69  F   UNL A   1      35.292  31.947  32.749  1.00  0.00    -0.200 F 
ENDBRANCH  45  59
BRANCH  46  70
ATOM     70  C   UNL A   1      47.058  27.698  26.004  1.00  0.00     0.064 A 
ATOM     71  C   UNL A   1      48.152  27.181  26.711  1.00  0.00     0.173 A 
ATOM     72  C   UNL A   1      47.150  27.736  24.604  1.00  0.00     0.173 A 
ATOM     73  F   UNL A   1      48.125  27.139  28.051  1.00  0.00    -0.203 F 
ATOM     74  C   UNL A   1      49.293  26.732  26.046  1.00  0.00     0.198 A 
ATOM     75  C   UNL A   1      48.278  27.258  23.939  1.00  0.00     0.198 A 
ATOM     76  F   UNL A   1      46.133  28.221  23.876  1.00  0.00    -0.203 F 
ATOM     77  F   UNL A   1      50.341  26.279  26.749  1.00  0.00    -0.200 F 
ATOM     78  C   UNL A   1      49.352  26.763  24.661  1.00  0.00     0.200 A 
ATOM     79  F   UNL A   1      48.321  27.277  22.600  1.00  0.00    -0.200 F 
ATOM     80  F   UNL A   1      50.446  26.325  24.022  1.00  0.00    -0.200 F 
ENDBRANCH  46  70
BRANCH  58  81
ATOM     81  C   UNL A   1      45.222  33.707  29.037  1.00  0.00     0.064 A 
ATOM     82  C   UNL A   1      45.030  34.713  28.081  1.00  0.00     0.173 A 
ATOM     83  C   UNL A   1      45.998  34.000  30.167  1.00  0.00     0.173 A 
ATOM     84  F   UNL A   1      44.307  34.468  26.978  1.00  0.00    -0.203 F 
ATOM     85  C   UNL A   1      45.595  35.972  28.253  1.00  0.00     0.198 A 
ATOM     86  C   UNL A   1      46.539  35.268  30.348  1.00  0.00     0.198 A 
ATOM     87  F   UNL A   1      46.199  33.068  31.110  1.00  0.00    -0.203 F 
ATOM     88  F   UNL A   1      45.418  36.916  27.318  1.00  0.00    -0.200 F 
ATOM     89  C   UNL A   1      46.338  36.252  29.391  1.00  0.00     0.200 A 
ATOM     90  F   UNL A   1      47.244  35.543  31.454  1.00  0.00    -0.200 F 
ATOM     91  F   UNL A   1      46.860  37.474  29.566  1.00  0.00    -0.200 F 
ENDBRANCH  58  81
ENDBRANCH  32  33
ENDBRANCH  25  27
ENDBRANCH  24  25
ENDBRANCH  23  24
ENDBRANCH   1  23
TORSDOF 14
ENDMDL
