MODEL 1
REMARK VINA RESULT:     -12.0      0.000      0.000
REMARK SMILES Cc1ccc(/C=C/C(=O)N[C@](C)(C(=O)OCCOC(=O)c2ccc(-c3c4nc(c(-c5c(F)c(F)c(F)c(F)c5F)c5ccc([nH]5)c(-c5c(F)c(F)c(F)c(F)c5F)c5nc(c(-c6c(F)c(F)c(F)c(F)c6F)c6ccc3[nH]6)C=C5)C=C4)cc2)C(F)(F)F)o1
REMARK SMILES IDX 16 1 15 2 13 3 14 4 11 5 12 6 10 7 8 8 9 9 7 11 6 12 5 13
REMARK SMILES IDX 1 14 2 15 3 16 88 17 4 18 84 19 85 20 86 21 87 22 17 23
REMARK SMILES IDX 18 24 19 25 20 26 21 27 22 28 83 29 23 30 82 31 24 32 25 33
REMARK SMILES IDX 26 34 76 35 27 36 81 37 75 38 77 39 28 40 80 41 74 42 73 43
REMARK SMILES IDX 29 45 61 46 41 47 60 48 42 49 45 50 59 51 78 52 43 53 44 54
REMARK SMILES IDX 58 56 79 57 46 58 30 59 31 60 39 61 32 62 33 63 37 64 40 65
REMARK SMILES IDX 34 66 35 67 38 68 36 69 62 70 63 71 71 72 64 73 65 74 69 75
REMARK SMILES IDX 72 76 66 77 67 78 70 79 68 80 47 81 48 82 56 83 49 84 50 85
REMARK SMILES IDX 54 86 57 87 51 88 52 89 55 90 53 91
REMARK H PARENT 10 10 77 44 45 55
REMARK Flexibility Score: inf
ROOT
ATOM      1  C   UNL A   1      31.779  28.543  27.492  1.00  0.00     0.274 C 
ENDROOT
BRANCH   1   2
ATOM      2  O   UNL A   1      31.260  27.320  26.917  1.00  0.00    -0.460 OA
BRANCH   2   3
ATOM      3  C   UNL A   1      32.142  26.542  26.223  1.00  0.00     0.341 C 
ATOM      4  O   UNL A   1      33.358  26.628  26.347  1.00  0.00    -0.249 OA
BRANCH   3   5
ATOM      5  C   UNL A   1      31.455  25.711  25.134  1.00  0.00     0.231 C 
ATOM      6  C   UNL A   1      29.948  25.978  25.012  1.00  0.00     0.058 C 
BRANCH   5   7
ATOM      7  N   UNL A   1      32.286  25.953  23.910  1.00  0.00    -0.329 N 
ATOM      8  C   UNL A   1      32.537  27.009  23.105  1.00  0.00     0.245 C 
ATOM      9  O   UNL A   1      33.446  26.938  22.283  1.00  0.00    -0.270 OA
ATOM     10  H   UNL A   1      32.766  25.143  23.621  1.00  0.00     0.165 HD
BRANCH   8  11
ATOM     11  C   UNL A   1      31.660  28.183  23.123  1.00  0.00     0.075 C 
ATOM     12  C   UNL A   1      30.552  28.243  22.375  1.00  0.00     0.053 C 
BRANCH  12  13
ATOM     13  C   UNL A   1      29.775  29.429  22.394  1.00  0.00     0.127 A 
ATOM     14  C   UNL A   1      28.027  31.950  20.534  1.00  0.00     0.087 C 
ATOM     15  C   UNL A   1      28.585  31.139  21.632  1.00  0.00     0.101 A 
ATOM     16  C   UNL A   1      28.553  31.239  23.002  1.00  0.00     0.046 A 
ATOM     17  O   UNL A   1      29.295  30.042  21.261  1.00  0.00    -0.462 OA
ATOM     18  C   UNL A   1      29.329  30.160  23.490  1.00  0.00     0.050 A 
ENDBRANCH  12  13
ENDBRANCH   8  11
ENDBRANCH   5   7
BRANCH   5  19
ATOM     19  C   UNL A   1      31.602  24.241  25.583  1.00  0.00     0.422 C 
ATOM     20  F   UNL A   1      31.443  24.089  26.916  1.00  0.00    -0.168 F 
ATOM     21  F   UNL A   1      30.654  23.469  24.991  1.00  0.00    -0.168 F 
ATOM     22  F   UNL A   1      32.796  23.707  25.242  1.00  0.00    -0.168 F 
ENDBRANCH   5  19
ENDBRANCH   3   5
ENDBRANCH   2   3
ENDBRANCH   1   2
BRANCH   1  23
ATOM     23  C   UNL A   1      31.753  29.658  26.453  1.00  0.00     0.275 C 
BRANCH  23  24
ATOM     24  O   UNL A   1      33.098  30.134  26.282  1.00  0.00    -0.458 OA
BRANCH  24  25
ATOM     25  C   UNL A   1      33.440  31.214  27.014  1.00  0.00     0.338 C 
ATOM     26  O   UNL A   1      32.776  32.209  27.251  1.00  0.00    -0.246 OA
BRANCH  25  27
ATOM     27  C   UNL A   1      34.747  30.947  27.625  1.00  0.00     0.060 A 
ATOM     28  C   UNL A   1      35.062  29.627  27.951  1.00  0.00     0.016 A 
ATOM     29  C   UNL A   1      35.608  31.987  27.965  1.00  0.00     0.016 A 
ATOM     30  C   UNL A   1      36.215  29.342  28.673  1.00  0.00     0.010 A 
ATOM     31  C   UNL A   1      36.799  31.692  28.635  1.00  0.00     0.010 A 
ATOM     32  C   UNL A   1      37.099  30.371  29.022  1.00  0.00    -0.014 A 
BRANCH  32  33
ATOM     33  C   UNL A   1      38.294  30.079  29.855  1.00  0.00     0.031 A 
ATOM     34  C   UNL A   1      39.397  29.225  29.295  1.00  0.00     0.074 A 
ATOM     35  C   UNL A   1      38.413  30.590  31.096  1.00  0.00     0.049 A 
ATOM     36  N   UNL A   1      40.422  28.688  29.906  1.00  0.00    -0.248 NA
ATOM     37  C   UNL A   1      39.330  28.924  27.856  1.00  0.00     0.031 C 
ATOM     38  C   UNL A   1      37.450  31.483  31.741  1.00  0.00     0.029 A 
ATOM     39  N   UNL A   1      39.401  30.432  32.035  1.00  0.00    -0.354 N 
ATOM     40  C   UNL A   1      41.080  27.932  28.945  1.00  0.00     0.074 A 
ATOM     41  C   UNL A   1      40.351  28.093  27.705  1.00  0.00     0.031 C 
ATOM     42  C   UNL A   1      37.907  31.815  32.958  1.00  0.00     0.029 A 
ATOM     43  C   UNL A   1      39.156  31.100  33.208  1.00  0.00     0.049 A 
ATOM     44  H   UNL A   1      40.209  29.891  31.881  1.00  0.00     0.167 HD
ATOM     45  C   UNL A   1      42.185  27.164  29.092  1.00  0.00     0.037 A 
ATOM     46  C   UNL A   1      39.839  31.107  34.369  1.00  0.00     0.037 A 
ATOM     47  C   UNL A   1      42.949  27.063  30.306  1.00  0.00     0.049 A 
ATOM     48  C   UNL A   1      41.073  30.260  34.503  1.00  0.00     0.074 A 
ATOM     49  C   UNL A   1      44.088  26.317  30.552  1.00  0.00     0.029 A 
ATOM     50  N   UNL A   1      42.662  27.753  31.474  1.00  0.00    -0.354 N 
ATOM     51  N   UNL A   1      41.639  29.479  33.616  1.00  0.00    -0.248 NA
ATOM     52  C   UNL A   1      41.751  30.276  35.807  1.00  0.00     0.031 C 
ATOM     53  C   UNL A   1      44.482  26.543  31.876  1.00  0.00     0.029 A 
ATOM     54  C   UNL A   1      43.603  27.450  32.444  1.00  0.00     0.049 A 
ATOM     55  H   UNL A   1      41.902  28.368  31.596  1.00  0.00     0.167 HD
ATOM     56  C   UNL A   1      42.731  28.909  34.251  1.00  0.00     0.074 A 
ATOM     57  C   UNL A   1      42.768  29.453  35.593  1.00  0.00     0.031 C 
ATOM     58  C   UNL A   1      43.618  28.002  33.773  1.00  0.00     0.037 A 
BRANCH  45  59
ATOM     59  C   UNL A   1      42.611  26.336  27.919  1.00  0.00     0.064 A 
ATOM     60  C   UNL A   1      42.088  25.059  27.682  1.00  0.00     0.173 A 
ATOM     61  C   UNL A   1      43.537  26.852  26.999  1.00  0.00     0.173 A 
ATOM     62  F   UNL A   1      41.216  24.516  28.545  1.00  0.00    -0.203 F 
ATOM     63  C   UNL A   1      42.490  24.318  26.572  1.00  0.00     0.198 A 
ATOM     64  C   UNL A   1      43.920  26.118  25.880  1.00  0.00     0.198 A 
ATOM     65  F   UNL A   1      44.066  28.071  27.183  1.00  0.00    -0.203 F 
ATOM     66  F   UNL A   1      42.005  23.083  26.382  1.00  0.00    -0.200 F 
ATOM     67  C   UNL A   1      43.399  24.850  25.670  1.00  0.00     0.200 A 
ATOM     68  F   UNL A   1      44.795  26.637  25.007  1.00  0.00    -0.200 F 
ATOM     69  F   UNL A   1      43.780  24.138  24.600  1.00  0.00    -0.200 F 
ENDBRANCH  45  59
BRANCH  46  70
ATOM     70  C   UNL A   1      39.338  31.910  35.513  1.00  0.00     0.064 A 
ATOM     71  C   UNL A   1      39.722  33.247  35.678  1.00  0.00     0.173 A 
ATOM     72  C   UNL A   1      38.461  31.360  36.458  1.00  0.00     0.173 A 
ATOM     73  F   UNL A   1      40.582  33.808  34.815  1.00  0.00    -0.203 F 
ATOM     74  C   UNL A   1      39.250  34.004  36.748  1.00  0.00     0.198 A 
ATOM     75  C   UNL A   1      37.970  32.124  37.515  1.00  0.00     0.198 A 
ATOM     76  F   UNL A   1      38.067  30.082  36.346  1.00  0.00    -0.203 F 
ATOM     77  F   UNL A   1      39.659  35.271  36.903  1.00  0.00    -0.200 F 
ATOM     78  C   UNL A   1      38.368  33.444  37.661  1.00  0.00     0.200 A 
ATOM     79  F   UNL A   1      37.110  31.581  38.387  1.00  0.00    -0.200 F 
ATOM     80  F   UNL A   1      37.908  34.174  38.686  1.00  0.00    -0.200 F 
ENDBRANCH  46  70
BRANCH  58  81
ATOM     81  C   UNL A   1      44.699  27.550  34.703  1.00  0.00     0.064 A 
ATOM     82  C   UNL A   1      45.910  28.248  34.801  1.00  0.00     0.173 A 
ATOM     83  C   UNL A   1      44.508  26.434  35.529  1.00  0.00     0.173 A 
ATOM     84  F   UNL A   1      46.140  29.313  34.018  1.00  0.00    -0.203 F 
ATOM     85  C   UNL A   1      46.903  27.833  35.685  1.00  0.00     0.198 A 
ATOM     86  C   UNL A   1      45.496  26.032  36.425  1.00  0.00     0.198 A 
ATOM     87  F   UNL A   1      43.363  25.737  35.472  1.00  0.00    -0.203 F 
ATOM     88  F   UNL A   1      48.066  28.496  35.742  1.00  0.00    -0.200 F 
ATOM     89  C   UNL A   1      46.692  26.730  36.499  1.00  0.00     0.200 A 
ATOM     90  F   UNL A   1      45.290  24.970  37.215  1.00  0.00    -0.200 F 
ATOM     91  F   UNL A   1      47.648  26.334  37.351  1.00  0.00    -0.200 F 
ENDBRANCH  58  81
ENDBRANCH  32  33
ENDBRANCH  25  27
ENDBRANCH  24  25
ENDBRANCH  23  24
ENDBRANCH   1  23
TORSDOF 15
ENDMDL
MODEL 2
REMARK VINA RESULT:     -11.9      1.834      4.058
REMARK SMILES Cc1ccc(/C=C/C(=O)N[C@](C)(C(=O)OCCOC(=O)c2ccc(-c3c4nc(c(-c5c(F)c(F)c(F)c(F)c5F)c5ccc([nH]5)c(-c5c(F)c(F)c(F)c(F)c5F)c5nc(c(-c6c(F)c(F)c(F)c(F)c6F)c6ccc3[nH]6)C=C5)C=C4)cc2)C(F)(F)F)o1
REMARK SMILES IDX 16 1 15 2 13 3 14 4 11 5 12 6 10 7 8 8 9 9 7 11 6 12 5 13
REMARK SMILES IDX 1 14 2 15 3 16 88 17 4 18 84 19 85 20 86 21 87 22 17 23
REMARK SMILES IDX 18 24 19 25 20 26 21 27 22 28 83 29 23 30 82 31 24 32 25 33
REMARK SMILES IDX 26 34 76 35 27 36 81 37 75 38 77 39 28 40 80 41 74 42 73 43
REMARK SMILES IDX 29 45 61 46 41 47 60 48 42 49 45 50 59 51 78 52 43 53 44 54
REMARK SMILES IDX 58 56 79 57 46 58 30 59 31 60 39 61 32 62 33 63 37 64 40 65
REMARK SMILES IDX 34 66 35 67 38 68 36 69 62 70 63 71 71 72 64 73 65 74 69 75
REMARK SMILES IDX 72 76 66 77 67 78 70 79 68 80 47 81 48 82 56 83 49 84 50 85
REMARK SMILES IDX 54 86 57 87 51 88 52 89 55 90 53 91
REMARK H PARENT 10 10 77 44 45 55
REMARK Flexibility Score: inf
ROOT
ATOM      1  C   UNL A   1      31.793  28.675  26.639  1.00  0.00     0.274 C 
ENDROOT
BRANCH   1   2
ATOM      2  O   UNL A   1      32.286  27.830  25.573  1.00  0.00    -0.460 OA
BRANCH   2   3
ATOM      3  C   UNL A   1      31.411  26.920  25.052  1.00  0.00     0.341 C 
ATOM      4  O   UNL A   1      30.260  27.197  24.738  1.00  0.00    -0.249 OA
BRANCH   3   5
ATOM      5  C   UNL A   1      31.958  25.489  25.103  1.00  0.00     0.231 C 
ATOM      6  C   UNL A   1      33.438  25.407  25.502  1.00  0.00     0.058 C 
BRANCH   5   7
ATOM      7  N   UNL A   1      30.982  24.754  25.972  1.00  0.00    -0.329 N 
ATOM      8  C   UNL A   1      30.961  23.561  26.607  1.00  0.00     0.245 C 
ATOM      9  O   UNL A   1      30.079  23.331  27.428  1.00  0.00    -0.270 OA
ATOM     10  H   UNL A   1      30.154  25.266  26.115  1.00  0.00     0.165 HD
BRANCH   8  11
ATOM     11  C   UNL A   1      31.905  22.504  26.235  1.00  0.00     0.075 C 
ATOM     12  C   UNL A   1      31.582  21.554  25.350  1.00  0.00     0.053 C 
BRANCH  12  13
ATOM     13  C   UNL A   1      32.520  20.526  25.074  1.00  0.00     0.127 A 
ATOM     14  C   UNL A   1      33.102  17.119  24.111  1.00  0.00     0.087 C 
ATOM     15  C   UNL A   1      33.295  18.531  24.492  1.00  0.00     0.101 A 
ATOM     16  C   UNL A   1      34.401  19.317  24.707  1.00  0.00     0.046 A 
ATOM     17  O   UNL A   1      32.164  19.256  24.687  1.00  0.00    -0.462 OA
ATOM     18  C   UNL A   1      33.908  20.586  25.098  1.00  0.00     0.050 A 
ENDBRANCH  12  13
ENDBRANCH   8  11
ENDBRANCH   5   7
BRANCH   5  19
ATOM     19  C   UNL A   1      31.867  24.962  23.655  1.00  0.00     0.422 C 
ATOM     20  F   UNL A   1      32.775  23.994  23.399  1.00  0.00    -0.168 F 
ATOM     21  F   UNL A   1      30.645  24.414  23.428  1.00  0.00    -0.168 F 
ATOM     22  F   UNL A   1      32.025  25.936  22.732  1.00  0.00    -0.168 F 
ENDBRANCH   5  19
ENDBRANCH   3   5
ENDBRANCH   2   3
ENDBRANCH   1   2
BRANCH   1  23
ATOM     23  C   UNL A   1      31.710  30.121  26.162  1.00  0.00     0.275 C 
BRANCH  23  24
ATOM     24  O   UNL A   1      33.044  30.652  26.128  1.00  0.00    -0.458 OA
BRANCH  24  25
ATOM     25  C   UNL A   1      33.326  31.603  27.043  1.00  0.00     0.338 C 
ATOM     26  O   UNL A   1      32.614  32.514  27.430  1.00  0.00    -0.246 OA
BRANCH  25  27
ATOM     27  C   UNL A   1      34.632  31.288  27.631  1.00  0.00     0.060 A 
ATOM     28  C   UNL A   1      34.890  29.964  27.989  1.00  0.00     0.016 A 
ATOM     29  C   UNL A   1      35.551  32.294  27.921  1.00  0.00     0.016 A 
ATOM     30  C   UNL A   1      36.045  29.643  28.692  1.00  0.00     0.010 A 
ATOM     31  C   UNL A   1      36.742  31.958  28.571  1.00  0.00     0.010 A 
ATOM     32  C   UNL A   1      36.986  30.636  28.990  1.00  0.00    -0.014 A 
BRANCH  32  33
ATOM     33  C   UNL A   1      38.186  30.308  29.804  1.00  0.00     0.031 A 
ATOM     34  C   UNL A   1      39.261  29.434  29.221  1.00  0.00     0.074 A 
ATOM     35  C   UNL A   1      38.334  30.805  31.047  1.00  0.00     0.049 A 
ATOM     36  N   UNL A   1      40.281  28.867  29.812  1.00  0.00    -0.248 NA
ATOM     37  C   UNL A   1      39.167  29.147  27.780  1.00  0.00     0.031 C 
ATOM     38  C   UNL A   1      37.401  31.714  31.713  1.00  0.00     0.029 A 
ATOM     39  N   UNL A   1      39.331  30.615  31.971  1.00  0.00    -0.354 N 
ATOM     40  C   UNL A   1      40.907  28.104  28.835  1.00  0.00     0.074 A 
ATOM     41  C   UNL A   1      40.165  28.294  27.608  1.00  0.00     0.031 C 
ATOM     42  C   UNL A   1      37.883  32.025  32.927  1.00  0.00     0.029 A 
ATOM     43  C   UNL A   1      39.118  31.279  33.153  1.00  0.00     0.049 A 
ATOM     44  H   UNL A   1      40.124  30.057  31.800  1.00  0.00     0.167 HD
ATOM     45  C   UNL A   1      41.996  27.310  28.960  1.00  0.00     0.037 A 
ATOM     46  C   UNL A   1      39.817  31.259  34.304  1.00  0.00     0.037 A 
ATOM     47  C   UNL A   1      42.774  27.180  30.163  1.00  0.00     0.049 A 
ATOM     48  C   UNL A   1      41.033  30.382  34.413  1.00  0.00     0.074 A 
ATOM     49  C   UNL A   1      43.898  26.405  30.386  1.00  0.00     0.029 A 
ATOM     50  N   UNL A   1      42.520  27.866  31.340  1.00  0.00    -0.354 N 
ATOM     51  N   UNL A   1      41.567  29.596  33.511  1.00  0.00    -0.248 NA
ATOM     52  C   UNL A   1      41.729  30.370  35.708  1.00  0.00     0.031 C 
ATOM     53  C   UNL A   1      44.317  26.610  31.706  1.00  0.00     0.029 A 
ATOM     54  C   UNL A   1      43.467  27.532  32.294  1.00  0.00     0.049 A 
ATOM     55  H   UNL A   1      41.777  28.497  31.478  1.00  0.00     0.167 HD
ATOM     56  C   UNL A   1      42.655  28.994  34.126  1.00  0.00     0.074 A 
ATOM     57  C   UNL A   1      42.723  29.526  35.472  1.00  0.00     0.031 C 
ATOM     58  C   UNL A   1      43.513  28.072  33.627  1.00  0.00     0.037 A 
BRANCH  45  59
ATOM     59  C   UNL A   1      42.386  26.483  27.774  1.00  0.00     0.064 A 
ATOM     60  C   UNL A   1      43.354  26.911  26.856  1.00  0.00     0.173 A 
ATOM     61  C   UNL A   1      41.801  25.223  27.577  1.00  0.00     0.173 A 
ATOM     62  F   UNL A   1      43.925  28.117  26.991  1.00  0.00    -0.203 F 
ATOM     63  C   UNL A   1      43.710  26.112  25.771  1.00  0.00     0.198 A 
ATOM     64  C   UNL A   1      42.175  24.419  26.505  1.00  0.00     0.198 A 
ATOM     65  F   UNL A   1      40.870  24.769  28.430  1.00  0.00    -0.203 F 
ATOM     66  F   UNL A   1      44.612  26.555  24.884  1.00  0.00    -0.200 F 
ATOM     67  C   UNL A   1      43.127  24.866  25.600  1.00  0.00     0.200 A 
ATOM     68  F   UNL A   1      41.613  23.212  26.345  1.00  0.00    -0.200 F 
ATOM     69  F   UNL A   1      43.475  24.097  24.559  1.00  0.00    -0.200 F 
ENDBRANCH  45  59
BRANCH  46  70
ATOM     70  C   UNL A   1      39.351  32.063  35.462  1.00  0.00     0.064 A 
ATOM     71  C   UNL A   1      38.488  31.515  36.420  1.00  0.00     0.173 A 
ATOM     72  C   UNL A   1      39.765  33.391  35.637  1.00  0.00     0.173 A 
ATOM     73  F   UNL A   1      38.043  30.258  36.278  1.00  0.00    -0.203 F 
ATOM     74  C   UNL A   1      38.053  32.268  37.509  1.00  0.00     0.198 A 
ATOM     75  C   UNL A   1      39.349  34.136  36.739  1.00  0.00     0.198 A 
ATOM     76  F   UNL A   1      40.588  33.962  34.744  1.00  0.00    -0.203 F 
ATOM     77  F   UNL A   1      37.201  31.732  38.394  1.00  0.00    -0.200 F 
ATOM     78  C   UNL A   1      38.490  33.574  37.672  1.00  0.00     0.200 A 
ATOM     79  F   UNL A   1      39.783  35.393  36.897  1.00  0.00    -0.200 F 
ATOM     80  F   UNL A   1      38.078  34.295  38.723  1.00  0.00    -0.200 F 
ENDBRANCH  46  70
BRANCH  58  81
ATOM     81  C   UNL A   1      44.596  27.586  34.538  1.00  0.00     0.064 A 
ATOM     82  C   UNL A   1      45.837  28.235  34.601  1.00  0.00     0.173 A 
ATOM     83  C   UNL A   1      44.379  26.487  35.381  1.00  0.00     0.173 A 
ATOM     84  F   UNL A   1      46.091  29.282  33.801  1.00  0.00    -0.203 F 
ATOM     85  C   UNL A   1      46.831  27.790  35.468  1.00  0.00     0.198 A 
ATOM     86  C   UNL A   1      45.370  26.055  36.260  1.00  0.00     0.198 A 
ATOM     87  F   UNL A   1      43.206  25.836  35.357  1.00  0.00    -0.203 F 
ATOM     88  F   UNL A   1      48.021  28.405  35.491  1.00  0.00    -0.200 F 
ATOM     89  C   UNL A   1      46.595  26.705  36.298  1.00  0.00     0.200 A 
ATOM     90  F   UNL A   1      45.140  25.010  37.065  1.00  0.00    -0.200 F 
ATOM     91  F   UNL A   1      47.553  26.279  37.133  1.00  0.00    -0.200 F 
ENDBRANCH  58  81
ENDBRANCH  32  33
ENDBRANCH  25  27
ENDBRANCH  24  25
ENDBRANCH  23  24
ENDBRANCH   1  23
TORSDOF 15
ENDMDL
MODEL 3
REMARK VINA RESULT:     -11.8      4.218      9.250
REMARK SMILES Cc1ccc(/C=C/C(=O)N[C@](C)(C(=O)OCCOC(=O)c2ccc(-c3c4nc(c(-c5c(F)c(F)c(F)c(F)c5F)c5ccc([nH]5)c(-c5c(F)c(F)c(F)c(F)c5F)c5nc(c(-c6c(F)c(F)c(F)c(F)c6F)c6ccc3[nH]6)C=C5)C=C4)cc2)C(F)(F)F)o1
REMARK SMILES IDX 16 1 15 2 13 3 14 4 11 5 12 6 10 7 8 8 9 9 7 11 6 12 5 13
REMARK SMILES IDX 1 14 2 15 3 16 88 17 4 18 84 19 85 20 86 21 87 22 17 23
REMARK SMILES IDX 18 24 19 25 20 26 21 27 22 28 83 29 23 30 82 31 24 32 25 33
REMARK SMILES IDX 26 34 76 35 27 36 81 37 75 38 77 39 28 40 80 41 74 42 73 43
REMARK SMILES IDX 29 45 61 46 41 47 60 48 42 49 45 50 59 51 78 52 43 53 44 54
REMARK SMILES IDX 58 56 79 57 46 58 30 59 31 60 39 61 32 62 33 63 37 64 40 65
REMARK SMILES IDX 34 66 35 67 38 68 36 69 62 70 63 71 71 72 64 73 65 74 69 75
REMARK SMILES IDX 72 76 66 77 67 78 70 79 68 80 47 81 48 82 56 83 49 84 50 85
REMARK SMILES IDX 54 86 57 87 51 88 52 89 55 90 53 91
REMARK H PARENT 10 10 77 44 45 55
REMARK Flexibility Score: inf
ROOT
ATOM      1  C   UNL A   1      34.697  21.045  25.207  1.00  0.00     0.274 C 
ENDROOT
BRANCH   1   2
ATOM      2  O   UNL A   1      34.030  22.323  25.076  1.00  0.00    -0.460 OA
BRANCH   2   3
ATOM      3  C   UNL A   1      33.065  22.420  24.115  1.00  0.00     0.341 C 
ATOM      4  O   UNL A   1      32.758  21.494  23.374  1.00  0.00    -0.249 OA
BRANCH   3   5
ATOM      5  C   UNL A   1      32.567  23.858  23.930  1.00  0.00     0.231 C 
ATOM      6  C   UNL A   1      33.168  24.853  24.933  1.00  0.00     0.058 C 
BRANCH   5   7
ATOM      7  N   UNL A   1      32.796  24.141  22.476  1.00  0.00    -0.329 N 
ATOM      8  C   UNL A   1      32.858  25.250  21.706  1.00  0.00     0.245 C 
ATOM      9  O   UNL A   1      33.275  25.162  20.555  1.00  0.00    -0.270 OA
ATOM     10  H   UNL A   1      32.935  23.318  21.954  1.00  0.00     0.165 HD
BRANCH   8  11
ATOM     11  C   UNL A   1      32.321  26.524  22.191  1.00  0.00     0.075 C 
ATOM     12  C   UNL A   1      31.008  26.783  22.179  1.00  0.00     0.053 C 
BRANCH  12  13
ATOM     13  C   UNL A   1      30.556  28.055  22.611  1.00  0.00     0.127 A 
ATOM     14  C   UNL A   1      28.914  31.138  21.789  1.00  0.00     0.087 C 
ATOM     15  C   UNL A   1      29.593  30.052  22.520  1.00  0.00     0.101 A 
ATOM     16  C   UNL A   1      30.011  29.894  23.819  1.00  0.00     0.046 A 
ATOM     17  O   UNL A   1      29.895  28.943  21.796  1.00  0.00    -0.462 OA
ATOM     18  C   UNL A   1      30.644  28.628  23.874  1.00  0.00     0.050 A 
ENDBRANCH  12  13
ENDBRANCH   8  11
ENDBRANCH   5   7
BRANCH   5  19
ATOM     19  C   UNL A   1      31.051  23.809  24.220  1.00  0.00     0.422 C 
ATOM     20  F   UNL A   1      30.322  23.540  23.113  1.00  0.00    -0.168 F 
ATOM     21  F   UNL A   1      30.773  22.824  25.113  1.00  0.00    -0.168 F 
ATOM     22  F   UNL A   1      30.583  24.956  24.758  1.00  0.00    -0.168 F 
ENDBRANCH   5  19
ENDBRANCH   3   5
ENDBRANCH   2   3
ENDBRANCH   1   2
BRANCH   1  23
ATOM     23  C   UNL A   1      36.139  21.159  24.725  1.00  0.00     0.275 C 
BRANCH  23  24
ATOM     24  O   UNL A   1      36.895  21.823  25.751  1.00  0.00    -0.458 OA
BRANCH  24  25
ATOM     25  C   UNL A   1      38.206  21.508  25.817  1.00  0.00     0.338 C 
ATOM     26  O   UNL A   1      38.769  20.519  25.378  1.00  0.00    -0.246 OA
BRANCH  25  27
ATOM     27  C   UNL A   1      38.913  22.647  26.410  1.00  0.00     0.060 A 
ATOM     28  C   UNL A   1      38.454  23.931  26.115  1.00  0.00     0.016 A 
ATOM     29  C   UNL A   1      40.070  22.462  27.163  1.00  0.00     0.016 A 
ATOM     30  C   UNL A   1      39.181  25.044  26.521  1.00  0.00     0.010 A 
ATOM     31  C   UNL A   1      40.765  23.584  27.626  1.00  0.00     0.010 A 
ATOM     32  C   UNL A   1      40.345  24.883  27.283  1.00  0.00    -0.014 A 
BRANCH  32  33
ATOM     33  C   UNL A   1      41.163  26.067  27.657  1.00  0.00     0.031 A 
ATOM     34  C   UNL A   1      40.569  27.131  28.537  1.00  0.00     0.074 A 
ATOM     35  C   UNL A   1      42.438  26.186  27.237  1.00  0.00     0.049 A 
ATOM     36  N   UNL A   1      41.025  28.324  28.821  1.00  0.00    -0.248 NA
ATOM     37  C   UNL A   1      39.280  26.814  29.173  1.00  0.00     0.031 C 
ATOM     38  C   UNL A   1      43.160  25.202  26.432  1.00  0.00     0.029 A 
ATOM     39  N   UNL A   1      43.352  27.190  27.437  1.00  0.00    -0.354 N 
ATOM     40  C   UNL A   1      40.051  28.923  29.608  1.00  0.00     0.074 A 
ATOM     41  C   UNL A   1      38.986  27.958  29.774  1.00  0.00     0.031 C 
ATOM     42  C   UNL A   1      44.413  25.637  26.228  1.00  0.00     0.029 A 
ATOM     43  C   UNL A   1      44.559  26.962  26.823  1.00  0.00     0.049 A 
ATOM     44  H   UNL A   1      43.161  27.995  27.969  1.00  0.00     0.167 HD
ATOM     45  C   UNL A   1      40.044  30.171  30.132  1.00  0.00     0.037 A 
ATOM     46  C   UNL A   1      45.648  27.749  26.719  1.00  0.00     0.037 A 
ATOM     47  C   UNL A   1      41.136  31.102  30.026  1.00  0.00     0.049 A 
ATOM     48  C   UNL A   1      45.623  29.124  27.325  1.00  0.00     0.074 A 
ATOM     49  C   UNL A   1      41.227  32.388  30.529  1.00  0.00     0.029 A 
ATOM     50  N   UNL A   1      42.339  30.833  29.391  1.00  0.00    -0.354 N 
ATOM     51  N   UNL A   1      44.664  29.716  27.992  1.00  0.00    -0.248 NA
ATOM     52  C   UNL A   1      46.825  29.951  27.141  1.00  0.00     0.031 C 
ATOM     53  C   UNL A   1      42.482  32.905  30.185  1.00  0.00     0.029 A 
ATOM     54  C   UNL A   1      43.179  31.929  29.490  1.00  0.00     0.049 A 
ATOM     55  H   UNL A   1      42.562  29.988  28.938  1.00  0.00     0.167 HD
ATOM     56  C   UNL A   1      45.140  30.981  28.304  1.00  0.00     0.074 A 
ATOM     57  C   UNL A   1      46.487  31.064  27.777  1.00  0.00     0.031 C 
ATOM     58  C   UNL A   1      44.514  31.990  28.955  1.00  0.00     0.037 A 
BRANCH  45  59
ATOM     59  C   UNL A   1      38.799  30.619  30.833  1.00  0.00     0.064 A 
ATOM     60  C   UNL A   1      38.666  30.553  32.225  1.00  0.00     0.173 A 
ATOM     61  C   UNL A   1      37.735  31.156  30.092  1.00  0.00     0.173 A 
ATOM     62  F   UNL A   1      39.648  30.028  32.973  1.00  0.00    -0.203 F 
ATOM     63  C   UNL A   1      37.503  30.995  32.852  1.00  0.00     0.198 A 
ATOM     64  C   UNL A   1      36.583  31.616  30.723  1.00  0.00     0.198 A 
ATOM     65  F   UNL A   1      37.816  31.240  28.756  1.00  0.00    -0.203 F 
ATOM     66  F   UNL A   1      37.380  30.890  34.183  1.00  0.00    -0.200 F 
ATOM     67  C   UNL A   1      36.467  31.531  32.102  1.00  0.00     0.200 A 
ATOM     68  F   UNL A   1      35.585  32.139  29.997  1.00  0.00    -0.200 F 
ATOM     69  F   UNL A   1      35.350  31.960  32.708  1.00  0.00    -0.200 F 
ENDBRANCH  45  59
BRANCH  46  70
ATOM     70  C   UNL A   1      46.834  27.266  25.969  1.00  0.00     0.064 A 
ATOM     71  C   UNL A   1      46.979  27.532  24.601  1.00  0.00     0.173 A 
ATOM     72  C   UNL A   1      47.849  26.538  26.605  1.00  0.00     0.173 A 
ATOM     73  F   UNL A   1      46.020  28.201  23.944  1.00  0.00    -0.203 F 
ATOM     74  C   UNL A   1      48.094  27.083  23.897  1.00  0.00     0.198 A 
ATOM     75  C   UNL A   1      48.976  26.110  25.906  1.00  0.00     0.198 A 
ATOM     76  F   UNL A   1      47.754  26.255  27.914  1.00  0.00    -0.203 F 
ATOM     77  F   UNL A   1      48.194  27.321  22.581  1.00  0.00    -0.200 F 
ATOM     78  C   UNL A   1      49.096  26.380  24.551  1.00  0.00     0.200 A 
ATOM     79  F   UNL A   1      49.944  25.441  26.545  1.00  0.00    -0.200 F 
ATOM     80  F   UNL A   1      50.171  25.956  23.875  1.00  0.00    -0.200 F 
ENDBRANCH  46  70
BRANCH  58  81
ATOM     81  C   UNL A   1      45.279  33.263  29.135  1.00  0.00     0.064 A 
ATOM     82  C   UNL A   1      46.110  33.459  30.247  1.00  0.00     0.173 A 
ATOM     83  C   UNL A   1      45.210  34.279  28.172  1.00  0.00     0.173 A 
ATOM     84  F   UNL A   1      46.194  32.518  31.200  1.00  0.00    -0.203 F 
ATOM     85  C   UNL A   1      46.836  34.637  30.396  1.00  0.00     0.198 A 
ATOM     86  C   UNL A   1      45.952  35.449  28.315  1.00  0.00     0.198 A 
ATOM     87  F   UNL A   1      44.430  34.135  27.090  1.00  0.00    -0.203 F 
ATOM     88  F   UNL A   1      47.601  34.818  31.481  1.00  0.00    -0.200 F 
ATOM     89  C   UNL A   1      46.760  35.628  29.429  1.00  0.00     0.200 A 
ATOM     90  F   UNL A   1      45.882  36.404  27.378  1.00  0.00    -0.200 F 
ATOM     91  F   UNL A   1      47.461  36.761  29.573  1.00  0.00    -0.200 F 
ENDBRANCH  58  81
ENDBRANCH  32  33
ENDBRANCH  25  27
ENDBRANCH  24  25
ENDBRANCH  23  24
ENDBRANCH   1  23
TORSDOF 15
ENDMDL
