MODEL 1
REMARK VINA RESULT:     -11.6      0.000      0.000
REMARK SMILES Cc1ccc(S(=O)(=O)Nc2ccc(C(=O)CCC(=O)OCCOC(=O)c3ccc(-c4c5nc(c(-c6c(F)c(F)c(F)c(F)c6F)c6ccc([nH]6)c(-c6c(F)c(F)c(F)c(F)c6F)c6nc(c(-c7c(F)c(F)c(F)c(F)c7F)c7ccc4[nH]7)C=C6)C=C5)cc3)cc2)c(C)c1
REMARK SMILES IDX 18 1 19 2 17 3 16 4 14 5 15 6 13 7 10 8 11 9 90 10 12 11
REMARK SMILES IDX 89 12 9 13 6 15 7 16 8 17 5 18 1 19 2 20 3 21 93 22 4 23
REMARK SMILES IDX 91 24 92 25 20 26 21 27 22 28 23 29 24 30 25 31 26 32 27 33
REMARK SMILES IDX 88 34 28 35 87 36 29 37 30 38 31 39 81 40 32 41 86 42 80 43
REMARK SMILES IDX 82 44 33 45 85 46 79 47 78 48 34 50 66 51 46 52 65 53 47 54
REMARK SMILES IDX 50 55 64 56 83 57 48 58 49 59 63 61 84 62 51 63 35 64 36 65
REMARK SMILES IDX 44 66 37 67 38 68 42 69 45 70 39 71 40 72 43 73 41 74 67 75
REMARK SMILES IDX 68 76 76 77 69 78 70 79 74 80 77 81 71 82 72 83 75 84 73 85
REMARK SMILES IDX 52 86 53 87 61 88 54 89 55 90 59 91 62 92 56 93 57 94 60 95
REMARK SMILES IDX 58 96
REMARK H PARENT 9 14 82 49 50 60
REMARK Flexibility Score: inf
ROOT
ATOM      1  C   UNL A   1      34.528  33.781  29.027  1.00  0.00     0.306 C 
ATOM      2  O   UNL A   1      35.585  34.376  28.861  1.00  0.00    -0.252 OA
ENDROOT
BRANCH   1   3
ATOM      3  C   UNL A   1      34.423  32.272  29.074  1.00  0.00     0.131 C 
BRANCH   3   4
ATOM      4  C   UNL A   1      34.001  31.592  27.768  1.00  0.00     0.093 C 
BRANCH   4   5
ATOM      5  C   UNL A   1      34.661  30.233  27.610  1.00  0.00     0.163 C 
ATOM      6  O   UNL A   1      35.884  30.111  27.653  1.00  0.00    -0.294 OA
BRANCH   5   7
ATOM      7  C   UNL A   1      33.835  29.054  27.224  1.00  0.00     0.018 A 
ATOM      8  C   UNL A   1      32.244  27.092  25.997  1.00  0.00     0.049 A 
ATOM      9  C   UNL A   1      33.612  27.159  25.734  1.00  0.00     0.027 A 
ATOM     10  C   UNL A   1      31.720  27.875  27.025  1.00  0.00     0.027 A 
ATOM     11  C   UNL A   1      34.405  28.139  26.336  1.00  0.00     0.014 A 
ATOM     12  C   UNL A   1      32.510  28.875  27.629  1.00  0.00     0.014 A 
BRANCH   8  13
ATOM     13  N   UNL A   1      31.491  26.161  25.233  1.00  0.00    -0.280 N 
ATOM     14  H   UNL A   1      30.964  26.525  24.486  1.00  0.00     0.180 HD
BRANCH  13  15
ATOM     15  S   UNL A   1      31.409  24.502  25.474  1.00  0.00     0.262 S 
ATOM     16  O   UNL A   1      30.646  23.926  24.385  1.00  0.00    -0.201 OA
ATOM     17  O   UNL A   1      30.992  24.345  26.851  1.00  0.00    -0.201 OA
BRANCH  15  18
ATOM     18  C   UNL A   1      33.059  23.794  25.367  1.00  0.00     0.090 A 
ATOM     19  C   UNL A   1      37.352  23.589  25.547  1.00  0.00     0.044 C 
ATOM     20  C   UNL A   1      35.855  23.507  25.440  1.00  0.00    -0.051 A 
ATOM     21  C   UNL A   1      35.075  23.108  26.529  1.00  0.00     0.005 A 
ATOM     22  C   UNL A   1      35.213  23.856  24.249  1.00  0.00     0.008 A 
ATOM     23  C   UNL A   1      33.678  23.249  26.495  1.00  0.00     0.023 A 
ATOM     24  C   UNL A   1      33.814  23.995  24.190  1.00  0.00    -0.030 A 
ATOM     25  C   UNL A   1      33.209  24.257  22.836  1.00  0.00     0.046 C 
ENDBRANCH  15  18
ENDBRANCH  13  15
ENDBRANCH   8  13
ENDBRANCH   5   7
ENDBRANCH   4   5
ENDBRANCH   3   4
ENDBRANCH   1   3
BRANCH   1  26
ATOM     26  O   UNL A   1      33.328  34.373  29.205  1.00  0.00    -0.462 OA
BRANCH  26  27
ATOM     27  C   UNL A   1      33.227  35.769  28.892  1.00  0.00     0.274 C 
BRANCH  27  28
ATOM     28  C   UNL A   1      32.722  36.580  30.084  1.00  0.00     0.275 C 
BRANCH  28  29
ATOM     29  O   UNL A   1      32.374  35.682  31.130  1.00  0.00    -0.458 OA
BRANCH  29  30
ATOM     30  C   UNL A   1      32.892  36.018  32.328  1.00  0.00     0.338 C 
ATOM     31  O   UNL A   1      32.460  36.775  33.182  1.00  0.00    -0.246 OA
BRANCH  30  32
ATOM     32  C   UNL A   1      33.995  35.095  32.514  1.00  0.00     0.060 A 
ATOM     33  C   UNL A   1      33.725  33.804  32.980  1.00  0.00     0.016 A 
ATOM     34  C   UNL A   1      35.276  35.517  32.164  1.00  0.00     0.016 A 
ATOM     35  C   UNL A   1      34.781  32.930  33.165  1.00  0.00     0.010 A 
ATOM     36  C   UNL A   1      36.326  34.639  32.333  1.00  0.00     0.010 A 
ATOM     37  C   UNL A   1      36.078  33.367  32.876  1.00  0.00    -0.014 A 
BRANCH  37  38
ATOM     38  C   UNL A   1      37.232  32.564  33.288  1.00  0.00     0.031 A 
ATOM     39  C   UNL A   1      37.883  32.907  34.589  1.00  0.00     0.074 A 
ATOM     40  C   UNL A   1      37.689  31.611  32.467  1.00  0.00     0.049 A 
ATOM     41  N   UNL A   1      38.994  32.458  35.105  1.00  0.00    -0.248 NA
ATOM     42  C   UNL A   1      37.202  33.924  35.411  1.00  0.00     0.031 C 
ATOM     43  C   UNL A   1      37.086  31.244  31.185  1.00  0.00     0.029 A 
ATOM     44  N   UNL A   1      38.782  30.802  32.576  1.00  0.00    -0.354 N 
ATOM     45  C   UNL A   1      39.153  33.150  36.297  1.00  0.00     0.074 A 
ATOM     46  C   UNL A   1      38.054  34.080  36.410  1.00  0.00     0.031 C 
ATOM     47  C   UNL A   1      37.833  30.287  30.613  1.00  0.00     0.029 A 
ATOM     48  C   UNL A   1      38.979  30.010  31.474  1.00  0.00     0.049 A 
ATOM     49  H   UNL A   1      39.370  30.787  33.366  1.00  0.00     0.167 HD
ATOM     50  C   UNL A   1      40.135  33.001  37.215  1.00  0.00     0.037 A 
ATOM     51  C   UNL A   1      39.997  29.179  31.196  1.00  0.00     0.037 A 
ATOM     52  C   UNL A   1      41.215  32.065  37.050  1.00  0.00     0.049 A 
ATOM     53  C   UNL A   1      41.081  29.033  32.227  1.00  0.00     0.074 A 
ATOM     54  C   UNL A   1      42.275  31.801  37.896  1.00  0.00     0.029 A 
ATOM     55  N   UNL A   1      41.368  31.239  35.941  1.00  0.00    -0.354 N 
ATOM     56  N   UNL A   1      41.228  29.668  33.367  1.00  0.00    -0.248 NA
ATOM     57  C   UNL A   1      42.131  28.051  31.944  1.00  0.00     0.031 C 
ATOM     58  C   UNL A   1      43.090  30.844  37.278  1.00  0.00     0.029 A 
ATOM     59  C   UNL A   1      42.509  30.470  36.073  1.00  0.00     0.049 A 
ATOM     60  H   UNL A   1      40.751  31.206  35.174  1.00  0.00     0.167 HD
ATOM     61  C   UNL A   1      42.374  29.151  33.951  1.00  0.00     0.074 A 
ATOM     62  C   UNL A   1      42.872  28.136  33.040  1.00  0.00     0.031 C 
ATOM     63  C   UNL A   1      42.966  29.478  35.129  1.00  0.00     0.037 A 
BRANCH  50  64
ATOM     64  C   UNL A   1      40.083  33.887  38.427  1.00  0.00     0.064 A 
ATOM     65  C   UNL A   1      40.793  35.098  38.489  1.00  0.00     0.173 A 
ATOM     66  C   UNL A   1      39.348  33.506  39.559  1.00  0.00     0.173 A 
ATOM     67  F   UNL A   1      41.533  35.503  37.446  1.00  0.00    -0.203 F 
ATOM     68  C   UNL A   1      40.806  35.867  39.652  1.00  0.00     0.198 A 
ATOM     69  C   UNL A   1      39.335  34.294  40.708  1.00  0.00     0.198 A 
ATOM     70  F   UNL A   1      38.654  32.357  39.560  1.00  0.00    -0.203 F 
ATOM     71  F   UNL A   1      41.552  36.978  39.711  1.00  0.00    -0.200 F 
ATOM     72  C   UNL A   1      40.073  35.467  40.758  1.00  0.00     0.200 A 
ATOM     73  F   UNL A   1      38.620  33.909  41.775  1.00  0.00    -0.200 F 
ATOM     74  F   UNL A   1      40.092  36.202  41.879  1.00  0.00    -0.200 F 
ENDBRANCH  50  64
BRANCH  51  75
ATOM     75  C   UNL A   1      40.001  28.436  29.913  1.00  0.00     0.064 A 
ATOM     76  C   UNL A   1      40.718  28.910  28.807  1.00  0.00     0.173 A 
ATOM     77  C   UNL A   1      39.353  27.197  29.789  1.00  0.00     0.173 A 
ATOM     78  F   UNL A   1      41.349  30.091  28.874  1.00  0.00    -0.203 F 
ATOM     79  C   UNL A   1      40.782  28.176  27.624  1.00  0.00     0.198 A 
ATOM     80  C   UNL A   1      39.440  26.452  28.616  1.00  0.00     0.198 A 
ATOM     81  F   UNL A   1      38.667  26.690  30.825  1.00  0.00    -0.203 F 
ATOM     82  F   UNL A   1      41.459  28.661  26.574  1.00  0.00    -0.200 F 
ATOM     83  C   UNL A   1      40.151  26.943  27.532  1.00  0.00     0.200 A 
ATOM     84  F   UNL A   1      38.849  25.251  28.540  1.00  0.00    -0.200 F 
ATOM     85  F   UNL A   1      40.233  26.229  26.402  1.00  0.00    -0.200 F 
ENDBRANCH  51  75
BRANCH  63  86
ATOM     86  C   UNL A   1      44.198  28.708  35.493  1.00  0.00     0.064 A 
ATOM     87  C   UNL A   1      44.127  27.500  36.202  1.00  0.00     0.173 A 
ATOM     88  C   UNL A   1      45.461  29.170  35.097  1.00  0.00     0.173 A 
ATOM     89  F   UNL A   1      42.941  27.027  36.613  1.00  0.00    -0.203 F 
ATOM     90  C   UNL A   1      45.282  26.798  36.529  1.00  0.00     0.198 A 
ATOM     91  C   UNL A   1      46.612  28.449  35.398  1.00  0.00     0.198 A 
ATOM     92  F   UNL A   1      45.578  30.316  34.409  1.00  0.00    -0.203 F 
ATOM     93  F   UNL A   1      45.198  25.675  37.254  1.00  0.00    -0.200 F 
ATOM     94  C   UNL A   1      46.523  27.269  36.121  1.00  0.00     0.200 A 
ATOM     95  F   UNL A   1      47.807  28.896  34.990  1.00  0.00    -0.200 F 
ATOM     96  F   UNL A   1      47.634  26.589  36.434  1.00  0.00    -0.200 F 
ENDBRANCH  63  86
ENDBRANCH  37  38
ENDBRANCH  30  32
ENDBRANCH  29  30
ENDBRANCH  28  29
ENDBRANCH  27  28
ENDBRANCH  26  27
ENDBRANCH   1  26
TORSDOF 17
ENDMDL
MODEL 2
REMARK VINA RESULT:     -11.5      1.766      2.978
REMARK SMILES Cc1ccc(S(=O)(=O)Nc2ccc(C(=O)CCC(=O)OCCOC(=O)c3ccc(-c4c5nc(c(-c6c(F)c(F)c(F)c(F)c6F)c6ccc([nH]6)c(-c6c(F)c(F)c(F)c(F)c6F)c6nc(c(-c7c(F)c(F)c(F)c(F)c7F)c7ccc4[nH]7)C=C6)C=C5)cc3)cc2)c(C)c1
REMARK SMILES IDX 18 1 19 2 17 3 16 4 14 5 15 6 13 7 10 8 11 9 90 10 12 11
REMARK SMILES IDX 89 12 9 13 6 15 7 16 8 17 5 18 1 19 2 20 3 21 93 22 4 23
REMARK SMILES IDX 91 24 92 25 20 26 21 27 22 28 23 29 24 30 25 31 26 32 27 33
REMARK SMILES IDX 88 34 28 35 87 36 29 37 30 38 31 39 81 40 32 41 86 42 80 43
REMARK SMILES IDX 82 44 33 45 85 46 79 47 78 48 34 50 66 51 46 52 65 53 47 54
REMARK SMILES IDX 50 55 64 56 83 57 48 58 49 59 63 61 84 62 51 63 35 64 36 65
REMARK SMILES IDX 44 66 37 67 38 68 42 69 45 70 39 71 40 72 43 73 41 74 67 75
REMARK SMILES IDX 68 76 76 77 69 78 70 79 74 80 77 81 71 82 72 83 75 84 73 85
REMARK SMILES IDX 52 86 53 87 61 88 54 89 55 90 59 91 62 92 56 93 57 94 60 95
REMARK SMILES IDX 58 96
REMARK H PARENT 9 14 82 49 50 60
REMARK Flexibility Score: inf
ROOT
ATOM      1  C   UNL A   1      35.019  34.419  28.596  1.00  0.00     0.306 C 
ATOM      2  O   UNL A   1      36.159  34.131  28.937  1.00  0.00    -0.252 OA
ENDROOT
BRANCH   1   3
ATOM      3  C   UNL A   1      34.017  33.398  28.104  1.00  0.00     0.131 C 
BRANCH   3   4
ATOM      4  C   UNL A   1      34.103  32.013  28.751  1.00  0.00     0.093 C 
BRANCH   4   5
ATOM      5  C   UNL A   1      34.758  31.005  27.822  1.00  0.00     0.163 C 
ATOM      6  O   UNL A   1      35.951  31.085  27.537  1.00  0.00    -0.294 OA
BRANCH   5   7
ATOM      7  C   UNL A   1      33.913  30.008  27.105  1.00  0.00     0.018 A 
ATOM      8  C   UNL A   1      32.729  28.148  25.367  1.00  0.00     0.049 A 
ATOM      9  C   UNL A   1      33.781  27.767  26.199  1.00  0.00     0.027 A 
ATOM     10  C   UNL A   1      32.144  29.399  25.555  1.00  0.00     0.027 A 
ATOM     11  C   UNL A   1      34.378  28.693  27.059  1.00  0.00     0.014 A 
ATOM     12  C   UNL A   1      32.747  30.343  26.412  1.00  0.00     0.014 A 
BRANCH   8  13
ATOM     13  N   UNL A   1      32.281  27.185  24.423  1.00  0.00    -0.280 N 
ATOM     14  H   UNL A   1      32.127  26.273  24.760  1.00  0.00     0.180 HD
BRANCH  13  15
ATOM     15  S   UNL A   1      31.986  27.444  22.792  1.00  0.00     0.262 S 
ATOM     16  O   UNL A   1      31.744  26.159  22.168  1.00  0.00    -0.201 OA
ATOM     17  O   UNL A   1      33.063  28.304  22.350  1.00  0.00    -0.201 OA
BRANCH  15  18
ATOM     18  C   UNL A   1      30.473  28.396  22.595  1.00  0.00     0.090 A 
ATOM     19  C   UNL A   1      27.415  31.290  23.477  1.00  0.00     0.044 C 
ATOM     20  C   UNL A   1      28.398  30.241  23.040  1.00  0.00    -0.051 A 
ATOM     21  C   UNL A   1      29.448  30.554  22.171  1.00  0.00     0.005 A 
ATOM     22  C   UNL A   1      28.292  28.932  23.517  1.00  0.00     0.008 A 
ATOM     23  C   UNL A   1      30.485  29.634  21.946  1.00  0.00     0.023 A 
ATOM     24  C   UNL A   1      29.315  27.992  23.297  1.00  0.00    -0.030 A 
ATOM     25  C   UNL A   1      29.054  26.579  23.748  1.00  0.00     0.046 C 
ENDBRANCH  15  18
ENDBRANCH  13  15
ENDBRANCH   8  13
ENDBRANCH   5   7
ENDBRANCH   4   5
ENDBRANCH   3   4
ENDBRANCH   1   3
BRANCH   1  26
ATOM     26  O   UNL A   1      34.496  35.664  28.623  1.00  0.00    -0.462 OA
BRANCH  26  27
ATOM     27  C   UNL A   1      33.081  35.783  28.821  1.00  0.00     0.274 C 
BRANCH  27  28
ATOM     28  C   UNL A   1      32.752  36.618  30.057  1.00  0.00     0.275 C 
BRANCH  28  29
ATOM     29  O   UNL A   1      32.267  35.751  31.075  1.00  0.00    -0.458 OA
BRANCH  29  30
ATOM     30  C   UNL A   1      32.744  36.038  32.303  1.00  0.00     0.338 C 
ATOM     31  O   UNL A   1      32.271  36.744  33.179  1.00  0.00    -0.246 OA
BRANCH  30  32
ATOM     32  C   UNL A   1      33.860  35.129  32.478  1.00  0.00     0.060 A 
ATOM     33  C   UNL A   1      33.603  33.810  32.863  1.00  0.00     0.016 A 
ATOM     34  C   UNL A   1      35.143  35.596  32.196  1.00  0.00     0.016 A 
ATOM     35  C   UNL A   1      34.671  32.948  33.037  1.00  0.00     0.010 A 
ATOM     36  C   UNL A   1      36.205  34.732  32.353  1.00  0.00     0.010 A 
ATOM     37  C   UNL A   1      35.968  33.427  32.817  1.00  0.00    -0.014 A 
BRANCH  37  38
ATOM     38  C   UNL A   1      37.124  32.627  33.226  1.00  0.00     0.031 A 
ATOM     39  C   UNL A   1      37.769  32.959  34.533  1.00  0.00     0.074 A 
ATOM     40  C   UNL A   1      37.589  31.684  32.397  1.00  0.00     0.049 A 
ATOM     41  N   UNL A   1      38.880  32.511  35.048  1.00  0.00    -0.248 NA
ATOM     42  C   UNL A   1      37.079  33.964  35.363  1.00  0.00     0.031 C 
ATOM     43  C   UNL A   1      36.994  31.327  31.109  1.00  0.00     0.029 A 
ATOM     44  N   UNL A   1      38.687  30.880  32.502  1.00  0.00    -0.354 N 
ATOM     45  C   UNL A   1      39.031  33.192  36.248  1.00  0.00     0.074 A 
ATOM     46  C   UNL A   1      37.927  34.115  36.366  1.00  0.00     0.031 C 
ATOM     47  C   UNL A   1      37.748  30.380  30.530  1.00  0.00     0.029 A 
ATOM     48  C   UNL A   1      38.892  30.100  31.393  1.00  0.00     0.049 A 
ATOM     49  H   UNL A   1      39.271  30.860  33.294  1.00  0.00     0.167 HD
ATOM     50  C   UNL A   1      40.011  33.039  37.168  1.00  0.00     0.037 A 
ATOM     51  C   UNL A   1      39.916  29.278  31.110  1.00  0.00     0.037 A 
ATOM     52  C   UNL A   1      41.097  32.111  36.997  1.00  0.00     0.049 A 
ATOM     53  C   UNL A   1      40.997  29.128  32.143  1.00  0.00     0.074 A 
ATOM     54  C   UNL A   1      42.155  31.845  37.844  1.00  0.00     0.029 A 
ATOM     55  N   UNL A   1      41.258  31.297  35.881  1.00  0.00    -0.354 N 
ATOM     56  N   UNL A   1      41.136  29.751  33.290  1.00  0.00    -0.248 NA
ATOM     57  C   UNL A   1      42.053  28.155  31.854  1.00  0.00     0.031 C 
ATOM     58  C   UNL A   1      42.977  30.899  37.220  1.00  0.00     0.029 A 
ATOM     59  C   UNL A   1      42.403  30.534  36.009  1.00  0.00     0.049 A 
ATOM     60  H   UNL A   1      40.644  31.269  35.110  1.00  0.00     0.167 HD
ATOM     61  C   UNL A   1      42.283  29.235  33.873  1.00  0.00     0.074 A 
ATOM     62  C   UNL A   1      42.790  28.232  32.954  1.00  0.00     0.031 C 
ATOM     63  C   UNL A   1      42.869  29.553  35.056  1.00  0.00     0.037 A 
BRANCH  50  64
ATOM     64  C   UNL A   1      39.949  33.912  38.388  1.00  0.00     0.064 A 
ATOM     65  C   UNL A   1      39.176  33.563  39.510  1.00  0.00     0.173 A 
ATOM     66  C   UNL A   1      40.636  35.134  38.428  1.00  0.00     0.173 A 
ATOM     67  F   UNL A   1      38.478  32.417  39.520  1.00  0.00    -0.203 F 
ATOM     68  C   UNL A   1      39.059  34.424  40.600  1.00  0.00     0.198 A 
ATOM     69  C   UNL A   1      40.544  35.977  39.533  1.00  0.00     0.198 A 
ATOM     70  F   UNL A   1      41.385  35.523  37.385  1.00  0.00    -0.203 F 
ATOM     71  F   UNL A   1      38.256  34.101  41.623  1.00  0.00    -0.200 F 
ATOM     72  C   UNL A   1      39.746  35.627  40.613  1.00  0.00     0.200 A 
ATOM     73  F   UNL A   1      41.214  37.138  39.548  1.00  0.00    -0.200 F 
ATOM     74  F   UNL A   1      39.626  36.458  41.657  1.00  0.00    -0.200 F 
ENDBRANCH  50  64
BRANCH  51  75
ATOM     75  C   UNL A   1      39.929  28.548  29.820  1.00  0.00     0.064 A 
ATOM     76  C   UNL A   1      40.563  29.085  28.693  1.00  0.00     0.173 A 
ATOM     77  C   UNL A   1      39.375  27.263  29.706  1.00  0.00     0.173 A 
ATOM     78  F   UNL A   1      41.102  30.312  28.749  1.00  0.00    -0.203 F 
ATOM     79  C   UNL A   1      40.639  28.369  27.499  1.00  0.00     0.198 A 
ATOM     80  C   UNL A   1      39.475  26.537  28.522  1.00  0.00     0.198 A 
ATOM     81  F   UNL A   1      38.771  26.696  30.762  1.00  0.00    -0.203 F 
ATOM     82  F   UNL A   1      41.235  28.914  26.431  1.00  0.00    -0.200 F 
ATOM     83  C   UNL A   1      40.103  27.091  27.418  1.00  0.00     0.200 A 
ATOM     84  F   UNL A   1      38.977  25.294  28.455  1.00  0.00    -0.200 F 
ATOM     85  F   UNL A   1      40.197  26.395  26.277  1.00  0.00    -0.200 F 
ENDBRANCH  51  75
BRANCH  63  86
ATOM     86  C   UNL A   1      44.104  28.786  35.417  1.00  0.00     0.064 A 
ATOM     87  C   UNL A   1      44.035  27.551  36.077  1.00  0.00     0.173 A 
ATOM     88  C   UNL A   1      45.369  29.281  35.067  1.00  0.00     0.173 A 
ATOM     89  F   UNL A   1      42.847  27.046  36.443  1.00  0.00    -0.203 F 
ATOM     90  C   UNL A   1      45.193  26.852  36.401  1.00  0.00     0.198 A 
ATOM     91  C   UNL A   1      46.523  28.564  35.365  1.00  0.00     0.198 A 
ATOM     92  F   UNL A   1      45.483  30.454  34.427  1.00  0.00    -0.203 F 
ATOM     93  F   UNL A   1      45.109  25.701  37.081  1.00  0.00    -0.200 F 
ATOM     94  C   UNL A   1      46.435  27.356  36.039  1.00  0.00     0.200 A 
ATOM     95  F   UNL A   1      47.720  29.043  35.000  1.00  0.00    -0.200 F 
ATOM     96  F   UNL A   1      47.549  26.679  36.350  1.00  0.00    -0.200 F 
ENDBRANCH  63  86
ENDBRANCH  37  38
ENDBRANCH  30  32
ENDBRANCH  29  30
ENDBRANCH  28  29
ENDBRANCH  27  28
ENDBRANCH  26  27
ENDBRANCH   1  26
TORSDOF 17
ENDMDL
MODEL 3
REMARK VINA RESULT:     -11.3      2.426      7.941
REMARK SMILES Cc1ccc(S(=O)(=O)Nc2ccc(C(=O)CCC(=O)OCCOC(=O)c3ccc(-c4c5nc(c(-c6c(F)c(F)c(F)c(F)c6F)c6ccc([nH]6)c(-c6c(F)c(F)c(F)c(F)c6F)c6nc(c(-c7c(F)c(F)c(F)c(F)c7F)c7ccc4[nH]7)C=C6)C=C5)cc3)cc2)c(C)c1
REMARK SMILES IDX 18 1 19 2 17 3 16 4 14 5 15 6 13 7 10 8 11 9 90 10 12 11
REMARK SMILES IDX 89 12 9 13 6 15 7 16 8 17 5 18 1 19 2 20 3 21 93 22 4 23
REMARK SMILES IDX 91 24 92 25 20 26 21 27 22 28 23 29 24 30 25 31 26 32 27 33
REMARK SMILES IDX 88 34 28 35 87 36 29 37 30 38 31 39 81 40 32 41 86 42 80 43
REMARK SMILES IDX 82 44 33 45 85 46 79 47 78 48 34 50 66 51 46 52 65 53 47 54
REMARK SMILES IDX 50 55 64 56 83 57 48 58 49 59 63 61 84 62 51 63 35 64 36 65
REMARK SMILES IDX 44 66 37 67 38 68 42 69 45 70 39 71 40 72 43 73 41 74 67 75
REMARK SMILES IDX 68 76 76 77 69 78 70 79 74 80 77 81 71 82 72 83 75 84 73 85
REMARK SMILES IDX 52 86 53 87 61 88 54 89 55 90 59 91 62 92 56 93 57 94 60 95
REMARK SMILES IDX 58 96
REMARK H PARENT 9 14 82 49 50 60
REMARK Flexibility Score: inf
ROOT
ATOM      1  C   UNL A   1      31.046  29.883  24.560  1.00  0.00     0.306 C 
ATOM      2  O   UNL A   1      32.037  29.168  24.633  1.00  0.00    -0.252 OA
ENDROOT
BRANCH   1   3
ATOM      3  C   UNL A   1      29.876  29.587  23.647  1.00  0.00     0.131 C 
BRANCH   3   4
ATOM      4  C   UNL A   1      29.987  28.307  22.814  1.00  0.00     0.093 C 
BRANCH   4   5
ATOM      5  C   UNL A   1      29.319  27.132  23.508  1.00  0.00     0.163 C 
ATOM      6  O   UNL A   1      28.101  27.101  23.673  1.00  0.00    -0.294 OA
BRANCH   5   7
ATOM      7  C   UNL A   1      30.158  26.085  24.155  1.00  0.00     0.018 A 
ATOM      8  C   UNL A   1      31.269  23.806  25.361  1.00  0.00     0.049 A 
ATOM      9  C   UNL A   1      31.062  23.846  23.983  1.00  0.00     0.027 A 
ATOM     10  C   UNL A   1      31.108  24.978  26.097  1.00  0.00     0.027 A 
ATOM     11  C   UNL A   1      30.502  24.974  23.380  1.00  0.00     0.014 A 
ATOM     12  C   UNL A   1      30.533  26.118  25.500  1.00  0.00     0.014 A 
BRANCH   8  13
ATOM     13  N   UNL A   1      31.705  22.568  25.906  1.00  0.00    -0.280 N 
ATOM     14  H   UNL A   1      31.009  21.974  26.267  1.00  0.00     0.180 HD
BRANCH  13  15
ATOM     15  S   UNL A   1      33.288  22.018  25.999  1.00  0.00     0.262 S 
ATOM     16  O   UNL A   1      33.520  21.541  27.348  1.00  0.00    -0.201 OA
ATOM     17  O   UNL A   1      34.087  23.081  25.429  1.00  0.00    -0.201 OA
BRANCH  15  18
ATOM     18  C   UNL A   1      33.497  20.597  24.916  1.00  0.00     0.090 A 
ATOM     19  C   UNL A   1      33.702  16.474  23.707  1.00  0.00     0.044 C 
ATOM     20  C   UNL A   1      33.664  17.952  23.977  1.00  0.00    -0.051 A 
ATOM     21  C   UNL A   1      32.481  18.682  23.826  1.00  0.00     0.005 A 
ATOM     22  C   UNL A   1      34.812  18.619  24.412  1.00  0.00     0.008 A 
ATOM     23  C   UNL A   1      32.395  20.004  24.292  1.00  0.00     0.023 A 
ATOM     24  C   UNL A   1      34.750  19.946  24.876  1.00  0.00    -0.030 A 
ATOM     25  C   UNL A   1      36.057  20.615  25.210  1.00  0.00     0.046 C 
ENDBRANCH  15  18
ENDBRANCH  13  15
ENDBRANCH   8  13
ENDBRANCH   5   7
ENDBRANCH   4   5
ENDBRANCH   3   4
ENDBRANCH   1   3
BRANCH   1  26
ATOM     26  O   UNL A   1      30.848  31.007  25.282  1.00  0.00    -0.462 OA
BRANCH  26  27
ATOM     27  C   UNL A   1      31.585  31.145  26.504  1.00  0.00     0.274 C 
BRANCH  27  28
ATOM     28  C   UNL A   1      31.773  32.612  26.887  1.00  0.00     0.275 C 
BRANCH  28  29
ATOM     29  O   UNL A   1      33.105  32.793  27.353  1.00  0.00    -0.458 OA
BRANCH  29  30
ATOM     30  C   UNL A   1      33.256  33.862  28.159  1.00  0.00     0.338 C 
ATOM     31  O   UNL A   1      32.509  34.807  28.352  1.00  0.00    -0.246 OA
BRANCH  30  32
ATOM     32  C   UNL A   1      34.423  33.546  28.960  1.00  0.00     0.060 A 
ATOM     33  C   UNL A   1      35.618  34.229  28.711  1.00  0.00     0.016 A 
ATOM     34  C   UNL A   1      34.288  32.612  29.986  1.00  0.00     0.016 A 
ATOM     35  C   UNL A   1      36.731  33.919  29.472  1.00  0.00     0.010 A 
ATOM     36  C   UNL A   1      35.394  32.316  30.754  1.00  0.00     0.010 A 
ATOM     37  C   UNL A   1      36.620  32.937  30.463  1.00  0.00    -0.014 A 
BRANCH  37  38
ATOM     38  C   UNL A   1      37.823  32.411  31.113  1.00  0.00     0.031 A 
ATOM     39  C   UNL A   1      38.567  31.320  30.412  1.00  0.00     0.074 A 
ATOM     40  C   UNL A   1      38.169  32.879  32.319  1.00  0.00     0.049 A 
ATOM     41  N   UNL A   1      39.560  30.588  30.836  1.00  0.00    -0.248 NA
ATOM     42  C   UNL A   1      38.104  30.984  29.053  1.00  0.00     0.031 C 
ATOM     43  C   UNL A   1      37.470  33.941  33.041  1.00  0.00     0.029 A 
ATOM     44  N   UNL A   1      39.174  32.496  33.158  1.00  0.00    -0.354 N 
ATOM     45  C   UNL A   1      39.826  29.696  29.807  1.00  0.00     0.074 A 
ATOM     46  C   UNL A   1      38.865  29.943  28.758  1.00  0.00     0.031 C 
ATOM     47  C   UNL A   1      38.062  34.116  34.233  1.00  0.00     0.029 A 
ATOM     48  C   UNL A   1      39.149  33.151  34.362  1.00  0.00     0.049 A 
ATOM     49  H   UNL A   1      39.849  31.819  32.924  1.00  0.00     0.167 HD
ATOM     50  C   UNL A   1      40.802  28.761  29.754  1.00  0.00     0.037 A 
ATOM     51  C   UNL A   1      39.911  32.957  35.451  1.00  0.00     0.037 A 
ATOM     52  C   UNL A   1      41.729  28.547  30.833  1.00  0.00     0.049 A 
ATOM     53  C   UNL A   1      40.986  31.909  35.374  1.00  0.00     0.074 A 
ATOM     54  C   UNL A   1      42.770  27.643  30.919  1.00  0.00     0.029 A 
ATOM     55  N   UNL A   1      41.711  29.257  32.029  1.00  0.00    -0.354 N 
ATOM     56  N   UNL A   1      41.258  31.076  34.396  1.00  0.00    -0.248 NA
ATOM     57  C   UNL A   1      41.866  31.781  36.538  1.00  0.00     0.031 C 
ATOM     58  C   UNL A   1      43.356  27.781  32.184  1.00  0.00     0.029 A 
ATOM     59  C   UNL A   1      42.716  28.808  32.865  1.00  0.00     0.049 A 
ATOM     60  H   UNL A   1      41.075  29.978  32.247  1.00  0.00     0.167 HD
ATOM     61  C   UNL A   1      42.354  30.336  34.814  1.00  0.00     0.074 A 
ATOM     62  C   UNL A   1      42.703  30.836  36.131  1.00  0.00     0.031 C 
ATOM     63  C   UNL A   1      43.015  29.336  34.175  1.00  0.00     0.037 A 
BRANCH  50  64
ATOM     64  C   UNL A   1      40.871  27.908  28.519  1.00  0.00     0.064 A 
ATOM     65  C   UNL A   1      41.642  28.281  27.405  1.00  0.00     0.173 A 
ATOM     66  C   UNL A   1      40.126  26.724  28.427  1.00  0.00     0.173 A 
ATOM     67  F   UNL A   1      42.357  29.416  27.426  1.00  0.00    -0.203 F 
ATOM     68  C   UNL A   1      41.629  27.525  26.234  1.00  0.00     0.198 A 
ATOM     69  C   UNL A   1      40.140  25.952  27.267  1.00  0.00     0.198 A 
ATOM     70  F   UNL A   1      39.366  26.320  29.457  1.00  0.00    -0.203 F 
ATOM     71  F   UNL A   1      42.313  27.943  25.161  1.00  0.00    -0.200 F 
ATOM     72  C   UNL A   1      40.881  26.359  26.168  1.00  0.00     0.200 A 
ATOM     73  F   UNL A   1      39.423  24.822  27.207  1.00  0.00    -0.200 F 
ATOM     74  F   UNL A   1      40.861  25.638  25.038  1.00  0.00    -0.200 F 
ENDBRANCH  50  64
BRANCH  51  75
ATOM     75  C   UNL A   1      39.680  33.785  36.659  1.00  0.00     0.064 A 
ATOM     76  C   UNL A   1      40.223  35.071  36.767  1.00  0.00     0.173 A 
ATOM     77  C   UNL A   1      38.847  33.338  37.697  1.00  0.00     0.173 A 
ATOM     78  F   UNL A   1      41.031  35.540  35.805  1.00  0.00    -0.203 F 
ATOM     79  C   UNL A   1      39.947  35.878  37.870  1.00  0.00     0.198 A 
ATOM     80  C   UNL A   1      38.550  34.156  38.785  1.00  0.00     0.198 A 
ATOM     81  F   UNL A   1      38.287  32.121  37.633  1.00  0.00    -0.203 F 
ATOM     82  F   UNL A   1      40.495  37.097  37.958  1.00  0.00    -0.200 F 
ATOM     83  C   UNL A   1      39.103  35.424  38.873  1.00  0.00     0.200 A 
ATOM     84  F   UNL A   1      37.715  33.722  39.740  1.00  0.00    -0.200 F 
ATOM     85  F   UNL A   1      38.821  36.210  39.920  1.00  0.00    -0.200 F 
ENDBRANCH  51  75
BRANCH  63  86
ATOM     86  C   UNL A   1      44.190  28.748  34.895  1.00  0.00     0.064 A 
ATOM     87  C   UNL A   1      44.045  27.671  35.781  1.00  0.00     0.173 A 
ATOM     88  C   UNL A   1      45.480  29.249  34.668  1.00  0.00     0.173 A 
ATOM     89  F   UNL A   1      42.828  27.168  36.040  1.00  0.00    -0.203 F 
ATOM     90  C   UNL A   1      45.148  27.137  36.438  1.00  0.00     0.198 A 
ATOM     91  C   UNL A   1      46.585  28.691  35.302  1.00  0.00     0.198 A 
ATOM     92  F   UNL A   1      45.669  30.273  33.821  1.00  0.00    -0.203 F 
ATOM     93  F   UNL A   1      44.982  26.144  37.323  1.00  0.00    -0.200 F 
ATOM     94  C   UNL A   1      46.417  27.642  36.193  1.00  0.00     0.200 A 
ATOM     95  F   UNL A   1      47.811  29.170  35.053  1.00  0.00    -0.200 F 
ATOM     96  F   UNL A   1      47.479  27.123  36.825  1.00  0.00    -0.200 F 
ENDBRANCH  63  86
ENDBRANCH  37  38
ENDBRANCH  30  32
ENDBRANCH  29  30
ENDBRANCH  28  29
ENDBRANCH  27  28
ENDBRANCH  26  27
ENDBRANCH   1  26
TORSDOF 17
ENDMDL
