MODEL 1
REMARK VINA RESULT:     -14.7      0.000      0.000
REMARK SMILES Cc1cccc(-n2ncc(C(=O)Nc3cccc(C(=O)OCCOC(=O)c4ccc(-c5c6nc(c(-c7c(F)c(F)c(F)c(F)c7F)c7ccc([nH]7)c(-c7c(F)c(F)c(F)c(F)c7F)c7nc(c(-c8c(F)c(F)c(F)c(F)c8F)c8ccc5[nH]8)C=C7)C=C6)cc4)c3C)c2C)c1
REMARK SMILES IDX 22 1 21 2 19 3 20 4 18 5 14 6 15 7 90 8 16 9 91 10 17 11
REMARK SMILES IDX 13 12 11 13 12 14 10 16 7 17 8 18 92 19 9 20 93 21 6 22 1 23
REMARK SMILES IDX 2 24 3 25 94 26 4 27 5 28 23 29 24 30 25 31 26 32 27 33
REMARK SMILES IDX 28 34 89 35 29 36 88 37 30 38 31 39 32 40 82 41 33 42 87 43
REMARK SMILES IDX 81 44 83 45 34 46 86 47 80 48 79 49 35 51 67 52 47 53 66 54
REMARK SMILES IDX 48 55 51 56 65 57 84 58 49 59 50 60 64 62 85 63 52 64 36 65
REMARK SMILES IDX 37 66 45 67 38 68 39 69 43 70 46 71 40 72 41 73 44 74 42 75
REMARK SMILES IDX 68 76 69 77 77 78 70 79 71 80 75 81 78 82 72 83 73 84 76 85
REMARK SMILES IDX 74 86 53 87 54 88 62 89 55 90 56 91 60 92 63 93 57 94 58 95
REMARK SMILES IDX 61 96 59 97
REMARK H PARENT 13 15 83 50 51 61
REMARK Flexibility Score: inf
ROOT
ATOM      1  C   UNL A   1      33.239  30.346  26.718  1.00  0.00     0.275 C 
ENDROOT
BRANCH   1   2
ATOM      2  O   UNL A   1      32.131  29.670  26.115  1.00  0.00    -0.458 OA
BRANCH   2   3
ATOM      3  C   UNL A   1      32.336  29.064  24.916  1.00  0.00     0.338 C 
ATOM      4  O   UNL A   1      33.254  29.228  24.162  1.00  0.00    -0.246 OA
BRANCH   3   5
ATOM      5  C   UNL A   1      31.274  28.033  24.762  1.00  0.00     0.065 A 
ATOM      6  C   UNL A   1      30.016  26.059  25.391  1.00  0.00     0.045 A 
ATOM      7  C   UNL A   1      29.113  26.334  24.356  1.00  0.00     0.026 A 
ATOM      8  C   UNL A   1      31.063  26.971  25.670  1.00  0.00    -0.013 A 
ATOM      9  C   UNL A   1      29.329  27.390  23.477  1.00  0.00     0.003 A 
ATOM     10  C   UNL A   1      31.920  26.780  26.895  1.00  0.00     0.047 C 
ATOM     11  C   UNL A   1      30.428  28.215  23.657  1.00  0.00     0.016 A 
BRANCH   6  12
ATOM     12  N   UNL A   1      29.879  24.898  26.179  1.00  0.00    -0.322 N 
ATOM     13  C   UNL A   1      30.506  23.668  26.134  1.00  0.00     0.259 C 
ATOM     14  O   UNL A   1      29.989  22.748  26.771  1.00  0.00    -0.269 OA
ATOM     15  H   UNL A   1      29.211  24.980  26.897  1.00  0.00     0.170 HD
BRANCH  13  16
ATOM     16  C   UNL A   1      31.776  23.480  25.437  1.00  0.00     0.081 A 
ATOM     17  N   UNL A   1      33.916  23.032  24.998  1.00  0.00    -0.237 N 
ATOM     18  N   UNL A   1      33.391  23.425  23.810  1.00  0.00    -0.175 NA
ATOM     19  C   UNL A   1      33.013  23.243  26.031  1.00  0.00     0.054 A 
ATOM     20  C   UNL A   1      32.109  23.663  24.078  1.00  0.00     0.149 A 
ATOM     21  C   UNL A   1      33.390  23.340  27.471  1.00  0.00     0.068 C 
BRANCH  17  22
ATOM     22  C   UNL A   1      35.239  22.520  25.045  1.00  0.00     0.065 A 
ATOM     23  C   UNL A   1      36.933  19.116  24.843  1.00  0.00     0.044 C 
ATOM     24  C   UNL A   1      36.723  20.594  24.985  1.00  0.00    -0.049 A 
ATOM     25  C   UNL A   1      37.823  21.458  25.047  1.00  0.00     0.003 A 
ATOM     26  C   UNL A   1      35.430  21.131  25.021  1.00  0.00     0.031 A 
ATOM     27  C   UNL A   1      37.635  22.839  25.133  1.00  0.00     0.002 A 
ATOM     28  C   UNL A   1      36.346  23.373  25.124  1.00  0.00     0.028 A 
ENDBRANCH  17  22
ENDBRANCH  13  16
ENDBRANCH   6  12
ENDBRANCH   3   5
ENDBRANCH   2   3
ENDBRANCH   1   2
BRANCH   1  29
ATOM     29  C   UNL A   1      34.417  29.540  27.303  1.00  0.00     0.275 C 
BRANCH  29  30
ATOM     30  O   UNL A   1      35.223  30.059  28.395  1.00  0.00    -0.458 OA
BRANCH  30  31
ATOM     31  C   UNL A   1      36.446  30.638  28.375  1.00  0.00     0.338 C 
ATOM     32  O   UNL A   1      36.621  31.847  28.335  1.00  0.00    -0.246 OA
BRANCH  31  33
ATOM     33  C   UNL A   1      37.593  29.744  28.508  1.00  0.00     0.060 A 
ATOM     34  C   UNL A   1      37.641  28.858  29.595  1.00  0.00     0.016 A 
ATOM     35  C   UNL A   1      38.526  29.706  27.483  1.00  0.00     0.016 A 
ATOM     36  C   UNL A   1      38.580  27.847  29.612  1.00  0.00     0.010 A 
ATOM     37  C   UNL A   1      39.349  28.619  27.407  1.00  0.00     0.010 A 
ATOM     38  C   UNL A   1      39.422  27.753  28.508  1.00  0.00    -0.014 A 
BRANCH  38  39
ATOM     39  C   UNL A   1      40.691  27.070  28.580  1.00  0.00     0.031 A 
ATOM     40  C   UNL A   1      40.783  25.637  28.332  1.00  0.00     0.074 A 
ATOM     41  C   UNL A   1      41.699  27.947  28.783  1.00  0.00     0.049 A 
ATOM     42  N   UNL A   1      41.693  24.887  28.837  1.00  0.00    -0.248 NA
ATOM     43  C   UNL A   1      39.812  24.903  27.525  1.00  0.00     0.031 C 
ATOM     44  C   UNL A   1      43.136  27.824  28.688  1.00  0.00     0.029 A 
ATOM     45  N   UNL A   1      41.506  29.247  29.299  1.00  0.00    -0.354 N 
ATOM     46  C   UNL A   1      41.670  23.708  28.124  1.00  0.00     0.074 A 
ATOM     47  C   UNL A   1      40.385  23.693  27.466  1.00  0.00     0.031 C 
ATOM     48  C   UNL A   1      43.683  28.818  29.423  1.00  0.00     0.029 A 
ATOM     49  C   UNL A   1      42.599  29.510  30.122  1.00  0.00     0.049 A 
ATOM     50  H   UNL A   1      40.749  29.849  29.114  1.00  0.00     0.167 HD
ATOM     51  C   UNL A   1      42.843  23.021  27.995  1.00  0.00     0.037 A 
ATOM     52  C   UNL A   1      42.347  29.494  31.466  1.00  0.00     0.037 A 
ATOM     53  C   UNL A   1      43.905  23.719  28.734  1.00  0.00     0.049 A 
ATOM     54  C   UNL A   1      42.946  28.273  32.138  1.00  0.00     0.074 A 
ATOM     55  C   UNL A   1      44.880  24.629  28.355  1.00  0.00     0.029 A 
ATOM     56  N   UNL A   1      43.783  23.852  30.106  1.00  0.00    -0.354 N 
ATOM     57  N   UNL A   1      43.410  27.233  31.499  1.00  0.00    -0.248 NA
ATOM     58  C   UNL A   1      42.993  28.104  33.587  1.00  0.00     0.031 C 
ATOM     59  C   UNL A   1      45.309  25.335  29.520  1.00  0.00     0.029 A 
ATOM     60  C   UNL A   1      44.599  24.852  30.604  1.00  0.00     0.049 A 
ATOM     61  H   UNL A   1      43.186  23.301  30.662  1.00  0.00     0.167 HD
ATOM     62  C   UNL A   1      43.866  26.311  32.393  1.00  0.00     0.074 A 
ATOM     63  C   UNL A   1      43.515  26.871  33.688  1.00  0.00     0.031 C 
ATOM     64  C   UNL A   1      44.514  25.165  32.022  1.00  0.00     0.037 A 
BRANCH  51  65
ATOM     65  C   UNL A   1      43.113  21.952  26.956  1.00  0.00     0.064 A 
ATOM     66  C   UNL A   1      42.426  20.719  27.010  1.00  0.00     0.173 A 
ATOM     67  C   UNL A   1      44.048  22.053  25.907  1.00  0.00     0.173 A 
ATOM     68  F   UNL A   1      41.436  20.506  27.886  1.00  0.00    -0.203 F 
ATOM     69  C   UNL A   1      42.725  19.647  26.165  1.00  0.00     0.198 A 
ATOM     70  C   UNL A   1      44.374  20.968  25.082  1.00  0.00     0.198 A 
ATOM     71  F   UNL A   1      44.639  23.216  25.607  1.00  0.00    -0.203 F 
ATOM     72  F   UNL A   1      42.044  18.498  26.283  1.00  0.00    -0.200 F 
ATOM     73  C   UNL A   1      43.721  19.761  25.219  1.00  0.00     0.200 A 
ATOM     74  F   UNL A   1      45.328  21.104  24.149  1.00  0.00    -0.200 F 
ATOM     75  F   UNL A   1      44.029  18.725  24.428  1.00  0.00    -0.200 F 
ENDBRANCH  51  65
BRANCH  52  76
ATOM     76  C   UNL A   1      41.040  30.138  31.864  1.00  0.00     0.064 A 
ATOM     77  C   UNL A   1      39.977  29.325  32.331  1.00  0.00     0.173 A 
ATOM     78  C   UNL A   1      40.872  31.520  32.019  1.00  0.00     0.173 A 
ATOM     79  F   UNL A   1      40.054  27.988  32.222  1.00  0.00    -0.203 F 
ATOM     80  C   UNL A   1      38.863  29.858  32.983  1.00  0.00     0.198 A 
ATOM     81  C   UNL A   1      39.738  32.055  32.643  1.00  0.00     0.198 A 
ATOM     82  F   UNL A   1      41.830  32.375  31.638  1.00  0.00    -0.203 F 
ATOM     83  F   UNL A   1      37.935  29.039  33.498  1.00  0.00    -0.200 F 
ATOM     84  C   UNL A   1      38.745  31.226  33.141  1.00  0.00     0.200 A 
ATOM     85  F   UNL A   1      39.646  33.379  32.832  1.00  0.00    -0.200 F 
ATOM     86  F   UNL A   1      37.699  31.748  33.797  1.00  0.00    -0.200 F 
ENDBRANCH  52  76
BRANCH  64  87
ATOM     87  C   UNL A   1      45.125  24.228  33.022  1.00  0.00     0.064 A 
ATOM     88  C   UNL A   1      44.454  23.080  33.472  1.00  0.00     0.173 A 
ATOM     89  C   UNL A   1      46.365  24.496  33.639  1.00  0.00     0.173 A 
ATOM     90  F   UNL A   1      43.203  22.807  33.074  1.00  0.00    -0.203 F 
ATOM     91  C   UNL A   1      45.045  22.190  34.366  1.00  0.00     0.198 A 
ATOM     92  C   UNL A   1      46.923  23.642  34.583  1.00  0.00     0.198 A 
ATOM     93  F   UNL A   1      47.091  25.582  33.340  1.00  0.00    -0.203 F 
ATOM     94  F   UNL A   1      44.409  21.055  34.687  1.00  0.00    -0.200 F 
ATOM     95  C   UNL A   1      46.280  22.470  34.919  1.00  0.00     0.200 A 
ATOM     96  F   UNL A   1      48.094  23.960  35.153  1.00  0.00    -0.200 F 
ATOM     97  F   UNL A   1      46.846  21.618  35.783  1.00  0.00    -0.200 F 
ENDBRANCH  64  87
ENDBRANCH  38  39
ENDBRANCH  31  33
ENDBRANCH  30  31
ENDBRANCH  29  30
ENDBRANCH   1  29
TORSDOF 14
ENDMDL
MODEL 2
REMARK VINA RESULT:     -14.5      1.026      1.761
REMARK SMILES Cc1cccc(-n2ncc(C(=O)Nc3cccc(C(=O)OCCOC(=O)c4ccc(-c5c6nc(c(-c7c(F)c(F)c(F)c(F)c7F)c7ccc([nH]7)c(-c7c(F)c(F)c(F)c(F)c7F)c7nc(c(-c8c(F)c(F)c(F)c(F)c8F)c8ccc5[nH]8)C=C7)C=C6)cc4)c3C)c2C)c1
REMARK SMILES IDX 22 1 21 2 19 3 20 4 18 5 14 6 15 7 90 8 16 9 91 10 17 11
REMARK SMILES IDX 13 12 11 13 12 14 10 16 7 17 8 18 92 19 9 20 93 21 6 22 1 23
REMARK SMILES IDX 2 24 3 25 94 26 4 27 5 28 23 29 24 30 25 31 26 32 27 33
REMARK SMILES IDX 28 34 89 35 29 36 88 37 30 38 31 39 32 40 82 41 33 42 87 43
REMARK SMILES IDX 81 44 83 45 34 46 86 47 80 48 79 49 35 51 67 52 47 53 66 54
REMARK SMILES IDX 48 55 51 56 65 57 84 58 49 59 50 60 64 62 85 63 52 64 36 65
REMARK SMILES IDX 37 66 45 67 38 68 39 69 43 70 46 71 40 72 41 73 44 74 42 75
REMARK SMILES IDX 68 76 69 77 77 78 70 79 71 80 75 81 78 82 72 83 73 84 76 85
REMARK SMILES IDX 74 86 53 87 54 88 62 89 55 90 56 91 60 92 63 93 57 94 58 95
REMARK SMILES IDX 61 96 59 97
REMARK H PARENT 13 15 83 50 51 61
REMARK Flexibility Score: inf
ROOT
ATOM      1  C   UNL A   1      33.322  30.927  27.276  1.00  0.00     0.275 C 
ENDROOT
BRANCH   1   2
ATOM      2  O   UNL A   1      33.230  30.119  26.099  1.00  0.00    -0.458 OA
BRANCH   2   3
ATOM      3  C   UNL A   1      33.666  28.834  26.176  1.00  0.00     0.338 C 
ATOM      4  O   UNL A   1      34.158  28.286  27.123  1.00  0.00    -0.246 OA
BRANCH   3   5
ATOM      5  C   UNL A   1      33.289  28.168  24.901  1.00  0.00     0.065 A 
ATOM      6  C   UNL A   1      31.941  26.742  23.478  1.00  0.00     0.045 A 
ATOM      7  C   UNL A   1      32.683  27.183  22.374  1.00  0.00     0.026 A 
ATOM      8  C   UNL A   1      32.176  27.311  24.753  1.00  0.00    -0.013 A 
ATOM      9  C   UNL A   1      33.771  28.036  22.534  1.00  0.00     0.003 A 
ATOM     10  C   UNL A   1      31.259  26.982  25.903  1.00  0.00     0.047 C 
ATOM     11  C   UNL A   1      34.096  28.497  23.800  1.00  0.00     0.016 A 
BRANCH   6  12
ATOM     12  N   UNL A   1      30.943  25.757  23.330  1.00  0.00    -0.322 N 
ATOM     13  C   UNL A   1      30.956  24.389  23.520  1.00  0.00     0.259 C 
ATOM     14  O   UNL A   1      30.016  23.746  23.048  1.00  0.00    -0.269 OA
ATOM     15  H   UNL A   1      30.074  26.112  23.035  1.00  0.00     0.170 HD
BRANCH  13  16
ATOM     16  C   UNL A   1      31.987  23.737  24.323  1.00  0.00     0.081 A 
ATOM     17  N   UNL A   1      33.933  22.881  24.999  1.00  0.00    -0.237 N 
ATOM     18  N   UNL A   1      33.066  22.623  26.012  1.00  0.00    -0.175 NA
ATOM     19  C   UNL A   1      33.262  23.378  23.890  1.00  0.00     0.054 A 
ATOM     20  C   UNL A   1      31.918  23.162  25.610  1.00  0.00     0.149 A 
ATOM     21  C   UNL A   1      33.803  23.357  22.500  1.00  0.00     0.068 C 
BRANCH  17  22
ATOM     22  C   UNL A   1      35.315  22.603  25.169  1.00  0.00     0.065 A 
ATOM     23  C   UNL A   1      37.624  19.593  24.848  1.00  0.00     0.044 C 
ATOM     24  C   UNL A   1      37.128  20.984  25.110  1.00  0.00    -0.049 A 
ATOM     25  C   UNL A   1      38.034  22.009  25.406  1.00  0.00     0.003 A 
ATOM     26  C   UNL A   1      35.762  21.281  25.029  1.00  0.00     0.031 A 
ATOM     27  C   UNL A   1      37.584  23.316  25.606  1.00  0.00     0.002 A 
ATOM     28  C   UNL A   1      36.227  23.617  25.481  1.00  0.00     0.028 A 
ENDBRANCH  17  22
ENDBRANCH  13  16
ENDBRANCH   6  12
ENDBRANCH   3   5
ENDBRANCH   2   3
ENDBRANCH   1   2
BRANCH   1  29
ATOM     29  C   UNL A   1      34.627  31.684  27.599  1.00  0.00     0.275 C 
BRANCH  29  30
ATOM     30  O   UNL A   1      35.847  30.978  27.952  1.00  0.00    -0.458 OA
BRANCH  30  31
ATOM     31  C   UNL A   1      36.397  30.745  29.167  1.00  0.00     0.338 C 
ATOM     32  O   UNL A   1      35.929  31.171  30.212  1.00  0.00    -0.246 OA
BRANCH  31  33
ATOM     33  C   UNL A   1      37.553  29.855  29.200  1.00  0.00     0.060 A 
ATOM     34  C   UNL A   1      37.593  28.828  30.156  1.00  0.00     0.016 A 
ATOM     35  C   UNL A   1      38.507  29.968  28.200  1.00  0.00     0.016 A 
ATOM     36  C   UNL A   1      38.545  27.835  30.055  1.00  0.00     0.010 A 
ATOM     37  C   UNL A   1      39.347  28.911  27.994  1.00  0.00     0.010 A 
ATOM     38  C   UNL A   1      39.410  27.903  28.967  1.00  0.00    -0.014 A 
BRANCH  38  39
ATOM     39  C   UNL A   1      40.687  27.231  28.972  1.00  0.00     0.031 A 
ATOM     40  C   UNL A   1      40.788  25.816  28.637  1.00  0.00     0.074 A 
ATOM     41  C   UNL A   1      41.690  28.106  29.205  1.00  0.00     0.049 A 
ATOM     42  N   UNL A   1      41.716  25.048  29.077  1.00  0.00    -0.248 NA
ATOM     43  C   UNL A   1      39.807  25.121  27.808  1.00  0.00     0.031 C 
ATOM     44  C   UNL A   1      43.126  28.005  29.074  1.00  0.00     0.029 A 
ATOM     45  N   UNL A   1      41.496  29.371  29.802  1.00  0.00    -0.354 N 
ATOM     46  C   UNL A   1      41.689  23.913  28.296  1.00  0.00     0.074 A 
ATOM     47  C   UNL A   1      40.390  23.923  27.665  1.00  0.00     0.031 C 
ATOM     48  C   UNL A   1      43.679  28.959  29.855  1.00  0.00     0.029 A 
ATOM     49  C   UNL A   1      42.603  29.596  30.617  1.00  0.00     0.049 A 
ATOM     50  H   UNL A   1      40.728  29.973  29.669  1.00  0.00     0.167 HD
ATOM     51  C   UNL A   1      42.866  23.248  28.102  1.00  0.00     0.037 A 
ATOM     52  C   UNL A   1      42.380  29.498  31.962  1.00  0.00     0.037 A 
ATOM     53  C   UNL A   1      43.936  23.913  28.859  1.00  0.00     0.049 A 
ATOM     54  C   UNL A   1      43.005  28.246  32.548  1.00  0.00     0.074 A 
ATOM     55  C   UNL A   1      44.894  24.854  28.515  1.00  0.00     0.029 A 
ATOM     56  N   UNL A   1      43.842  23.963  30.239  1.00  0.00    -0.354 N 
ATOM     57  N   UNL A   1      43.466  27.251  31.839  1.00  0.00    -0.248 NA
ATOM     58  C   UNL A   1      43.084  27.991  33.982  1.00  0.00     0.031 C 
ATOM     59  C   UNL A   1      45.341  25.494  29.711  1.00  0.00     0.029 A 
ATOM     60  C   UNL A   1      44.659  24.941  30.779  1.00  0.00     0.049 A 
ATOM     61  H   UNL A   1      43.262  23.373  30.773  1.00  0.00     0.167 HD
ATOM     62  C   UNL A   1      43.950  26.282  32.666  1.00  0.00     0.074 A 
ATOM     63  C   UNL A   1      43.620  26.761  33.999  1.00  0.00     0.031 C 
ATOM     64  C   UNL A   1      44.601  25.168  32.215  1.00  0.00     0.037 A 
BRANCH  51  65
ATOM     65  C   UNL A   1      43.124  22.246  26.996  1.00  0.00     0.064 A 
ATOM     66  C   UNL A   1      42.469  20.993  27.004  1.00  0.00     0.173 A 
ATOM     67  C   UNL A   1      44.018  22.430  25.923  1.00  0.00     0.173 A 
ATOM     68  F   UNL A   1      41.517  20.706  27.901  1.00  0.00    -0.203 F 
ATOM     69  C   UNL A   1      42.764  19.979  26.090  1.00  0.00     0.198 A 
ATOM     70  C   UNL A   1      44.340  21.401  25.027  1.00  0.00     0.198 A 
ATOM     71  F   UNL A   1      44.569  23.622  25.668  1.00  0.00    -0.203 F 
ATOM     72  F   UNL A   1      42.116  18.807  26.167  1.00  0.00    -0.200 F 
ATOM     73  C   UNL A   1      43.722  20.171  25.118  1.00  0.00     0.200 A 
ATOM     74  F   UNL A   1      45.256  21.613  24.071  1.00  0.00    -0.200 F 
ATOM     75  F   UNL A   1      44.026  19.188  24.260  1.00  0.00    -0.200 F 
ENDBRANCH  51  65
BRANCH  52  76
ATOM     76  C   UNL A   1      41.075  30.102  32.425  1.00  0.00     0.064 A 
ATOM     77  C   UNL A   1      40.838  31.484  32.223  1.00  0.00     0.173 A 
ATOM     78  C   UNL A   1      39.975  29.343  32.844  1.00  0.00     0.173 A 
ATOM     79  F   UNL A   1      41.838  32.287  31.821  1.00  0.00    -0.203 F 
ATOM     80  C   UNL A   1      39.567  32.048  32.352  1.00  0.00     0.198 A 
ATOM     81  C   UNL A   1      38.708  29.917  33.006  1.00  0.00     0.198 A 
ATOM     82  F   UNL A   1      40.085  28.022  33.035  1.00  0.00    -0.203 F 
ATOM     83  F   UNL A   1      39.375  33.340  32.049  1.00  0.00    -0.200 F 
ATOM     84  C   UNL A   1      38.500  31.262  32.742  1.00  0.00     0.200 A 
ATOM     85  F   UNL A   1      37.666  29.143  33.343  1.00  0.00    -0.200 F 
ATOM     86  F   UNL A   1      37.268  31.783  32.834  1.00  0.00    -0.200 F 
ENDBRANCH  52  76
BRANCH  64  87
ATOM     87  C   UNL A   1      45.242  24.180  33.144  1.00  0.00     0.064 A 
ATOM     88  C   UNL A   1      44.567  23.034  33.593  1.00  0.00     0.173 A 
ATOM     89  C   UNL A   1      46.523  24.393  33.695  1.00  0.00     0.173 A 
ATOM     90  F   UNL A   1      43.286  22.809  33.261  1.00  0.00    -0.203 F 
ATOM     91  C   UNL A   1      45.183  22.097  34.419  1.00  0.00     0.198 A 
ATOM     92  C   UNL A   1      47.110  23.491  34.575  1.00  0.00     0.198 A 
ATOM     93  F   UNL A   1      47.260  25.470  33.391  1.00  0.00    -0.203 F 
ATOM     94  F   UNL A   1      44.534  20.969  34.739  1.00  0.00    -0.200 F 
ATOM     95  C   UNL A   1      46.456  22.325  34.909  1.00  0.00     0.200 A 
ATOM     96  F   UNL A   1      48.321  23.757  35.085  1.00  0.00    -0.200 F 
ATOM     97  F   UNL A   1      47.046  21.428  35.708  1.00  0.00    -0.200 F 
ENDBRANCH  64  87
ENDBRANCH  38  39
ENDBRANCH  31  33
ENDBRANCH  30  31
ENDBRANCH  29  30
ENDBRANCH   1  29
TORSDOF 14
ENDMDL
MODEL 3
REMARK VINA RESULT:     -14.5      3.906     10.234
REMARK SMILES Cc1cccc(-n2ncc(C(=O)Nc3cccc(C(=O)OCCOC(=O)c4ccc(-c5c6nc(c(-c7c(F)c(F)c(F)c(F)c7F)c7ccc([nH]7)c(-c7c(F)c(F)c(F)c(F)c7F)c7nc(c(-c8c(F)c(F)c(F)c(F)c8F)c8ccc5[nH]8)C=C7)C=C6)cc4)c3C)c2C)c1
REMARK SMILES IDX 22 1 21 2 19 3 20 4 18 5 14 6 15 7 90 8 16 9 91 10 17 11
REMARK SMILES IDX 13 12 11 13 12 14 10 16 7 17 8 18 92 19 9 20 93 21 6 22 1 23
REMARK SMILES IDX 2 24 3 25 94 26 4 27 5 28 23 29 24 30 25 31 26 32 27 33
REMARK SMILES IDX 28 34 89 35 29 36 88 37 30 38 31 39 32 40 82 41 33 42 87 43
REMARK SMILES IDX 81 44 83 45 34 46 86 47 80 48 79 49 35 51 67 52 47 53 66 54
REMARK SMILES IDX 48 55 51 56 65 57 84 58 49 59 50 60 64 62 85 63 52 64 36 65
REMARK SMILES IDX 37 66 45 67 38 68 39 69 43 70 46 71 40 72 41 73 44 74 42 75
REMARK SMILES IDX 68 76 69 77 77 78 70 79 71 80 75 81 78 82 72 83 73 84 76 85
REMARK SMILES IDX 74 86 53 87 54 88 62 89 55 90 56 91 60 92 63 93 57 94 58 95
REMARK SMILES IDX 61 96 59 97
REMARK H PARENT 13 15 83 50 51 61
REMARK Flexibility Score: inf
ROOT
ATOM      1  C   UNL A   1      38.230  21.731  25.550  1.00  0.00     0.275 C 
ENDROOT
BRANCH   1   2
ATOM      2  O   UNL A   1      36.851  21.919  25.885  1.00  0.00    -0.458 OA
BRANCH   2   3
ATOM      3  C   UNL A   1      36.306  23.143  25.657  1.00  0.00     0.338 C 
ATOM      4  O   UNL A   1      36.863  24.128  25.260  1.00  0.00    -0.246 OA
BRANCH   3   5
ATOM      5  C   UNL A   1      34.837  23.009  25.853  1.00  0.00     0.065 A 
ATOM      6  C   UNL A   1      32.529  22.831  25.136  1.00  0.00     0.045 A 
ATOM      7  C   UNL A   1      32.161  22.577  26.464  1.00  0.00     0.026 A 
ATOM      8  C   UNL A   1      33.899  22.954  24.799  1.00  0.00    -0.013 A 
ATOM      9  C   UNL A   1      33.099  22.624  27.490  1.00  0.00     0.003 A 
ATOM     10  C   UNL A   1      34.312  23.038  23.352  1.00  0.00     0.047 C 
ATOM     11  C   UNL A   1      34.428  22.877  27.190  1.00  0.00     0.016 A 
BRANCH   6  12
ATOM     12  N   UNL A   1      31.552  22.938  24.125  1.00  0.00    -0.322 N 
ATOM     13  C   UNL A   1      30.890  24.025  23.587  1.00  0.00     0.259 C 
ATOM     14  O   UNL A   1      29.888  23.794  22.908  1.00  0.00    -0.269 OA
ATOM     15  H   UNL A   1      31.295  22.076  23.726  1.00  0.00     0.170 HD
BRANCH  13  16
ATOM     16  C   UNL A   1      31.401  25.385  23.739  1.00  0.00     0.081 A 
ATOM     17  N   UNL A   1      31.992  27.350  24.611  1.00  0.00    -0.237 N 
ATOM     18  N   UNL A   1      32.279  27.455  23.289  1.00  0.00    -0.175 NA
ATOM     19  C   UNL A   1      31.283  26.186  24.873  1.00  0.00     0.054 A 
ATOM     20  C   UNL A   1      31.949  26.268  22.785  1.00  0.00     0.149 A 
ATOM     21  C   UNL A   1      30.448  25.965  26.088  1.00  0.00     0.068 C 
BRANCH  17  22
ATOM     22  C   UNL A   1      32.392  28.383  25.500  1.00  0.00     0.065 A 
ATOM     23  C   UNL A   1      31.238  31.894  26.413  1.00  0.00     0.044 C 
ATOM     24  C   UNL A   1      32.032  30.622  26.376  1.00  0.00    -0.049 A 
ATOM     25  C   UNL A   1      33.078  30.420  27.284  1.00  0.00     0.003 A 
ATOM     26  C   UNL A   1      31.717  29.611  25.460  1.00  0.00     0.031 A 
ATOM     27  C   UNL A   1      33.793  29.220  27.285  1.00  0.00     0.002 A 
ATOM     28  C   UNL A   1      33.447  28.198  26.401  1.00  0.00     0.028 A 
ENDBRANCH  17  22
ENDBRANCH  13  16
ENDBRANCH   6  12
ENDBRANCH   3   5
ENDBRANCH   2   3
ENDBRANCH   1   2
BRANCH   1  29
ATOM     29  C   UNL A   1      39.334  22.160  26.539  1.00  0.00     0.275 C 
BRANCH  29  30
ATOM     30  O   UNL A   1      39.488  23.545  26.951  1.00  0.00    -0.458 OA
BRANCH  30  31
ATOM     31  C   UNL A   1      40.571  24.355  26.894  1.00  0.00     0.338 C 
ATOM     32  O   UNL A   1      41.616  24.046  26.342  1.00  0.00    -0.246 OA
BRANCH  31  33
ATOM     33  C   UNL A   1      40.413  25.696  27.448  1.00  0.00     0.060 A 
ATOM     34  C   UNL A   1      40.636  26.805  26.616  1.00  0.00     0.016 A 
ATOM     35  C   UNL A   1      39.916  25.828  28.735  1.00  0.00     0.016 A 
ATOM     36  C   UNL A   1      40.262  28.064  27.040  1.00  0.00     0.010 A 
ATOM     37  C   UNL A   1      39.395  27.036  29.099  1.00  0.00     0.010 A 
ATOM     38  C   UNL A   1      39.647  28.150  28.284  1.00  0.00    -0.014 A 
BRANCH  38  39
ATOM     39  C   UNL A   1      39.615  29.387  29.029  1.00  0.00     0.031 A 
ATOM     40  C   UNL A   1      38.581  30.383  28.777  1.00  0.00     0.074 A 
ATOM     41  C   UNL A   1      40.561  29.393  29.992  1.00  0.00     0.049 A 
ATOM     42  N   UNL A   1      38.740  31.638  28.988  1.00  0.00    -0.248 NA
ATOM     43  C   UNL A   1      37.278  30.053  28.207  1.00  0.00     0.031 C 
ATOM     44  C   UNL A   1      40.789  30.250  31.134  1.00  0.00     0.029 A 
ATOM     45  N   UNL A   1      41.690  28.543  29.981  1.00  0.00    -0.354 N 
ATOM     46  C   UNL A   1      37.482  32.201  28.973  1.00  0.00     0.074 A 
ATOM     47  C   UNL A   1      36.646  31.231  28.305  1.00  0.00     0.031 C 
ATOM     48  C   UNL A   1      42.086  30.124  31.492  1.00  0.00     0.029 A 
ATOM     49  C   UNL A   1      42.750  29.290  30.488  1.00  0.00     0.049 A 
ATOM     50  H   UNL A   1      41.720  27.608  29.673  1.00  0.00     0.167 HD
ATOM     51  C   UNL A   1      37.272  33.307  29.746  1.00  0.00     0.037 A 
ATOM     52  C   UNL A   1      43.684  29.693  29.574  1.00  0.00     0.037 A 
ATOM     53  C   UNL A   1      38.526  33.686  30.412  1.00  0.00     0.049 A 
ATOM     54  C   UNL A   1      43.601  31.183  29.302  1.00  0.00     0.074 A 
ATOM     55  C   UNL A   1      39.048  33.419  31.668  1.00  0.00     0.029 A 
ATOM     56  N   UNL A   1      39.605  34.064  29.632  1.00  0.00    -0.354 N 
ATOM     57  N   UNL A   1      42.610  31.947  29.675  1.00  0.00    -0.248 NA
ATOM     58  C   UNL A   1      44.597  31.907  28.518  1.00  0.00     0.031 C 
ATOM     59  C   UNL A   1      40.462  33.608  31.614  1.00  0.00     0.029 A 
ATOM     60  C   UNL A   1      40.798  33.991  30.329  1.00  0.00     0.049 A 
ATOM     61  H   UNL A   1      39.532  34.350  28.693  1.00  0.00     0.167 HD
ATOM     62  C   UNL A   1      42.837  33.227  29.268  1.00  0.00     0.074 A 
ATOM     63  C   UNL A   1      44.059  33.135  28.484  1.00  0.00     0.031 C 
ATOM     64  C   UNL A   1      42.031  34.277  29.610  1.00  0.00     0.037 A 
BRANCH  51  65
ATOM     65  C   UNL A   1      35.912  33.824  30.169  1.00  0.00     0.064 A 
ATOM     66  C   UNL A   1      35.033  34.377  29.211  1.00  0.00     0.173 A 
ATOM     67  C   UNL A   1      35.421  33.839  31.489  1.00  0.00     0.173 A 
ATOM     68  F   UNL A   1      35.312  34.344  27.901  1.00  0.00    -0.203 F 
ATOM     69  C   UNL A   1      33.826  34.990  29.556  1.00  0.00     0.198 A 
ATOM     70  C   UNL A   1      34.228  34.485  31.840  1.00  0.00     0.198 A 
ATOM     71  F   UNL A   1      36.047  33.187  32.476  1.00  0.00    -0.203 F 
ATOM     72  F   UNL A   1      33.048  35.511  28.596  1.00  0.00    -0.200 F 
ATOM     73  C   UNL A   1      33.436  35.071  30.875  1.00  0.00     0.200 A 
ATOM     74  F   UNL A   1      33.850  34.532  33.126  1.00  0.00    -0.200 F 
ATOM     75  F   UNL A   1      32.293  35.685  31.210  1.00  0.00    -0.200 F 
ENDBRANCH  51  65
BRANCH  52  76
ATOM     76  C   UNL A   1      44.035  28.651  28.539  1.00  0.00     0.064 A 
ATOM     77  C   UNL A   1      44.584  27.413  28.957  1.00  0.00     0.173 A 
ATOM     78  C   UNL A   1      43.646  28.731  27.195  1.00  0.00     0.173 A 
ATOM     79  F   UNL A   1      44.983  27.248  30.229  1.00  0.00    -0.203 F 
ATOM     80  C   UNL A   1      44.660  26.307  28.106  1.00  0.00     0.198 A 
ATOM     81  C   UNL A   1      43.754  27.630  26.335  1.00  0.00     0.198 A 
ATOM     82  F   UNL A   1      43.088  29.846  26.707  1.00  0.00    -0.203 F 
ATOM     83  F   UNL A   1      45.091  25.129  28.579  1.00  0.00    -0.200 F 
ATOM     84  C   UNL A   1      44.241  26.416  26.794  1.00  0.00     0.200 A 
ATOM     85  F   UNL A   1      43.309  27.727  25.074  1.00  0.00    -0.200 F 
ATOM     86  F   UNL A   1      44.274  25.353  25.978  1.00  0.00    -0.200 F 
ENDBRANCH  52  76
BRANCH  64  87
ATOM     87  C   UNL A   1      42.370  35.697  29.264  1.00  0.00     0.064 A 
ATOM     88  C   UNL A   1      41.889  36.314  28.098  1.00  0.00     0.173 A 
ATOM     89  C   UNL A   1      43.267  36.463  30.039  1.00  0.00     0.173 A 
ATOM     90  F   UNL A   1      41.155  35.632  27.205  1.00  0.00    -0.203 F 
ATOM     91  C   UNL A   1      42.169  37.647  27.806  1.00  0.00     0.198 A 
ATOM     92  C   UNL A   1      43.601  37.771  29.708  1.00  0.00     0.198 A 
ATOM     93  F   UNL A   1      43.838  35.982  31.151  1.00  0.00    -0.203 F 
ATOM     94  F   UNL A   1      41.605  38.222  26.735  1.00  0.00    -0.200 F 
ATOM     95  C   UNL A   1      43.024  38.375  28.612  1.00  0.00     0.200 A 
ATOM     96  F   UNL A   1      44.477  38.442  30.468  1.00  0.00    -0.200 F 
ATOM     97  F   UNL A   1      43.299  39.654  28.328  1.00  0.00    -0.200 F 
ENDBRANCH  64  87
ENDBRANCH  38  39
ENDBRANCH  31  33
ENDBRANCH  30  31
ENDBRANCH  29  30
ENDBRANCH   1  29
TORSDOF 14
ENDMDL
