MODEL 1
REMARK VINA RESULT:     -12.4      0.000      0.000
REMARK SMILES C[C@H]1[C@@H](C(=O)OCCOC(=O)c2ccc(-c3c4nc(c(-c5c(F)c(F)c(F)c(F)c5F)c5ccc([nH]5)c(-c5c(F)c(F)c(F)c(F)c5F)c5nc(c(-c6c(F)c(F)c(F)c(F)c6F)c6ccc3[nH]6)C=C5)C=C4)cc2)CCN1C(=O)NC1CCCCC1
REMARK SMILES IDX 7 1 6 2 4 3 5 4 3 5 1 6 2 7 77 8 75 9 76 10 78 11 79 12
REMARK SMILES IDX 80 13 81 15 82 16 86 17 83 18 85 19 84 20 8 21 9 22 10 23
REMARK SMILES IDX 11 24 12 25 13 26 74 27 14 28 73 29 15 30 16 31 17 32 67 33
REMARK SMILES IDX 18 34 72 35 66 36 68 37 19 38 71 39 65 40 64 41 20 43 52 44
REMARK SMILES IDX 32 45 51 46 33 47 36 48 50 49 69 50 34 51 35 52 49 54 70 55
REMARK SMILES IDX 37 56 21 57 22 58 30 59 23 60 24 61 28 62 31 63 25 64 26 65
REMARK SMILES IDX 29 66 27 67 53 68 54 69 62 70 55 71 56 72 60 73 63 74 57 75
REMARK SMILES IDX 58 76 61 77 59 78 38 79 39 80 47 81 40 82 41 83 45 84 48 85
REMARK SMILES IDX 42 86 43 87 46 88 44 89
REMARK H PARENT 80 14 68 42 36 53
REMARK Flexibility Score: inf
ROOT
ATOM      1  C   UNL A   1      31.531  29.339  24.296  1.00  0.00     0.274 C 
ENDROOT
BRANCH   1   2
ATOM      2  O   UNL A   1      30.409  28.451  24.124  1.00  0.00    -0.462 OA
BRANCH   2   3
ATOM      3  C   UNL A   1      30.547  27.382  23.313  1.00  0.00     0.311 C 
ATOM      4  O   UNL A   1      30.663  27.447  22.094  1.00  0.00    -0.252 OA
BRANCH   3   5
ATOM      5  C   UNL A   1      30.591  26.072  24.062  1.00  0.00     0.123 C 
ATOM      6  C   UNL A   1      33.219  25.976  24.325  1.00  0.00     0.032 C 
ATOM      7  C   UNL A   1      31.822  25.786  24.907  1.00  0.00     0.098 C 
ATOM      8  N   UNL A   1      31.628  24.402  25.263  1.00  0.00    -0.321 N 
ATOM      9  C   UNL A   1      30.403  24.788  23.260  1.00  0.00     0.039 C 
ATOM     10  C   UNL A   1      31.030  23.701  24.134  1.00  0.00     0.122 C 
BRANCH   8  11
ATOM     11  C   UNL A   1      32.003  23.717  26.360  1.00  0.00     0.317 C 
ATOM     12  O   UNL A   1      31.324  23.778  27.393  1.00  0.00    -0.249 OA
ATOM     13  N   UNL A   1      33.104  22.968  26.459  1.00  0.00    -0.335 N 
ATOM     14  H   UNL A   1      33.119  22.599  27.372  1.00  0.00     0.165 HD
BRANCH  13  15
ATOM     15  C   UNL A   1      34.321  22.459  25.762  1.00  0.00     0.083 C 
ATOM     16  C   UNL A   1      34.364  22.560  24.226  1.00  0.00     0.025 C 
ATOM     17  C   UNL A   1      35.498  23.233  26.403  1.00  0.00     0.025 C 
ATOM     18  C   UNL A   1      35.729  22.585  23.548  1.00  0.00     0.002 C 
ATOM     19  C   UNL A   1      36.834  23.087  25.693  1.00  0.00     0.002 C 
ATOM     20  C   UNL A   1      36.711  23.499  24.238  1.00  0.00     0.000 C 
ENDBRANCH  13  15
ENDBRANCH   8  11
ENDBRANCH   3   5
ENDBRANCH   2   3
ENDBRANCH   1   2
BRANCH   1  21
ATOM     21  C   UNL A   1      31.769  29.544  25.788  1.00  0.00     0.275 C 
BRANCH  21  22
ATOM     22  O   UNL A   1      33.126  29.975  25.985  1.00  0.00    -0.458 OA
BRANCH  22  23
ATOM     23  C   UNL A   1      33.300  30.966  26.881  1.00  0.00     0.338 C 
ATOM     24  O   UNL A   1      32.503  31.841  27.206  1.00  0.00    -0.246 OA
BRANCH  23  25
ATOM     25  C   UNL A   1      34.608  30.805  27.518  1.00  0.00     0.060 A 
ATOM     26  C   UNL A   1      34.999  29.538  27.959  1.00  0.00     0.016 A 
ATOM     27  C   UNL A   1      35.396  31.920  27.780  1.00  0.00     0.016 A 
ATOM     28  C   UNL A   1      36.147  29.385  28.721  1.00  0.00     0.010 A 
ATOM     29  C   UNL A   1      36.602  31.749  28.459  1.00  0.00     0.010 A 
ATOM     30  C   UNL A   1      36.980  30.483  28.944  1.00  0.00    -0.014 A 
BRANCH  30  31
ATOM     31  C   UNL A   1      38.256  30.325  29.676  1.00  0.00     0.031 A 
ATOM     32  C   UNL A   1      39.338  29.473  29.090  1.00  0.00     0.074 A 
ATOM     33  C   UNL A   1      38.417  30.904  30.881  1.00  0.00     0.049 A 
ATOM     34  N   UNL A   1      40.359  28.912  29.680  1.00  0.00    -0.248 NA
ATOM     35  C   UNL A   1      39.245  29.201  27.646  1.00  0.00     0.031 C 
ATOM     36  C   UNL A   1      37.474  31.828  31.515  1.00  0.00     0.029 A 
ATOM     37  N   UNL A   1      39.427  30.778  31.801  1.00  0.00    -0.354 N 
ATOM     38  C   UNL A   1      40.991  28.162  28.697  1.00  0.00     0.074 A 
ATOM     39  C   UNL A   1      40.254  28.360  27.467  1.00  0.00     0.031 C 
ATOM     40  C   UNL A   1      37.948  32.186  32.717  1.00  0.00     0.029 A 
ATOM     41  C   UNL A   1      39.167  31.433  32.980  1.00  0.00     0.049 A 
ATOM     42  H   UNL A   1      40.253  30.270  31.634  1.00  0.00     0.167 HD
ATOM     43  C   UNL A   1      42.075  27.365  28.833  1.00  0.00     0.037 A 
ATOM     44  C   UNL A   1      39.796  31.370  34.167  1.00  0.00     0.037 A 
ATOM     45  C   UNL A   1      42.810  27.223  30.063  1.00  0.00     0.049 A 
ATOM     46  C   UNL A   1      40.970  30.447  34.311  1.00  0.00     0.074 A 
ATOM     47  C   UNL A   1      43.917  26.438  30.327  1.00  0.00     0.029 A 
ATOM     48  N   UNL A   1      42.514  27.908  31.234  1.00  0.00    -0.354 N 
ATOM     49  N   UNL A   1      41.510  29.657  33.415  1.00  0.00    -0.248 NA
ATOM     50  C   UNL A   1      41.604  30.381  35.634  1.00  0.00     0.031 C 
ATOM     51  C   UNL A   1      44.275  26.627  31.666  1.00  0.00     0.029 A 
ATOM     52  C   UNL A   1      43.415  27.558  32.226  1.00  0.00     0.049 A 
ATOM     53  H   UNL A   1      41.773  28.545  31.344  1.00  0.00     0.167 HD
ATOM     54  C   UNL A   1      42.554  29.010  34.056  1.00  0.00     0.074 A 
ATOM     55  C   UNL A   1      42.578  29.506  35.418  1.00  0.00     0.031 C 
ATOM     56  C   UNL A   1      43.416  28.086  33.566  1.00  0.00     0.037 A 
BRANCH  43  57
ATOM     57  C   UNL A   1      42.494  26.549  27.649  1.00  0.00     0.064 A 
ATOM     58  C   UNL A   1      43.494  26.975  26.765  1.00  0.00     0.173 A 
ATOM     59  C   UNL A   1      41.896  25.300  27.411  1.00  0.00     0.173 A 
ATOM     60  F   UNL A   1      44.083  28.169  26.938  1.00  0.00    -0.203 F 
ATOM     61  C   UNL A   1      43.871  26.190  25.676  1.00  0.00     0.198 A 
ATOM     62  C   UNL A   1      42.291  24.508  26.337  1.00  0.00     0.198 A 
ATOM     63  F   UNL A   1      40.933  24.846  28.227  1.00  0.00    -0.203 F 
ATOM     64  F   UNL A   1      44.803  26.633  24.823  1.00  0.00    -0.200 F 
ATOM     65  C   UNL A   1      43.274  24.955  25.468  1.00  0.00     0.200 A 
ATOM     66  F   UNL A   1      41.718  23.312  26.142  1.00  0.00    -0.200 F 
ATOM     67  F   UNL A   1      43.642  24.199  24.424  1.00  0.00    -0.200 F 
ENDBRANCH  43  57
BRANCH  44  68
ATOM     68  C   UNL A   1      39.275  32.154  35.316  1.00  0.00     0.064 A 
ATOM     69  C   UNL A   1      38.447  31.560  36.276  1.00  0.00     0.173 A 
ATOM     70  C   UNL A   1      39.632  33.499  35.503  1.00  0.00     0.173 A 
ATOM     71  F   UNL A   1      38.061  30.284  36.128  1.00  0.00    -0.203 F 
ATOM     72  C   UNL A   1      37.996  32.279  37.381  1.00  0.00     0.198 A 
ATOM     73  C   UNL A   1      39.203  34.209  36.623  1.00  0.00     0.198 A 
ATOM     74  F   UNL A   1      40.425  34.114  34.614  1.00  0.00    -0.203 F 
ATOM     75  F   UNL A   1      37.183  31.695  38.272  1.00  0.00    -0.200 F 
ATOM     76  C   UNL A   1      38.383  33.600  37.558  1.00  0.00     0.200 A 
ATOM     77  F   UNL A   1      39.596  35.478  36.798  1.00  0.00    -0.200 F 
ATOM     78  F   UNL A   1      37.964  34.284  38.631  1.00  0.00    -0.200 F 
ENDBRANCH  44  68
BRANCH  56  79
ATOM     79  C   UNL A   1      44.481  27.591  34.494  1.00  0.00     0.064 A 
ATOM     80  C   UNL A   1      44.299  26.432  35.261  1.00  0.00     0.173 A 
ATOM     81  C   UNL A   1      45.713  28.254  34.570  1.00  0.00     0.173 A 
ATOM     82  F   UNL A   1      43.129  25.777  35.231  1.00  0.00    -0.203 F 
ATOM     83  C   UNL A   1      45.319  25.958  36.081  1.00  0.00     0.198 A 
ATOM     84  C   UNL A   1      46.735  27.766  35.376  1.00  0.00     0.198 A 
ATOM     85  F   UNL A   1      45.928  29.365  33.850  1.00  0.00    -0.203 F 
ATOM     86  F   UNL A   1      45.119  24.864  36.829  1.00  0.00    -0.200 F 
ATOM     87  C   UNL A   1      46.537  26.620  36.132  1.00  0.00     0.200 A 
ATOM     88  F   UNL A   1      47.914  28.401  35.418  1.00  0.00    -0.200 F 
ATOM     89  F   UNL A   1      47.519  26.156  36.916  1.00  0.00    -0.200 F 
ENDBRANCH  56  79
ENDBRANCH  30  31
ENDBRANCH  23  25
ENDBRANCH  22  23
ENDBRANCH  21  22
ENDBRANCH   1  21
TORSDOF 13
ENDMDL
MODEL 2
REMARK VINA RESULT:     -12.4      0.191      1.631
REMARK SMILES C[C@H]1[C@@H](C(=O)OCCOC(=O)c2ccc(-c3c4nc(c(-c5c(F)c(F)c(F)c(F)c5F)c5ccc([nH]5)c(-c5c(F)c(F)c(F)c(F)c5F)c5nc(c(-c6c(F)c(F)c(F)c(F)c6F)c6ccc3[nH]6)C=C5)C=C4)cc2)CCN1C(=O)NC1CCCCC1
REMARK SMILES IDX 7 1 6 2 4 3 5 4 3 5 1 6 2 7 77 8 75 9 76 10 78 11 79 12
REMARK SMILES IDX 80 13 81 15 82 16 86 17 83 18 85 19 84 20 8 21 9 22 10 23
REMARK SMILES IDX 11 24 12 25 13 26 74 27 14 28 73 29 15 30 16 31 17 32 67 33
REMARK SMILES IDX 18 34 72 35 66 36 68 37 19 38 71 39 65 40 64 41 20 43 52 44
REMARK SMILES IDX 32 45 51 46 33 47 36 48 50 49 69 50 34 51 35 52 49 54 70 55
REMARK SMILES IDX 37 56 21 57 22 58 30 59 23 60 24 61 28 62 31 63 25 64 26 65
REMARK SMILES IDX 29 66 27 67 53 68 54 69 62 70 55 71 56 72 60 73 63 74 57 75
REMARK SMILES IDX 58 76 61 77 59 78 38 79 39 80 47 81 40 82 41 83 45 84 48 85
REMARK SMILES IDX 42 86 43 87 46 88 44 89
REMARK H PARENT 80 14 68 42 36 53
REMARK Flexibility Score: inf
ROOT
ATOM      1  C   UNL A   1      31.886  29.284  24.130  1.00  0.00     0.274 C 
ENDROOT
BRANCH   1   2
ATOM      2  O   UNL A   1      30.673  28.541  23.903  1.00  0.00    -0.462 OA
BRANCH   2   3
ATOM      3  C   UNL A   1      30.730  27.422  23.152  1.00  0.00     0.311 C 
ATOM      4  O   UNL A   1      30.832  27.411  21.930  1.00  0.00    -0.252 OA
BRANCH   3   5
ATOM      5  C   UNL A   1      30.700  26.156  23.974  1.00  0.00     0.123 C 
ATOM      6  C   UNL A   1      33.321  25.890  24.193  1.00  0.00     0.032 C 
ATOM      7  C   UNL A   1      31.927  25.832  24.811  1.00  0.00     0.098 C 
ATOM      8  N   UNL A   1      31.646  24.486  25.249  1.00  0.00    -0.321 N 
ATOM      9  C   UNL A   1      30.405  24.845  23.250  1.00  0.00     0.039 C 
ATOM     10  C   UNL A   1      30.975  23.767  24.173  1.00  0.00     0.122 C 
BRANCH   8  11
ATOM     11  C   UNL A   1      31.997  23.840  26.376  1.00  0.00     0.317 C 
ATOM     12  O   UNL A   1      31.279  23.908  27.382  1.00  0.00    -0.249 OA
ATOM     13  N   UNL A   1      33.113  23.123  26.535  1.00  0.00    -0.335 N 
ATOM     14  H   UNL A   1      33.104  22.777  27.457  1.00  0.00     0.165 HD
BRANCH  13  15
ATOM     15  C   UNL A   1      34.368  22.630  25.896  1.00  0.00     0.083 C 
ATOM     16  C   UNL A   1      34.348  22.371  24.379  1.00  0.00     0.025 C 
ATOM     17  C   UNL A   1      35.440  23.683  26.265  1.00  0.00     0.025 C 
ATOM     18  C   UNL A   1      35.673  22.416  23.627  1.00  0.00     0.002 C 
ATOM     19  C   UNL A   1      36.761  23.553  25.523  1.00  0.00     0.002 C 
ATOM     20  C   UNL A   1      36.533  23.590  24.023  1.00  0.00     0.000 C 
ENDBRANCH  13  15
ENDBRANCH   8  11
ENDBRANCH   3   5
ENDBRANCH   2   3
ENDBRANCH   1   2
BRANCH   1  21
ATOM     21  C   UNL A   1      31.918  29.735  25.587  1.00  0.00     0.275 C 
BRANCH  21  22
ATOM     22  O   UNL A   1      33.278  30.023  25.953  1.00  0.00    -0.458 OA
BRANCH  22  23
ATOM     23  C   UNL A   1      33.442  30.977  26.889  1.00  0.00     0.338 C 
ATOM     24  O   UNL A   1      32.639  31.834  27.245  1.00  0.00    -0.246 OA
BRANCH  23  25
ATOM     25  C   UNL A   1      34.747  30.797  27.526  1.00  0.00     0.060 A 
ATOM     26  C   UNL A   1      35.115  29.527  27.977  1.00  0.00     0.016 A 
ATOM     27  C   UNL A   1      35.556  31.899  27.778  1.00  0.00     0.016 A 
ATOM     28  C   UNL A   1      36.260  29.358  28.740  1.00  0.00     0.010 A 
ATOM     29  C   UNL A   1      36.759  31.711  28.458  1.00  0.00     0.010 A 
ATOM     30  C   UNL A   1      37.114  30.442  28.953  1.00  0.00    -0.014 A 
BRANCH  30  31
ATOM     31  C   UNL A   1      38.388  30.267  29.686  1.00  0.00     0.031 A 
ATOM     32  C   UNL A   1      39.460  29.404  29.097  1.00  0.00     0.074 A 
ATOM     33  C   UNL A   1      38.555  30.839  30.893  1.00  0.00     0.049 A 
ATOM     34  N   UNL A   1      40.474  28.828  29.685  1.00  0.00    -0.248 NA
ATOM     35  C   UNL A   1      39.365  29.139  27.652  1.00  0.00     0.031 C 
ATOM     36  C   UNL A   1      37.623  31.772  31.529  1.00  0.00     0.029 A 
ATOM     37  N   UNL A   1      39.563  30.698  31.813  1.00  0.00    -0.354 N 
ATOM     38  C   UNL A   1      41.097  28.075  28.700  1.00  0.00     0.074 A 
ATOM     39  C   UNL A   1      40.364  28.287  27.470  1.00  0.00     0.031 C 
ATOM     40  C   UNL A   1      38.100  32.120  32.733  1.00  0.00     0.029 A 
ATOM     41  C   UNL A   1      39.310  31.352  32.994  1.00  0.00     0.049 A 
ATOM     42  H   UNL A   1      40.383  30.181  31.645  1.00  0.00     0.167 HD
ATOM     43  C   UNL A   1      42.172  27.265  28.834  1.00  0.00     0.037 A 
ATOM     44  C   UNL A   1      39.937  31.277  34.182  1.00  0.00     0.037 A 
ATOM     45  C   UNL A   1      42.905  27.110  30.064  1.00  0.00     0.049 A 
ATOM     46  C   UNL A   1      41.100  30.339  34.323  1.00  0.00     0.074 A 
ATOM     47  C   UNL A   1      44.002  26.311  30.325  1.00  0.00     0.029 A 
ATOM     48  N   UNL A   1      42.616  27.793  31.238  1.00  0.00    -0.354 N 
ATOM     49  N   UNL A   1      41.631  29.546  33.424  1.00  0.00    -0.248 NA
ATOM     50  C   UNL A   1      41.732  30.261  35.645  1.00  0.00     0.031 C 
ATOM     51  C   UNL A   1      44.361  26.491  31.666  1.00  0.00     0.029 A 
ATOM     52  C   UNL A   1      43.512  27.430  32.228  1.00  0.00     0.049 A 
ATOM     53  H   UNL A   1      41.882  28.439  31.349  1.00  0.00     0.167 HD
ATOM     54  C   UNL A   1      42.667  28.885  34.064  1.00  0.00     0.074 A 
ATOM     55  C   UNL A   1      42.696  29.375  35.427  1.00  0.00     0.031 C 
ATOM     56  C   UNL A   1      43.518  27.953  33.570  1.00  0.00     0.037 A 
BRANCH  43  57
ATOM     57  C   UNL A   1      42.583  26.448  27.647  1.00  0.00     0.064 A 
ATOM     58  C   UNL A   1      43.547  26.892  26.733  1.00  0.00     0.173 A 
ATOM     59  C   UNL A   1      42.013  25.181  27.437  1.00  0.00     0.173 A 
ATOM     60  F   UNL A   1      44.107  28.103  26.879  1.00  0.00    -0.203 F 
ATOM     61  C   UNL A   1      43.916  26.106  25.643  1.00  0.00     0.198 A 
ATOM     62  C   UNL A   1      42.401  24.389  26.361  1.00  0.00     0.198 A 
ATOM     63  F   UNL A   1      41.084  24.709  28.282  1.00  0.00    -0.203 F 
ATOM     64  F   UNL A   1      44.814  26.566  24.761  1.00  0.00    -0.200 F 
ATOM     65  C   UNL A   1      43.349  24.853  25.462  1.00  0.00     0.200 A 
ATOM     66  F   UNL A   1      41.856  23.176  26.192  1.00  0.00    -0.200 F 
ATOM     67  F   UNL A   1      43.709  24.097  24.416  1.00  0.00    -0.200 F 
ENDBRANCH  43  57
BRANCH  44  68
ATOM     68  C   UNL A   1      39.424  32.063  35.333  1.00  0.00     0.064 A 
ATOM     69  C   UNL A   1      39.763  33.412  35.491  1.00  0.00     0.173 A 
ATOM     70  C   UNL A   1      38.548  31.494  36.271  1.00  0.00     0.173 A 
ATOM     71  F   UNL A   1      40.613  33.993  34.632  1.00  0.00    -0.203 F 
ATOM     72  C   UNL A   1      39.244  34.165  36.542  1.00  0.00     0.198 A 
ATOM     73  C   UNL A   1      38.008  32.255  37.306  1.00  0.00     0.198 A 
ATOM     74  F   UNL A   1      38.191  30.207  36.163  1.00  0.00    -0.203 F 
ATOM     75  F   UNL A   1      39.603  35.448  36.686  1.00  0.00    -0.200 F 
ATOM     76  C   UNL A   1      38.359  33.589  37.442  1.00  0.00     0.200 A 
ATOM     77  F   UNL A   1      37.140  31.698  38.161  1.00  0.00    -0.200 F 
ATOM     78  F   UNL A   1      37.847  34.319  38.442  1.00  0.00    -0.200 F 
ENDBRANCH  44  68
BRANCH  56  79
ATOM     79  C   UNL A   1      44.576  27.441  34.497  1.00  0.00     0.064 A 
ATOM     80  C   UNL A   1      45.799  28.107  34.647  1.00  0.00     0.173 A 
ATOM     81  C   UNL A   1      44.335  26.305  35.282  1.00  0.00     0.173 A 
ATOM     82  F   UNL A   1      46.077  29.188  33.904  1.00  0.00    -0.203 F 
ATOM     83  C   UNL A   1      46.752  27.645  35.551  1.00  0.00     0.198 A 
ATOM     84  C   UNL A   1      45.281  25.858  36.197  1.00  0.00     0.198 A 
ATOM     85  F   UNL A   1      43.176  25.640  35.170  1.00  0.00    -0.203 F 
ATOM     86  F   UNL A   1      47.928  28.278  35.663  1.00  0.00    -0.200 F 
ATOM     87  C   UNL A   1      46.489  26.527  36.330  1.00  0.00     0.200 A 
ATOM     88  F   UNL A   1      45.023  24.784  36.954  1.00  0.00    -0.200 F 
ATOM     89  F   UNL A   1      47.405  26.090  37.205  1.00  0.00    -0.200 F 
ENDBRANCH  56  79
ENDBRANCH  30  31
ENDBRANCH  23  25
ENDBRANCH  22  23
ENDBRANCH  21  22
ENDBRANCH   1  21
TORSDOF 13
ENDMDL
MODEL 3
REMARK VINA RESULT:     -12.1      4.274      9.576
REMARK SMILES C[C@H]1[C@@H](C(=O)OCCOC(=O)c2ccc(-c3c4nc(c(-c5c(F)c(F)c(F)c(F)c5F)c5ccc([nH]5)c(-c5c(F)c(F)c(F)c(F)c5F)c5nc(c(-c6c(F)c(F)c(F)c(F)c6F)c6ccc3[nH]6)C=C5)C=C4)cc2)CCN1C(=O)NC1CCCCC1
REMARK SMILES IDX 7 1 6 2 4 3 5 4 3 5 1 6 2 7 77 8 75 9 76 10 78 11 79 12
REMARK SMILES IDX 80 13 81 15 82 16 86 17 83 18 85 19 84 20 8 21 9 22 10 23
REMARK SMILES IDX 11 24 12 25 13 26 74 27 14 28 73 29 15 30 16 31 17 32 67 33
REMARK SMILES IDX 18 34 72 35 66 36 68 37 19 38 71 39 65 40 64 41 20 43 52 44
REMARK SMILES IDX 32 45 51 46 33 47 36 48 50 49 69 50 34 51 35 52 49 54 70 55
REMARK SMILES IDX 37 56 21 57 22 58 30 59 23 60 24 61 28 62 31 63 25 64 26 65
REMARK SMILES IDX 29 66 27 67 53 68 54 69 62 70 55 71 56 72 60 73 63 74 57 75
REMARK SMILES IDX 58 76 61 77 59 78 38 79 39 80 47 81 40 82 41 83 45 84 48 85
REMARK SMILES IDX 42 86 43 87 46 88 44 89
REMARK H PARENT 80 14 68 42 36 53
REMARK Flexibility Score: inf
ROOT
ATOM      1  C   UNL A   1      36.378  22.994  23.851  1.00  0.00     0.274 C 
ENDROOT
BRANCH   1   2
ATOM      2  O   UNL A   1      35.147  22.636  23.194  1.00  0.00    -0.462 OA
BRANCH   2   3
ATOM      3  C   UNL A   1      34.172  23.563  23.097  1.00  0.00     0.311 C 
ATOM      4  O   UNL A   1      34.254  24.589  22.431  1.00  0.00    -0.252 OA
BRANCH   3   5
ATOM      5  C   UNL A   1      32.926  23.194  23.865  1.00  0.00     0.123 C 
ATOM      6  C   UNL A   1      33.759  24.080  26.212  1.00  0.00     0.032 C 
ATOM      7  C   UNL A   1      32.658  23.933  25.167  1.00  0.00     0.098 C 
ATOM      8  N   UNL A   1      31.561  23.177  25.721  1.00  0.00    -0.321 N 
ATOM      9  C   UNL A   1      32.730  21.728  24.240  1.00  0.00     0.039 C 
ATOM     10  C   UNL A   1      31.755  21.765  25.417  1.00  0.00     0.122 C 
BRANCH   8  11
ATOM     11  C   UNL A   1      30.539  23.564  26.508  1.00  0.00     0.317 C 
ATOM     12  O   UNL A   1      30.038  22.769  27.314  1.00  0.00    -0.249 OA
ATOM     13  N   UNL A   1      29.964  24.769  26.484  1.00  0.00    -0.335 N 
ATOM     14  H   UNL A   1      29.248  24.760  27.159  1.00  0.00     0.165 HD
BRANCH  13  15
ATOM     15  C   UNL A   1      29.957  26.123  25.858  1.00  0.00     0.083 C 
ATOM     16  C   UNL A   1      31.182  27.027  26.085  1.00  0.00     0.025 C 
ATOM     17  C   UNL A   1      29.734  25.861  24.349  1.00  0.00     0.025 C 
ATOM     18  C   UNL A   1      31.464  28.123  25.064  1.00  0.00     0.002 C 
ATOM     19  C   UNL A   1      29.939  27.064  23.443  1.00  0.00     0.002 C 
ATOM     20  C   UNL A   1      31.327  27.646  23.639  1.00  0.00     0.000 C 
ENDBRANCH  13  15
ENDBRANCH   8  11
ENDBRANCH   3   5
ENDBRANCH   2   3
ENDBRANCH   1   2
BRANCH   1  21
ATOM     21  C   UNL A   1      36.977  21.742  24.484  1.00  0.00     0.275 C 
BRANCH  21  22
ATOM     22  O   UNL A   1      37.444  22.069  25.804  1.00  0.00    -0.458 OA
BRANCH  22  23
ATOM     23  C   UNL A   1      38.716  21.719  26.076  1.00  0.00     0.338 C 
ATOM     24  O   UNL A   1      39.271  20.648  25.849  1.00  0.00    -0.246 OA
BRANCH  23  25
ATOM     25  C   UNL A   1      39.418  22.876  26.633  1.00  0.00     0.060 A 
ATOM     26  C   UNL A   1      39.106  24.153  26.161  1.00  0.00     0.016 A 
ATOM     27  C   UNL A   1      40.457  22.690  27.538  1.00  0.00     0.016 A 
ATOM     28  C   UNL A   1      39.873  25.246  26.537  1.00  0.00     0.010 A 
ATOM     29  C   UNL A   1      41.162  23.803  27.993  1.00  0.00     0.010 A 
ATOM     30  C   UNL A   1      40.882  25.087  27.487  1.00  0.00    -0.014 A 
BRANCH  30  31
ATOM     31  C   UNL A   1      41.653  26.254  27.972  1.00  0.00     0.031 A 
ATOM     32  C   UNL A   1      40.967  27.289  28.809  1.00  0.00     0.074 A 
ATOM     33  C   UNL A   1      42.943  26.404  27.618  1.00  0.00     0.049 A 
ATOM     34  N   UNL A   1      41.314  28.526  29.041  1.00  0.00    -0.248 NA
ATOM     35  C   UNL A   1      39.711  26.878  29.457  1.00  0.00     0.031 C 
ATOM     36  C   UNL A   1      43.744  25.422  26.884  1.00  0.00     0.029 A 
ATOM     37  N   UNL A   1      43.802  27.456  27.809  1.00  0.00    -0.354 N 
ATOM     38  C   UNL A   1      40.285  29.064  29.802  1.00  0.00     0.074 A 
ATOM     39  C   UNL A   1      39.314  28.013  30.015  1.00  0.00     0.031 C 
ATOM     40  C   UNL A   1      44.974  25.916  26.686  1.00  0.00     0.029 A 
ATOM     41  C   UNL A   1      45.012  27.285  27.183  1.00  0.00     0.049 A 
ATOM     42  H   UNL A   1      43.575  28.253  28.341  1.00  0.00     0.167 HD
ATOM     43  C   UNL A   1      40.167  30.334  30.253  1.00  0.00     0.037 A 
ATOM     44  C   UNL A   1      46.009  28.160  26.961  1.00  0.00     0.037 A 
ATOM     45  C   UNL A   1      41.173  31.346  30.059  1.00  0.00     0.049 A 
ATOM     46  C   UNL A   1      45.840  29.576  27.430  1.00  0.00     0.074 A 
ATOM     47  C   UNL A   1      41.162  32.669  30.459  1.00  0.00     0.029 A 
ATOM     48  N   UNL A   1      42.387  31.129  29.420  1.00  0.00    -0.354 N 
ATOM     49  N   UNL A   1      44.825  30.119  28.060  1.00  0.00    -0.248 NA
ATOM     50  C   UNL A   1      46.935  30.507  27.135  1.00  0.00     0.031 C 
ATOM     51  C   UNL A   1      42.358  33.261  30.039  1.00  0.00     0.029 A 
ATOM     52  C   UNL A   1      43.130  32.297  29.410  1.00  0.00     0.049 A 
ATOM     53  H   UNL A   1      42.675  30.273  29.029  1.00  0.00     0.167 HD
ATOM     54  C   UNL A   1      45.163  31.449  28.249  1.00  0.00     0.074 A 
ATOM     55  C   UNL A   1      46.481  31.631  27.675  1.00  0.00     0.031 C 
ATOM     56  C   UNL A   1      44.446  32.435  28.843  1.00  0.00     0.037 A 
BRANCH  43  57
ATOM     57  C   UNL A   1      38.893  30.713  30.945  1.00  0.00     0.064 A 
ATOM     58  C   UNL A   1      38.771  30.704  32.341  1.00  0.00     0.173 A 
ATOM     59  C   UNL A   1      37.780  31.119  30.191  1.00  0.00     0.173 A 
ATOM     60  F   UNL A   1      39.800  30.306  33.105  1.00  0.00    -0.203 F 
ATOM     61  C   UNL A   1      37.576  31.071  32.958  1.00  0.00     0.198 A 
ATOM     62  C   UNL A   1      36.596  31.507  30.811  1.00  0.00     0.198 A 
ATOM     63  F   UNL A   1      37.843  31.144  28.851  1.00  0.00    -0.203 F 
ATOM     64  F   UNL A   1      37.469  31.019  34.293  1.00  0.00    -0.200 F 
ATOM     65  C   UNL A   1      36.493  31.478  32.193  1.00  0.00     0.200 A 
ATOM     66  F   UNL A   1      35.553  31.907  30.070  1.00  0.00    -0.200 F 
ATOM     67  F   UNL A   1      35.347  31.836  32.788  1.00  0.00    -0.200 F 
ENDBRANCH  43  57
BRANCH  44  68
ATOM     68  C   UNL A   1      47.209  27.728  26.202  1.00  0.00     0.064 A 
ATOM     69  C   UNL A   1      48.342  27.238  26.864  1.00  0.00     0.173 A 
ATOM     70  C   UNL A   1      47.232  27.753  24.798  1.00  0.00     0.173 A 
ATOM     71  F   UNL A   1      48.375  27.215  28.204  1.00  0.00    -0.203 F 
ATOM     72  C   UNL A   1      49.451  26.785  26.152  1.00  0.00     0.198 A 
ATOM     73  C   UNL A   1      48.331  27.274  24.087  1.00  0.00     0.198 A 
ATOM     74  F   UNL A   1      46.173  28.211  24.116  1.00  0.00    -0.203 F 
ATOM     75  F   UNL A   1      50.532  26.343  26.810  1.00  0.00    -0.200 F 
ATOM     76  C   UNL A   1      49.440  26.795  24.764  1.00  0.00     0.200 A 
ATOM     77  F   UNL A   1      48.308  27.269  22.747  1.00  0.00    -0.200 F 
ATOM     78  F   UNL A   1      50.501  26.342  24.082  1.00  0.00    -0.200 F 
ENDBRANCH  44  68
BRANCH  56  79
ATOM     79  C   UNL A   1      45.094  33.781  28.940  1.00  0.00     0.064 A 
ATOM     80  C   UNL A   1      44.895  34.759  27.957  1.00  0.00     0.173 A 
ATOM     81  C   UNL A   1      45.875  34.107  30.056  1.00  0.00     0.173 A 
ATOM     82  F   UNL A   1      44.168  34.483  26.864  1.00  0.00    -0.203 F 
ATOM     83  C   UNL A   1      45.465  36.022  28.088  1.00  0.00     0.198 A 
ATOM     84  C   UNL A   1      46.427  35.376  30.193  1.00  0.00     0.198 A 
ATOM     85  F   UNL A   1      46.089  33.199  31.020  1.00  0.00    -0.203 F 
ATOM     86  F   UNL A   1      45.286  36.939  27.126  1.00  0.00    -0.200 F 
ATOM     87  C   UNL A   1      46.223  36.332  29.208  1.00  0.00     0.200 A 
ATOM     88  F   UNL A   1      47.152  35.676  31.279  1.00  0.00    -0.200 F 
ATOM     89  F   UNL A   1      46.763  37.551  29.336  1.00  0.00    -0.200 F 
ENDBRANCH  56  79
ENDBRANCH  30  31
ENDBRANCH  23  25
ENDBRANCH  22  23
ENDBRANCH  21  22
ENDBRANCH   1  21
TORSDOF 13
ENDMDL
