MODEL 1
REMARK VINA RESULT:     -12.6      0.000      0.000
REMARK SMILES COc1cccc(CSc2nc3ccccc3c(=O)n2CCC(=O)OCCOC(=O)c2ccc(-c3c4nc(c(-c5c(F)c(F)c(F)c(F)c5F)c5ccc([nH]5)c(-c5c(F)c(F)c(F)c(F)c5F)c5nc(c(-c6c(F)c(F)c(F)c(F)c6F)c6ccc3[nH]6)C=C5)C=C4)cc2)c1
REMARK SMILES IDX 23 1 24 2 22 3 21 4 20 5 10 6 11 7 12 8 18 9 13 10 17 11
REMARK SMILES IDX 19 12 14 13 16 14 15 15 9 16 8 17 7 18 3 19 4 20 94 21 5 22
REMARK SMILES IDX 6 23 2 24 1 25 25 26 26 27 27 28 28 29 29 30 30 31 31 32
REMARK SMILES IDX 32 33 93 34 33 35 92 36 34 37 35 38 36 39 86 40 37 41 91 42
REMARK SMILES IDX 85 43 87 44 38 45 90 46 84 47 83 48 39 50 71 51 51 52 70 53
REMARK SMILES IDX 52 54 55 55 69 56 88 57 53 58 54 59 68 61 89 62 56 63 40 64
REMARK SMILES IDX 41 65 49 66 42 67 43 68 47 69 50 70 44 71 45 72 48 73 46 74
REMARK SMILES IDX 72 75 73 76 81 77 74 78 75 79 79 80 82 81 76 82 77 83 80 84
REMARK SMILES IDX 78 85 57 86 58 87 66 88 59 89 60 90 64 91 67 92 61 93 62 94
REMARK SMILES IDX 65 95 63 96
REMARK H PARENT 87 49 55 60
REMARK Flexibility Score: inf
ROOT
ATOM      1  C   UNL A   1      32.066  29.407  26.235  1.00  0.00     0.307 C 
ATOM      2  O   UNL A   1      32.656  29.576  25.175  1.00  0.00    -0.252 OA
ENDROOT
BRANCH   1   3
ATOM      3  C   UNL A   1      31.951  28.041  26.876  1.00  0.00     0.144 C 
BRANCH   3   4
ATOM      4  C   UNL A   1      31.028  26.966  26.290  1.00  0.00     0.140 C 
BRANCH   4   5
ATOM      5  N   UNL A   1      31.641  25.844  25.595  1.00  0.00    -0.286 N 
ATOM      6  C   UNL A   1      32.125  25.856  24.310  1.00  0.00     0.171 A 
ATOM      7  N   UNL A   1      33.296  25.366  24.033  1.00  0.00    -0.224 NA
ATOM      8  C   UNL A   1      33.947  24.639  25.044  1.00  0.00     0.079 A 
ATOM      9  C   UNL A   1      31.901  24.706  26.347  1.00  0.00     0.262 A 
ATOM     10  C   UNL A   1      35.304  24.338  24.963  1.00  0.00     0.029 A 
ATOM     11  C   UNL A   1      33.202  24.072  26.077  1.00  0.00     0.066 A 
ATOM     12  O   UNL A   1      31.171  24.279  27.235  1.00  0.00    -0.269 OA
ATOM     13  C   UNL A   1      35.871  23.416  25.853  1.00  0.00     0.002 A 
ATOM     14  C   UNL A   1      33.729  23.092  26.917  1.00  0.00     0.016 A 
ATOM     15  C   UNL A   1      35.073  22.755  26.792  1.00  0.00     0.001 A 
BRANCH   6  16
ATOM     16  S   UNL A   1      31.172  26.288  22.908  1.00  0.00    -0.083 SA
BRANCH  16  17
ATOM     17  C   UNL A   1      31.249  28.038  22.508  1.00  0.00     0.113 C 
BRANCH  17  18
ATOM     18  C   UNL A   1      29.930  28.770  22.526  1.00  0.00    -0.034 A 
ATOM     19  C   UNL A   1      28.622  30.801  22.203  1.00  0.00     0.119 A 
ATOM     20  C   UNL A   1      27.516  30.163  22.764  1.00  0.00     0.046 A 
ATOM     21  C   UNL A   1      29.800  30.079  22.023  1.00  0.00     0.051 A 
ATOM     22  C   UNL A   1      27.589  28.826  23.149  1.00  0.00     0.004 A 
ATOM     23  C   UNL A   1      28.792  28.136  23.040  1.00  0.00     0.005 A 
BRANCH  19  24
ATOM     24  O   UNL A   1      28.431  32.116  21.882  1.00  0.00    -0.497 OA
ATOM     25  C   UNL A   1      28.861  33.093  22.825  1.00  0.00     0.278 C 
ENDBRANCH  19  24
ENDBRANCH  17  18
ENDBRANCH  16  17
ENDBRANCH   6  16
ENDBRANCH   4   5
ENDBRANCH   3   4
ENDBRANCH   1   3
BRANCH   1  26
ATOM     26  O   UNL A   1      31.546  30.402  26.989  1.00  0.00    -0.462 OA
BRANCH  26  27
ATOM     27  C   UNL A   1      31.187  31.601  26.268  1.00  0.00     0.274 C 
BRANCH  27  28
ATOM     28  C   UNL A   1      32.000  32.804  26.774  1.00  0.00     0.275 C 
BRANCH  28  29
ATOM     29  O   UNL A   1      32.738  32.575  27.993  1.00  0.00    -0.458 OA
BRANCH  29  30
ATOM     30  C   UNL A   1      33.763  33.407  28.257  1.00  0.00     0.338 C 
ATOM     31  O   UNL A   1      33.720  34.624  28.376  1.00  0.00    -0.246 OA
BRANCH  30  32
ATOM     32  C   UNL A   1      35.031  32.662  28.263  1.00  0.00     0.060 A 
ATOM     33  C   UNL A   1      36.221  33.397  28.196  1.00  0.00     0.016 A 
ATOM     34  C   UNL A   1      35.057  31.283  28.475  1.00  0.00     0.016 A 
ATOM     35  C   UNL A   1      37.437  32.772  28.461  1.00  0.00     0.010 A 
ATOM     36  C   UNL A   1      36.269  30.669  28.796  1.00  0.00     0.010 A 
ATOM     37  C   UNL A   1      37.449  31.430  28.871  1.00  0.00    -0.014 A 
BRANCH  37  38
ATOM     38  C   UNL A   1      38.600  30.900  29.647  1.00  0.00     0.031 A 
ATOM     39  C   UNL A   1      39.511  29.852  29.095  1.00  0.00     0.074 A 
ATOM     40  C   UNL A   1      38.733  31.314  30.925  1.00  0.00     0.049 A 
ATOM     41  N   UNL A   1      40.448  29.174  29.707  1.00  0.00    -0.248 NA
ATOM     42  C   UNL A   1      39.346  29.516  27.675  1.00  0.00     0.031 C 
ATOM     43  C   UNL A   1      37.895  32.326  31.575  1.00  0.00     0.029 A 
ATOM     44  N   UNL A   1      39.600  30.923  31.916  1.00  0.00    -0.354 N 
ATOM     45  C   UNL A   1      40.983  28.322  28.753  1.00  0.00     0.074 A 
ATOM     46  C   UNL A   1      40.252  28.557  27.524  1.00  0.00     0.031 C 
ATOM     47  C   UNL A   1      38.287  32.478  32.847  1.00  0.00     0.029 A 
ATOM     48  C   UNL A   1      39.354  31.527  33.128  1.00  0.00     0.049 A 
ATOM     49  H   UNL A   1      40.326  30.273  31.774  1.00  0.00     0.167 HD
ATOM     50  C   UNL A   1      41.992  27.429  28.900  1.00  0.00     0.037 A 
ATOM     51  C   UNL A   1      39.894  31.312  34.342  1.00  0.00     0.037 A 
ATOM     52  C   UNL A   1      42.702  27.198  30.134  1.00  0.00     0.049 A 
ATOM     53  C   UNL A   1      40.959  30.265  34.490  1.00  0.00     0.074 A 
ATOM     54  C   UNL A   1      43.754  26.331  30.374  1.00  0.00     0.029 A 
ATOM     55  N   UNL A   1      42.424  27.828  31.340  1.00  0.00    -0.354 N 
ATOM     56  N   UNL A   1      41.480  29.486  33.574  1.00  0.00    -0.248 NA
ATOM     57  C   UNL A   1      41.508  30.059  35.837  1.00  0.00     0.031 C 
ATOM     58  C   UNL A   1      44.073  26.393  31.735  1.00  0.00     0.029 A 
ATOM     59  C   UNL A   1      43.266  27.347  32.331  1.00  0.00     0.049 A 
ATOM     60  H   UNL A   1      41.730  28.515  31.472  1.00  0.00     0.167 HD
ATOM     61  C   UNL A   1      42.443  28.727  34.222  1.00  0.00     0.074 A 
ATOM     62  C   UNL A   1      42.434  29.137  35.611  1.00  0.00     0.031 C 
ATOM     63  C   UNL A   1      43.264  27.781  33.706  1.00  0.00     0.037 A 
BRANCH  50  64
ATOM     64  C   UNL A   1      42.375  26.606  27.703  1.00  0.00     0.064 A 
ATOM     65  C   UNL A   1      43.398  27.005  26.831  1.00  0.00     0.173 A 
ATOM     66  C   UNL A   1      41.748  25.374  27.457  1.00  0.00     0.173 A 
ATOM     67  F   UNL A   1      44.028  28.175  27.019  1.00  0.00    -0.203 F 
ATOM     68  C   UNL A   1      43.759  26.216  25.741  1.00  0.00     0.198 A 
ATOM     69  C   UNL A   1      42.133  24.574  26.385  1.00  0.00     0.198 A 
ATOM     70  F   UNL A   1      40.772  24.938  28.268  1.00  0.00    -0.203 F 
ATOM     71  F   UNL A   1      44.711  26.637  24.897  1.00  0.00    -0.200 F 
ATOM     72  C   UNL A   1      43.132  24.998  25.524  1.00  0.00     0.200 A 
ATOM     73  F   UNL A   1      41.536  23.389  26.188  1.00  0.00    -0.200 F 
ATOM     74  F   UNL A   1      43.487  24.235  24.480  1.00  0.00    -0.200 F 
ENDBRANCH  50  64
BRANCH  51  75
ATOM     75  C   UNL A   1      39.419  32.096  35.513  1.00  0.00     0.064 A 
ATOM     76  C   UNL A   1      38.474  31.562  36.401  1.00  0.00     0.173 A 
ATOM     77  C   UNL A   1      39.903  33.387  35.774  1.00  0.00     0.173 A 
ATOM     78  F   UNL A   1      37.968  30.339  36.182  1.00  0.00    -0.203 F 
ATOM     79  C   UNL A   1      38.016  32.297  37.492  1.00  0.00     0.198 A 
ATOM     80  C   UNL A   1      39.469  34.108  36.885  1.00  0.00     0.198 A 
ATOM     81  F   UNL A   1      40.812  33.942  34.961  1.00  0.00    -0.203 F 
ATOM     82  F   UNL A   1      37.078  31.781  38.297  1.00  0.00    -0.200 F 
ATOM     83  C   UNL A   1      38.519  33.566  37.738  1.00  0.00     0.200 A 
ATOM     84  F   UNL A   1      39.969  35.327  37.127  1.00  0.00    -0.200 F 
ATOM     85  F   UNL A   1      38.083  34.269  38.791  1.00  0.00    -0.200 F 
ENDBRANCH  51  75
BRANCH  63  86
ATOM     86  C   UNL A   1      44.272  27.161  34.629  1.00  0.00     0.064 A 
ATOM     87  C   UNL A   1      45.511  27.763  34.888  1.00  0.00     0.173 A 
ATOM     88  C   UNL A   1      43.956  25.980  35.319  1.00  0.00     0.173 A 
ATOM     89  F   UNL A   1      45.867  28.881  34.238  1.00  0.00    -0.203 F 
ATOM     90  C   UNL A   1      46.401  27.202  35.800  1.00  0.00     0.198 A 
ATOM     91  C   UNL A   1      44.835  25.437  36.252  1.00  0.00     0.198 A 
ATOM     92  F   UNL A   1      42.782  25.366  35.107  1.00  0.00    -0.203 F 
ATOM     93  F   UNL A   1      47.593  27.775  36.010  1.00  0.00    -0.200 F 
ATOM     94  C   UNL A   1      46.058  26.048  36.489  1.00  0.00     0.200 A 
ATOM     95  F   UNL A   1      44.496  24.331  36.926  1.00  0.00    -0.200 F 
ATOM     96  F   UNL A   1      46.907  25.521  37.383  1.00  0.00    -0.200 F 
ENDBRANCH  63  86
ENDBRANCH  37  38
ENDBRANCH  30  32
ENDBRANCH  29  30
ENDBRANCH  28  29
ENDBRANCH  27  28
ENDBRANCH  26  27
ENDBRANCH   1  26
TORSDOF 17
ENDMDL
MODEL 2
REMARK VINA RESULT:     -12.6      0.451      7.297
REMARK SMILES COc1cccc(CSc2nc3ccccc3c(=O)n2CCC(=O)OCCOC(=O)c2ccc(-c3c4nc(c(-c5c(F)c(F)c(F)c(F)c5F)c5ccc([nH]5)c(-c5c(F)c(F)c(F)c(F)c5F)c5nc(c(-c6c(F)c(F)c(F)c(F)c6F)c6ccc3[nH]6)C=C5)C=C4)cc2)c1
REMARK SMILES IDX 23 1 24 2 22 3 21 4 20 5 10 6 11 7 12 8 18 9 13 10 17 11
REMARK SMILES IDX 19 12 14 13 16 14 15 15 9 16 8 17 7 18 3 19 4 20 94 21 5 22
REMARK SMILES IDX 6 23 2 24 1 25 25 26 26 27 27 28 28 29 29 30 30 31 31 32
REMARK SMILES IDX 32 33 93 34 33 35 92 36 34 37 35 38 36 39 86 40 37 41 91 42
REMARK SMILES IDX 85 43 87 44 38 45 90 46 84 47 83 48 39 50 71 51 51 52 70 53
REMARK SMILES IDX 52 54 55 55 69 56 88 57 53 58 54 59 68 61 89 62 56 63 40 64
REMARK SMILES IDX 41 65 49 66 42 67 43 68 47 69 50 70 44 71 45 72 48 73 46 74
REMARK SMILES IDX 72 75 73 76 81 77 74 78 75 79 79 80 82 81 76 82 77 83 80 84
REMARK SMILES IDX 78 85 57 86 58 87 66 88 59 89 60 90 64 91 67 92 61 93 62 94
REMARK SMILES IDX 65 95 63 96
REMARK H PARENT 87 49 55 60
REMARK Flexibility Score: inf
ROOT
ATOM      1  C   UNL A   1      32.036  29.422  26.168  1.00  0.00     0.307 C 
ATOM      2  O   UNL A   1      32.674  29.556  25.131  1.00  0.00    -0.252 OA
ENDROOT
BRANCH   1   3
ATOM      3  C   UNL A   1      31.908  28.083  26.860  1.00  0.00     0.144 C 
BRANCH   3   4
ATOM      4  C   UNL A   1      31.000  26.983  26.297  1.00  0.00     0.140 C 
BRANCH   4   5
ATOM      5  N   UNL A   1      31.628  25.865  25.609  1.00  0.00    -0.286 N 
ATOM      6  C   UNL A   1      32.121  25.878  24.327  1.00  0.00     0.171 A 
ATOM      7  N   UNL A   1      33.298  25.398  24.060  1.00  0.00    -0.224 NA
ATOM      8  C   UNL A   1      33.948  24.679  25.077  1.00  0.00     0.079 A 
ATOM      9  C   UNL A   1      31.893  24.732  26.366  1.00  0.00     0.262 A 
ATOM     10  C   UNL A   1      35.308  24.390  25.006  1.00  0.00     0.029 A 
ATOM     11  C   UNL A   1      33.201  24.108  26.106  1.00  0.00     0.066 A 
ATOM     12  O   UNL A   1      31.160  24.300  27.250  1.00  0.00    -0.269 OA
ATOM     13  C   UNL A   1      35.877  23.475  25.902  1.00  0.00     0.002 A 
ATOM     14  C   UNL A   1      33.731  23.135  26.952  1.00  0.00     0.016 A 
ATOM     15  C   UNL A   1      35.079  22.809  26.838  1.00  0.00     0.001 A 
BRANCH   6  16
ATOM     16  S   UNL A   1      31.174  26.298  22.917  1.00  0.00    -0.083 SA
BRANCH  16  17
ATOM     17  C   UNL A   1      31.233  28.048  22.516  1.00  0.00     0.113 C 
BRANCH  17  18
ATOM     18  C   UNL A   1      29.905  28.765  22.524  1.00  0.00    -0.034 A 
ATOM     19  C   UNL A   1      28.573  30.774  22.170  1.00  0.00     0.119 A 
ATOM     20  C   UNL A   1      27.476  30.133  22.744  1.00  0.00     0.046 A 
ATOM     21  C   UNL A   1      29.759  30.063  22.000  1.00  0.00     0.051 A 
ATOM     22  C   UNL A   1      27.565  28.804  23.152  1.00  0.00     0.004 A 
ATOM     23  C   UNL A   1      28.776  28.126  23.051  1.00  0.00     0.005 A 
BRANCH  19  24
ATOM     24  O   UNL A   1      28.366  32.081  21.826  1.00  0.00    -0.497 OA
ATOM     25  C   UNL A   1      28.777  33.078  22.755  1.00  0.00     0.278 C 
ENDBRANCH  19  24
ENDBRANCH  17  18
ENDBRANCH  16  17
ENDBRANCH   6  16
ENDBRANCH   4   5
ENDBRANCH   3   4
ENDBRANCH   1   3
BRANCH   1  26
ATOM     26  O   UNL A   1      31.467  30.440  26.854  1.00  0.00    -0.462 OA
BRANCH  26  27
ATOM     27  C   UNL A   1      31.122  31.600  26.066  1.00  0.00     0.274 C 
BRANCH  27  28
ATOM     28  C   UNL A   1      31.922  32.830  26.527  1.00  0.00     0.275 C 
BRANCH  28  29
ATOM     29  O   UNL A   1      32.596  32.680  27.795  1.00  0.00    -0.458 OA
BRANCH  29  30
ATOM     30  C   UNL A   1      33.689  33.438  28.002  1.00  0.00     0.338 C 
ATOM     31  O   UNL A   1      33.761  34.659  27.992  1.00  0.00    -0.246 OA
BRANCH  30  32
ATOM     32  C   UNL A   1      34.880  32.583  28.127  1.00  0.00     0.060 A 
ATOM     33  C   UNL A   1      36.123  33.212  28.275  1.00  0.00     0.016 A 
ATOM     34  C   UNL A   1      34.765  31.197  28.239  1.00  0.00     0.016 A 
ATOM     35  C   UNL A   1      37.235  32.465  28.657  1.00  0.00     0.010 A 
ATOM     36  C   UNL A   1      35.867  30.458  28.675  1.00  0.00     0.010 A 
ATOM     37  C   UNL A   1      37.081  31.105  28.965  1.00  0.00    -0.014 A 
BRANCH  37  38
ATOM     38  C   UNL A   1      38.065  30.427  29.850  1.00  0.00     0.031 A 
ATOM     39  C   UNL A   1      38.274  30.850  31.268  1.00  0.00     0.074 A 
ATOM     40  C   UNL A   1      38.855  29.484  29.296  1.00  0.00     0.049 A 
ATOM     41  N   UNL A   1      39.204  30.471  32.108  1.00  0.00    -0.248 NA
ATOM     42  C   UNL A   1      37.321  31.825  31.814  1.00  0.00     0.031 C 
ATOM     43  C   UNL A   1      38.748  28.998  27.917  1.00  0.00     0.029 A 
ATOM     44  N   UNL A   1      39.919  28.781  29.808  1.00  0.00    -0.354 N 
ATOM     45  C   UNL A   1      38.959  31.168  33.282  1.00  0.00     0.074 A 
ATOM     46  C   UNL A   1      37.801  32.006  33.039  1.00  0.00     0.031 C 
ATOM     47  C   UNL A   1      39.700  28.080  27.694  1.00  0.00     0.029 A 
ATOM     48  C   UNL A   1      40.528  27.962  28.886  1.00  0.00     0.049 A 
ATOM     49  H   UNL A   1      40.216  28.856  30.744  1.00  0.00     0.167 HD
ATOM     50  C   UNL A   1      39.644  31.107  34.450  1.00  0.00     0.037 A 
ATOM     51  C   UNL A   1      41.655  27.230  28.970  1.00  0.00     0.037 A 
ATOM     52  C   UNL A   1      40.802  30.276  34.672  1.00  0.00     0.049 A 
ATOM     53  C   UNL A   1      42.434  27.239  30.254  1.00  0.00     0.074 A 
ATOM     54  C   UNL A   1      41.548  30.129  35.829  1.00  0.00     0.029 A 
ATOM     55  N   UNL A   1      41.391  29.462  33.713  1.00  0.00    -0.354 N 
ATOM     56  N   UNL A   1      42.176  27.876  31.369  1.00  0.00    -0.248 NA
ATOM     57  C   UNL A   1      43.662  26.434  30.292  1.00  0.00     0.031 C 
ATOM     58  C   UNL A   1      42.621  29.274  35.555  1.00  0.00     0.029 A 
ATOM     59  C   UNL A   1      42.506  28.833  34.247  1.00  0.00     0.049 A 
ATOM     60  H   UNL A   1      41.065  29.348  32.791  1.00  0.00     0.167 HD
ATOM     61  C   UNL A   1      43.183  27.521  32.253  1.00  0.00     0.074 A 
ATOM     62  C   UNL A   1      44.060  26.612  31.544  1.00  0.00     0.031 C 
ATOM     63  C   UNL A   1      43.358  27.911  33.538  1.00  0.00     0.037 A 
BRANCH  50  64
ATOM     64  C   UNL A   1      39.180  31.984  35.577  1.00  0.00     0.064 A 
ATOM     65  C   UNL A   1      38.287  31.520  36.553  1.00  0.00     0.173 A 
ATOM     66  C   UNL A   1      39.680  33.289  35.714  1.00  0.00     0.173 A 
ATOM     67  F   UNL A   1      37.778  30.281  36.468  1.00  0.00    -0.203 F 
ATOM     68  C   UNL A   1      37.889  32.339  37.608  1.00  0.00     0.198 A 
ATOM     69  C   UNL A   1      39.303  34.094  36.786  1.00  0.00     0.198 A 
ATOM     70  F   UNL A   1      40.547  33.778  34.816  1.00  0.00    -0.203 F 
ATOM     71  F   UNL A   1      37.001  31.888  38.506  1.00  0.00    -0.200 F 
ATOM     72  C   UNL A   1      38.403  33.621  37.728  1.00  0.00     0.200 A 
ATOM     73  F   UNL A   1      39.815  35.327  36.908  1.00  0.00    -0.200 F 
ATOM     74  F   UNL A   1      38.026  34.405  38.748  1.00  0.00    -0.200 F 
ENDBRANCH  50  64
BRANCH  51  75
ATOM     75  C   UNL A   1      42.118  26.444  27.796  1.00  0.00     0.064 A 
ATOM     76  C   UNL A   1      43.116  26.940  26.946  1.00  0.00     0.173 A 
ATOM     77  C   UNL A   1      41.579  25.182  27.502  1.00  0.00     0.173 A 
ATOM     78  F   UNL A   1      43.647  28.151  27.175  1.00  0.00    -0.203 F 
ATOM     79  C   UNL A   1      43.544  26.213  25.837  1.00  0.00     0.198 A 
ATOM     80  C   UNL A   1      42.031  24.442  26.411  1.00  0.00     0.198 A 
ATOM     81  F   UNL A   1      40.626  24.657  28.286  1.00  0.00    -0.203 F 
ATOM     82  F   UNL A   1      44.466  26.732  25.016  1.00  0.00    -0.200 F 
ATOM     83  C   UNL A   1      43.007  24.963  25.574  1.00  0.00     0.200 A 
ATOM     84  F   UNL A   1      41.522  23.226  26.171  1.00  0.00    -0.200 F 
ATOM     85  F   UNL A   1      43.424  24.262  24.512  1.00  0.00    -0.200 F 
ENDBRANCH  51  75
BRANCH  63  86
ATOM     86  C   UNL A   1      44.507  27.310  34.294  1.00  0.00     0.064 A 
ATOM     87  C   UNL A   1      44.404  26.070  34.939  1.00  0.00     0.173 A 
ATOM     88  C   UNL A   1      45.753  27.958  34.307  1.00  0.00     0.173 A 
ATOM     89  F   UNL A   1      43.230  25.422  34.973  1.00  0.00    -0.203 F 
ATOM     90  C   UNL A   1      45.504  25.503  35.577  1.00  0.00     0.198 A 
ATOM     91  C   UNL A   1      46.858  27.375  34.919  1.00  0.00     0.198 A 
ATOM     92  F   UNL A   1      45.903  29.146  33.702  1.00  0.00    -0.203 F 
ATOM     93  F   UNL A   1      45.377  24.333  36.215  1.00  0.00    -0.200 F 
ATOM     94  C   UNL A   1      46.732  26.149  35.556  1.00  0.00     0.200 A 
ATOM     95  F   UNL A   1      48.045  27.994  34.885  1.00  0.00    -0.200 F 
ATOM     96  F   UNL A   1      47.795  25.592  36.151  1.00  0.00    -0.200 F 
ENDBRANCH  63  86
ENDBRANCH  37  38
ENDBRANCH  30  32
ENDBRANCH  29  30
ENDBRANCH  28  29
ENDBRANCH  27  28
ENDBRANCH  26  27
ENDBRANCH   1  26
TORSDOF 17
ENDMDL
MODEL 3
REMARK VINA RESULT:     -12.2      1.554      7.328
REMARK SMILES COc1cccc(CSc2nc3ccccc3c(=O)n2CCC(=O)OCCOC(=O)c2ccc(-c3c4nc(c(-c5c(F)c(F)c(F)c(F)c5F)c5ccc([nH]5)c(-c5c(F)c(F)c(F)c(F)c5F)c5nc(c(-c6c(F)c(F)c(F)c(F)c6F)c6ccc3[nH]6)C=C5)C=C4)cc2)c1
REMARK SMILES IDX 23 1 24 2 22 3 21 4 20 5 10 6 11 7 12 8 18 9 13 10 17 11
REMARK SMILES IDX 19 12 14 13 16 14 15 15 9 16 8 17 7 18 3 19 4 20 94 21 5 22
REMARK SMILES IDX 6 23 2 24 1 25 25 26 26 27 27 28 28 29 29 30 30 31 31 32
REMARK SMILES IDX 32 33 93 34 33 35 92 36 34 37 35 38 36 39 86 40 37 41 91 42
REMARK SMILES IDX 85 43 87 44 38 45 90 46 84 47 83 48 39 50 71 51 51 52 70 53
REMARK SMILES IDX 52 54 55 55 69 56 88 57 53 58 54 59 68 61 89 62 56 63 40 64
REMARK SMILES IDX 41 65 49 66 42 67 43 68 47 69 50 70 44 71 45 72 48 73 46 74
REMARK SMILES IDX 72 75 73 76 81 77 74 78 75 79 79 80 82 81 76 82 77 83 80 84
REMARK SMILES IDX 78 85 57 86 58 87 66 88 59 89 60 90 64 91 67 92 61 93 62 94
REMARK SMILES IDX 65 95 63 96
REMARK H PARENT 87 49 55 60
REMARK Flexibility Score: inf
ROOT
ATOM      1  C   UNL A   1      32.943  29.321  26.673  1.00  0.00     0.307 C 
ATOM      2  O   UNL A   1      32.762  29.819  25.569  1.00  0.00    -0.252 OA
ENDROOT
BRANCH   1   3
ATOM      3  C   UNL A   1      32.114  28.158  27.171  1.00  0.00     0.144 C 
BRANCH   3   4
ATOM      4  C   UNL A   1      31.188  27.382  26.227  1.00  0.00     0.140 C 
BRANCH   4   5
ATOM      5  N   UNL A   1      31.733  26.224  25.533  1.00  0.00    -0.286 N 
ATOM      6  C   UNL A   1      32.285  26.221  24.276  1.00  0.00     0.171 A 
ATOM      7  N   UNL A   1      33.420  25.631  24.048  1.00  0.00    -0.224 NA
ATOM      8  C   UNL A   1      33.946  24.824  25.070  1.00  0.00     0.079 A 
ATOM      9  C   UNL A   1      31.846  25.050  26.266  1.00  0.00     0.262 A 
ATOM     10  C   UNL A   1      35.272  24.400  25.052  1.00  0.00     0.029 A 
ATOM     11  C   UNL A   1      33.096  24.304  26.046  1.00  0.00     0.066 A 
ATOM     12  O   UNL A   1      31.032  24.672  27.102  1.00  0.00    -0.269 OA
ATOM     13  C   UNL A   1      35.703  23.409  25.944  1.00  0.00     0.002 A 
ATOM     14  C   UNL A   1      33.485  23.261  26.885  1.00  0.00     0.016 A 
ATOM     15  C   UNL A   1      34.797  22.803  26.822  1.00  0.00     0.001 A 
BRANCH   6  16
ATOM     16  S   UNL A   1      31.454  26.772  22.839  1.00  0.00    -0.083 SA
BRANCH  16  17
ATOM     17  C   UNL A   1      31.233  28.554  22.784  1.00  0.00     0.113 C 
BRANCH  17  18
ATOM     18  C   UNL A   1      29.804  29.036  22.846  1.00  0.00    -0.034 A 
ATOM     19  C   UNL A   1      28.169  30.843  22.835  1.00  0.00     0.119 A 
ATOM     20  C   UNL A   1      27.173  29.927  23.172  1.00  0.00     0.046 A 
ATOM     21  C   UNL A   1      29.463  30.381  22.605  1.00  0.00     0.051 A 
ATOM     22  C   UNL A   1      27.468  28.570  23.289  1.00  0.00     0.004 A 
ATOM     23  C   UNL A   1      28.778  28.129  23.136  1.00  0.00     0.005 A 
BRANCH  19  24
ATOM     24  O   UNL A   1      27.760  32.146  22.768  1.00  0.00    -0.497 OA
ATOM     25  C   UNL A   1      28.761  33.154  22.848  1.00  0.00     0.278 C 
ENDBRANCH  19  24
ENDBRANCH  17  18
ENDBRANCH  16  17
ENDBRANCH   6  16
ENDBRANCH   4   5
ENDBRANCH   3   4
ENDBRANCH   1   3
BRANCH   1  26
ATOM     26  O   UNL A   1      33.938  29.673  27.518  1.00  0.00    -0.462 OA
BRANCH  26  27
ATOM     27  C   UNL A   1      34.370  31.048  27.425  1.00  0.00     0.274 C 
BRANCH  27  28
ATOM     28  C   UNL A   1      33.314  31.993  28.023  1.00  0.00     0.275 C 
BRANCH  28  29
ATOM     29  O   UNL A   1      33.415  33.369  27.598  1.00  0.00    -0.458 OA
BRANCH  29  30
ATOM     30  C   UNL A   1      33.294  34.315  28.548  1.00  0.00     0.338 C 
ATOM     31  O   UNL A   1      32.455  35.204  28.610  1.00  0.00    -0.246 OA
BRANCH  30  32
ATOM     32  C   UNL A   1      34.421  34.232  29.490  1.00  0.00     0.060 A 
ATOM     33  C   UNL A   1      34.140  33.876  30.815  1.00  0.00     0.016 A 
ATOM     34  C   UNL A   1      35.740  34.361  29.051  1.00  0.00     0.016 A 
ATOM     35  C   UNL A   1      35.180  33.529  31.674  1.00  0.00     0.010 A 
ATOM     36  C   UNL A   1      36.777  33.960  29.895  1.00  0.00     0.010 A 
ATOM     37  C   UNL A   1      36.492  33.464  31.180  1.00  0.00    -0.014 A 
BRANCH  37  38
ATOM     38  C   UNL A   1      37.505  32.622  31.868  1.00  0.00     0.031 A 
ATOM     39  C   UNL A   1      38.089  33.009  33.188  1.00  0.00     0.074 A 
ATOM     40  C   UNL A   1      37.973  31.544  31.206  1.00  0.00     0.049 A 
ATOM     41  N   UNL A   1      39.095  32.471  33.829  1.00  0.00    -0.248 NA
ATOM     42  C   UNL A   1      37.469  34.149  33.876  1.00  0.00     0.031 C 
ATOM     43  C   UNL A   1      37.484  31.075  29.906  1.00  0.00     0.029 A 
ATOM     44  N   UNL A   1      38.977  30.659  31.515  1.00  0.00    -0.354 N 
ATOM     45  C   UNL A   1      39.240  33.210  34.994  1.00  0.00     0.074 A 
ATOM     46  C   UNL A   1      38.228  34.247  34.961  1.00  0.00     0.031 C 
ATOM     47  C   UNL A   1      38.183  29.995  29.531  1.00  0.00     0.029 A 
ATOM     48  C   UNL A   1      39.215  29.734  30.524  1.00  0.00     0.049 A 
ATOM     49  H   UNL A   1      39.479  30.684  32.361  1.00  0.00     0.167 HD
ATOM     50  C   UNL A   1      40.139  33.031  35.993  1.00  0.00     0.037 A 
ATOM     51  C   UNL A   1      40.182  28.804  30.404  1.00  0.00     0.037 A 
ATOM     52  C   UNL A   1      41.149  32.001  36.004  1.00  0.00     0.049 A 
ATOM     53  C   UNL A   1      41.209  28.678  31.491  1.00  0.00     0.074 A 
ATOM     54  C   UNL A   1      42.088  31.727  36.983  1.00  0.00     0.029 A 
ATOM     55  N   UNL A   1      41.359  31.084  34.983  1.00  0.00    -0.354 N 
ATOM     56  N   UNL A   1      41.318  29.361  32.604  1.00  0.00    -0.248 NA
ATOM     57  C   UNL A   1      42.250  27.658  31.308  1.00  0.00     0.031 C 
ATOM     58  C   UNL A   1      42.904  30.684  36.529  1.00  0.00     0.029 A 
ATOM     59  C   UNL A   1      42.431  30.262  35.298  1.00  0.00     0.049 A 
ATOM     60  H   UNL A   1      40.825  31.025  34.157  1.00  0.00     0.167 HD
ATOM     61  C   UNL A   1      42.412  28.832  33.271  1.00  0.00     0.074 A 
ATOM     62  C   UNL A   1      42.936  27.769  32.438  1.00  0.00     0.031 C 
ATOM     63  C   UNL A   1      42.928  29.191  34.470  1.00  0.00     0.037 A 
BRANCH  50  64
ATOM     64  C   UNL A   1      40.097  33.989  37.149  1.00  0.00     0.064 A 
ATOM     65  C   UNL A   1      40.831  35.184  37.143  1.00  0.00     0.173 A 
ATOM     66  C   UNL A   1      39.268  33.734  38.253  1.00  0.00     0.173 A 
ATOM     67  F   UNL A   1      41.640  35.475  36.113  1.00  0.00    -0.203 F 
ATOM     68  C   UNL A   1      40.759  36.074  38.213  1.00  0.00     0.198 A 
ATOM     69  C   UNL A   1      39.175  34.640  39.306  1.00  0.00     0.198 A 
ATOM     70  F   UNL A   1      38.535  32.612  38.303  1.00  0.00    -0.203 F 
ATOM     71  F   UNL A   1      41.501  37.190  38.205  1.00  0.00    -0.200 F 
ATOM     72  C   UNL A   1      39.926  35.806  39.289  1.00  0.00     0.200 A 
ATOM     73  F   UNL A   1      38.356  34.386  40.337  1.00  0.00    -0.200 F 
ATOM     74  F   UNL A   1      39.851  36.666  40.313  1.00  0.00    -0.200 F 
ENDBRANCH  50  64
BRANCH  51  75
ATOM     75  C   UNL A   1      40.230  27.937  29.197  1.00  0.00     0.064 A 
ATOM     76  C   UNL A   1      40.991  28.302  28.078  1.00  0.00     0.173 A 
ATOM     77  C   UNL A   1      39.524  26.725  29.139  1.00  0.00     0.173 A 
ATOM     78  F   UNL A   1      41.667  29.461  28.079  1.00  0.00    -0.203 F 
ATOM     79  C   UNL A   1      41.029  27.499  26.940  1.00  0.00     0.198 A 
ATOM     80  C   UNL A   1      39.589  25.907  28.013  1.00  0.00     0.198 A 
ATOM     81  F   UNL A   1      38.785  26.325  30.184  1.00  0.00    -0.203 F 
ATOM     82  F   UNL A   1      41.727  27.895  25.868  1.00  0.00    -0.200 F 
ATOM     83  C   UNL A   1      40.334  26.299  26.911  1.00  0.00     0.200 A 
ATOM     84  F   UNL A   1      38.930  24.741  27.995  1.00  0.00    -0.200 F 
ATOM     85  F   UNL A   1      40.376  25.525  25.819  1.00  0.00    -0.200 F 
ENDBRANCH  51  75
BRANCH  63  86
ATOM     86  C   UNL A   1      44.086  28.393  34.994  1.00  0.00     0.064 A 
ATOM     87  C   UNL A   1      45.415  28.784  34.782  1.00  0.00     0.173 A 
ATOM     88  C   UNL A   1      43.852  27.256  35.785  1.00  0.00     0.173 A 
ATOM     89  F   UNL A   1      45.691  29.851  34.017  1.00  0.00    -0.203 F 
ATOM     90  C   UNL A   1      46.469  28.063  35.337  1.00  0.00     0.198 A 
ATOM     91  C   UNL A   1      44.906  26.555  36.362  1.00  0.00     0.198 A 
ATOM     92  F   UNL A   1      42.597  26.841  36.018  1.00  0.00    -0.203 F 
ATOM     93  F   UNL A   1      47.733  28.435  35.096  1.00  0.00    -0.200 F 
ATOM     94  C   UNL A   1      46.214  26.957  36.135  1.00  0.00     0.200 A 
ATOM     95  F   UNL A   1      44.656  25.496  37.143  1.00  0.00    -0.200 F 
ATOM     96  F   UNL A   1      47.229  26.277  36.686  1.00  0.00    -0.200 F 
ENDBRANCH  63  86
ENDBRANCH  37  38
ENDBRANCH  30  32
ENDBRANCH  29  30
ENDBRANCH  28  29
ENDBRANCH  27  28
ENDBRANCH  26  27
ENDBRANCH   1  26
TORSDOF 17
ENDMDL
