MODEL 1
REMARK VINA RESULT:     -12.2      0.000      0.000
REMARK SMILES C[C@H]1[C@H](C(=O)OCCOC(=O)c2ccc(-c3c4nc(c(-c5c(F)c(F)c(F)c(F)c5F)c5ccc([nH]5)c(-c5c(F)c(F)c(F)c(F)c5F)c5nc(c(-c6c(F)c(F)c(F)c(F)c6F)c6ccc3[nH]6)C=C5)C=C4)cc2)CCN1C(=O)[C@H]1CC[C@@H](C[NH3+])CC1
REMARK SMILES IDX 7 1 6 2 4 3 5 4 3 5 1 6 2 7 77 8 75 9 76 10 78 11 79 12
REMARK SMILES IDX 80 13 87 14 81 15 86 16 82 17 83 18 84 19 85 20 8 24 9 25
REMARK SMILES IDX 10 26 11 27 12 28 13 29 74 30 14 31 73 32 15 33 16 34 17 35
REMARK SMILES IDX 67 36 18 37 72 38 66 39 68 40 19 41 71 42 65 43 64 44 20 46
REMARK SMILES IDX 52 47 32 48 51 49 33 50 36 51 50 52 69 53 34 54 35 55 49 57
REMARK SMILES IDX 70 58 37 59 21 60 22 61 30 62 23 63 24 64 28 65 31 66 25 67
REMARK SMILES IDX 26 68 29 69 27 70 53 71 54 72 62 73 55 74 56 75 60 76 63 77
REMARK SMILES IDX 57 78 58 79 61 80 59 81 38 82 39 83 47 84 40 85 41 86 45 87
REMARK SMILES IDX 48 88 42 89 43 90 46 91 44 92
REMARK H PARENT 85 21 85 22 85 23 68 45 36 56
REMARK Flexibility Score: inf
ROOT
ATOM      1  C   UNL A   1      32.056  28.227  27.490  1.00  0.00     0.274 C 
ENDROOT
BRANCH   1   2
ATOM      2  O   UNL A   1      30.946  27.342  27.236  1.00  0.00    -0.462 OA
BRANCH   2   3
ATOM      3  C   UNL A   1      31.211  26.288  26.423  1.00  0.00     0.311 C 
ATOM      4  O   UNL A   1      31.276  25.121  26.796  1.00  0.00    -0.252 OA
BRANCH   3   5
ATOM      5  C   UNL A   1      31.475  26.672  24.987  1.00  0.00     0.123 C 
ATOM      6  C   UNL A   1      33.670  27.505  24.091  1.00  0.00     0.032 C 
ATOM      7  C   UNL A   1      32.838  26.246  24.388  1.00  0.00     0.096 C 
ATOM      8  N   UNL A   1      32.483  25.544  23.143  1.00  0.00    -0.339 N 
ATOM      9  C   UNL A   1      30.413  26.086  24.058  1.00  0.00     0.039 C 
ATOM     10  C   UNL A   1      31.143  25.934  22.740  1.00  0.00     0.121 C 
BRANCH   8  11
ATOM     11  C   UNL A   1      33.159  24.610  22.387  1.00  0.00     0.225 C 
ATOM     12  O   UNL A   1      33.276  24.779  21.166  1.00  0.00    -0.275 OA
BRANCH  11  13
ATOM     13  C   UNL A   1      33.757  23.326  22.980  1.00  0.00     0.078 C 
ATOM     14  C   UNL A   1      35.108  23.523  23.667  1.00  0.00     0.014 C 
ATOM     15  C   UNL A   1      32.761  22.481  23.783  1.00  0.00     0.014 C 
ATOM     16  C   UNL A   1      35.690  22.208  24.189  1.00  0.00     0.010 C 
ATOM     17  C   UNL A   1      33.405  21.202  24.324  1.00  0.00     0.010 C 
ATOM     18  C   UNL A   1      34.702  21.468  25.109  1.00  0.00     0.044 C 
BRANCH  18  19
ATOM     19  C   UNL A   1      34.497  22.257  26.420  1.00  0.00     0.262 C 
BRANCH  19  20
ATOM     20  N   UNL A   1      34.689  21.451  27.622  1.00  0.00    -0.357 N 
ATOM     21  H   UNL A   1      33.838  21.472  28.185  1.00  0.00     0.344 HD
ATOM     22  H   UNL A   1      35.465  21.830  28.165  1.00  0.00     0.344 HD
ATOM     23  H   UNL A   1      34.896  20.488  27.357  1.00  0.00     0.344 HD
ENDBRANCH  19  20
ENDBRANCH  18  19
ENDBRANCH  11  13
ENDBRANCH   8  11
ENDBRANCH   3   5
ENDBRANCH   2   3
ENDBRANCH   1   2
BRANCH   1  24
ATOM     24  C   UNL A   1      31.837  29.619  26.889  1.00  0.00     0.275 C 
BRANCH  24  25
ATOM     25  O   UNL A   1      33.059  30.198  26.397  1.00  0.00    -0.458 OA
BRANCH  25  26
ATOM     26  C   UNL A   1      33.502  31.266  27.090  1.00  0.00     0.338 C 
ATOM     27  O   UNL A   1      32.904  32.310  27.315  1.00  0.00    -0.246 OA
BRANCH  26  28
ATOM     28  C   UNL A   1      34.821  30.990  27.665  1.00  0.00     0.060 A 
ATOM     29  C   UNL A   1      35.121  29.680  28.043  1.00  0.00     0.016 A 
ATOM     30  C   UNL A   1      35.697  32.036  27.954  1.00  0.00     0.016 A 
ATOM     31  C   UNL A   1      36.289  29.406  28.745  1.00  0.00     0.010 A 
ATOM     32  C   UNL A   1      36.883  31.756  28.637  1.00  0.00     0.010 A 
ATOM     33  C   UNL A   1      37.178  30.444  29.050  1.00  0.00    -0.014 A 
BRANCH  33  34
ATOM     34  C   UNL A   1      38.406  30.174  29.828  1.00  0.00     0.031 A 
ATOM     35  C   UNL A   1      39.450  29.253  29.271  1.00  0.00     0.074 A 
ATOM     36  C   UNL A   1      38.567  30.734  31.039  1.00  0.00     0.049 A 
ATOM     37  N   UNL A   1      40.487  28.721  29.865  1.00  0.00    -0.248 NA
ATOM     38  C   UNL A   1      39.305  28.877  27.857  1.00  0.00     0.031 C 
ATOM     39  C   UNL A   1      37.651  31.696  31.652  1.00  0.00     0.029 A 
ATOM     40  N   UNL A   1      39.549  30.558  31.981  1.00  0.00    -0.354 N 
ATOM     41  C   UNL A   1      41.097  27.920  28.911  1.00  0.00     0.074 A 
ATOM     42  C   UNL A   1      40.318  28.037  27.696  1.00  0.00     0.031 C 
ATOM     43  C   UNL A   1      38.105  32.013  32.875  1.00  0.00     0.029 A 
ATOM     44  C   UNL A   1      39.304  31.228  33.153  1.00  0.00     0.049 A 
ATOM     45  H   UNL A   1      40.349  30.005  31.830  1.00  0.00     0.167 HD
ATOM     46  C   UNL A   1      42.202  27.151  29.046  1.00  0.00     0.037 A 
ATOM     47  C   UNL A   1      39.947  31.173  34.335  1.00  0.00     0.037 A 
ATOM     48  C   UNL A   1      42.980  27.061  30.254  1.00  0.00     0.049 A 
ATOM     49  C   UNL A   1      41.135  30.264  34.481  1.00  0.00     0.074 A 
ATOM     50  C   UNL A   1      44.118  26.314  30.497  1.00  0.00     0.029 A 
ATOM     51  N   UNL A   1      42.694  27.748  31.425  1.00  0.00    -0.354 N 
ATOM     52  N   UNL A   1      41.687  29.478  33.588  1.00  0.00    -0.248 NA
ATOM     53  C   UNL A   1      41.779  30.220  35.800  1.00  0.00     0.031 C 
ATOM     54  C   UNL A   1      44.505  26.524  31.825  1.00  0.00     0.029 A 
ATOM     55  C   UNL A   1      43.629  27.432  32.397  1.00  0.00     0.049 A 
ATOM     56  H   UNL A   1      41.940  28.369  31.547  1.00  0.00     0.167 HD
ATOM     57  C   UNL A   1      42.756  28.866  34.228  1.00  0.00     0.074 A 
ATOM     58  C   UNL A   1      42.777  29.372  35.584  1.00  0.00     0.031 C 
ATOM     59  C   UNL A   1      43.639  27.965  33.735  1.00  0.00     0.037 A 
BRANCH  46  60
ATOM     60  C   UNL A   1      42.618  26.317  27.872  1.00  0.00     0.064 A 
ATOM     61  C   UNL A   1      42.046  25.063  27.617  1.00  0.00     0.173 A 
ATOM     62  C   UNL A   1      43.576  26.801  26.968  1.00  0.00     0.173 A 
ATOM     63  F   UNL A   1      41.137  24.551  28.460  1.00  0.00    -0.203 F 
ATOM     64  C   UNL A   1      42.431  24.315  26.507  1.00  0.00     0.198 A 
ATOM     65  C   UNL A   1      43.942  26.060  25.848  1.00  0.00     0.198 A 
ATOM     66  F   UNL A   1      44.151  27.996  27.168  1.00  0.00    -0.203 F 
ATOM     67  F   UNL A   1      41.898  23.102  26.301  1.00  0.00    -0.200 F 
ATOM     68  C   UNL A   1      43.373  24.816  25.621  1.00  0.00     0.200 A 
ATOM     69  F   UNL A   1      44.847  26.550  24.989  1.00  0.00    -0.200 F 
ATOM     70  F   UNL A   1      43.738  24.096  24.551  1.00  0.00    -0.200 F 
ENDBRANCH  46  60
BRANCH  47  71
ATOM     71  C   UNL A   1      39.447  31.975  35.480  1.00  0.00     0.064 A 
ATOM     72  C   UNL A   1      38.555  31.425  36.409  1.00  0.00     0.173 A 
ATOM     73  C   UNL A   1      39.864  33.300  35.676  1.00  0.00     0.173 A 
ATOM     74  F   UNL A   1      38.111  30.171  36.249  1.00  0.00    -0.203 F 
ATOM     75  C   UNL A   1      38.092  32.174  37.489  1.00  0.00     0.198 A 
ATOM     76  C   UNL A   1      39.422  34.039  36.770  1.00  0.00     0.198 A 
ATOM     77  F   UNL A   1      40.718  33.869  34.813  1.00  0.00    -0.203 F 
ATOM     78  F   UNL A   1      37.214  31.637  38.346  1.00  0.00    -0.200 F 
ATOM     79  C   UNL A   1      38.533  33.477  37.673  1.00  0.00     0.200 A 
ATOM     80  F   UNL A   1      39.859  35.292  36.950  1.00  0.00    -0.200 F 
ATOM     81  F   UNL A   1      38.094  34.193  38.718  1.00  0.00    -0.200 F 
ENDBRANCH  47  71
BRANCH  59  82
ATOM     82  C   UNL A   1      44.733  27.503  34.650  1.00  0.00     0.064 A 
ATOM     83  C   UNL A   1      45.938  28.208  34.764  1.00  0.00     0.173 A 
ATOM     84  C   UNL A   1      44.541  26.380  35.467  1.00  0.00     0.173 A 
ATOM     85  F   UNL A   1      46.170  29.279  33.991  1.00  0.00    -0.203 F 
ATOM     86  C   UNL A   1      46.920  27.799  35.662  1.00  0.00     0.198 A 
ATOM     87  C   UNL A   1      45.515  25.986  36.379  1.00  0.00     0.198 A 
ATOM     88  F   UNL A   1      43.401  25.677  35.395  1.00  0.00    -0.203 F 
ATOM     89  F   UNL A   1      48.077  28.470  35.739  1.00  0.00    -0.200 F 
ATOM     90  C   UNL A   1      46.704  26.694  36.474  1.00  0.00     0.200 A 
ATOM     91  F   UNL A   1      45.303  24.924  37.169  1.00  0.00    -0.200 F 
ATOM     92  F   UNL A   1      47.646  26.309  37.346  1.00  0.00    -0.200 F 
ENDBRANCH  59  82
ENDBRANCH  33  34
ENDBRANCH  26  28
ENDBRANCH  25  26
ENDBRANCH  24  25
ENDBRANCH   1  24
TORSDOF 15
ENDMDL
MODEL 2
REMARK VINA RESULT:     -12.0      4.284      9.690
REMARK SMILES C[C@H]1[C@H](C(=O)OCCOC(=O)c2ccc(-c3c4nc(c(-c5c(F)c(F)c(F)c(F)c5F)c5ccc([nH]5)c(-c5c(F)c(F)c(F)c(F)c5F)c5nc(c(-c6c(F)c(F)c(F)c(F)c6F)c6ccc3[nH]6)C=C5)C=C4)cc2)CCN1C(=O)[C@H]1CC[C@@H](C[NH3+])CC1
REMARK SMILES IDX 7 1 6 2 4 3 5 4 3 5 1 6 2 7 77 8 75 9 76 10 78 11 79 12
REMARK SMILES IDX 80 13 87 14 81 15 86 16 82 17 83 18 84 19 85 20 8 24 9 25
REMARK SMILES IDX 10 26 11 27 12 28 13 29 74 30 14 31 73 32 15 33 16 34 17 35
REMARK SMILES IDX 67 36 18 37 72 38 66 39 68 40 19 41 71 42 65 43 64 44 20 46
REMARK SMILES IDX 52 47 32 48 51 49 33 50 36 51 50 52 69 53 34 54 35 55 49 57
REMARK SMILES IDX 70 58 37 59 21 60 22 61 30 62 23 63 24 64 28 65 31 66 25 67
REMARK SMILES IDX 26 68 29 69 27 70 53 71 54 72 62 73 55 74 56 75 60 76 63 77
REMARK SMILES IDX 57 78 58 79 61 80 59 81 38 82 39 83 47 84 40 85 41 86 45 87
REMARK SMILES IDX 48 88 42 89 43 90 46 91 44 92
REMARK H PARENT 85 21 85 22 85 23 68 45 36 56
REMARK Flexibility Score: inf
ROOT
ATOM      1  C   UNL A   1      36.847  22.957  23.771  1.00  0.00     0.274 C 
ENDROOT
BRANCH   1   2
ATOM      2  O   UNL A   1      35.813  22.844  22.771  1.00  0.00    -0.462 OA
BRANCH   2   3
ATOM      3  C   UNL A   1      34.631  23.434  23.081  1.00  0.00     0.311 C 
ATOM      4  O   UNL A   1      34.180  24.427  22.520  1.00  0.00    -0.252 OA
BRANCH   3   5
ATOM      5  C   UNL A   1      33.908  22.788  24.239  1.00  0.00     0.123 C 
ATOM      6  C   UNL A   1      34.373  23.234  26.668  1.00  0.00     0.032 C 
ATOM      7  C   UNL A   1      33.564  23.697  25.445  1.00  0.00     0.096 C 
ATOM      8  N   UNL A   1      32.122  23.487  25.657  1.00  0.00    -0.339 N 
ATOM      9  C   UNL A   1      32.581  22.180  23.787  1.00  0.00     0.039 C 
ATOM     10  C   UNL A   1      31.725  22.236  25.035  1.00  0.00     0.121 C 
BRANCH   8  11
ATOM     11  C   UNL A   1      31.159  24.260  26.270  1.00  0.00     0.225 C 
ATOM     12  O   UNL A   1      30.562  23.821  27.262  1.00  0.00    -0.275 OA
BRANCH  11  13
ATOM     13  C   UNL A   1      30.750  25.649  25.759  1.00  0.00     0.078 C 
ATOM     14  C   UNL A   1      31.765  26.751  26.058  1.00  0.00     0.014 C 
ATOM     15  C   UNL A   1      30.218  25.658  24.321  1.00  0.00     0.014 C 
ATOM     16  C   UNL A   1      31.287  28.124  25.583  1.00  0.00     0.010 C 
ATOM     17  C   UNL A   1      29.800  27.062  23.877  1.00  0.00     0.010 C 
ATOM     18  C   UNL A   1      30.902  28.114  24.093  1.00  0.00     0.044 C 
BRANCH  18  19
ATOM     19  C   UNL A   1      32.156  27.904  23.217  1.00  0.00     0.262 C 
BRANCH  19  20
ATOM     20  N   UNL A   1      32.460  29.038  22.351  1.00  0.00    -0.357 N 
ATOM     21  H   UNL A   1      32.879  29.787  22.904  1.00  0.00     0.344 HD
ATOM     22  H   UNL A   1      31.601  29.375  21.918  1.00  0.00     0.344 HD
ATOM     23  H   UNL A   1      33.115  28.746  21.625  1.00  0.00     0.344 HD
ENDBRANCH  19  20
ENDBRANCH  18  19
ENDBRANCH  11  13
ENDBRANCH   8  11
ENDBRANCH   3   5
ENDBRANCH   2   3
ENDBRANCH   1   2
BRANCH   1  24
ATOM     24  C   UNL A   1      37.083  21.637  24.511  1.00  0.00     0.275 C 
BRANCH  24  25
ATOM     25  O   UNL A   1      37.527  21.844  25.865  1.00  0.00    -0.458 OA
BRANCH  25  26
ATOM     26  C   UNL A   1      38.840  21.619  26.073  1.00  0.00     0.338 C 
ATOM     27  O   UNL A   1      39.482  20.621  25.772  1.00  0.00    -0.246 OA
BRANCH  26  28
ATOM     28  C   UNL A   1      39.477  22.806  26.647  1.00  0.00     0.060 A 
ATOM     29  C   UNL A   1      39.117  24.060  26.149  1.00  0.00     0.016 A 
ATOM     30  C   UNL A   1      40.517  22.674  27.567  1.00  0.00     0.016 A 
ATOM     31  C   UNL A   1      39.818  25.195  26.543  1.00  0.00     0.010 A 
ATOM     32  C   UNL A   1      41.202  23.818  27.983  1.00  0.00     0.010 A 
ATOM     33  C   UNL A   1      40.868  25.081  27.461  1.00  0.00    -0.014 A 
BRANCH  33  34
ATOM     34  C   UNL A   1      41.645  26.274  27.862  1.00  0.00     0.031 A 
ATOM     35  C   UNL A   1      40.990  27.347  28.678  1.00  0.00     0.074 A 
ATOM     36  C   UNL A   1      42.925  26.400  27.470  1.00  0.00     0.049 A 
ATOM     37  N   UNL A   1      41.415  28.552  28.956  1.00  0.00    -0.248 NA
ATOM     38  C   UNL A   1      39.677  27.021  29.257  1.00  0.00     0.031 C 
ATOM     39  C   UNL A   1      43.685  25.392  26.731  1.00  0.00     0.029 A 
ATOM     40  N   UNL A   1      43.805  27.441  27.621  1.00  0.00    -0.354 N 
ATOM     41  C   UNL A   1      40.410  29.142  29.709  1.00  0.00     0.074 A 
ATOM     42  C   UNL A   1      39.353  28.162  29.849  1.00  0.00     0.031 C 
ATOM     43  C   UNL A   1      44.913  25.870  26.478  1.00  0.00     0.029 A 
ATOM     44  C   UNL A   1      45.001  27.239  26.979  1.00  0.00     0.049 A 
ATOM     45  H   UNL A   1      43.598  28.253  28.138  1.00  0.00     0.167 HD
ATOM     46  C   UNL A   1      40.375  30.392  30.225  1.00  0.00     0.037 A 
ATOM     47  C   UNL A   1      46.030  28.083  26.773  1.00  0.00     0.037 A 
ATOM     48  C   UNL A   1      41.442  31.349  30.095  1.00  0.00     0.049 A 
ATOM     49  C   UNL A   1      45.942  29.487  27.301  1.00  0.00     0.074 A 
ATOM     50  C   UNL A   1      41.509  32.642  30.583  1.00  0.00     0.029 A 
ATOM     51  N   UNL A   1      42.635  31.109  29.429  1.00  0.00    -0.354 N 
ATOM     52  N   UNL A   1      44.974  30.055  27.980  1.00  0.00    -0.248 NA
ATOM     53  C   UNL A   1      47.080  30.373  27.022  1.00  0.00     0.031 C 
ATOM     54  C   UNL A   1      42.729  33.197  30.184  1.00  0.00     0.029 A 
ATOM     55  C   UNL A   1      43.439  32.236  29.481  1.00  0.00     0.049 A 
ATOM     56  H   UNL A   1      42.875  30.264  28.985  1.00  0.00     0.167 HD
ATOM     57  C   UNL A   1      45.394  31.352  28.230  1.00  0.00     0.074 A 
ATOM     58  C   UNL A   1      46.705  31.491  27.633  1.00  0.00     0.031 C 
ATOM     59  C   UNL A   1      44.750  32.342  28.895  1.00  0.00     0.037 A 
BRANCH  46  60
ATOM     60  C   UNL A   1      39.129  30.812  30.945  1.00  0.00     0.064 A 
ATOM     61  C   UNL A   1      38.038  31.374  30.268  1.00  0.00     0.173 A 
ATOM     62  C   UNL A   1      39.014  30.613  32.330  1.00  0.00     0.173 A 
ATOM     63  F   UNL A   1      38.105  31.598  28.947  1.00  0.00    -0.203 F 
ATOM     64  C   UNL A   1      36.881  31.737  30.955  1.00  0.00     0.198 A 
ATOM     65  C   UNL A   1      37.849  30.955  33.008  1.00  0.00     0.198 A 
ATOM     66  F   UNL A   1      40.031  30.077  33.021  1.00  0.00    -0.203 F 
ATOM     67  F   UNL A   1      35.863  32.305  30.295  1.00  0.00    -0.200 F 
ATOM     68  C   UNL A   1      36.786  31.522  32.322  1.00  0.00     0.200 A 
ATOM     69  F   UNL A   1      37.755  30.740  34.328  1.00  0.00    -0.200 F 
ATOM     70  F   UNL A   1      35.670  31.867  32.979  1.00  0.00    -0.200 F 
ENDBRANCH  46  60
BRANCH  47  71
ATOM     71  C   UNL A   1      47.209  27.626  25.995  1.00  0.00     0.064 A 
ATOM     72  C   UNL A   1      47.230  27.719  24.598  1.00  0.00     0.173 A 
ATOM     73  C   UNL A   1      48.343  27.103  26.635  1.00  0.00     0.173 A 
ATOM     74  F   UNL A   1      46.161  28.191  23.943  1.00  0.00    -0.203 F 
ATOM     75  C   UNL A   1      48.340  27.300  23.868  1.00  0.00     0.198 A 
ATOM     76  C   UNL A   1      49.462  26.708  25.906  1.00  0.00     0.198 A 
ATOM     77  F   UNL A   1      48.370  26.995  27.971  1.00  0.00    -0.203 F 
ATOM     78  F   UNL A   1      48.324  27.369  22.530  1.00  0.00    -0.200 F 
ATOM     79  C   UNL A   1      49.458  26.802  24.523  1.00  0.00     0.200 A 
ATOM     80  F   UNL A   1      50.543  26.240  26.544  1.00  0.00    -0.200 F 
ATOM     81  F   UNL A   1      50.529  26.408  23.820  1.00  0.00    -0.200 F 
ENDBRANCH  47  71
BRANCH  59  82
ATOM     82  C   UNL A   1      45.471  33.646  29.055  1.00  0.00     0.064 A 
ATOM     83  C   UNL A   1      45.309  34.690  28.135  1.00  0.00     0.173 A 
ATOM     84  C   UNL A   1      46.280  33.871  30.178  1.00  0.00     0.173 A 
ATOM     85  F   UNL A   1      44.557  34.513  27.039  1.00  0.00    -0.203 F 
ATOM     86  C   UNL A   1      45.939  35.915  28.330  1.00  0.00     0.198 A 
ATOM     87  C   UNL A   1      46.892  35.104  30.381  1.00  0.00     0.198 A 
ATOM     88  F   UNL A   1      46.460  32.902  31.087  1.00  0.00    -0.203 F 
ATOM     89  F   UNL A   1      45.794  36.894  27.426  1.00  0.00    -0.200 F 
ATOM     90  C   UNL A   1      46.723  36.123  29.457  1.00  0.00     0.200 A 
ATOM     91  F   UNL A   1      47.641  35.307  31.474  1.00  0.00    -0.200 F 
ATOM     92  F   UNL A   1      47.319  37.308  29.648  1.00  0.00    -0.200 F 
ENDBRANCH  59  82
ENDBRANCH  33  34
ENDBRANCH  26  28
ENDBRANCH  25  26
ENDBRANCH  24  25
ENDBRANCH   1  24
TORSDOF 15
ENDMDL
MODEL 3
REMARK VINA RESULT:     -11.9      4.401      9.785
REMARK SMILES C[C@H]1[C@H](C(=O)OCCOC(=O)c2ccc(-c3c4nc(c(-c5c(F)c(F)c(F)c(F)c5F)c5ccc([nH]5)c(-c5c(F)c(F)c(F)c(F)c5F)c5nc(c(-c6c(F)c(F)c(F)c(F)c6F)c6ccc3[nH]6)C=C5)C=C4)cc2)CCN1C(=O)[C@H]1CC[C@@H](C[NH3+])CC1
REMARK SMILES IDX 7 1 6 2 4 3 5 4 3 5 1 6 2 7 77 8 75 9 76 10 78 11 79 12
REMARK SMILES IDX 80 13 87 14 81 15 86 16 82 17 83 18 84 19 85 20 8 24 9 25
REMARK SMILES IDX 10 26 11 27 12 28 13 29 74 30 14 31 73 32 15 33 16 34 17 35
REMARK SMILES IDX 67 36 18 37 72 38 66 39 68 40 19 41 71 42 65 43 64 44 20 46
REMARK SMILES IDX 52 47 32 48 51 49 33 50 36 51 50 52 69 53 34 54 35 55 49 57
REMARK SMILES IDX 70 58 37 59 21 60 22 61 30 62 23 63 24 64 28 65 31 66 25 67
REMARK SMILES IDX 26 68 29 69 27 70 53 71 54 72 62 73 55 74 56 75 60 76 63 77
REMARK SMILES IDX 57 78 58 79 61 80 59 81 38 82 39 83 47 84 40 85 41 86 45 87
REMARK SMILES IDX 48 88 42 89 43 90 46 91 44 92
REMARK H PARENT 85 21 85 22 85 23 68 45 36 56
REMARK Flexibility Score: inf
ROOT
ATOM      1  C   UNL A   1      36.072  20.110  25.020  1.00  0.00     0.274 C 
ENDROOT
BRANCH   1   2
ATOM      2  O   UNL A   1      34.982  20.889  25.554  1.00  0.00    -0.462 OA
BRANCH   2   3
ATOM      3  C   UNL A   1      33.953  21.118  24.700  1.00  0.00     0.311 C 
ATOM      4  O   UNL A   1      33.272  20.240  24.179  1.00  0.00    -0.252 OA
BRANCH   3   5
ATOM      5  C   UNL A   1      33.726  22.578  24.387  1.00  0.00     0.123 C 
ATOM      6  C   UNL A   1      31.690  23.516  23.251  1.00  0.00     0.032 C 
ATOM      7  C   UNL A   1      32.296  23.128  24.611  1.00  0.00     0.096 C 
ATOM      8  N   UNL A   1      32.493  24.316  25.458  1.00  0.00    -0.339 N 
ATOM      9  C   UNL A   1      34.647  23.467  25.221  1.00  0.00     0.039 C 
ATOM     10  C   UNL A   1      33.870  24.762  25.342  1.00  0.00     0.121 C 
BRANCH   8  11
ATOM     11  C   UNL A   1      31.646  24.988  26.313  1.00  0.00     0.225 C 
ATOM     12  O   UNL A   1      31.092  24.373  27.234  1.00  0.00    -0.275 OA
BRANCH  11  13
ATOM     13  C   UNL A   1      31.313  26.479  26.163  1.00  0.00     0.078 C 
ATOM     14  C   UNL A   1      32.096  27.394  27.105  1.00  0.00     0.014 C 
ATOM     15  C   UNL A   1      31.261  26.969  24.711  1.00  0.00     0.014 C 
ATOM     16  C   UNL A   1      31.688  28.861  26.960  1.00  0.00     0.010 C 
ATOM     17  C   UNL A   1      30.898  28.454  24.623  1.00  0.00     0.010 C 
ATOM     18  C   UNL A   1      31.794  29.345  25.502  1.00  0.00     0.044 C 
BRANCH  18  19
ATOM     19  C   UNL A   1      33.271  29.389  25.059  1.00  0.00     0.262 C 
BRANCH  19  20
ATOM     20  N   UNL A   1      33.444  29.586  23.623  1.00  0.00    -0.357 N 
ATOM     21  H   UNL A   1      34.188  30.265  23.459  1.00  0.00     0.344 HD
ATOM     22  H   UNL A   1      32.574  29.932  23.219  1.00  0.00     0.344 HD
ATOM     23  H   UNL A   1      33.693  28.698  23.185  1.00  0.00     0.344 HD
ENDBRANCH  19  20
ENDBRANCH  18  19
ENDBRANCH  11  13
ENDBRANCH   8  11
ENDBRANCH   3   5
ENDBRANCH   2   3
ENDBRANCH   1   2
BRANCH   1  24
ATOM     24  C   UNL A   1      37.289  20.974  24.677  1.00  0.00     0.275 C 
BRANCH  24  25
ATOM     25  O   UNL A   1      37.745  21.743  25.805  1.00  0.00    -0.458 OA
BRANCH  25  26
ATOM     26  C   UNL A   1      39.020  21.506  26.176  1.00  0.00     0.338 C 
ATOM     27  O   UNL A   1      39.661  20.474  26.024  1.00  0.00    -0.246 OA
BRANCH  26  28
ATOM     28  C   UNL A   1      39.625  22.719  26.730  1.00  0.00     0.060 A 
ATOM     29  C   UNL A   1      39.247  23.953  26.197  1.00  0.00     0.016 A 
ATOM     30  C   UNL A   1      40.653  22.631  27.667  1.00  0.00     0.016 A 
ATOM     31  C   UNL A   1      39.918  25.111  26.572  1.00  0.00     0.010 A 
ATOM     32  C   UNL A   1      41.310  23.798  28.064  1.00  0.00     0.010 A 
ATOM     33  C   UNL A   1      40.958  25.041  27.507  1.00  0.00    -0.014 A 
BRANCH  33  34
ATOM     34  C   UNL A   1      41.705  26.259  27.889  1.00  0.00     0.031 A 
ATOM     35  C   UNL A   1      41.025  27.326  28.693  1.00  0.00     0.074 A 
ATOM     36  C   UNL A   1      42.980  26.412  27.491  1.00  0.00     0.049 A 
ATOM     37  N   UNL A   1      41.420  28.545  28.954  1.00  0.00    -0.248 NA
ATOM     38  C   UNL A   1      39.723  26.973  29.280  1.00  0.00     0.031 C 
ATOM     39  C   UNL A   1      43.764  25.414  26.763  1.00  0.00     0.029 A 
ATOM     40  N   UNL A   1      43.834  27.478  27.625  1.00  0.00    -0.354 N 
ATOM     41  C   UNL A   1      40.402  29.118  29.701  1.00  0.00     0.074 A 
ATOM     42  C   UNL A   1      39.372  28.113  29.858  1.00  0.00     0.031 C 
ATOM     43  C   UNL A   1      44.978  25.921  26.499  1.00  0.00     0.029 A 
ATOM     44  C   UNL A   1      45.032  27.298  26.982  1.00  0.00     0.049 A 
ATOM     45  H   UNL A   1      43.608  28.291  28.131  1.00  0.00     0.167 HD
ATOM     46  C   UNL A   1      40.336  30.374  30.201  1.00  0.00     0.037 A 
ATOM     47  C   UNL A   1      46.038  28.165  26.761  1.00  0.00     0.037 A 
ATOM     48  C   UNL A   1      41.378  31.357  30.055  1.00  0.00     0.049 A 
ATOM     49  C   UNL A   1      45.916  29.573  27.270  1.00  0.00     0.074 A 
ATOM     50  C   UNL A   1      41.413  32.657  30.524  1.00  0.00     0.029 A 
ATOM     51  N   UNL A   1      42.575  31.139  29.388  1.00  0.00    -0.354 N 
ATOM     52  N   UNL A   1      44.936  30.125  27.945  1.00  0.00    -0.248 NA
ATOM     53  C   UNL A   1      47.030  30.485  26.976  1.00  0.00     0.031 C 
ATOM     54  C   UNL A   1      42.617  33.238  30.114  1.00  0.00     0.029 A 
ATOM     55  C   UNL A   1      43.349  32.286  29.422  1.00  0.00     0.049 A 
ATOM     56  H   UNL A   1      42.835  30.294  28.955  1.00  0.00     0.167 HD
ATOM     57  C   UNL A   1      45.323  31.437  28.177  1.00  0.00     0.074 A 
ATOM     58  C   UNL A   1      46.628  31.600  27.572  1.00  0.00     0.031 C 
ATOM     59  C   UNL A   1      44.656  32.418  28.830  1.00  0.00     0.037 A 
BRANCH  46  60
ATOM     60  C   UNL A   1      39.083  30.772  30.920  1.00  0.00     0.064 A 
ATOM     61  C   UNL A   1      38.950  30.630  32.308  1.00  0.00     0.173 A 
ATOM     62  C   UNL A   1      38.013  31.340  30.211  1.00  0.00     0.173 A 
ATOM     63  F   UNL A   1      39.939  30.079  33.028  1.00  0.00    -0.203 F 
ATOM     64  C   UNL A   1      37.784  31.027  32.959  1.00  0.00     0.198 A 
ATOM     65  C   UNL A   1      36.859  31.756  30.867  1.00  0.00     0.198 A 
ATOM     66  F   UNL A   1      38.093  31.498  28.881  1.00  0.00    -0.203 F 
ATOM     67  F   UNL A   1      37.663  30.850  34.282  1.00  0.00    -0.200 F 
ATOM     68  C   UNL A   1      36.743  31.594  32.239  1.00  0.00     0.200 A 
ATOM     69  F   UNL A   1      35.857  32.311  30.171  1.00  0.00    -0.200 F 
ATOM     70  F   UNL A   1      35.624  31.980  32.868  1.00  0.00    -0.200 F 
ENDBRANCH  46  60
BRANCH  47  71
ATOM     71  C   UNL A   1      47.227  27.729  25.985  1.00  0.00     0.064 A 
ATOM     72  C   UNL A   1      47.219  27.748  24.585  1.00  0.00     0.173 A 
ATOM     73  C   UNL A   1      48.397  27.299  26.629  1.00  0.00     0.173 A 
ATOM     74  F   UNL A   1      46.116  28.129  23.927  1.00  0.00    -0.203 F 
ATOM     75  C   UNL A   1      48.338  27.347  23.856  1.00  0.00     0.198 A 
ATOM     76  C   UNL A   1      49.522  26.923  25.901  1.00  0.00     0.198 A 
ATOM     77  F   UNL A   1      48.452  27.263  27.968  1.00  0.00    -0.203 F 
ATOM     78  F   UNL A   1      48.295  27.344  22.517  1.00  0.00    -0.200 F 
ATOM     79  C   UNL A   1      49.490  26.943  24.515  1.00  0.00     0.200 A 
ATOM     80  F   UNL A   1      50.637  26.545  26.541  1.00  0.00    -0.200 F 
ATOM     81  F   UNL A   1      50.569  26.567  23.812  1.00  0.00    -0.200 F 
ENDBRANCH  47  71
BRANCH  59  82
ATOM     82  C   UNL A   1      45.343  33.742  28.970  1.00  0.00     0.064 A 
ATOM     83  C   UNL A   1      46.214  34.006  30.034  1.00  0.00     0.173 A 
ATOM     84  C   UNL A   1      45.175  34.731  27.989  1.00  0.00     0.173 A 
ATOM     85  F   UNL A   1      46.393  33.095  31.002  1.00  0.00    -0.203 F 
ATOM     86  C   UNL A   1      46.891  35.220  30.117  1.00  0.00     0.198 A 
ATOM     87  C   UNL A   1      45.868  35.935  28.064  1.00  0.00     0.198 A 
ATOM     88  F   UNL A   1      44.354  34.520  26.950  1.00  0.00    -0.203 F 
ATOM     89  F   UNL A   1      47.701  35.464  31.156  1.00  0.00    -0.200 F 
ATOM     90  C   UNL A   1      46.723  36.179  29.128  1.00  0.00     0.200 A 
ATOM     91  F   UNL A   1      45.714  36.857  27.103  1.00  0.00    -0.200 F 
ATOM     92  F   UNL A   1      47.384  37.342  29.204  1.00  0.00    -0.200 F 
ENDBRANCH  59  82
ENDBRANCH  33  34
ENDBRANCH  26  28
ENDBRANCH  25  26
ENDBRANCH  24  25
ENDBRANCH   1  24
TORSDOF 15
ENDMDL
