MODEL 1
REMARK VINA RESULT:     -11.3      0.000      0.000
REMARK SMILES CSc1ccc(C[NH+]2CCC(CC(=O)OCCOC(=O)c3ccc(-c4c5nc(c(-c6c(F)c(F)c(F)c(F)c6F)c6ccc([nH]6)c(-c6c(F)c(F)c(F)c(F)c6F)c6nc(c(-c7c(F)c(F)c(F)c(F)c7F)c7ccc4[nH]7)C=C6)C=C5)cc3)CC2)cc1
REMARK SMILES IDX 16 1 15 2 13 3 14 4 12 5 11 6 8 7 9 8 85 9 10 11 84 12 7 13
REMARK SMILES IDX 6 14 3 15 4 16 87 17 5 18 86 19 2 20 1 21 17 22 18 23 19 24
REMARK SMILES IDX 20 25 21 26 22 27 83 28 23 29 82 30 24 31 25 32 26 33 76 34
REMARK SMILES IDX 27 35 81 36 75 37 77 38 28 39 80 40 74 41 73 42 29 44 61 45
REMARK SMILES IDX 41 46 60 47 42 48 45 49 59 50 78 51 43 52 44 53 58 55 79 56
REMARK SMILES IDX 46 57 30 58 31 59 39 60 32 61 33 62 37 63 40 64 34 65 35 66
REMARK SMILES IDX 38 67 36 68 62 69 63 70 71 71 64 72 65 73 69 74 72 75 66 76
REMARK SMILES IDX 67 77 70 78 68 79 47 80 48 81 56 82 49 83 50 84 54 85 57 86
REMARK SMILES IDX 51 87 52 88 55 89 53 90
REMARK H PARENT 8 10 77 43 45 54
REMARK Flexibility Score: inf
ROOT
ATOM      1  C   UNL A   1      35.242  20.711  25.234  1.00  0.00     0.274 C 
ENDROOT
BRANCH   1   2
ATOM      2  O   UNL A   1      34.493  19.589  24.731  1.00  0.00    -0.462 OA
BRANCH   2   3
ATOM      3  C   UNL A   1      33.144  19.711  24.705  1.00  0.00     0.306 C 
ATOM      4  O   UNL A   1      32.363  18.999  25.326  1.00  0.00    -0.252 OA
BRANCH   3   5
ATOM      5  C   UNL A   1      32.682  20.797  23.756  1.00  0.00     0.126 C 
BRANCH   5   6
ATOM      6  C   UNL A   1      31.736  21.848  24.360  1.00  0.00     0.011 C 
ATOM      7  N   UNL A   1      31.414  24.580  25.377  1.00  0.00    -0.331 N 
ATOM      8  C   UNL A   1      31.341  23.447  26.301  1.00  0.00     0.262 C 
ATOM      9  C   UNL A   1      30.863  24.224  24.069  1.00  0.00     0.262 C 
ATOM     10  H   UNL A   1      32.401  24.791  25.232  1.00  0.00     0.348 HD
ATOM     11  C   UNL A   1      32.166  22.273  25.774  1.00  0.00     0.066 C 
ATOM     12  C   UNL A   1      31.673  23.085  23.446  1.00  0.00     0.066 C 
BRANCH   7  13
ATOM     13  C   UNL A   1      30.860  25.823  25.935  1.00  0.00     0.299 C 
BRANCH  13  14
ATOM     14  C   UNL A   1      31.856  26.872  26.386  1.00  0.00     0.006 A 
ATOM     15  C   UNL A   1      33.679  28.883  27.162  1.00  0.00     0.007 A 
ATOM     16  C   UNL A   1      34.088  27.830  26.337  1.00  0.00     0.015 A 
ATOM     17  C   UNL A   1      32.354  28.923  27.600  1.00  0.00     0.015 A 
ATOM     18  C   UNL A   1      33.189  26.827  25.963  1.00  0.00     0.011 A 
ATOM     19  C   UNL A   1      31.451  27.924  27.220  1.00  0.00     0.011 A 
BRANCH  15  20
ATOM     20  S   UNL A   1      34.861  30.164  27.548  1.00  0.00    -0.130 SA
ATOM     21  C   UNL A   1      33.783  31.617  27.625  1.00  0.00     0.091 C 
ENDBRANCH  15  20
ENDBRANCH  13  14
ENDBRANCH   7  13
ENDBRANCH   5   6
ENDBRANCH   3   5
ENDBRANCH   2   3
ENDBRANCH   1   2
BRANCH   1  22
ATOM     22  C   UNL A   1      36.748  20.498  25.073  1.00  0.00     0.275 C 
BRANCH  22  23
ATOM     23  O   UNL A   1      37.492  21.578  25.664  1.00  0.00    -0.458 OA
BRANCH  23  24
ATOM     24  C   UNL A   1      38.750  21.269  26.057  1.00  0.00     0.338 C 
ATOM     25  O   UNL A   1      39.308  20.189  25.977  1.00  0.00    -0.246 OA
BRANCH  24  26
ATOM     26  C   UNL A   1      39.429  22.492  26.512  1.00  0.00     0.060 A 
ATOM     27  C   UNL A   1      39.021  23.718  25.978  1.00  0.00     0.016 A 
ATOM     28  C   UNL A   1      40.498  22.426  27.406  1.00  0.00     0.016 A 
ATOM     29  C   UNL A   1      39.684  24.889  26.338  1.00  0.00     0.010 A 
ATOM     30  C   UNL A   1      41.163  23.602  27.766  1.00  0.00     0.010 A 
ATOM     31  C   UNL A   1      40.766  24.838  27.227  1.00  0.00    -0.014 A 
BRANCH  31  32
ATOM     32  C   UNL A   1      41.518  26.074  27.554  1.00  0.00     0.031 A 
ATOM     33  C   UNL A   1      40.860  27.154  28.363  1.00  0.00     0.074 A 
ATOM     34  C   UNL A   1      42.788  26.220  27.137  1.00  0.00     0.049 A 
ATOM     35  N   UNL A   1      41.314  28.336  28.696  1.00  0.00    -0.248 NA
ATOM     36  C   UNL A   1      39.507  26.865  28.866  1.00  0.00     0.031 C 
ATOM     37  C   UNL A   1      43.547  25.226  26.380  1.00  0.00     0.029 A 
ATOM     38  N   UNL A   1      43.663  27.267  27.289  1.00  0.00    -0.354 N 
ATOM     39  C   UNL A   1      40.306  28.932  29.440  1.00  0.00     0.074 A 
ATOM     40  C   UNL A   1      39.204  27.994  29.488  1.00  0.00     0.031 C 
ATOM     41  C   UNL A   1      44.775  25.711  26.132  1.00  0.00     0.029 A 
ATOM     42  C   UNL A   1      44.875  27.062  26.677  1.00  0.00     0.049 A 
ATOM     43  H   UNL A   1      43.441  28.087  27.787  1.00  0.00     0.167 HD
ATOM     44  C   UNL A   1      40.305  30.149  30.035  1.00  0.00     0.037 A 
ATOM     45  C   UNL A   1      45.935  27.883  26.553  1.00  0.00     0.037 A 
ATOM     46  C   UNL A   1      41.401  31.081  29.987  1.00  0.00     0.049 A 
ATOM     47  C   UNL A   1      45.877  29.258  27.163  1.00  0.00     0.074 A 
ATOM     48  C   UNL A   1      41.491  32.342  30.550  1.00  0.00     0.029 A 
ATOM     49  N   UNL A   1      42.603  30.850  29.333  1.00  0.00    -0.354 N 
ATOM     50  N   UNL A   1      44.920  29.817  27.862  1.00  0.00    -0.248 NA
ATOM     51  C   UNL A   1      47.053  30.120  26.962  1.00  0.00     0.031 C 
ATOM     52  C   UNL A   1      42.734  32.887  30.209  1.00  0.00     0.029 A 
ATOM     53  C   UNL A   1      43.434  31.950  29.468  1.00  0.00     0.049 A 
ATOM     54  H   UNL A   1      42.831  30.025  28.845  1.00  0.00     0.167 HD
ATOM     55  C   UNL A   1      45.384  31.079  28.207  1.00  0.00     0.074 A 
ATOM     56  C   UNL A   1      46.715  31.201  27.650  1.00  0.00     0.031 C 
ATOM     57  C   UNL A   1      44.762  32.050  28.919  1.00  0.00     0.037 A 
BRANCH  44  58
ATOM     58  C   UNL A   1      39.067  30.551  30.780  1.00  0.00     0.064 A 
ATOM     59  C   UNL A   1      37.989  31.171  30.131  1.00  0.00     0.173 A 
ATOM     60  C   UNL A   1      38.941  30.279  32.151  1.00  0.00     0.173 A 
ATOM     61  F   UNL A   1      38.066  31.463  28.824  1.00  0.00    -0.203 F 
ATOM     62  C   UNL A   1      36.838  31.523  30.831  1.00  0.00     0.198 A 
ATOM     63  C   UNL A   1      37.779  30.610  32.842  1.00  0.00     0.198 A 
ATOM     64  F   UNL A   1      39.942  29.685  32.817  1.00  0.00    -0.203 F 
ATOM     65  F   UNL A   1      35.835  32.148  30.199  1.00  0.00    -0.200 F 
ATOM     66  C   UNL A   1      36.731  31.236  32.184  1.00  0.00     0.200 A 
ATOM     67  F   UNL A   1      37.673  30.324  34.148  1.00  0.00    -0.200 F 
ATOM     68  F   UNL A   1      35.620  31.569  32.855  1.00  0.00    -0.200 F 
ENDBRANCH  44  58
BRANCH  45  69
ATOM     69  C   UNL A   1      47.141  27.435  25.811  1.00  0.00     0.064 A 
ATOM     70  C   UNL A   1      48.191  26.781  26.469  1.00  0.00     0.173 A 
ATOM     71  C   UNL A   1      47.277  27.671  24.435  1.00  0.00     0.173 A 
ATOM     72  F   UNL A   1      48.117  26.557  27.789  1.00  0.00    -0.203 F 
ATOM     73  C   UNL A   1      49.341  26.396  25.782  1.00  0.00     0.198 A 
ATOM     74  C   UNL A   1      48.417  27.262  23.744  1.00  0.00     0.198 A 
ATOM     75  F   UNL A   1      46.303  28.298  23.760  1.00  0.00    -0.203 F 
ATOM     76  F   UNL A   1      50.351  25.815  26.445  1.00  0.00    -0.200 F 
ATOM     77  C   UNL A   1      49.450  26.632  24.421  1.00  0.00     0.200 A 
ATOM     78  F   UNL A   1      48.515  27.485  22.427  1.00  0.00    -0.200 F 
ATOM     79  F   UNL A   1      50.557  26.263  23.762  1.00  0.00    -0.200 F 
ENDBRANCH  45  69
BRANCH  57  80
ATOM     80  C   UNL A   1      45.531  33.314  29.172  1.00  0.00     0.064 A 
ATOM     81  C   UNL A   1      45.441  34.414  28.307  1.00  0.00     0.173 A 
ATOM     82  C   UNL A   1      46.340  33.435  30.311  1.00  0.00     0.173 A 
ATOM     83  F   UNL A   1      44.692  34.340  27.196  1.00  0.00    -0.203 F 
ATOM     84  C   UNL A   1      46.154  35.582  28.561  1.00  0.00     0.198 A 
ATOM     85  C   UNL A   1      47.031  34.614  30.576  1.00  0.00     0.198 A 
ATOM     86  F   UNL A   1      46.455  32.412  31.172  1.00  0.00    -0.203 F 
ATOM     87  F   UNL A   1      46.089  36.606  27.699  1.00  0.00    -0.200 F 
ATOM     88  C   UNL A   1      46.943  35.684  29.698  1.00  0.00     0.200 A 
ATOM     89  F   UNL A   1      47.785  34.714  31.679  1.00  0.00    -0.200 F 
ATOM     90  F   UNL A   1      47.625  36.811  29.943  1.00  0.00    -0.200 F 
ENDBRANCH  57  80
ENDBRANCH  31  32
ENDBRANCH  24  26
ENDBRANCH  23  24
ENDBRANCH  22  23
ENDBRANCH   1  22
TORSDOF 15
ENDMDL
MODEL 2
REMARK VINA RESULT:     -11.3      4.682      9.867
REMARK SMILES CSc1ccc(C[NH+]2CCC(CC(=O)OCCOC(=O)c3ccc(-c4c5nc(c(-c6c(F)c(F)c(F)c(F)c6F)c6ccc([nH]6)c(-c6c(F)c(F)c(F)c(F)c6F)c6nc(c(-c7c(F)c(F)c(F)c(F)c7F)c7ccc4[nH]7)C=C6)C=C5)cc3)CC2)cc1
REMARK SMILES IDX 16 1 15 2 13 3 14 4 12 5 11 6 8 7 9 8 85 9 10 11 84 12 7 13
REMARK SMILES IDX 6 14 3 15 4 16 87 17 5 18 86 19 2 20 1 21 17 22 18 23 19 24
REMARK SMILES IDX 20 25 21 26 22 27 83 28 23 29 82 30 24 31 25 32 26 33 76 34
REMARK SMILES IDX 27 35 81 36 75 37 77 38 28 39 80 40 74 41 73 42 29 44 61 45
REMARK SMILES IDX 41 46 60 47 42 48 45 49 59 50 78 51 43 52 44 53 58 55 79 56
REMARK SMILES IDX 46 57 30 58 31 59 39 60 32 61 33 62 37 63 40 64 34 65 35 66
REMARK SMILES IDX 38 67 36 68 62 69 63 70 71 71 64 72 65 73 69 74 72 75 66 76
REMARK SMILES IDX 67 77 70 78 68 79 47 80 48 81 56 82 49 83 50 84 54 85 57 86
REMARK SMILES IDX 51 87 52 88 55 89 53 90
REMARK H PARENT 8 10 77 43 45 54
REMARK Flexibility Score: inf
ROOT
ATOM      1  C   UNL A   1      31.328  29.270  24.829  1.00  0.00     0.274 C 
ENDROOT
BRANCH   1   2
ATOM      2  O   UNL A   1      31.016  29.713  23.494  1.00  0.00    -0.462 OA
BRANCH   2   3
ATOM      3  C   UNL A   1      30.194  28.925  22.760  1.00  0.00     0.306 C 
ATOM      4  O   UNL A   1      29.720  29.228  21.671  1.00  0.00    -0.252 OA
BRANCH   3   5
ATOM      5  C   UNL A   1      29.855  27.629  23.466  1.00  0.00     0.126 C 
BRANCH   5   6
ATOM      6  C   UNL A   1      30.543  26.371  22.911  1.00  0.00     0.011 C 
ATOM      7  N   UNL A   1      32.745  24.452  23.164  1.00  0.00    -0.331 N 
ATOM      8  C   UNL A   1      32.719  25.383  22.034  1.00  0.00     0.262 C 
ATOM      9  C   UNL A   1      31.390  24.053  23.545  1.00  0.00     0.262 C 
ATOM     10  H   UNL A   1      33.140  24.952  23.960  1.00  0.00     0.348 HD
ATOM     11  C   UNL A   1      31.968  26.660  22.412  1.00  0.00     0.066 C 
ATOM     12  C   UNL A   1      30.586  25.277  23.992  1.00  0.00     0.066 C 
BRANCH   7  13
ATOM     13  C   UNL A   1      33.661  23.319  22.962  1.00  0.00     0.299 C 
BRANCH  13  14
ATOM     14  C   UNL A   1      34.894  23.272  23.842  1.00  0.00     0.006 A 
ATOM     15  C   UNL A   1      37.209  23.271  25.457  1.00  0.00     0.007 A 
ATOM     16  C   UNL A   1      37.236  22.717  24.174  1.00  0.00     0.015 A 
ATOM     17  C   UNL A   1      36.016  23.823  25.931  1.00  0.00     0.015 A 
ATOM     18  C   UNL A   1      36.087  22.705  23.378  1.00  0.00     0.011 A 
ATOM     19  C   UNL A   1      34.867  23.819  25.133  1.00  0.00     0.011 A 
BRANCH  15  20
ATOM     20  S   UNL A   1      38.728  23.311  26.395  1.00  0.00    -0.130 SA
ATOM     21  C   UNL A   1      39.366  21.643  26.090  1.00  0.00     0.091 C 
ENDBRANCH  15  20
ENDBRANCH  13  14
ENDBRANCH   7  13
ENDBRANCH   5   6
ENDBRANCH   3   5
ENDBRANCH   2   3
ENDBRANCH   1   2
BRANCH   1  22
ATOM     22  C   UNL A   1      31.607  30.450  25.760  1.00  0.00     0.275 C 
BRANCH  22  23
ATOM     23  O   UNL A   1      32.952  30.404  26.270  1.00  0.00    -0.458 OA
BRANCH  23  24
ATOM     24  C   UNL A   1      33.324  31.466  27.020  1.00  0.00     0.338 C 
ATOM     25  O   UNL A   1      32.702  32.496  27.209  1.00  0.00    -0.246 OA
BRANCH  24  26
ATOM     26  C   UNL A   1      34.590  31.156  27.703  1.00  0.00     0.060 A 
ATOM     27  C   UNL A   1      34.797  29.851  28.161  1.00  0.00     0.016 A 
ATOM     28  C   UNL A   1      35.534  32.154  27.946  1.00  0.00     0.016 A 
ATOM     29  C   UNL A   1      35.955  29.538  28.868  1.00  0.00     0.010 A 
ATOM     30  C   UNL A   1      36.697  31.838  28.657  1.00  0.00     0.010 A 
ATOM     31  C   UNL A   1      36.909  30.532  29.130  1.00  0.00    -0.014 A 
BRANCH  31  32
ATOM     32  C   UNL A   1      38.107  30.215  29.944  1.00  0.00     0.031 A 
ATOM     33  C   UNL A   1      39.177  29.324  29.381  1.00  0.00     0.074 A 
ATOM     34  C   UNL A   1      38.239  30.734  31.178  1.00  0.00     0.049 A 
ATOM     35  N   UNL A   1      40.264  28.870  29.952  1.00  0.00    -0.248 NA
ATOM     36  C   UNL A   1      38.999  28.888  27.987  1.00  0.00     0.031 C 
ATOM     37  C   UNL A   1      37.288  31.642  31.817  1.00  0.00     0.029 A 
ATOM     38  N   UNL A   1      39.227  30.567  32.116  1.00  0.00    -0.354 N 
ATOM     39  C   UNL A   1      40.896  28.091  28.993  1.00  0.00     0.074 A 
ATOM     40  C   UNL A   1      40.059  28.112  27.812  1.00  0.00     0.031 C 
ATOM     41  C   UNL A   1      37.739  31.952  33.044  1.00  0.00     0.029 A 
ATOM     42  C   UNL A   1      38.986  31.234  33.291  1.00  0.00     0.049 A 
ATOM     43  H   UNL A   1      40.030  30.019  31.961  1.00  0.00     0.167 HD
ATOM     44  C   UNL A   1      42.072  27.425  29.089  1.00  0.00     0.037 A 
ATOM     45  C   UNL A   1      39.685  31.245  34.443  1.00  0.00     0.037 A 
ATOM     46  C   UNL A   1      42.903  27.405  30.264  1.00  0.00     0.049 A 
ATOM     47  C   UNL A   1      40.951  30.438  34.544  1.00  0.00     0.074 A 
ATOM     48  C   UNL A   1      44.108  26.752  30.461  1.00  0.00     0.029 A 
ATOM     49  N   UNL A   1      42.612  28.070  31.446  1.00  0.00    -0.354 N 
ATOM     50  N   UNL A   1      41.541  29.701  33.635  1.00  0.00    -0.248 NA
ATOM     51  C   UNL A   1      41.648  30.462  35.840  1.00  0.00     0.031 C 
ATOM     52  C   UNL A   1      44.528  26.996  31.773  1.00  0.00     0.029 A 
ATOM     53  C   UNL A   1      43.608  27.833  32.380  1.00  0.00     0.049 A 
ATOM     54  H   UNL A   1      41.816  28.630  31.598  1.00  0.00     0.167 HD
ATOM     55  C   UNL A   1      42.688  29.198  34.235  1.00  0.00     0.074 A 
ATOM     56  C   UNL A   1      42.718  29.723  35.584  1.00  0.00     0.031 C 
ATOM     57  C   UNL A   1      43.629  28.374  33.715  1.00  0.00     0.037 A 
BRANCH  44  58
ATOM     58  C   UNL A   1      42.524  26.647  27.889  1.00  0.00     0.064 A 
ATOM     59  C   UNL A   1      42.129  25.316  27.686  1.00  0.00     0.173 A 
ATOM     60  C   UNL A   1      43.328  27.251  26.911  1.00  0.00     0.173 A 
ATOM     61  F   UNL A   1      41.370  24.692  28.600  1.00  0.00    -0.203 F 
ATOM     62  C   UNL A   1      42.541  24.611  26.559  1.00  0.00     0.198 A 
ATOM     63  C   UNL A   1      43.718  26.550  25.773  1.00  0.00     0.198 A 
ATOM     64  F   UNL A   1      43.729  28.522  27.055  1.00  0.00    -0.203 F 
ATOM     65  F   UNL A   1      42.183  23.328  26.405  1.00  0.00    -0.200 F 
ATOM     66  C   UNL A   1      43.329  25.230  25.600  1.00  0.00     0.200 A 
ATOM     67  F   UNL A   1      44.471  27.153  24.841  1.00  0.00    -0.200 F 
ATOM     68  F   UNL A   1      43.718  24.552  24.511  1.00  0.00    -0.200 F 
ENDBRANCH  44  58
BRANCH  45  69
ATOM     69  C   UNL A   1      39.198  32.038  35.601  1.00  0.00     0.064 A 
ATOM     70  C   UNL A   1      39.590  33.372  35.777  1.00  0.00     0.173 A 
ATOM     71  C   UNL A   1      38.351  31.472  36.565  1.00  0.00     0.173 A 
ATOM     72  F   UNL A   1      40.421  33.947  34.896  1.00  0.00    -0.203 F 
ATOM     73  C   UNL A   1      39.168  34.104  36.885  1.00  0.00     0.198 A 
ATOM     74  C   UNL A   1      37.908  32.215  37.658  1.00  0.00     0.198 A 
ATOM     75  F   UNL A   1      37.951  30.198  36.445  1.00  0.00    -0.203 F 
ATOM     76  F   UNL A   1      39.597  35.363  37.054  1.00  0.00    -0.200 F 
ATOM     77  C   UNL A   1      38.324  33.528  37.820  1.00  0.00     0.200 A 
ATOM     78  F   UNL A   1      37.086  31.655  38.556  1.00  0.00    -0.200 F 
ATOM     79  F   UNL A   1      37.919  34.232  38.886  1.00  0.00    -0.200 F 
ENDBRANCH  45  69
BRANCH  57  80
ATOM     80  C   UNL A   1      44.794  28.022  34.593  1.00  0.00     0.064 A 
ATOM     81  C   UNL A   1      44.784  26.878  35.403  1.00  0.00     0.173 A 
ATOM     82  C   UNL A   1      45.945  28.823  34.600  1.00  0.00     0.173 A 
ATOM     83  F   UNL A   1      43.699  26.088  35.444  1.00  0.00    -0.203 F 
ATOM     84  C   UNL A   1      45.876  26.560  36.206  1.00  0.00     0.198 A 
ATOM     85  C   UNL A   1      47.046  28.490  35.383  1.00  0.00     0.198 A 
ATOM     86  F   UNL A   1      46.005  29.927  33.838  1.00  0.00    -0.203 F 
ATOM     87  F   UNL A   1      45.829  25.486  37.006  1.00  0.00    -0.200 F 
ATOM     88  C   UNL A   1      47.008  27.363  36.191  1.00  0.00     0.200 A 
ATOM     89  F   UNL A   1      48.142  29.261  35.361  1.00  0.00    -0.200 F 
ATOM     90  F   UNL A   1      48.060  27.054  36.962  1.00  0.00    -0.200 F 
ENDBRANCH  57  80
ENDBRANCH  31  32
ENDBRANCH  24  26
ENDBRANCH  23  24
ENDBRANCH  22  23
ENDBRANCH   1  22
TORSDOF 15
ENDMDL
MODEL 3
REMARK VINA RESULT:     -11.3      4.946      9.398
REMARK SMILES CSc1ccc(C[NH+]2CCC(CC(=O)OCCOC(=O)c3ccc(-c4c5nc(c(-c6c(F)c(F)c(F)c(F)c6F)c6ccc([nH]6)c(-c6c(F)c(F)c(F)c(F)c6F)c6nc(c(-c7c(F)c(F)c(F)c(F)c7F)c7ccc4[nH]7)C=C6)C=C5)cc3)CC2)cc1
REMARK SMILES IDX 16 1 15 2 13 3 14 4 12 5 11 6 8 7 9 8 85 9 10 11 84 12 7 13
REMARK SMILES IDX 6 14 3 15 4 16 87 17 5 18 86 19 2 20 1 21 17 22 18 23 19 24
REMARK SMILES IDX 20 25 21 26 22 27 83 28 23 29 82 30 24 31 25 32 26 33 76 34
REMARK SMILES IDX 27 35 81 36 75 37 77 38 28 39 80 40 74 41 73 42 29 44 61 45
REMARK SMILES IDX 41 46 60 47 42 48 45 49 59 50 78 51 43 52 44 53 58 55 79 56
REMARK SMILES IDX 46 57 30 58 31 59 39 60 32 61 33 62 37 63 40 64 34 65 35 66
REMARK SMILES IDX 38 67 36 68 62 69 63 70 71 71 64 72 65 73 69 74 72 75 66 76
REMARK SMILES IDX 67 77 70 78 68 79 47 80 48 81 56 82 49 83 50 84 54 85 57 86
REMARK SMILES IDX 51 87 52 88 55 89 53 90
REMARK H PARENT 8 10 77 43 45 54
REMARK Flexibility Score: inf
ROOT
ATOM      1  C   UNL A   1      44.183  20.809  25.447  1.00  0.00     0.274 C 
ENDROOT
BRANCH   1   2
ATOM      2  O   UNL A   1      43.025  20.053  25.047  1.00  0.00    -0.462 OA
BRANCH   2   3
ATOM      3  C   UNL A   1      42.471  19.237  25.976  1.00  0.00     0.306 C 
ATOM      4  O   UNL A   1      42.609  18.020  26.011  1.00  0.00    -0.252 OA
BRANCH   3   5
ATOM      5  C   UNL A   1      41.589  19.988  26.951  1.00  0.00     0.126 C 
BRANCH   5   6
ATOM      6  C   UNL A   1      40.730  21.109  26.342  1.00  0.00     0.011 C 
ATOM      7  N   UNL A   1      38.240  22.652  26.471  1.00  0.00    -0.331 N 
ATOM      8  C   UNL A   1      38.458  21.716  25.366  1.00  0.00     0.262 C 
ATOM      9  C   UNL A   1      39.498  23.271  26.890  1.00  0.00     0.262 C 
ATOM     10  H   UNL A   1      37.901  22.109  27.266  1.00  0.00     0.348 HD
ATOM     11  C   UNL A   1      39.390  20.584  25.801  1.00  0.00     0.066 C 
ATOM     12  C   UNL A   1      40.471  22.201  27.394  1.00  0.00     0.066 C 
BRANCH   7  13
ATOM     13  C   UNL A   1      37.162  23.618  26.210  1.00  0.00     0.299 C 
BRANCH  13  14
ATOM     14  C   UNL A   1      36.001  23.135  25.365  1.00  0.00     0.006 A 
ATOM     15  C   UNL A   1      33.794  22.314  23.808  1.00  0.00     0.007 A 
ATOM     16  C   UNL A   1      33.945  21.864  25.124  1.00  0.00     0.015 A 
ATOM     17  C   UNL A   1      34.755  23.174  23.273  1.00  0.00     0.015 A 
ATOM     18  C   UNL A   1      35.044  22.259  25.891  1.00  0.00     0.011 A 
ATOM     19  C   UNL A   1      35.852  23.578  24.043  1.00  0.00     0.011 A 
BRANCH  15  20
ATOM     20  S   UNL A   1      32.334  21.821  22.907  1.00  0.00    -0.130 SA
ATOM     21  C   UNL A   1      32.260  20.056  23.307  1.00  0.00     0.091 C 
ENDBRANCH  15  20
ENDBRANCH  13  14
ENDBRANCH   7  13
ENDBRANCH   5   6
ENDBRANCH   3   5
ENDBRANCH   2   3
ENDBRANCH   1   2
BRANCH   1  22
ATOM     22  C   UNL A   1      44.372  22.050  24.572  1.00  0.00     0.275 C 
BRANCH  22  23
ATOM     23  O   UNL A   1      43.637  23.171  25.094  1.00  0.00    -0.458 OA
BRANCH  23  24
ATOM     24  C   UNL A   1      44.343  24.317  25.224  1.00  0.00     0.338 C 
ATOM     25  O   UNL A   1      45.284  24.691  24.546  1.00  0.00    -0.246 OA
BRANCH  24  26
ATOM     26  C   UNL A   1      43.726  25.149  26.269  1.00  0.00     0.060 A 
ATOM     27  C   UNL A   1      44.007  26.519  26.281  1.00  0.00     0.016 A 
ATOM     28  C   UNL A   1      42.932  24.577  27.263  1.00  0.00     0.016 A 
ATOM     29  C   UNL A   1      43.491  27.326  27.293  1.00  0.00     0.010 A 
ATOM     30  C   UNL A   1      42.416  25.388  28.279  1.00  0.00     0.010 A 
ATOM     31  C   UNL A   1      42.700  26.764  28.305  1.00  0.00    -0.014 A 
BRANCH  31  32
ATOM     32  C   UNL A   1      42.212  27.609  29.421  1.00  0.00     0.031 A 
ATOM     33  C   UNL A   1      42.943  27.607  30.733  1.00  0.00     0.074 A 
ATOM     34  C   UNL A   1      41.125  28.384  29.254  1.00  0.00     0.049 A 
ATOM     35  N   UNL A   1      42.642  28.216  31.852  1.00  0.00    -0.248 NA
ATOM     36  C   UNL A   1      44.179  26.812  30.792  1.00  0.00     0.031 C 
ATOM     37  C   UNL A   1      40.356  28.501  28.016  1.00  0.00     0.029 A 
ATOM     38  N   UNL A   1      40.478  29.216  30.133  1.00  0.00    -0.354 N 
ATOM     39  C   UNL A   1      43.645  27.875  32.748  1.00  0.00     0.074 A 
ATOM     40  C   UNL A   1      44.550  26.984  32.053  1.00  0.00     0.031 C 
ATOM     41  C   UNL A   1      39.339  29.356  28.215  1.00  0.00     0.029 A 
ATOM     42  C   UNL A   1      39.362  29.814  29.601  1.00  0.00     0.049 A 
ATOM     43  H   UNL A   1      40.784  29.368  31.056  1.00  0.00     0.167 HD
ATOM     44  C   UNL A   1      43.800  28.277  34.033  1.00  0.00     0.037 A 
ATOM     45  C   UNL A   1      38.452  30.622  30.178  1.00  0.00     0.037 A 
ATOM     46  C   UNL A   1      42.899  29.163  34.723  1.00  0.00     0.049 A 
ATOM     47  C   UNL A   1      38.610  30.993  31.628  1.00  0.00     0.074 A 
ATOM     48  C   UNL A   1      42.966  29.620  36.028  1.00  0.00     0.029 A 
ATOM     49  N   UNL A   1      41.764  29.726  34.161  1.00  0.00    -0.354 N 
ATOM     50  N   UNL A   1      39.559  30.665  32.471  1.00  0.00    -0.248 NA
ATOM     51  C   UNL A   1      37.564  31.849  32.209  1.00  0.00     0.031 C 
ATOM     52  C   UNL A   1      41.852  30.434  36.265  1.00  0.00     0.029 A 
ATOM     53  C   UNL A   1      41.114  30.516  35.097  1.00  0.00     0.049 A 
ATOM     54  H   UNL A   1      41.463  29.586  33.233  1.00  0.00     0.167 HD
ATOM     55  C   UNL A   1      39.241  31.292  33.668  1.00  0.00     0.074 A 
ATOM     56  C   UNL A   1      38.017  32.031  33.441  1.00  0.00     0.031 C 
ATOM     57  C   UNL A   1      39.903  31.256  34.849  1.00  0.00     0.037 A 
BRANCH  44  58
ATOM     58  C   UNL A   1      44.984  27.745  34.784  1.00  0.00     0.064 A 
ATOM     59  C   UNL A   1      44.923  26.533  35.488  1.00  0.00     0.173 A 
ATOM     60  C   UNL A   1      46.205  28.435  34.767  1.00  0.00     0.173 A 
ATOM     61  F   UNL A   1      43.773  25.843  35.544  1.00  0.00    -0.203 F 
ATOM     62  C   UNL A   1      46.035  26.042  36.167  1.00  0.00     0.198 A 
ATOM     63  C   UNL A   1      47.322  27.929  35.426  1.00  0.00     0.198 A 
ATOM     64  F   UNL A   1      46.318  29.596  34.105  1.00  0.00    -0.203 F 
ATOM     65  F   UNL A   1      45.943  24.901  36.864  1.00  0.00    -0.200 F 
ATOM     66  C   UNL A   1      47.235  26.736  36.129  1.00  0.00     0.200 A 
ATOM     67  F   UNL A   1      48.485  28.595  35.381  1.00  0.00    -0.200 F 
ATOM     68  F   UNL A   1      48.307  26.258  36.776  1.00  0.00    -0.200 F 
ENDBRANCH  44  58
BRANCH  45  69
ATOM     69  C   UNL A   1      37.300  31.127  29.388  1.00  0.00     0.064 A 
ATOM     70  C   UNL A   1      37.244  32.463  28.969  1.00  0.00     0.173 A 
ATOM     71  C   UNL A   1      36.222  30.292  29.058  1.00  0.00     0.173 A 
ATOM     72  F   UNL A   1      38.238  33.306  29.285  1.00  0.00    -0.203 F 
ATOM     73  C   UNL A   1      36.145  32.950  28.264  1.00  0.00     0.198 A 
ATOM     74  C   UNL A   1      35.136  30.774  28.329  1.00  0.00     0.198 A 
ATOM     75  F   UNL A   1      36.225  29.007  29.441  1.00  0.00    -0.203 F 
ATOM     76  F   UNL A   1      36.095  34.244  27.917  1.00  0.00    -0.200 F 
ATOM     77  C   UNL A   1      35.095  32.105  27.941  1.00  0.00     0.200 A 
ATOM     78  F   UNL A   1      34.128  29.952  28.013  1.00  0.00    -0.200 F 
ATOM     79  F   UNL A   1      34.038  32.573  27.265  1.00  0.00    -0.200 F 
ENDBRANCH  45  69
BRANCH  57  80
ATOM     80  C   UNL A   1      39.341  32.073  35.976  1.00  0.00     0.064 A 
ATOM     81  C   UNL A   1      39.743  33.398  36.196  1.00  0.00     0.173 A 
ATOM     82  C   UNL A   1      38.364  31.532  36.825  1.00  0.00     0.173 A 
ATOM     83  F   UNL A   1      40.687  33.954  35.420  1.00  0.00    -0.203 F 
ATOM     84  C   UNL A   1      39.205  34.144  37.240  1.00  0.00     0.198 A 
ATOM     85  C   UNL A   1      37.808  32.289  37.852  1.00  0.00     0.198 A 
ATOM     86  F   UNL A   1      37.942  30.270  36.652  1.00  0.00    -0.203 F 
ATOM     87  F   UNL A   1      39.636  35.394  37.460  1.00  0.00    -0.200 F 
ATOM     88  C   UNL A   1      38.234  33.591  38.063  1.00  0.00     0.200 A 
ATOM     89  F   UNL A   1      36.864  31.757  38.640  1.00  0.00    -0.200 F 
ATOM     90  F   UNL A   1      37.715  34.314  39.066  1.00  0.00    -0.200 F 
ENDBRANCH  57  80
ENDBRANCH  31  32
ENDBRANCH  24  26
ENDBRANCH  23  24
ENDBRANCH  22  23
ENDBRANCH   1  22
TORSDOF 15
ENDMDL
