MODEL 1
REMARK VINA RESULT:     -11.8      0.000      0.000
REMARK SMILES COc1ccc(/C(=C/C(=O)OCCOC(=O)c2ccc(-c3c4nc(c(-c5c(F)c(F)c(F)c(F)c5F)c5ccc([nH]5)c(-c5c(F)c(F)c(F)c(F)c5F)c5nc(c(-c6c(F)c(F)c(F)c(F)c6F)c6ccc3[nH]6)C=C5)C=C4)cc2)C(C)C)cc1C
REMARK SMILES IDX 12 1 11 2 9 3 10 4 8 5 7 6 6 7 3 8 4 9 84 10 5 11 83 12
REMARK SMILES IDX 85 13 2 14 1 15 80 16 81 17 82 18 13 19 14 20 15 21 16 22
REMARK SMILES IDX 17 23 18 24 79 25 19 26 78 27 20 28 21 29 22 30 72 31 23 32
REMARK SMILES IDX 77 33 71 34 73 35 24 36 76 37 70 38 69 39 25 41 57 42 37 43
REMARK SMILES IDX 56 44 38 45 41 46 55 47 74 48 39 49 40 50 54 52 75 53 42 54
REMARK SMILES IDX 26 55 27 56 35 57 28 58 29 59 33 60 36 61 30 62 31 63 34 64
REMARK SMILES IDX 32 65 58 66 59 67 67 68 60 69 61 70 65 71 68 72 62 73 63 74
REMARK SMILES IDX 66 75 64 76 43 77 44 78 52 79 45 80 46 81 50 82 53 83 47 84
REMARK SMILES IDX 48 85 51 86 49 87
REMARK H PARENT 73 40 41 51
REMARK Flexibility Score: inf
ROOT
ATOM      1  C   UNL A   1      31.919  29.751  26.287  1.00  0.00     0.275 C 
ENDROOT
BRANCH   1   2
ATOM      2  O   UNL A   1      32.076  28.498  25.615  1.00  0.00    -0.459 OA
BRANCH   2   3
ATOM      3  C   UNL A   1      31.905  27.392  26.363  1.00  0.00     0.331 C 
ATOM      4  O   UNL A   1      31.071  27.255  27.245  1.00  0.00    -0.247 OA
BRANCH   3   5
ATOM      5  C   UNL A   1      32.951  26.392  26.069  1.00  0.00     0.098 C 
ATOM      6  C   UNL A   1      32.812  25.312  25.262  1.00  0.00    -0.031 C 
BRANCH   6   7
ATOM      7  C   UNL A   1      33.915  24.299  25.267  1.00  0.00    -0.021 A 
ATOM      8  C   UNL A   1      36.067  22.433  25.369  1.00  0.00     0.121 A 
ATOM      9  C   UNL A   1      35.296  22.695  26.497  1.00  0.00     0.047 A 
ATOM     10  C   UNL A   1      35.799  23.128  24.182  1.00  0.00    -0.008 A 
ATOM     11  C   UNL A   1      34.258  23.628  26.446  1.00  0.00     0.012 A 
ATOM     12  C   UNL A   1      34.699  24.017  24.131  1.00  0.00     0.015 A 
ATOM     13  C   UNL A   1      36.651  22.954  22.954  1.00  0.00     0.048 C 
BRANCH   8  14
ATOM     14  O   UNL A   1      37.144  21.586  25.385  1.00  0.00    -0.496 OA
ATOM     15  C   UNL A   1      38.316  22.102  26.009  1.00  0.00     0.278 C 
ENDBRANCH   8  14
ENDBRANCH   6   7
BRANCH   6  16
ATOM     16  C   UNL A   1      31.500  25.037  24.510  1.00  0.00     0.014 C 
ATOM     17  C   UNL A   1      31.457  25.386  23.012  1.00  0.00     0.012 C 
ATOM     18  C   UNL A   1      31.024  23.597  24.737  1.00  0.00     0.012 C 
ENDBRANCH   6  16
ENDBRANCH   3   5
ENDBRANCH   2   3
ENDBRANCH   1   2
BRANCH   1  19
ATOM     19  C   UNL A   1      32.981  30.120  27.353  1.00  0.00     0.275 C 
BRANCH  19  20
ATOM     20  O   UNL A   1      34.427  30.138  27.119  1.00  0.00    -0.458 OA
BRANCH  20  21
ATOM     21  C   UNL A   1      35.346  30.956  27.689  1.00  0.00     0.338 C 
ATOM     22  O   UNL A   1      35.239  32.171  27.737  1.00  0.00    -0.246 OA
BRANCH  21  23
ATOM     23  C   UNL A   1      36.568  30.268  28.140  1.00  0.00     0.060 A 
ATOM     24  C   UNL A   1      36.607  29.541  29.345  1.00  0.00     0.016 A 
ATOM     25  C   UNL A   1      37.629  30.227  27.252  1.00  0.00     0.016 A 
ATOM     26  C   UNL A   1      37.703  28.716  29.611  1.00  0.00     0.010 A 
ATOM     27  C   UNL A   1      38.521  29.205  27.370  1.00  0.00     0.010 A 
ATOM     28  C   UNL A   1      38.645  28.547  28.598  1.00  0.00    -0.014 A 
BRANCH  28  29
ATOM     29  C   UNL A   1      39.979  27.991  28.745  1.00  0.00     0.031 A 
ATOM     30  C   UNL A   1      40.348  26.639  28.333  1.00  0.00     0.074 A 
ATOM     31  C   UNL A   1      40.903  28.949  28.994  1.00  0.00     0.049 A 
ATOM     32  N   UNL A   1      41.322  25.976  28.849  1.00  0.00    -0.248 NA
ATOM     33  C   UNL A   1      39.660  25.928  27.265  1.00  0.00     0.031 C 
ATOM     34  C   UNL A   1      42.340  28.955  28.811  1.00  0.00     0.029 A 
ATOM     35  N   UNL A   1      40.627  30.227  29.512  1.00  0.00    -0.354 N 
ATOM     36  C   UNL A   1      41.597  24.942  27.981  1.00  0.00     0.074 A 
ATOM     37  C   UNL A   1      40.451  24.857  27.105  1.00  0.00     0.031 C 
ATOM     38  C   UNL A   1      42.846  30.009  29.484  1.00  0.00     0.029 A 
ATOM     39  C   UNL A   1      41.753  30.625  30.229  1.00  0.00     0.049 A 
ATOM     40  H   UNL A   1      39.797  30.742  29.392  1.00  0.00     0.167 HD
ATOM     41  C   UNL A   1      42.859  24.420  27.942  1.00  0.00     0.037 A 
ATOM     42  C   UNL A   1      41.618  30.701  31.585  1.00  0.00     0.037 A 
ATOM     43  C   UNL A   1      43.750  25.200  28.800  1.00  0.00     0.049 A 
ATOM     44  C   UNL A   1      42.438  29.632  32.256  1.00  0.00     0.074 A 
ATOM     45  C   UNL A   1      44.625  26.234  28.501  1.00  0.00     0.029 A 
ATOM     46  N   UNL A   1      43.533  25.255  30.172  1.00  0.00    -0.354 N 
ATOM     47  N   UNL A   1      42.788  28.515  31.679  1.00  0.00    -0.248 NA
ATOM     48  C   UNL A   1      42.957  29.755  33.609  1.00  0.00     0.031 C 
ATOM     49  C   UNL A   1      44.894  26.944  29.696  1.00  0.00     0.029 A 
ATOM     50  C   UNL A   1      44.190  26.340  30.724  1.00  0.00     0.049 A 
ATOM     51  H   UNL A   1      42.988  24.611  30.681  1.00  0.00     0.167 HD
ATOM     52  C   UNL A   1      43.592  27.801  32.520  1.00  0.00     0.074 A 
ATOM     53  C   UNL A   1      43.664  28.618  33.719  1.00  0.00     0.031 C 
ATOM     54  C   UNL A   1      44.138  26.602  32.155  1.00  0.00     0.037 A 
BRANCH  41  55
ATOM     55  C   UNL A   1      43.354  23.454  26.889  1.00  0.00     0.064 A 
ATOM     56  C   UNL A   1      43.025  22.079  26.938  1.00  0.00     0.173 A 
ATOM     57  C   UNL A   1      44.143  23.835  25.787  1.00  0.00     0.173 A 
ATOM     58  F   UNL A   1      42.221  21.581  27.883  1.00  0.00    -0.203 F 
ATOM     59  C   UNL A   1      43.513  21.153  26.012  1.00  0.00     0.198 A 
ATOM     60  C   UNL A   1      44.659  22.900  24.877  1.00  0.00     0.198 A 
ATOM     61  F   UNL A   1      44.410  25.125  25.542  1.00  0.00    -0.203 F 
ATOM     62  F   UNL A   1      43.170  19.862  26.122  1.00  0.00    -0.200 F 
ATOM     63  C   UNL A   1      44.349  21.559  24.995  1.00  0.00     0.200 A 
ATOM     64  F   UNL A   1      45.458  23.311  23.882  1.00  0.00    -0.200 F 
ATOM     65  F   UNL A   1      44.835  20.667  24.121  1.00  0.00    -0.200 F 
ENDBRANCH  41  55
BRANCH  42  66
ATOM     66  C   UNL A   1      40.240  31.144  32.003  1.00  0.00     0.064 A 
ATOM     67  C   UNL A   1      39.331  30.157  32.453  1.00  0.00     0.173 A 
ATOM     68  C   UNL A   1      39.936  32.475  32.327  1.00  0.00     0.173 A 
ATOM     69  F   UNL A   1      39.574  28.860  32.198  1.00  0.00    -0.203 F 
ATOM     70  C   UNL A   1      38.247  30.472  33.273  1.00  0.00     0.198 A 
ATOM     71  C   UNL A   1      38.832  32.789  33.132  1.00  0.00     0.198 A 
ATOM     72  F   UNL A   1      40.751  33.468  31.949  1.00  0.00    -0.203 F 
ATOM     73  F   UNL A   1      37.484  29.492  33.779  1.00  0.00    -0.200 F 
ATOM     74  C   UNL A   1      38.009  31.786  33.627  1.00  0.00     0.200 A 
ATOM     75  F   UNL A   1      38.608  34.061  33.493  1.00  0.00    -0.200 F 
ATOM     76  F   UNL A   1      37.012  32.085  34.474  1.00  0.00    -0.200 F 
ENDBRANCH  42  66
BRANCH  54  77
ATOM     77  C   UNL A   1      44.775  25.607  33.088  1.00  0.00     0.064 A 
ATOM     78  C   UNL A   1      44.046  24.749  33.925  1.00  0.00     0.173 A 
ATOM     79  C   UNL A   1      46.173  25.373  33.044  1.00  0.00     0.173 A 
ATOM     80  F   UNL A   1      42.707  24.770  33.957  1.00  0.00    -0.203 F 
ATOM     81  C   UNL A   1      44.672  23.785  34.717  1.00  0.00     0.198 A 
ATOM     82  C   UNL A   1      46.783  24.358  33.774  1.00  0.00     0.198 A 
ATOM     83  F   UNL A   1      46.989  26.100  32.267  1.00  0.00    -0.203 F 
ATOM     84  F   UNL A   1      43.934  23.031  35.544  1.00  0.00    -0.200 F 
ATOM     85  C   UNL A   1      46.035  23.578  34.629  1.00  0.00     0.200 A 
ATOM     86  F   UNL A   1      48.095  24.127  33.624  1.00  0.00    -0.200 F 
ATOM     87  F   UNL A   1      46.622  22.615  35.350  1.00  0.00    -0.200 F 
ENDBRANCH  54  77
ENDBRANCH  28  29
ENDBRANCH  21  23
ENDBRANCH  20  21
ENDBRANCH  19  20
ENDBRANCH   1  19
TORSDOF 14
ENDMDL
MODEL 2
REMARK VINA RESULT:     -11.8      0.570      1.707
REMARK SMILES COc1ccc(/C(=C/C(=O)OCCOC(=O)c2ccc(-c3c4nc(c(-c5c(F)c(F)c(F)c(F)c5F)c5ccc([nH]5)c(-c5c(F)c(F)c(F)c(F)c5F)c5nc(c(-c6c(F)c(F)c(F)c(F)c6F)c6ccc3[nH]6)C=C5)C=C4)cc2)C(C)C)cc1C
REMARK SMILES IDX 12 1 11 2 9 3 10 4 8 5 7 6 6 7 3 8 4 9 84 10 5 11 83 12
REMARK SMILES IDX 85 13 2 14 1 15 80 16 81 17 82 18 13 19 14 20 15 21 16 22
REMARK SMILES IDX 17 23 18 24 79 25 19 26 78 27 20 28 21 29 22 30 72 31 23 32
REMARK SMILES IDX 77 33 71 34 73 35 24 36 76 37 70 38 69 39 25 41 57 42 37 43
REMARK SMILES IDX 56 44 38 45 41 46 55 47 74 48 39 49 40 50 54 52 75 53 42 54
REMARK SMILES IDX 26 55 27 56 35 57 28 58 29 59 33 60 36 61 30 62 31 63 34 64
REMARK SMILES IDX 32 65 58 66 59 67 67 68 60 69 61 70 65 71 68 72 62 73 63 74
REMARK SMILES IDX 66 75 64 76 43 77 44 78 52 79 45 80 46 81 50 82 53 83 47 84
REMARK SMILES IDX 48 85 51 86 49 87
REMARK H PARENT 73 40 41 51
REMARK Flexibility Score: inf
ROOT
ATOM      1  C   UNL A   1      32.048  29.932  26.371  1.00  0.00     0.275 C 
ENDROOT
BRANCH   1   2
ATOM      2  O   UNL A   1      32.518  28.697  25.823  1.00  0.00    -0.459 OA
BRANCH   2   3
ATOM      3  C   UNL A   1      32.251  27.586  26.535  1.00  0.00     0.331 C 
ATOM      4  O   UNL A   1      31.412  27.496  27.420  1.00  0.00    -0.247 OA
BRANCH   3   5
ATOM      5  C   UNL A   1      33.199  26.505  26.198  1.00  0.00     0.098 C 
ATOM      6  C   UNL A   1      32.939  25.443  25.397  1.00  0.00    -0.031 C 
BRANCH   6   7
ATOM      7  C   UNL A   1      33.955  24.343  25.356  1.00  0.00    -0.021 A 
ATOM      8  C   UNL A   1      35.943  22.301  25.378  1.00  0.00     0.121 A 
ATOM      9  C   UNL A   1      35.157  22.543  26.500  1.00  0.00     0.047 A 
ATOM     10  C   UNL A   1      35.774  23.101  24.240  1.00  0.00    -0.008 A 
ATOM     11  C   UNL A   1      34.201  23.561  26.490  1.00  0.00     0.012 A 
ATOM     12  C   UNL A   1      34.753  24.081  24.225  1.00  0.00     0.015 A 
ATOM     13  C   UNL A   1      36.652  22.948  23.026  1.00  0.00     0.048 C 
BRANCH   8  14
ATOM     14  O   UNL A   1      36.946  21.368  25.360  1.00  0.00    -0.496 OA
ATOM     15  C   UNL A   1      38.230  21.845  25.752  1.00  0.00     0.278 C 
ENDBRANCH   8  14
ENDBRANCH   6   7
BRANCH   6  16
ATOM     16  C   UNL A   1      31.579  25.278  24.700  1.00  0.00     0.014 C 
ATOM     17  C   UNL A   1      31.407  25.939  23.321  1.00  0.00     0.012 C 
ATOM     18  C   UNL A   1      31.162  23.803  24.642  1.00  0.00     0.012 C 
ENDBRANCH   6  16
ENDBRANCH   3   5
ENDBRANCH   2   3
ENDBRANCH   1   2
BRANCH   1  19
ATOM     19  C   UNL A   1      33.049  30.757  27.218  1.00  0.00     0.275 C 
BRANCH  19  20
ATOM     20  O   UNL A   1      34.400  30.317  27.575  1.00  0.00    -0.458 OA
BRANCH  20  21
ATOM     21  C   UNL A   1      35.445  31.090  27.962  1.00  0.00     0.338 C 
ATOM     22  O   UNL A   1      35.454  32.308  27.890  1.00  0.00    -0.246 OA
BRANCH  21  23
ATOM     23  C   UNL A   1      36.641  30.328  28.364  1.00  0.00     0.060 A 
ATOM     24  C   UNL A   1      36.622  29.444  29.459  1.00  0.00     0.016 A 
ATOM     25  C   UNL A   1      37.738  30.394  27.523  1.00  0.00     0.016 A 
ATOM     26  C   UNL A   1      37.698  28.575  29.654  1.00  0.00     0.010 A 
ATOM     27  C   UNL A   1      38.615  29.353  27.536  1.00  0.00     0.010 A 
ATOM     28  C   UNL A   1      38.681  28.531  28.666  1.00  0.00    -0.014 A 
BRANCH  28  29
ATOM     29  C   UNL A   1      40.003  27.942  28.790  1.00  0.00     0.031 A 
ATOM     30  C   UNL A   1      40.330  26.581  28.372  1.00  0.00     0.074 A 
ATOM     31  C   UNL A   1      40.955  28.876  29.023  1.00  0.00     0.049 A 
ATOM     32  N   UNL A   1      41.296  25.892  28.871  1.00  0.00    -0.248 NA
ATOM     33  C   UNL A   1      39.606  25.887  27.316  1.00  0.00     0.031 C 
ATOM     34  C   UNL A   1      42.388  28.845  28.815  1.00  0.00     0.029 A 
ATOM     35  N   UNL A   1      40.721  30.160  29.546  1.00  0.00    -0.354 N 
ATOM     36  C   UNL A   1      41.529  24.852  27.999  1.00  0.00     0.074 A 
ATOM     37  C   UNL A   1      40.366  24.797  27.142  1.00  0.00     0.031 C 
ATOM     38  C   UNL A   1      42.933  29.885  29.479  1.00  0.00     0.029 A 
ATOM     39  C   UNL A   1      41.869  30.529  30.244  1.00  0.00     0.049 A 
ATOM     40  H   UNL A   1      39.902  30.696  29.440  1.00  0.00     0.167 HD
ATOM     41  C   UNL A   1      42.776  24.298  27.938  1.00  0.00     0.037 A 
ATOM     42  C   UNL A   1      41.759  30.608  31.602  1.00  0.00     0.037 A 
ATOM     43  C   UNL A   1      43.701  25.055  28.780  1.00  0.00     0.049 A 
ATOM     44  C   UNL A   1      42.563  29.517  32.259  1.00  0.00     0.074 A 
ATOM     45  C   UNL A   1      44.597  26.066  28.466  1.00  0.00     0.029 A 
ATOM     46  N   UNL A   1      43.509  25.114  30.156  1.00  0.00    -0.354 N 
ATOM     47  N   UNL A   1      42.874  28.392  31.676  1.00  0.00    -0.248 NA
ATOM     48  C   UNL A   1      43.108  29.627  33.603  1.00  0.00     0.031 C 
ATOM     49  C   UNL A   1      44.904  26.768  29.657  1.00  0.00     0.029 A 
ATOM     50  C   UNL A   1      44.204  26.182  30.697  1.00  0.00     0.049 A 
ATOM     51  H   UNL A   1      42.957  24.485  30.674  1.00  0.00     0.167 HD
ATOM     52  C   UNL A   1      43.674  27.657  32.503  1.00  0.00     0.074 A 
ATOM     53  C   UNL A   1      43.788  28.471  33.700  1.00  0.00     0.031 C 
ATOM     54  C   UNL A   1      44.182  26.445  32.128  1.00  0.00     0.037 A 
BRANCH  41  55
ATOM     55  C   UNL A   1      43.227  23.320  26.876  1.00  0.00     0.064 A 
ATOM     56  C   UNL A   1      42.932  21.940  26.972  1.00  0.00     0.173 A 
ATOM     57  C   UNL A   1      43.942  23.693  25.722  1.00  0.00     0.173 A 
ATOM     58  F   UNL A   1      42.197  21.446  27.974  1.00  0.00    -0.203 F 
ATOM     59  C   UNL A   1      43.384  21.004  26.038  1.00  0.00     0.198 A 
ATOM     60  C   UNL A   1      44.422  22.750  24.801  1.00  0.00     0.198 A 
ATOM     61  F   UNL A   1      44.165  24.983  25.435  1.00  0.00    -0.203 F 
ATOM     62  F   UNL A   1      43.075  19.710  26.193  1.00  0.00    -0.200 F 
ATOM     63  C   UNL A   1      44.148  21.406  24.964  1.00  0.00     0.200 A 
ATOM     64  F   UNL A   1      45.151  23.156  23.752  1.00  0.00    -0.200 F 
ATOM     65  F   UNL A   1      44.600  20.505  24.081  1.00  0.00    -0.200 F 
ENDBRANCH  41  55
BRANCH  42  66
ATOM     66  C   UNL A   1      40.401  31.085  32.043  1.00  0.00     0.064 A 
ATOM     67  C   UNL A   1      39.993  32.383  31.655  1.00  0.00     0.173 A 
ATOM     68  C   UNL A   1      39.393  30.211  32.475  1.00  0.00     0.173 A 
ATOM     69  F   UNL A   1      40.904  33.264  31.208  1.00  0.00    -0.203 F 
ATOM     70  C   UNL A   1      38.646  32.747  31.596  1.00  0.00     0.198 A 
ATOM     71  C   UNL A   1      38.043  30.588  32.436  1.00  0.00     0.198 A 
ATOM     72  F   UNL A   1      39.693  28.960  32.848  1.00  0.00    -0.203 F 
ATOM     73  F   UNL A   1      38.298  33.944  31.104  1.00  0.00    -0.200 F 
ATOM     74  C   UNL A   1      37.671  31.842  31.969  1.00  0.00     0.200 A 
ATOM     75  F   UNL A   1      37.092  29.707  32.779  1.00  0.00    -0.200 F 
ATOM     76  F   UNL A   1      36.374  32.161  31.844  1.00  0.00    -0.200 F 
ENDBRANCH  42  66
BRANCH  54  77
ATOM     77  C   UNL A   1      44.810  25.433  33.050  1.00  0.00     0.064 A 
ATOM     78  C   UNL A   1      46.188  25.175  33.099  1.00  0.00     0.173 A 
ATOM     79  C   UNL A   1      44.034  24.794  34.050  1.00  0.00     0.173 A 
ATOM     80  F   UNL A   1      47.051  25.818  32.302  1.00  0.00    -0.203 F 
ATOM     81  C   UNL A   1      46.738  24.287  34.025  1.00  0.00     0.198 A 
ATOM     82  C   UNL A   1      44.598  23.972  35.021  1.00  0.00     0.198 A 
ATOM     83  F   UNL A   1      42.707  24.972  34.140  1.00  0.00    -0.203 F 
ATOM     84  F   UNL A   1      48.053  24.030  33.989  1.00  0.00    -0.200 F 
ATOM     85  C   UNL A   1      45.948  23.699  34.994  1.00  0.00     0.200 A 
ATOM     86  F   UNL A   1      43.827  23.467  35.994  1.00  0.00    -0.200 F 
ATOM     87  F   UNL A   1      46.491  22.892  35.913  1.00  0.00    -0.200 F 
ENDBRANCH  54  77
ENDBRANCH  28  29
ENDBRANCH  21  23
ENDBRANCH  20  21
ENDBRANCH  19  20
ENDBRANCH   1  19
TORSDOF 14
ENDMDL
MODEL 3
REMARK VINA RESULT:     -11.6      3.454      9.890
REMARK SMILES COc1ccc(/C(=C/C(=O)OCCOC(=O)c2ccc(-c3c4nc(c(-c5c(F)c(F)c(F)c(F)c5F)c5ccc([nH]5)c(-c5c(F)c(F)c(F)c(F)c5F)c5nc(c(-c6c(F)c(F)c(F)c(F)c6F)c6ccc3[nH]6)C=C5)C=C4)cc2)C(C)C)cc1C
REMARK SMILES IDX 12 1 11 2 9 3 10 4 8 5 7 6 6 7 3 8 4 9 84 10 5 11 83 12
REMARK SMILES IDX 85 13 2 14 1 15 80 16 81 17 82 18 13 19 14 20 15 21 16 22
REMARK SMILES IDX 17 23 18 24 79 25 19 26 78 27 20 28 21 29 22 30 72 31 23 32
REMARK SMILES IDX 77 33 71 34 73 35 24 36 76 37 70 38 69 39 25 41 57 42 37 43
REMARK SMILES IDX 56 44 38 45 41 46 55 47 74 48 39 49 40 50 54 52 75 53 42 54
REMARK SMILES IDX 26 55 27 56 35 57 28 58 29 59 33 60 36 61 30 62 31 63 34 64
REMARK SMILES IDX 32 65 58 66 59 67 67 68 60 69 61 70 65 71 68 72 62 73 63 74
REMARK SMILES IDX 66 75 64 76 43 77 44 78 52 79 45 80 46 81 50 82 53 83 47 84
REMARK SMILES IDX 48 85 51 86 49 87
REMARK H PARENT 73 40 41 51
REMARK Flexibility Score: inf
ROOT
ATOM      1  C   UNL A   1      37.123  22.156  24.867  1.00  0.00     0.275 C 
ENDROOT
BRANCH   1   2
ATOM      2  O   UNL A   1      36.314  20.993  25.067  1.00  0.00    -0.459 OA
BRANCH   2   3
ATOM      3  C   UNL A   1      34.995  21.135  24.835  1.00  0.00     0.331 C 
ATOM      4  O   UNL A   1      34.210  20.222  24.626  1.00  0.00    -0.247 OA
BRANCH   3   5
ATOM      5  C   UNL A   1      34.630  22.562  24.739  1.00  0.00     0.098 C 
ATOM      6  C   UNL A   1      33.700  23.196  25.494  1.00  0.00    -0.031 C 
BRANCH   6   7
ATOM      7  C   UNL A   1      33.317  24.588  25.096  1.00  0.00    -0.021 A 
ATOM      8  C   UNL A   1      32.646  27.219  24.228  1.00  0.00     0.121 A 
ATOM      9  C   UNL A   1      32.265  26.105  23.487  1.00  0.00     0.047 A 
ATOM     10  C   UNL A   1      33.401  27.038  25.394  1.00  0.00    -0.008 A 
ATOM     11  C   UNL A   1      32.618  24.819  23.906  1.00  0.00     0.012 A 
ATOM     12  C   UNL A   1      33.689  25.726  25.839  1.00  0.00     0.015 A 
ATOM     13  C   UNL A   1      33.918  28.206  26.191  1.00  0.00     0.048 C 
BRANCH   8  14
ATOM     14  O   UNL A   1      32.393  28.503  23.822  1.00  0.00    -0.496 OA
ATOM     15  C   UNL A   1      31.277  28.658  22.951  1.00  0.00     0.278 C 
ENDBRANCH   8  14
ENDBRANCH   6   7
BRANCH   6  16
ATOM     16  C   UNL A   1      32.929  22.461  26.603  1.00  0.00     0.014 C 
ATOM     17  C   UNL A   1      33.573  22.414  28.000  1.00  0.00     0.012 C 
ATOM     18  C   UNL A   1      31.483  22.960  26.696  1.00  0.00     0.012 C 
ENDBRANCH   6  16
ENDBRANCH   3   5
ENDBRANCH   2   3
ENDBRANCH   1   2
BRANCH   1  19
ATOM     19  C   UNL A   1      38.284  22.389  25.866  1.00  0.00     0.275 C 
BRANCH  19  20
ATOM     20  O   UNL A   1      38.680  23.697  26.394  1.00  0.00    -0.458 OA
BRANCH  20  21
ATOM     21  C   UNL A   1      39.739  23.980  27.191  1.00  0.00     0.338 C 
ATOM     22  O   UNL A   1      40.489  23.135  27.653  1.00  0.00    -0.246 OA
BRANCH  21  23
ATOM     23  C   UNL A   1      39.845  25.400  27.571  1.00  0.00     0.060 A 
ATOM     24  C   UNL A   1      40.220  26.389  26.643  1.00  0.00     0.016 A 
ATOM     25  C   UNL A   1      39.404  25.745  28.837  1.00  0.00     0.016 A 
ATOM     26  C   UNL A   1      40.077  27.736  26.984  1.00  0.00     0.010 A 
ATOM     27  C   UNL A   1      38.981  27.023  29.038  1.00  0.00     0.010 A 
ATOM     28  C   UNL A   1      39.436  28.034  28.185  1.00  0.00    -0.014 A 
BRANCH  28  29
ATOM     29  C   UNL A   1      39.438  29.315  28.870  1.00  0.00     0.031 A 
ATOM     30  C   UNL A   1      38.391  30.322  28.717  1.00  0.00     0.074 A 
ATOM     31  C   UNL A   1      40.323  29.341  29.894  1.00  0.00     0.049 A 
ATOM     32  N   UNL A   1      38.576  31.581  28.908  1.00  0.00    -0.248 NA
ATOM     33  C   UNL A   1      37.019  29.983  28.365  1.00  0.00     0.031 C 
ATOM     34  C   UNL A   1      40.393  30.186  31.069  1.00  0.00     0.029 A 
ATOM     35  N   UNL A   1      41.428  28.483  30.034  1.00  0.00    -0.354 N 
ATOM     36  C   UNL A   1      37.328  32.147  29.043  1.00  0.00     0.074 A 
ATOM     37  C   UNL A   1      36.399  31.158  28.544  1.00  0.00     0.031 C 
ATOM     38  C   UNL A   1      41.613  30.034  31.625  1.00  0.00     0.029 A 
ATOM     39  C   UNL A   1      42.403  29.187  30.736  1.00  0.00     0.049 A 
ATOM     40  H   UNL A   1      41.499  27.560  29.699  1.00  0.00     0.167 HD
ATOM     41  C   UNL A   1      37.188  33.291  29.775  1.00  0.00     0.037 A 
ATOM     42  C   UNL A   1      43.522  29.540  30.039  1.00  0.00     0.037 A 
ATOM     43  C   UNL A   1      38.459  33.637  30.410  1.00  0.00     0.049 A 
ATOM     44  C   UNL A   1      43.579  31.032  29.854  1.00  0.00     0.074 A 
ATOM     45  C   UNL A   1      38.937  33.383  31.687  1.00  0.00     0.029 A 
ATOM     46  N   UNL A   1      39.567  33.958  29.633  1.00  0.00    -0.354 N 
ATOM     47  N   UNL A   1      42.530  31.808  29.872  1.00  0.00    -0.248 NA
ATOM     48  C   UNL A   1      44.821  31.768  29.675  1.00  0.00     0.031 C 
ATOM     49  C   UNL A   1      40.347  33.502  31.662  1.00  0.00     0.029 A 
ATOM     50  C   UNL A   1      40.729  33.837  30.374  1.00  0.00     0.049 A 
ATOM     51  H   UNL A   1      39.530  34.233  28.688  1.00  0.00     0.167 HD
ATOM     52  C   UNL A   1      42.923  33.110  29.760  1.00  0.00     0.074 A 
ATOM     53  C   UNL A   1      44.368  33.033  29.635  1.00  0.00     0.031 C 
ATOM     54  C   UNL A   1      42.028  34.142  29.791  1.00  0.00     0.037 A 
BRANCH  41  55
ATOM     55  C   UNL A   1      35.861  33.884  30.193  1.00  0.00     0.064 A 
ATOM     56  C   UNL A   1      34.980  34.459  29.247  1.00  0.00     0.173 A 
ATOM     57  C   UNL A   1      35.392  33.893  31.520  1.00  0.00     0.173 A 
ATOM     58  F   UNL A   1      35.254  34.458  27.938  1.00  0.00    -0.203 F 
ATOM     59  C   UNL A   1      33.774  35.065  29.609  1.00  0.00     0.198 A 
ATOM     60  C   UNL A   1      34.197  34.529  31.887  1.00  0.00     0.198 A 
ATOM     61  F   UNL A   1      36.060  33.258  32.493  1.00  0.00    -0.203 F 
ATOM     62  F   UNL A   1      32.990  35.599  28.663  1.00  0.00    -0.200 F 
ATOM     63  C   UNL A   1      33.392  35.120  30.933  1.00  0.00     0.200 A 
ATOM     64  F   UNL A   1      33.829  34.562  33.176  1.00  0.00    -0.200 F 
ATOM     65  F   UNL A   1      32.246  35.721  31.281  1.00  0.00    -0.200 F 
ENDBRANCH  41  55
BRANCH  42  66
ATOM     66  C   UNL A   1      43.905  28.512  29.007  1.00  0.00     0.064 A 
ATOM     67  C   UNL A   1      44.260  27.218  29.456  1.00  0.00     0.173 A 
ATOM     68  C   UNL A   1      43.574  28.639  27.650  1.00  0.00     0.173 A 
ATOM     69  F   UNL A   1      44.566  27.020  30.749  1.00  0.00    -0.203 F 
ATOM     70  C   UNL A   1      44.179  26.100  28.624  1.00  0.00     0.198 A 
ATOM     71  C   UNL A   1      43.515  27.516  26.812  1.00  0.00     0.198 A 
ATOM     72  F   UNL A   1      43.214  29.827  27.148  1.00  0.00    -0.203 F 
ATOM     73  F   UNL A   1      44.404  24.876  29.124  1.00  0.00    -0.200 F 
ATOM     74  C   UNL A   1      43.788  26.248  27.306  1.00  0.00     0.200 A 
ATOM     75  F   UNL A   1      43.119  27.652  25.538  1.00  0.00    -0.200 F 
ATOM     76  F   UNL A   1      43.638  25.169  26.524  1.00  0.00    -0.200 F 
ENDBRANCH  42  66
BRANCH  54  77
ATOM     77  C   UNL A   1      42.311  35.563  29.380  1.00  0.00     0.064 A 
ATOM     78  C   UNL A   1      43.151  36.427  30.098  1.00  0.00     0.173 A 
ATOM     79  C   UNL A   1      41.858  36.053  28.129  1.00  0.00     0.173 A 
ATOM     80  F   UNL A   1      43.758  36.038  31.227  1.00  0.00    -0.203 F 
ATOM     81  C   UNL A   1      43.452  37.710  29.641  1.00  0.00     0.198 A 
ATOM     82  C   UNL A   1      42.225  37.303  27.641  1.00  0.00     0.198 A 
ATOM     83  F   UNL A   1      41.070  35.324  27.325  1.00  0.00    -0.203 F 
ATOM     84  F   UNL A   1      44.211  38.518  30.395  1.00  0.00    -0.200 F 
ATOM     85  C   UNL A   1      43.003  38.142  28.408  1.00  0.00     0.200 A 
ATOM     86  F   UNL A   1      41.838  37.677  26.413  1.00  0.00    -0.200 F 
ATOM     87  F   UNL A   1      43.341  39.354  27.950  1.00  0.00    -0.200 F 
ENDBRANCH  54  77
ENDBRANCH  28  29
ENDBRANCH  21  23
ENDBRANCH  20  21
ENDBRANCH  19  20
ENDBRANCH   1  19
TORSDOF 14
ENDMDL
