MODEL 1
REMARK VINA RESULT:     -11.3      0.000      0.000
REMARK SMILES O=C(OCCOC(=O)c1ccn(CC(F)(F)F)c1)c1ccc(-c2c3nc(c(-c4c(F)c(F)c(F)c(F)c4F)c4ccc([nH]4)c(-c4c(F)c(F)c(F)c(F)c4F)c4nc(c(-c5c(F)c(F)c(F)c(F)c5F)c5ccc2[nH]5)C=C4)C=C3)cc1
REMARK SMILES IDX 4 1 3 2 2 3 1 4 19 5 20 6 81 7 21 8 80 9 22 10 23 11 24 12
REMARK SMILES IDX 74 13 25 14 79 15 73 16 75 17 26 18 78 19 72 20 71 21 27 23
REMARK SMILES IDX 59 24 39 25 58 26 40 27 43 28 57 29 76 30 41 31 42 32 56 34
REMARK SMILES IDX 77 35 44 36 28 37 29 38 37 39 30 40 31 41 35 42 38 43 32 44
REMARK SMILES IDX 33 45 36 46 34 47 60 48 61 49 69 50 62 51 63 52 67 53 70 54
REMARK SMILES IDX 64 55 65 56 68 57 66 58 45 59 46 60 54 61 47 62 48 63 52 64
REMARK SMILES IDX 55 65 49 66 50 67 53 68 51 69 5 70 6 71 7 72 8 73 9 74 10 75
REMARK SMILES IDX 18 76 11 77 12 78 13 79 14 80 15 81 16 82 17 83
REMARK H PARENT 75 22 43 33
REMARK Flexibility Score: inf
ROOT
ATOM      1  C   UNL A   1      41.384  22.152  27.160  1.00  0.00     0.275 C 
ENDROOT
BRANCH   1   2
ATOM      2  O   UNL A   1      40.057  22.632  27.457  1.00  0.00    -0.458 OA
BRANCH   2   3
ATOM      3  C   UNL A   1      39.452  23.704  26.892  1.00  0.00     0.338 C 
ATOM      4  O   UNL A   1      38.531  23.560  26.095  1.00  0.00    -0.246 OA
BRANCH   3   5
ATOM      5  C   UNL A   1      39.681  25.051  27.479  1.00  0.00     0.060 A 
ATOM      6  C   UNL A   1      39.375  25.418  28.791  1.00  0.00     0.016 A 
ATOM      7  C   UNL A   1      40.254  26.006  26.620  1.00  0.00     0.016 A 
ATOM      8  C   UNL A   1      39.450  26.748  29.181  1.00  0.00     0.010 A 
ATOM      9  C   UNL A   1      40.405  27.327  27.025  1.00  0.00     0.010 A 
ATOM     10  C   UNL A   1      39.958  27.701  28.292  1.00  0.00    -0.014 A 
BRANCH  10  11
ATOM     11  C   UNL A   1      40.250  29.050  28.809  1.00  0.00     0.031 A 
ATOM     12  C   UNL A   1      38.920  29.883  28.916  1.00  0.00     0.074 A 
ATOM     13  C   UNL A   1      41.578  29.292  29.078  1.00  0.00     0.049 A 
ATOM     14  N   UNL A   1      38.719  31.126  29.233  1.00  0.00    -0.248 NA
ATOM     15  C   UNL A   1      37.605  29.220  28.642  1.00  0.00     0.031 C 
ATOM     16  C   UNL A   1      42.692  28.311  28.949  1.00  0.00     0.029 A 
ATOM     17  N   UNL A   1      42.280  30.400  29.503  1.00  0.00    -0.354 N 
ATOM     18  C   UNL A   1      37.322  31.324  29.412  1.00  0.00     0.074 A 
ATOM     19  C   UNL A   1      36.685  30.134  28.962  1.00  0.00     0.031 C 
ATOM     20  C   UNL A   1      43.898  28.892  29.163  1.00  0.00     0.029 A 
ATOM     21  C   UNL A   1      43.709  30.292  29.479  1.00  0.00     0.049 A 
ATOM     22  H   UNL A   1      41.827  31.219  29.805  1.00  0.00     0.167 HD
ATOM     23  C   UNL A   1      36.796  32.437  30.006  1.00  0.00     0.037 A 
ATOM     24  C   UNL A   1      44.639  31.292  29.653  1.00  0.00     0.037 A 
ATOM     25  C   UNL A   1      37.815  33.409  30.165  1.00  0.00     0.049 A 
ATOM     26  C   UNL A   1      43.821  32.412  30.116  1.00  0.00     0.074 A 
ATOM     27  C   UNL A   1      38.374  34.237  29.232  1.00  0.00     0.029 A 
ATOM     28  N   UNL A   1      38.641  33.299  31.252  1.00  0.00    -0.354 N 
ATOM     29  N   UNL A   1      43.289  32.484  31.297  1.00  0.00    -0.248 NA
ATOM     30  C   UNL A   1      43.442  33.440  29.143  1.00  0.00     0.031 C 
ATOM     31  C   UNL A   1      39.740  34.104  29.520  1.00  0.00     0.029 A 
ATOM     32  C   UNL A   1      39.910  33.567  30.801  1.00  0.00     0.049 A 
ATOM     33  H   UNL A   1      38.377  33.074  32.174  1.00  0.00     0.167 HD
ATOM     34  C   UNL A   1      42.260  33.363  31.089  1.00  0.00     0.074 A 
ATOM     35  C   UNL A   1      42.596  34.126  29.904  1.00  0.00     0.031 C 
ATOM     36  C   UNL A   1      41.022  33.084  31.570  1.00  0.00     0.037 A 
BRANCH  23  37
ATOM     37  C   UNL A   1      35.472  32.798  30.619  1.00  0.00     0.064 A 
ATOM     38  C   UNL A   1      34.746  33.864  30.024  1.00  0.00     0.173 A 
ATOM     39  C   UNL A   1      35.204  32.537  31.967  1.00  0.00     0.173 A 
ATOM     40  F   UNL A   1      34.878  34.134  28.715  1.00  0.00    -0.203 F 
ATOM     41  C   UNL A   1      33.983  34.748  30.782  1.00  0.00     0.198 A 
ATOM     42  C   UNL A   1      34.385  33.396  32.713  1.00  0.00     0.198 A 
ATOM     43  F   UNL A   1      35.827  31.535  32.602  1.00  0.00    -0.203 F 
ATOM     44  F   UNL A   1      33.485  35.857  30.216  1.00  0.00    -0.200 F 
ATOM     45  C   UNL A   1      33.827  34.528  32.136  1.00  0.00     0.200 A 
ATOM     46  F   UNL A   1      34.216  33.178  34.025  1.00  0.00    -0.200 F 
ATOM     47  F   UNL A   1      33.172  35.423  32.889  1.00  0.00    -0.200 F 
ENDBRANCH  23  37
BRANCH  24  48
ATOM     48  C   UNL A   1      46.113  31.613  29.440  1.00  0.00     0.064 A 
ATOM     49  C   UNL A   1      46.755  31.827  28.217  1.00  0.00     0.173 A 
ATOM     50  C   UNL A   1      46.951  31.856  30.577  1.00  0.00     0.173 A 
ATOM     51  F   UNL A   1      46.151  31.507  27.067  1.00  0.00    -0.203 F 
ATOM     52  C   UNL A   1      48.056  32.378  28.146  1.00  0.00     0.198 A 
ATOM     53  C   UNL A   1      48.202  32.469  30.510  1.00  0.00     0.198 A 
ATOM     54  F   UNL A   1      46.576  31.515  31.818  1.00  0.00    -0.203 F 
ATOM     55  F   UNL A   1      48.635  32.574  26.952  1.00  0.00    -0.200 F 
ATOM     56  C   UNL A   1      48.750  32.753  29.287  1.00  0.00     0.200 A 
ATOM     57  F   UNL A   1      48.842  32.801  31.642  1.00  0.00    -0.200 F 
ATOM     58  F   UNL A   1      49.938  33.370  29.212  1.00  0.00    -0.200 F 
ENDBRANCH  24  48
BRANCH  36  59
ATOM     59  C   UNL A   1      40.977  32.052  32.684  1.00  0.00     0.064 A 
ATOM     60  C   UNL A   1      41.580  32.348  33.916  1.00  0.00     0.173 A 
ATOM     61  C   UNL A   1      40.440  30.756  32.562  1.00  0.00     0.173 A 
ATOM     62  F   UNL A   1      42.097  33.568  34.127  1.00  0.00    -0.203 F 
ATOM     63  C   UNL A   1      41.653  31.409  34.949  1.00  0.00     0.198 A 
ATOM     64  C   UNL A   1      40.509  29.814  33.594  1.00  0.00     0.198 A 
ATOM     65  F   UNL A   1      39.822  30.371  31.446  1.00  0.00    -0.203 F 
ATOM     66  F   UNL A   1      42.235  31.740  36.109  1.00  0.00    -0.200 F 
ATOM     67  C   UNL A   1      41.119  30.142  34.788  1.00  0.00     0.200 A 
ATOM     68  F   UNL A   1      39.970  28.595  33.432  1.00  0.00    -0.200 F 
ATOM     69  F   UNL A   1      41.172  29.250  35.788  1.00  0.00    -0.200 F 
ENDBRANCH  36  59
ENDBRANCH  10  11
ENDBRANCH   3   5
ENDBRANCH   2   3
ENDBRANCH   1   2
BRANCH   1  70
ATOM     70  C   UNL A   1      41.469  20.630  27.031  1.00  0.00     0.275 C 
BRANCH  70  71
ATOM     71  O   UNL A   1      41.870  20.227  25.712  1.00  0.00    -0.458 OA
BRANCH  71  72
ATOM     72  C   UNL A   1      42.819  19.245  25.650  1.00  0.00     0.339 C 
ATOM     73  O   UNL A   1      42.598  18.044  25.800  1.00  0.00    -0.246 OA
BRANCH  72  74
ATOM     74  C   UNL A   1      44.122  19.782  25.312  1.00  0.00     0.077 A 
ATOM     75  C   UNL A   1      45.361  19.089  25.247  1.00  0.00     0.035 A 
ATOM     76  C   UNL A   1      44.391  21.097  24.966  1.00  0.00     0.101 A 
ATOM     77  C   UNL A   1      46.324  19.990  24.845  1.00  0.00     0.087 A 
ATOM     78  N   UNL A   1      45.733  21.222  24.723  1.00  0.00    -0.344 N 
BRANCH  78  79
ATOM     79  C   UNL A   1      46.390  22.430  24.258  1.00  0.00     0.236 C 
BRANCH  79  80
ATOM     80  C   UNL A   1      46.222  23.632  25.160  1.00  0.00     0.406 C 
ATOM     81  F   UNL A   1      45.024  24.240  25.027  1.00  0.00    -0.169 F 
ATOM     82  F   UNL A   1      46.330  23.262  26.459  1.00  0.00    -0.169 F 
ATOM     83  F   UNL A   1      47.184  24.550  24.929  1.00  0.00    -0.169 F 
ENDBRANCH  79  80
ENDBRANCH  78  79
ENDBRANCH  72  74
ENDBRANCH  71  72
ENDBRANCH  70  71
ENDBRANCH   1  70
TORSDOF 13
ENDMDL
MODEL 2
REMARK VINA RESULT:     -11.3      4.823     11.371
REMARK SMILES O=C(OCCOC(=O)c1ccn(CC(F)(F)F)c1)c1ccc(-c2c3nc(c(-c4c(F)c(F)c(F)c(F)c4F)c4ccc([nH]4)c(-c4c(F)c(F)c(F)c(F)c4F)c4nc(c(-c5c(F)c(F)c(F)c(F)c5F)c5ccc2[nH]5)C=C4)C=C3)cc1
REMARK SMILES IDX 4 1 3 2 2 3 1 4 19 5 20 6 81 7 21 8 80 9 22 10 23 11 24 12
REMARK SMILES IDX 74 13 25 14 79 15 73 16 75 17 26 18 78 19 72 20 71 21 27 23
REMARK SMILES IDX 59 24 39 25 58 26 40 27 43 28 57 29 76 30 41 31 42 32 56 34
REMARK SMILES IDX 77 35 44 36 28 37 29 38 37 39 30 40 31 41 35 42 38 43 32 44
REMARK SMILES IDX 33 45 36 46 34 47 60 48 61 49 69 50 62 51 63 52 67 53 70 54
REMARK SMILES IDX 64 55 65 56 68 57 66 58 45 59 46 60 54 61 47 62 48 63 52 64
REMARK SMILES IDX 55 65 49 66 50 67 53 68 51 69 5 70 6 71 7 72 8 73 9 74 10 75
REMARK SMILES IDX 18 76 11 77 12 78 13 79 14 80 15 81 16 82 17 83
REMARK H PARENT 75 22 43 33
REMARK Flexibility Score: inf
ROOT
ATOM      1  C   UNL A   1      34.240  29.123  26.705  1.00  0.00     0.275 C 
ENDROOT
BRANCH   1   2
ATOM      2  O   UNL A   1      35.000  29.557  27.851  1.00  0.00    -0.458 OA
BRANCH   2   3
ATOM      3  C   UNL A   1      36.139  30.288  27.821  1.00  0.00     0.338 C 
ATOM      4  O   UNL A   1      36.101  31.514  27.807  1.00  0.00    -0.246 OA
BRANCH   3   5
ATOM      5  C   UNL A   1      37.431  29.620  28.132  1.00  0.00     0.060 A 
ATOM      6  C   UNL A   1      38.560  29.633  27.310  1.00  0.00     0.016 A 
ATOM      7  C   UNL A   1      37.489  28.934  29.358  1.00  0.00     0.016 A 
ATOM      8  C   UNL A   1      39.648  28.822  27.604  1.00  0.00     0.010 A 
ATOM      9  C   UNL A   1      38.603  28.177  29.698  1.00  0.00     0.010 A 
ATOM     10  C   UNL A   1      39.663  28.090  28.795  1.00  0.00    -0.014 A 
BRANCH  10  11
ATOM     11  C   UNL A   1      40.920  27.432  29.193  1.00  0.00     0.031 A 
ATOM     12  C   UNL A   1      40.989  25.987  28.575  1.00  0.00     0.074 A 
ATOM     13  C   UNL A   1      41.741  28.191  29.996  1.00  0.00     0.049 A 
ATOM     14  N   UNL A   1      41.859  25.037  28.734  1.00  0.00    -0.248 NA
ATOM     15  C   UNL A   1      39.929  25.538  27.618  1.00  0.00     0.031 C 
ATOM     16  C   UNL A   1      41.493  29.596  30.426  1.00  0.00     0.029 A 
ATOM     17  N   UNL A   1      42.943  27.955  30.629  1.00  0.00    -0.354 N 
ATOM     18  C   UNL A   1      41.594  24.021  27.774  1.00  0.00     0.074 A 
ATOM     19  C   UNL A   1      40.351  24.353  27.167  1.00  0.00     0.031 C 
ATOM     20  C   UNL A   1      42.422  30.018  31.318  1.00  0.00     0.029 A 
ATOM     21  C   UNL A   1      43.386  28.963  31.545  1.00  0.00     0.049 A 
ATOM     22  H   UNL A   1      43.468  27.140  30.460  1.00  0.00     0.167 HD
ATOM     23  C   UNL A   1      42.475  23.015  27.489  1.00  0.00     0.037 A 
ATOM     24  C   UNL A   1      44.425  28.894  32.446  1.00  0.00     0.037 A 
ATOM     25  C   UNL A   1      43.519  23.021  28.446  1.00  0.00     0.049 A 
ATOM     26  C   UNL A   1      45.107  27.662  32.054  1.00  0.00     0.074 A 
ATOM     27  C   UNL A   1      43.511  22.576  29.738  1.00  0.00     0.029 A 
ATOM     28  N   UNL A   1      44.557  23.895  28.256  1.00  0.00    -0.354 N 
ATOM     29  N   UNL A   1      45.822  27.537  30.978  1.00  0.00    -0.248 NA
ATOM     30  C   UNL A   1      44.841  26.448  32.830  1.00  0.00     0.031 C 
ATOM     31  C   UNL A   1      44.146  23.633  30.405  1.00  0.00     0.029 A 
ATOM     32  C   UNL A   1      44.842  24.429  29.489  1.00  0.00     0.049 A 
ATOM     33  H   UNL A   1      45.008  24.099  27.406  1.00  0.00     0.167 HD
ATOM     34  C   UNL A   1      45.795  26.182  30.779  1.00  0.00     0.074 A 
ATOM     35  C   UNL A   1      45.483  25.578  32.059  1.00  0.00     0.031 C 
ATOM     36  C   UNL A   1      45.538  25.684  29.543  1.00  0.00     0.037 A 
BRANCH  23  37
ATOM     37  C   UNL A   1      42.647  22.031  26.365  1.00  0.00     0.064 A 
ATOM     38  C   UNL A   1      42.100  20.733  26.545  1.00  0.00     0.173 A 
ATOM     39  C   UNL A   1      43.715  22.139  25.468  1.00  0.00     0.173 A 
ATOM     40  F   UNL A   1      41.022  20.548  27.325  1.00  0.00    -0.203 F 
ATOM     41  C   UNL A   1      42.723  19.595  26.041  1.00  0.00     0.198 A 
ATOM     42  C   UNL A   1      44.302  20.993  24.914  1.00  0.00     0.198 A 
ATOM     43  F   UNL A   1      44.278  23.329  25.221  1.00  0.00    -0.203 F 
ATOM     44  F   UNL A   1      42.292  18.378  26.405  1.00  0.00    -0.200 F 
ATOM     45  C   UNL A   1      43.845  19.725  25.247  1.00  0.00     0.200 A 
ATOM     46  F   UNL A   1      45.381  21.114  24.128  1.00  0.00    -0.200 F 
ATOM     47  F   UNL A   1      44.504  18.634  24.834  1.00  0.00    -0.200 F 
ENDBRANCH  23  37
BRANCH  24  48
ATOM     48  C   UNL A   1      44.990  29.580  33.683  1.00  0.00     0.064 A 
ATOM     49  C   UNL A   1      46.166  30.333  33.760  1.00  0.00     0.173 A 
ATOM     50  C   UNL A   1      44.220  29.598  34.891  1.00  0.00     0.173 A 
ATOM     51  F   UNL A   1      47.060  30.301  32.765  1.00  0.00    -0.203 F 
ATOM     52  C   UNL A   1      46.458  31.144  34.882  1.00  0.00     0.198 A 
ATOM     53  C   UNL A   1      44.466  30.452  35.965  1.00  0.00     0.198 A 
ATOM     54  F   UNL A   1      43.173  28.780  35.073  1.00  0.00    -0.203 F 
ATOM     55  F   UNL A   1      47.594  31.856  34.914  1.00  0.00    -0.200 F 
ATOM     56  C   UNL A   1      45.581  31.248  35.952  1.00  0.00     0.200 A 
ATOM     57  F   UNL A   1      43.596  30.509  36.985  1.00  0.00    -0.200 F 
ATOM     58  F   UNL A   1      45.811  32.097  36.964  1.00  0.00    -0.200 F 
ENDBRANCH  24  48
BRANCH  36  59
ATOM     59  C   UNL A   1      45.749  26.656  28.395  1.00  0.00     0.064 A 
ATOM     60  C   UNL A   1      47.046  27.112  28.115  1.00  0.00     0.173 A 
ATOM     61  C   UNL A   1      44.721  27.220  27.615  1.00  0.00     0.173 A 
ATOM     62  F   UNL A   1      48.088  26.610  28.795  1.00  0.00    -0.203 F 
ATOM     63  C   UNL A   1      47.296  28.075  27.133  1.00  0.00     0.198 A 
ATOM     64  C   UNL A   1      44.967  28.182  26.629  1.00  0.00     0.198 A 
ATOM     65  F   UNL A   1      43.453  26.846  27.775  1.00  0.00    -0.203 F 
ATOM     66  F   UNL A   1      48.553  28.475  26.898  1.00  0.00    -0.200 F 
ATOM     67  C   UNL A   1      46.258  28.611  26.390  1.00  0.00     0.200 A 
ATOM     68  F   UNL A   1      43.953  28.680  25.904  1.00  0.00    -0.200 F 
ATOM     69  F   UNL A   1      46.503  29.519  25.434  1.00  0.00    -0.200 F 
ENDBRANCH  36  59
ENDBRANCH  10  11
ENDBRANCH   3   5
ENDBRANCH   2   3
ENDBRANCH   1   2
BRANCH   1  70
ATOM     70  C   UNL A   1      32.906  28.466  27.070  1.00  0.00     0.275 C 
BRANCH  70  71
ATOM     71  O   UNL A   1      32.692  27.249  26.337  1.00  0.00    -0.458 OA
BRANCH  71  72
ATOM     72  C   UNL A   1      31.396  26.977  25.998  1.00  0.00     0.339 C 
ATOM     73  O   UNL A   1      30.558  26.491  26.757  1.00  0.00    -0.246 OA
BRANCH  72  74
ATOM     74  C   UNL A   1      31.098  27.400  24.644  1.00  0.00     0.077 A 
ATOM     75  C   UNL A   1      31.326  26.686  23.437  1.00  0.00     0.035 A 
ATOM     76  C   UNL A   1      30.504  28.599  24.284  1.00  0.00     0.101 A 
ATOM     77  C   UNL A   1      30.848  27.457  22.399  1.00  0.00     0.087 A 
ATOM     78  N   UNL A   1      30.393  28.642  22.920  1.00  0.00    -0.344 N 
BRANCH  78  79
ATOM     79  C   UNL A   1      29.751  29.703  22.165  1.00  0.00     0.236 C 
BRANCH  79  80
ATOM     80  C   UNL A   1      28.300  29.944  22.515  1.00  0.00     0.406 C 
ATOM     81  F   UNL A   1      27.611  30.581  21.544  1.00  0.00    -0.169 F 
ATOM     82  F   UNL A   1      27.667  28.765  22.731  1.00  0.00    -0.169 F 
ATOM     83  F   UNL A   1      28.188  30.666  23.650  1.00  0.00    -0.169 F 
ENDBRANCH  79  80
ENDBRANCH  78  79
ENDBRANCH  72  74
ENDBRANCH  71  72
ENDBRANCH  70  71
ENDBRANCH   1  70
TORSDOF 13
ENDMDL
MODEL 3
REMARK VINA RESULT:     -11.2      3.799     11.292
REMARK SMILES O=C(OCCOC(=O)c1ccn(CC(F)(F)F)c1)c1ccc(-c2c3nc(c(-c4c(F)c(F)c(F)c(F)c4F)c4ccc([nH]4)c(-c4c(F)c(F)c(F)c(F)c4F)c4nc(c(-c5c(F)c(F)c(F)c(F)c5F)c5ccc2[nH]5)C=C4)C=C3)cc1
REMARK SMILES IDX 4 1 3 2 2 3 1 4 19 5 20 6 81 7 21 8 80 9 22 10 23 11 24 12
REMARK SMILES IDX 74 13 25 14 79 15 73 16 75 17 26 18 78 19 72 20 71 21 27 23
REMARK SMILES IDX 59 24 39 25 58 26 40 27 43 28 57 29 76 30 41 31 42 32 56 34
REMARK SMILES IDX 77 35 44 36 28 37 29 38 37 39 30 40 31 41 35 42 38 43 32 44
REMARK SMILES IDX 33 45 36 46 34 47 60 48 61 49 69 50 62 51 63 52 67 53 70 54
REMARK SMILES IDX 64 55 65 56 68 57 66 58 45 59 46 60 54 61 47 62 48 63 52 64
REMARK SMILES IDX 55 65 49 66 50 67 53 68 51 69 5 70 6 71 7 72 8 73 9 74 10 75
REMARK SMILES IDX 18 76 11 77 12 78 13 79 14 80 15 81 16 82 17 83
REMARK H PARENT 75 22 43 33
REMARK Flexibility Score: inf
ROOT
ATOM      1  C   UNL A   1      35.192  32.793  28.008  1.00  0.00     0.275 C 
ENDROOT
BRANCH   1   2
ATOM      2  O   UNL A   1      35.409  31.546  28.700  1.00  0.00    -0.458 OA
BRANCH   2   3
ATOM      3  C   UNL A   1      35.712  30.359  28.125  1.00  0.00     0.338 C 
ATOM      4  O   UNL A   1      35.054  29.929  27.183  1.00  0.00    -0.246 OA
BRANCH   3   5
ATOM      5  C   UNL A   1      37.029  29.733  28.416  1.00  0.00     0.060 A 
ATOM      6  C   UNL A   1      38.164  29.839  27.610  1.00  0.00     0.016 A 
ATOM      7  C   UNL A   1      37.105  28.986  29.606  1.00  0.00     0.016 A 
ATOM      8  C   UNL A   1      39.284  29.062  27.874  1.00  0.00     0.010 A 
ATOM      9  C   UNL A   1      38.249  28.262  29.919  1.00  0.00     0.010 A 
ATOM     10  C   UNL A   1      39.320  28.270  29.025  1.00  0.00    -0.014 A 
BRANCH  10  11
ATOM     11  C   UNL A   1      40.601  27.647  29.403  1.00  0.00     0.031 A 
ATOM     12  C   UNL A   1      40.785  26.287  28.635  1.00  0.00     0.074 A 
ATOM     13  C   UNL A   1      41.342  28.359  30.320  1.00  0.00     0.049 A 
ATOM     14  N   UNL A   1      41.708  25.378  28.726  1.00  0.00    -0.248 NA
ATOM     15  C   UNL A   1      39.792  25.885  27.589  1.00  0.00     0.031 C 
ATOM     16  C   UNL A   1      40.988  29.689  30.889  1.00  0.00     0.029 A 
ATOM     17  N   UNL A   1      42.533  28.126  30.974  1.00  0.00    -0.354 N 
ATOM     18  C   UNL A   1      41.544  24.462  27.651  1.00  0.00     0.074 A 
ATOM     19  C   UNL A   1      40.305  24.786  27.031  1.00  0.00     0.031 C 
ATOM     20  C   UNL A   1      41.856  30.064  31.862  1.00  0.00     0.029 A 
ATOM     21  C   UNL A   1      42.876  29.049  32.014  1.00  0.00     0.049 A 
ATOM     22  H   UNL A   1      43.114  27.367  30.741  1.00  0.00     0.167 HD
ATOM     23  C   UNL A   1      42.497  23.549  27.296  1.00  0.00     0.037 A 
ATOM     24  C   UNL A   1      43.884  28.943  32.946  1.00  0.00     0.037 A 
ATOM     25  C   UNL A   1      43.503  23.510  28.293  1.00  0.00     0.049 A 
ATOM     26  C   UNL A   1      44.657  27.804  32.452  1.00  0.00     0.074 A 
ATOM     27  C   UNL A   1      43.476  22.923  29.527  1.00  0.00     0.029 A 
ATOM     28  N   UNL A   1      44.489  24.460  28.245  1.00  0.00    -0.354 N 
ATOM     29  N   UNL A   1      45.417  27.844  31.401  1.00  0.00    -0.248 NA
ATOM     30  C   UNL A   1      44.441  26.498  33.079  1.00  0.00     0.031 C 
ATOM     31  C   UNL A   1      44.017  23.935  30.332  1.00  0.00     0.029 A 
ATOM     32  C   UNL A   1      44.694  24.869  29.540  1.00  0.00     0.049 A 
ATOM     33  H   UNL A   1      44.958  24.785  27.442  1.00  0.00     0.167 HD
ATOM     34  C   UNL A   1      45.485  26.520  31.054  1.00  0.00     0.074 A 
ATOM     35  C   UNL A   1      45.166  25.759  32.245  1.00  0.00     0.031 C 
ATOM     36  C   UNL A   1      45.305  26.149  29.761  1.00  0.00     0.037 A 
BRANCH  23  37
ATOM     37  C   UNL A   1      42.774  22.709  26.080  1.00  0.00     0.064 A 
ATOM     38  C   UNL A   1      42.775  21.298  26.249  1.00  0.00     0.173 A 
ATOM     39  C   UNL A   1      43.522  23.210  25.010  1.00  0.00     0.173 A 
ATOM     40  F   UNL A   1      42.020  20.722  27.198  1.00  0.00    -0.203 F 
ATOM     41  C   UNL A   1      43.645  20.473  25.541  1.00  0.00     0.198 A 
ATOM     42  C   UNL A   1      44.352  22.365  24.260  1.00  0.00     0.198 A 
ATOM     43  F   UNL A   1      43.560  24.526  24.764  1.00  0.00    -0.203 F 
ATOM     44  F   UNL A   1      43.761  19.179  25.875  1.00  0.00    -0.200 F 
ATOM     45  C   UNL A   1      44.456  21.015  24.564  1.00  0.00     0.200 A 
ATOM     46  F   UNL A   1      45.130  22.882  23.298  1.00  0.00    -0.200 F 
ATOM     47  F   UNL A   1      45.361  20.245  23.942  1.00  0.00    -0.200 F 
ENDBRANCH  23  37
BRANCH  24  48
ATOM     48  C   UNL A   1      44.358  29.518  34.275  1.00  0.00     0.064 A 
ATOM     49  C   UNL A   1      45.613  30.070  34.548  1.00  0.00     0.173 A 
ATOM     50  C   UNL A   1      43.427  29.651  35.356  1.00  0.00     0.173 A 
ATOM     51  F   UNL A   1      46.630  29.901  33.696  1.00  0.00    -0.203 F 
ATOM     52  C   UNL A   1      45.858  30.814  35.726  1.00  0.00     0.198 A 
ATOM     53  C   UNL A   1      43.642  30.446  36.481  1.00  0.00     0.198 A 
ATOM     54  F   UNL A   1      42.248  29.013  35.356  1.00  0.00    -0.203 F 
ATOM     55  F   UNL A   1      47.075  31.333  35.948  1.00  0.00    -0.200 F 
ATOM     56  C   UNL A   1      44.858  31.051  36.658  1.00  0.00     0.200 A 
ATOM     57  F   UNL A   1      42.648  30.635  37.363  1.00  0.00    -0.200 F 
ATOM     58  F   UNL A   1      45.065  31.843  37.719  1.00  0.00    -0.200 F 
ENDBRANCH  24  48
BRANCH  36  59
ATOM     59  C   UNL A   1      45.496  27.254  28.736  1.00  0.00     0.064 A 
ATOM     60  C   UNL A   1      46.767  27.827  28.577  1.00  0.00     0.173 A 
ATOM     61  C   UNL A   1      44.466  27.829  27.968  1.00  0.00     0.173 A 
ATOM     62  F   UNL A   1      47.811  27.327  29.254  1.00  0.00    -0.203 F 
ATOM     63  C   UNL A   1      46.989  28.907  27.718  1.00  0.00     0.198 A 
ATOM     64  C   UNL A   1      44.684  28.909  27.105  1.00  0.00     0.198 A 
ATOM     65  F   UNL A   1      43.223  27.352  28.019  1.00  0.00    -0.203 F 
ATOM     66  F   UNL A   1      48.222  29.417  27.595  1.00  0.00    -0.200 F 
ATOM     67  C   UNL A   1      45.949  29.449  26.983  1.00  0.00     0.200 A 
ATOM     68  F   UNL A   1      43.670  29.412  26.384  1.00  0.00    -0.200 F 
ATOM     69  F   UNL A   1      46.169  30.472  26.144  1.00  0.00    -0.200 F 
ENDBRANCH  36  59
ENDBRANCH  10  11
ENDBRANCH   3   5
ENDBRANCH   2   3
ENDBRANCH   1   2
BRANCH   1  70
ATOM     70  C   UNL A   1      34.728  33.928  28.925  1.00  0.00     0.275 C 
BRANCH  70  71
ATOM     71  O   UNL A   1      34.082  33.430  30.108  1.00  0.00    -0.458 OA
BRANCH  71  72
ATOM     72  C   UNL A   1      34.022  34.294  31.164  1.00  0.00     0.339 C 
ATOM     73  O   UNL A   1      33.163  35.163  31.314  1.00  0.00    -0.246 OA
BRANCH  72  74
ATOM     74  C   UNL A   1      35.059  34.020  32.139  1.00  0.00     0.077 A 
ATOM     75  C   UNL A   1      35.662  34.928  33.050  1.00  0.00     0.035 A 
ATOM     76  C   UNL A   1      35.646  32.786  32.370  1.00  0.00     0.101 A 
ATOM     77  C   UNL A   1      36.567  34.218  33.811  1.00  0.00     0.087 A 
ATOM     78  N   UNL A   1      36.585  32.924  33.357  1.00  0.00    -0.344 N 
BRANCH  78  79
ATOM     79  C   UNL A   1      37.359  31.839  33.934  1.00  0.00     0.236 C 
BRANCH  79  80
ATOM     80  C   UNL A   1      37.750  30.750  32.961  1.00  0.00     0.406 C 
ATOM     81  F   UNL A   1      38.154  31.222  31.762  1.00  0.00    -0.169 F 
ATOM     82  F   UNL A   1      38.778  30.022  33.460  1.00  0.00    -0.169 F 
ATOM     83  F   UNL A   1      36.726  29.896  32.751  1.00  0.00    -0.169 F 
ENDBRANCH  79  80
ENDBRANCH  78  79
ENDBRANCH  72  74
ENDBRANCH  71  72
ENDBRANCH  70  71
ENDBRANCH   1  70
TORSDOF 13
ENDMDL
