MODEL 1
REMARK VINA RESULT:     -11.6      0.000      0.000
REMARK SMILES O=C(OCCOC(=O)c1oc2cccc3c2c1CCC3)c1ccc(-c2c3nc(c(-c4c(F)c(F)c(F)c(F)c4F)c4ccc([nH]4)c(-c4c(F)c(F)c(F)c(F)c4F)c4nc(c(-c5c(F)c(F)c(F)c(F)c5F)c5ccc2[nH]5)C=C4)C=C3)cc1
REMARK SMILES IDX 4 1 3 2 2 3 1 4 21 5 22 6 83 7 23 8 82 9 24 10 25 11 26 12
REMARK SMILES IDX 76 13 27 14 81 15 75 16 77 17 28 18 80 19 74 20 73 21 29 23
REMARK SMILES IDX 61 24 41 25 60 26 42 27 45 28 59 29 78 30 43 31 44 32 58 34
REMARK SMILES IDX 79 35 46 36 30 37 31 38 39 39 32 40 33 41 37 42 40 43 34 44
REMARK SMILES IDX 35 45 38 46 36 47 62 48 63 49 71 50 64 51 65 52 69 53 72 54
REMARK SMILES IDX 66 55 67 56 70 57 68 58 47 59 48 60 56 61 49 62 50 63 54 64
REMARK SMILES IDX 57 65 51 66 52 67 55 68 53 69 5 70 6 71 7 72 8 73 9 74 10 75
REMARK SMILES IDX 17 76 11 77 16 78 18 79 12 80 15 81 19 82 13 83 14 84 20 85
REMARK H PARENT 77 22 45 33
REMARK Flexibility Score: inf
ROOT
ATOM      1  C   UNL A   1      40.717  20.570  27.063  1.00  0.00     0.275 C 
ENDROOT
BRANCH   1   2
ATOM      2  O   UNL A   1      40.641  21.960  27.450  1.00  0.00    -0.458 OA
BRANCH   2   3
ATOM      3  C   UNL A   1      39.771  22.771  26.807  1.00  0.00     0.338 C 
ATOM      4  O   UNL A   1      38.842  22.376  26.122  1.00  0.00    -0.246 OA
BRANCH   3   5
ATOM      5  C   UNL A   1      39.974  24.195  27.174  1.00  0.00     0.060 A 
ATOM      6  C   UNL A   1      39.536  24.694  28.403  1.00  0.00     0.016 A 
ATOM      7  C   UNL A   1      40.615  25.048  26.262  1.00  0.00     0.016 A 
ATOM      8  C   UNL A   1      39.709  26.035  28.706  1.00  0.00     0.010 A 
ATOM      9  C   UNL A   1      40.775  26.403  26.559  1.00  0.00     0.010 A 
ATOM     10  C   UNL A   1      40.310  26.894  27.779  1.00  0.00    -0.014 A 
BRANCH  10  11
ATOM     11  C   UNL A   1      40.444  28.285  28.196  1.00  0.00     0.031 A 
ATOM     12  C   UNL A   1      41.681  28.999  27.781  1.00  0.00     0.074 A 
ATOM     13  C   UNL A   1      39.538  28.941  28.943  1.00  0.00     0.049 A 
ATOM     14  N   UNL A   1      42.627  29.461  28.537  1.00  0.00    -0.248 NA
ATOM     15  C   UNL A   1      41.897  29.214  26.345  1.00  0.00     0.031 C 
ATOM     16  C   UNL A   1      38.154  28.569  29.229  1.00  0.00     0.029 A 
ATOM     17  N   UNL A   1      39.684  30.148  29.569  1.00  0.00    -0.354 N 
ATOM     18  C   UNL A   1      43.494  30.155  27.695  1.00  0.00     0.074 A 
ATOM     19  C   UNL A   1      43.037  29.909  26.350  1.00  0.00     0.031 C 
ATOM     20  C   UNL A   1      37.534  29.613  29.828  1.00  0.00     0.029 A 
ATOM     21  C   UNL A   1      38.510  30.660  30.088  1.00  0.00     0.049 A 
ATOM     22  H   UNL A   1      40.550  30.611  29.642  1.00  0.00     0.167 HD
ATOM     23  C   UNL A   1      44.432  31.015  28.183  1.00  0.00     0.037 A 
ATOM     24  C   UNL A   1      38.346  31.878  30.655  1.00  0.00     0.037 A 
ATOM     25  C   UNL A   1      44.735  30.743  29.564  1.00  0.00     0.049 A 
ATOM     26  C   UNL A   1      39.669  32.350  31.133  1.00  0.00     0.074 A 
ATOM     27  C   UNL A   1      45.236  29.661  30.261  1.00  0.00     0.029 A 
ATOM     28  N   UNL A   1      44.281  31.613  30.520  1.00  0.00    -0.354 N 
ATOM     29  N   UNL A   1      40.314  31.848  32.149  1.00  0.00    -0.248 NA
ATOM     30  C   UNL A   1      40.442  33.242  30.282  1.00  0.00     0.031 C 
ATOM     31  C   UNL A   1      44.638  29.733  31.554  1.00  0.00     0.029 A 
ATOM     32  C   UNL A   1      43.810  30.856  31.560  1.00  0.00     0.049 A 
ATOM     33  H   UNL A   1      44.290  32.595  30.470  1.00  0.00     0.167 HD
ATOM     34  C   UNL A   1      41.651  32.034  31.843  1.00  0.00     0.074 A 
ATOM     35  C   UNL A   1      41.663  33.020  30.772  1.00  0.00     0.031 C 
ATOM     36  C   UNL A   1      42.603  31.163  32.288  1.00  0.00     0.037 A 
BRANCH  23  37
ATOM     37  C   UNL A   1      44.864  32.299  27.509  1.00  0.00     0.064 A 
ATOM     38  C   UNL A   1      46.129  32.361  26.884  1.00  0.00     0.173 A 
ATOM     39  C   UNL A   1      44.233  33.544  27.716  1.00  0.00     0.173 A 
ATOM     40  F   UNL A   1      46.831  31.244  26.644  1.00  0.00    -0.203 F 
ATOM     41  C   UNL A   1      46.750  33.576  26.580  1.00  0.00     0.198 A 
ATOM     42  C   UNL A   1      44.833  34.753  27.359  1.00  0.00     0.198 A 
ATOM     43  F   UNL A   1      43.065  33.650  28.362  1.00  0.00    -0.203 F 
ATOM     44  F   UNL A   1      48.006  33.583  26.114  1.00  0.00    -0.200 F 
ATOM     45  C   UNL A   1      46.104  34.772  26.825  1.00  0.00     0.200 A 
ATOM     46  F   UNL A   1      44.196  35.905  27.615  1.00  0.00    -0.200 F 
ATOM     47  F   UNL A   1      46.721  35.939  26.595  1.00  0.00    -0.200 F 
ENDBRANCH  23  37
BRANCH  24  48
ATOM     48  C   UNL A   1      37.156  32.757  30.632  1.00  0.00     0.064 A 
ATOM     49  C   UNL A   1      36.795  33.458  29.469  1.00  0.00     0.173 A 
ATOM     50  C   UNL A   1      36.195  32.715  31.660  1.00  0.00     0.173 A 
ATOM     51  F   UNL A   1      37.633  33.511  28.423  1.00  0.00    -0.203 F 
ATOM     52  C   UNL A   1      35.538  34.054  29.332  1.00  0.00     0.198 A 
ATOM     53  C   UNL A   1      34.946  33.321  31.528  1.00  0.00     0.198 A 
ATOM     54  F   UNL A   1      36.410  32.003  32.776  1.00  0.00    -0.203 F 
ATOM     55  F   UNL A   1      35.204  34.652  28.180  1.00  0.00    -0.200 F 
ATOM     56  C   UNL A   1      34.611  33.976  30.358  1.00  0.00     0.200 A 
ATOM     57  F   UNL A   1      34.047  33.210  32.516  1.00  0.00    -0.200 F 
ATOM     58  F   UNL A   1      33.385  34.494  30.205  1.00  0.00    -0.200 F 
ENDBRANCH  24  48
BRANCH  36  59
ATOM     59  C   UNL A   1      42.242  30.245  33.417  1.00  0.00     0.064 A 
ATOM     60  C   UNL A   1      41.692  28.966  33.235  1.00  0.00     0.173 A 
ATOM     61  C   UNL A   1      42.604  30.619  34.719  1.00  0.00     0.173 A 
ATOM     62  F   UNL A   1      41.420  28.501  32.009  1.00  0.00    -0.203 F 
ATOM     63  C   UNL A   1      41.472  28.119  34.319  1.00  0.00     0.198 A 
ATOM     64  C   UNL A   1      42.418  29.755  35.795  1.00  0.00     0.198 A 
ATOM     65  F   UNL A   1      43.190  31.807  34.942  1.00  0.00    -0.203 F 
ATOM     66  F   UNL A   1      40.937  26.904  34.124  1.00  0.00    -0.200 F 
ATOM     67  C   UNL A   1      41.843  28.510  35.596  1.00  0.00     0.200 A 
ATOM     68  F   UNL A   1      42.825  30.117  37.020  1.00  0.00    -0.200 F 
ATOM     69  F   UNL A   1      41.674  27.676  36.632  1.00  0.00    -0.200 F 
ENDBRANCH  36  59
ENDBRANCH  10  11
ENDBRANCH   3   5
ENDBRANCH   2   3
ENDBRANCH   1   2
BRANCH   1  70
ATOM     70  C   UNL A   1      41.865  20.168  26.142  1.00  0.00     0.275 C 
BRANCH  70  71
ATOM     71  O   UNL A   1      42.383  21.335  25.486  1.00  0.00    -0.456 OA
BRANCH  71  72
ATOM     72  C   UNL A   1      43.717  21.568  25.667  1.00  0.00     0.374 C 
ATOM     73  O   UNL A   1      44.625  20.874  25.232  1.00  0.00    -0.242 OA
BRANCH  72  74
ATOM     74  C   UNL A   1      43.872  22.684  26.555  1.00  0.00     0.216 A 
ATOM     75  O   UNL A   1      43.562  22.546  27.896  1.00  0.00    -0.449 OA
ATOM     76  C   UNL A   1      44.254  23.983  26.295  1.00  0.00     0.014 A 
ATOM     77  C   UNL A   1      43.712  23.780  28.471  1.00  0.00     0.135 A 
ATOM     78  C   UNL A   1      44.116  24.672  27.508  1.00  0.00     0.028 A 
ATOM     79  C   UNL A   1      44.678  24.726  25.080  1.00  0.00     0.041 C 
ATOM     80  C   UNL A   1      43.493  24.164  29.788  1.00  0.00     0.048 A 
ATOM     81  C   UNL A   1      44.292  26.032  27.753  1.00  0.00    -0.037 A 
ATOM     82  C   UNL A   1      44.304  26.231  25.222  1.00  0.00     0.010 C 
ATOM     83  C   UNL A   1      43.698  25.531  30.065  1.00  0.00     0.004 A 
ATOM     84  C   UNL A   1      44.090  26.452  29.071  1.00  0.00     0.004 A 
ATOM     85  C   UNL A   1      44.704  26.887  26.584  1.00  0.00     0.036 C 
ENDBRANCH  72  74
ENDBRANCH  71  72
ENDBRANCH  70  71
ENDBRANCH   1  70
TORSDOF 11
ENDMDL
MODEL 2
REMARK VINA RESULT:     -11.5      0.460      1.236
REMARK SMILES O=C(OCCOC(=O)c1oc2cccc3c2c1CCC3)c1ccc(-c2c3nc(c(-c4c(F)c(F)c(F)c(F)c4F)c4ccc([nH]4)c(-c4c(F)c(F)c(F)c(F)c4F)c4nc(c(-c5c(F)c(F)c(F)c(F)c5F)c5ccc2[nH]5)C=C4)C=C3)cc1
REMARK SMILES IDX 4 1 3 2 2 3 1 4 21 5 22 6 83 7 23 8 82 9 24 10 25 11 26 12
REMARK SMILES IDX 76 13 27 14 81 15 75 16 77 17 28 18 80 19 74 20 73 21 29 23
REMARK SMILES IDX 61 24 41 25 60 26 42 27 45 28 59 29 78 30 43 31 44 32 58 34
REMARK SMILES IDX 79 35 46 36 30 37 31 38 39 39 32 40 33 41 37 42 40 43 34 44
REMARK SMILES IDX 35 45 38 46 36 47 62 48 63 49 71 50 64 51 65 52 69 53 72 54
REMARK SMILES IDX 66 55 67 56 70 57 68 58 47 59 48 60 56 61 49 62 50 63 54 64
REMARK SMILES IDX 57 65 51 66 52 67 55 68 53 69 5 70 6 71 7 72 8 73 9 74 10 75
REMARK SMILES IDX 17 76 11 77 16 78 18 79 12 80 15 81 19 82 13 83 14 84 20 85
REMARK H PARENT 77 22 45 33
REMARK Flexibility Score: inf
ROOT
ATOM      1  C   UNL A   1      40.597  20.563  26.879  1.00  0.00     0.275 C 
ENDROOT
BRANCH   1   2
ATOM      2  O   UNL A   1      40.388  21.900  27.386  1.00  0.00    -0.458 OA
BRANCH   2   3
ATOM      3  C   UNL A   1      39.583  22.741  26.699  1.00  0.00     0.338 C 
ATOM      4  O   UNL A   1      38.681  22.379  25.962  1.00  0.00    -0.246 OA
BRANCH   3   5
ATOM      5  C   UNL A   1      39.814  24.157  27.082  1.00  0.00     0.060 A 
ATOM      6  C   UNL A   1      39.419  24.641  28.332  1.00  0.00     0.016 A 
ATOM      7  C   UNL A   1      40.437  25.017  26.165  1.00  0.00     0.016 A 
ATOM      8  C   UNL A   1      39.617  25.974  28.651  1.00  0.00     0.010 A 
ATOM      9  C   UNL A   1      40.621  26.366  26.478  1.00  0.00     0.010 A 
ATOM     10  C   UNL A   1      40.199  26.842  27.720  1.00  0.00    -0.014 A 
BRANCH  10  11
ATOM     11  C   UNL A   1      40.361  28.224  28.155  1.00  0.00     0.031 A 
ATOM     12  C   UNL A   1      41.609  28.921  27.741  1.00  0.00     0.074 A 
ATOM     13  C   UNL A   1      39.472  28.887  28.916  1.00  0.00     0.049 A 
ATOM     14  N   UNL A   1      42.568  29.355  28.497  1.00  0.00    -0.248 NA
ATOM     15  C   UNL A   1      41.820  29.151  26.307  1.00  0.00     0.031 C 
ATOM     16  C   UNL A   1      38.083  28.537  29.206  1.00  0.00     0.029 A 
ATOM     17  N   UNL A   1      39.645  30.082  29.557  1.00  0.00    -0.354 N 
ATOM     18  C   UNL A   1      43.442  30.044  27.659  1.00  0.00     0.074 A 
ATOM     19  C   UNL A   1      42.973  29.824  26.315  1.00  0.00     0.031 C 
ATOM     20  C   UNL A   1      37.487  29.584  29.823  1.00  0.00     0.029 A 
ATOM     21  C   UNL A   1      38.484  30.609  30.091  1.00  0.00     0.049 A 
ATOM     22  H   UNL A   1      40.519  30.528  29.631  1.00  0.00     0.167 HD
ATOM     23  C   UNL A   1      44.400  30.879  28.153  1.00  0.00     0.037 A 
ATOM     24  C   UNL A   1      38.345  31.822  30.675  1.00  0.00     0.037 A 
ATOM     25  C   UNL A   1      44.706  30.583  29.528  1.00  0.00     0.049 A 
ATOM     26  C   UNL A   1      39.680  32.262  31.151  1.00  0.00     0.074 A 
ATOM     27  C   UNL A   1      45.191  29.483  30.208  1.00  0.00     0.029 A 
ATOM     28  N   UNL A   1      44.274  31.448  30.500  1.00  0.00    -0.354 N 
ATOM     29  N   UNL A   1      40.321  31.735  32.156  1.00  0.00    -0.248 NA
ATOM     30  C   UNL A   1      40.465  33.152  30.307  1.00  0.00     0.031 C 
ATOM     31  C   UNL A   1      44.602  29.548  31.505  1.00  0.00     0.029 A 
ATOM     32  C   UNL A   1      43.795  30.686  31.532  1.00  0.00     0.049 A 
ATOM     33  H   UNL A   1      44.300  32.431  30.462  1.00  0.00     0.167 HD
ATOM     34  C   UNL A   1      41.660  31.900  31.844  1.00  0.00     0.074 A 
ATOM     35  C   UNL A   1      41.684  32.901  30.786  1.00  0.00     0.031 C 
ATOM     36  C   UNL A   1      42.598  31.006  32.272  1.00  0.00     0.037 A 
BRANCH  23  37
ATOM     37  C   UNL A   1      44.851  32.165  27.494  1.00  0.00     0.064 A 
ATOM     38  C   UNL A   1      46.115  32.213  26.866  1.00  0.00     0.173 A 
ATOM     39  C   UNL A   1      44.242  33.418  27.718  1.00  0.00     0.173 A 
ATOM     40  F   UNL A   1      46.798  31.087  26.611  1.00  0.00    -0.203 F 
ATOM     41  C   UNL A   1      46.756  33.421  26.576  1.00  0.00     0.198 A 
ATOM     42  C   UNL A   1      44.861  34.621  27.375  1.00  0.00     0.198 A 
ATOM     43  F   UNL A   1      43.078  33.535  28.368  1.00  0.00    -0.203 F 
ATOM     44  F   UNL A   1      48.011  33.413  26.106  1.00  0.00    -0.200 F 
ATOM     45  C   UNL A   1      46.131  34.624  26.838  1.00  0.00     0.200 A 
ATOM     46  F   UNL A   1      44.244  35.779  27.646  1.00  0.00    -0.200 F 
ATOM     47  F   UNL A   1      46.767  35.784  26.620  1.00  0.00    -0.200 F 
ENDBRANCH  23  37
BRANCH  24  48
ATOM     48  C   UNL A   1      37.172  32.723  30.672  1.00  0.00     0.064 A 
ATOM     49  C   UNL A   1      36.813  33.441  29.518  1.00  0.00     0.173 A 
ATOM     50  C   UNL A   1      36.221  32.690  31.710  1.00  0.00     0.173 A 
ATOM     51  F   UNL A   1      37.641  33.487  28.464  1.00  0.00    -0.203 F 
ATOM     52  C   UNL A   1      35.565  34.061  29.399  1.00  0.00     0.198 A 
ATOM     53  C   UNL A   1      34.982  33.321  31.595  1.00  0.00     0.198 A 
ATOM     54  F   UNL A   1      36.434  31.965  32.817  1.00  0.00    -0.203 F 
ATOM     55  F   UNL A   1      35.231  34.674  28.256  1.00  0.00    -0.200 F 
ATOM     56  C   UNL A   1      34.648  33.992  30.434  1.00  0.00     0.200 A 
ATOM     57  F   UNL A   1      34.091  33.218  32.591  1.00  0.00    -0.200 F 
ATOM     58  F   UNL A   1      33.430  34.534  30.298  1.00  0.00    -0.200 F 
ENDBRANCH  24  48
BRANCH  36  59
ATOM     59  C   UNL A   1      42.227  30.080  33.390  1.00  0.00     0.064 A 
ATOM     60  C   UNL A   1      41.643  28.818  33.195  1.00  0.00     0.173 A 
ATOM     61  C   UNL A   1      42.614  30.423  34.694  1.00  0.00     0.173 A 
ATOM     62  F   UNL A   1      41.346  28.379  31.965  1.00  0.00    -0.203 F 
ATOM     63  C   UNL A   1      41.415  27.959  34.268  1.00  0.00     0.198 A 
ATOM     64  C   UNL A   1      42.417  29.547  35.758  1.00  0.00     0.198 A 
ATOM     65  F   UNL A   1      43.232  31.592  34.928  1.00  0.00    -0.203 F 
ATOM     66  F   UNL A   1      40.847  26.761  34.061  1.00  0.00    -0.200 F 
ATOM     67  C   UNL A   1      41.810  28.321  35.546  1.00  0.00     0.200 A 
ATOM     68  F   UNL A   1      42.848  29.879  36.983  1.00  0.00    -0.200 F 
ATOM     69  F   UNL A   1      41.632  27.474  36.571  1.00  0.00    -0.200 F 
ENDBRANCH  36  59
ENDBRANCH  10  11
ENDBRANCH   3   5
ENDBRANCH   2   3
ENDBRANCH   1   2
BRANCH   1  70
ATOM     70  C   UNL A   1      42.008  20.204  26.426  1.00  0.00     0.275 C 
BRANCH  70  71
ATOM     71  O   UNL A   1      42.481  21.198  25.503  1.00  0.00    -0.456 OA
BRANCH  71  72
ATOM     72  C   UNL A   1      43.823  21.447  25.545  1.00  0.00     0.374 C 
ATOM     73  O   UNL A   1      44.706  20.612  25.410  1.00  0.00    -0.242 OA
BRANCH  72  74
ATOM     74  C   UNL A   1      44.024  22.823  25.899  1.00  0.00     0.216 A 
ATOM     75  O   UNL A   1      44.673  23.672  25.022  1.00  0.00    -0.449 OA
ATOM     76  C   UNL A   1      43.710  23.500  27.058  1.00  0.00     0.014 A 
ATOM     77  C   UNL A   1      44.804  24.880  25.655  1.00  0.00     0.135 A 
ATOM     78  C   UNL A   1      44.239  24.788  26.903  1.00  0.00     0.028 A 
ATOM     79  C   UNL A   1      43.043  23.135  28.335  1.00  0.00     0.041 C 
ATOM     80  C   UNL A   1      45.410  26.044  25.201  1.00  0.00     0.048 A 
ATOM     81  C   UNL A   1      44.267  25.828  27.831  1.00  0.00    -0.037 A 
ATOM     82  C   UNL A   1      43.583  24.030  29.489  1.00  0.00     0.010 C 
ATOM     83  C   UNL A   1      45.419  27.120  26.114  1.00  0.00     0.004 A 
ATOM     84  C   UNL A   1      44.860  27.019  27.405  1.00  0.00     0.004 A 
ATOM     85  C   UNL A   1      43.634  25.561  29.171  1.00  0.00     0.036 C 
ENDBRANCH  72  74
ENDBRANCH  71  72
ENDBRANCH  70  71
ENDBRANCH   1  70
TORSDOF 11
ENDMDL
MODEL 3
REMARK VINA RESULT:     -11.5      0.962      1.973
REMARK SMILES O=C(OCCOC(=O)c1oc2cccc3c2c1CCC3)c1ccc(-c2c3nc(c(-c4c(F)c(F)c(F)c(F)c4F)c4ccc([nH]4)c(-c4c(F)c(F)c(F)c(F)c4F)c4nc(c(-c5c(F)c(F)c(F)c(F)c5F)c5ccc2[nH]5)C=C4)C=C3)cc1
REMARK SMILES IDX 4 1 3 2 2 3 1 4 21 5 22 6 83 7 23 8 82 9 24 10 25 11 26 12
REMARK SMILES IDX 76 13 27 14 81 15 75 16 77 17 28 18 80 19 74 20 73 21 29 23
REMARK SMILES IDX 61 24 41 25 60 26 42 27 45 28 59 29 78 30 43 31 44 32 58 34
REMARK SMILES IDX 79 35 46 36 30 37 31 38 39 39 32 40 33 41 37 42 40 43 34 44
REMARK SMILES IDX 35 45 38 46 36 47 62 48 63 49 71 50 64 51 65 52 69 53 72 54
REMARK SMILES IDX 66 55 67 56 70 57 68 58 47 59 48 60 56 61 49 62 50 63 54 64
REMARK SMILES IDX 57 65 51 66 52 67 55 68 53 69 5 70 6 71 7 72 8 73 9 74 10 75
REMARK SMILES IDX 17 76 11 77 16 78 18 79 12 80 15 81 19 82 13 83 14 84 20 85
REMARK H PARENT 77 22 45 33
REMARK Flexibility Score: inf
ROOT
ATOM      1  C   UNL A   1      42.594  20.865  26.387  1.00  0.00     0.275 C 
ENDROOT
BRANCH   1   2
ATOM      2  O   UNL A   1      41.907  22.126  26.228  1.00  0.00    -0.458 OA
BRANCH   2   3
ATOM      3  C   UNL A   1      40.869  22.413  27.046  1.00  0.00     0.338 C 
ATOM      4  O   UNL A   1      40.161  21.574  27.576  1.00  0.00    -0.246 OA
BRANCH   3   5
ATOM      5  C   UNL A   1      40.803  23.862  27.361  1.00  0.00     0.060 A 
ATOM      6  C   UNL A   1      41.655  24.436  28.309  1.00  0.00     0.016 A 
ATOM      7  C   UNL A   1      39.863  24.662  26.692  1.00  0.00     0.016 A 
ATOM      8  C   UNL A   1      41.549  25.785  28.607  1.00  0.00     0.010 A 
ATOM      9  C   UNL A   1      39.744  26.018  27.004  1.00  0.00     0.010 A 
ATOM     10  C   UNL A   1      40.583  26.572  27.971  1.00  0.00    -0.014 A 
BRANCH  10  11
ATOM     11  C   UNL A   1      40.556  27.978  28.356  1.00  0.00     0.031 A 
ATOM     12  C   UNL A   1      41.702  28.821  27.922  1.00  0.00     0.074 A 
ATOM     13  C   UNL A   1      39.579  28.542  29.091  1.00  0.00     0.049 A 
ATOM     14  N   UNL A   1      42.588  29.406  28.665  1.00  0.00    -0.248 NA
ATOM     15  C   UNL A   1      41.891  29.028  26.482  1.00  0.00     0.031 C 
ATOM     16  C   UNL A   1      38.248  28.019  29.389  1.00  0.00     0.029 A 
ATOM     17  N   UNL A   1      39.585  29.771  29.690  1.00  0.00    -0.354 N 
ATOM     18  C   UNL A   1      43.369  30.176  27.806  1.00  0.00     0.074 A 
ATOM     19  C   UNL A   1      42.944  29.849  26.469  1.00  0.00     0.031 C 
ATOM     20  C   UNL A   1      37.511  28.998  29.966  1.00  0.00     0.029 A 
ATOM     21  C   UNL A   1      38.360  30.156  30.201  1.00  0.00     0.049 A 
ATOM     22  H   UNL A   1      40.392  30.332  29.750  1.00  0.00     0.167 HD
ATOM     23  C   UNL A   1      44.201  31.149  28.273  1.00  0.00     0.037 A 
ATOM     24  C   UNL A   1      38.056  31.359  30.741  1.00  0.00     0.037 A 
ATOM     25  C   UNL A   1      44.534  30.945  29.659  1.00  0.00     0.049 A 
ATOM     26  C   UNL A   1      39.315  31.990  31.205  1.00  0.00     0.074 A 
ATOM     27  C   UNL A   1      45.157  29.944  30.379  1.00  0.00     0.029 A 
ATOM     28  N   UNL A   1      43.982  31.777  30.597  1.00  0.00    -0.354 N 
ATOM     29  N   UNL A   1      40.014  31.589  32.231  1.00  0.00    -0.248 NA
ATOM     30  C   UNL A   1      39.981  32.947  30.333  1.00  0.00     0.031 C 
ATOM     31  C   UNL A   1      44.554  29.975  31.671  1.00  0.00     0.029 A 
ATOM     32  C   UNL A   1      43.601  30.995  31.655  1.00  0.00     0.049 A 
ATOM     33  H   UNL A   1      43.877  32.753  30.525  1.00  0.00     0.167 HD
ATOM     34  C   UNL A   1      41.321  31.922  31.916  1.00  0.00     0.074 A 
ATOM     35  C   UNL A   1      41.219  32.879  30.824  1.00  0.00     0.031 C 
ATOM     36  C   UNL A   1      42.367  31.176  32.379  1.00  0.00     0.037 A 
BRANCH  23  37
ATOM     37  C   UNL A   1      44.482  32.460  27.570  1.00  0.00     0.064 A 
ATOM     38  C   UNL A   1      45.661  32.596  26.805  1.00  0.00     0.173 A 
ATOM     39  C   UNL A   1      43.812  33.667  27.863  1.00  0.00     0.173 A 
ATOM     40  F   UNL A   1      46.392  31.521  26.473  1.00  0.00    -0.203 F 
ATOM     41  C   UNL A   1      46.176  33.845  26.447  1.00  0.00     0.198 A 
ATOM     42  C   UNL A   1      44.300  34.909  27.455  1.00  0.00     0.198 A 
ATOM     43  F   UNL A   1      42.722  33.703  28.639  1.00  0.00    -0.203 F 
ATOM     44  F   UNL A   1      47.368  33.925  25.840  1.00  0.00    -0.200 F 
ATOM     45  C   UNL A   1      45.498  35.002  26.779  1.00  0.00     0.200 A 
ATOM     46  F   UNL A   1      43.635  36.022  27.796  1.00  0.00    -0.200 F 
ATOM     47  F   UNL A   1      46.020  36.203  26.494  1.00  0.00    -0.200 F 
ENDBRANCH  23  37
BRANCH  24  48
ATOM     48  C   UNL A   1      36.773  32.094  30.702  1.00  0.00     0.064 A 
ATOM     49  C   UNL A   1      35.924  32.130  31.821  1.00  0.00     0.173 A 
ATOM     50  C   UNL A   1      36.482  33.002  29.666  1.00  0.00     0.173 A 
ATOM     51  F   UNL A   1      36.155  31.330  32.873  1.00  0.00    -0.203 F 
ATOM     52  C   UNL A   1      34.866  33.041  31.910  1.00  0.00     0.198 A 
ATOM     53  C   UNL A   1      35.418  33.901  29.750  1.00  0.00     0.198 A 
ATOM     54  F   UNL A   1      37.279  33.104  28.593  1.00  0.00    -0.203 F 
ATOM     55  F   UNL A   1      34.123  33.094  33.024  1.00  0.00    -0.200 F 
ATOM     56  C   UNL A   1      34.621  33.931  30.879  1.00  0.00     0.200 A 
ATOM     57  F   UNL A   1      35.212  34.780  28.760  1.00  0.00    -0.200 F 
ATOM     58  F   UNL A   1      33.646  34.844  30.989  1.00  0.00    -0.200 F 
ENDBRANCH  24  48
BRANCH  36  59
ATOM     59  C   UNL A   1      42.114  30.249  33.529  1.00  0.00     0.064 A 
ATOM     60  C   UNL A   1      41.652  28.932  33.379  1.00  0.00     0.173 A 
ATOM     61  C   UNL A   1      42.497  30.662  34.813  1.00  0.00     0.173 A 
ATOM     62  F   UNL A   1      41.369  28.434  32.167  1.00  0.00    -0.203 F 
ATOM     63  C   UNL A   1      41.533  28.083  34.478  1.00  0.00     0.198 A 
ATOM     64  C   UNL A   1      42.412  29.799  35.902  1.00  0.00     0.198 A 
ATOM     65  F   UNL A   1      43.004  31.891  35.003  1.00  0.00    -0.203 F 
ATOM     66  F   UNL A   1      41.079  26.831  34.314  1.00  0.00    -0.200 F 
ATOM     67  C   UNL A   1      41.922  28.515  35.736  1.00  0.00     0.200 A 
ATOM     68  F   UNL A   1      42.837  30.203  37.108  1.00  0.00    -0.200 F 
ATOM     69  F   UNL A   1      41.851  27.682  36.785  1.00  0.00    -0.200 F 
ENDBRANCH  36  59
ENDBRANCH  10  11
ENDBRANCH   3   5
ENDBRANCH   2   3
ENDBRANCH   1   2
BRANCH   1  70
ATOM     70  C   UNL A   1      43.700  20.545  25.386  1.00  0.00     0.275 C 
BRANCH  70  71
ATOM     71  O   UNL A   1      44.126  21.756  24.742  1.00  0.00    -0.456 OA
BRANCH  71  72
ATOM     72  C   UNL A   1      45.413  22.136  24.996  1.00  0.00     0.374 C 
ATOM     73  O   UNL A   1      46.394  21.408  24.937  1.00  0.00    -0.242 OA
BRANCH  72  74
ATOM     74  C   UNL A   1      45.408  23.492  25.463  1.00  0.00     0.216 A 
ATOM     75  O   UNL A   1      45.689  24.524  24.587  1.00  0.00    -0.449 OA
ATOM     76  C   UNL A   1      45.207  23.997  26.730  1.00  0.00     0.014 A 
ATOM     77  C   UNL A   1      45.706  25.680  25.321  1.00  0.00     0.135 A 
ATOM     78  C   UNL A   1      45.432  25.377  26.631  1.00  0.00     0.028 A 
ATOM     79  C   UNL A   1      44.895  23.403  28.056  1.00  0.00     0.041 C 
ATOM     80  C   UNL A   1      45.968  26.978  24.901  1.00  0.00     0.048 A 
ATOM     81  C   UNL A   1      45.442  26.326  27.652  1.00  0.00    -0.037 A 
ATOM     82  C   UNL A   1      45.470  24.304  29.189  1.00  0.00     0.010 C 
ATOM     83  C   UNL A   1      45.950  27.959  25.915  1.00  0.00     0.004 A 
ATOM     84  C   UNL A   1      45.693  27.645  27.265  1.00  0.00     0.004 A 
ATOM     85  C   UNL A   1      45.156  25.829  29.045  1.00  0.00     0.036 C 
ENDBRANCH  72  74
ENDBRANCH  71  72
ENDBRANCH  70  71
ENDBRANCH   1  70
TORSDOF 11
ENDMDL
