MODEL 1
REMARK VINA RESULT:     -11.2      0.000      0.000
REMARK SMILES O=C(OCCOC(=O)[C@H](CO)NC(=O)[C@H]1CC(=O)N(CC(F)(F)F)C1)c1ccc(-c2c3nc(c(-c4c(F)c(F)c(F)c(F)c4F)c4ccc([nH]4)c(-c4c(F)c(F)c(F)c(F)c4F)c4nc(c(-c5c(F)c(F)c(F)c(F)c5F)c5ccc2[nH]5)C=C4)C=C3)cc1
REMARK SMILES IDX 5 1 4 2 3 3 2 4 1 5 26 6 27 7 88 8 28 9 87 10 29 11 30 12
REMARK SMILES IDX 31 13 81 14 32 15 86 16 80 17 82 18 33 19 85 20 79 21 78 22
REMARK SMILES IDX 34 24 66 25 46 26 65 27 47 28 50 29 64 30 83 31 48 32 49 33
REMARK SMILES IDX 63 35 84 36 51 37 35 38 36 39 44 40 37 41 38 42 42 43 45 44
REMARK SMILES IDX 39 45 40 46 43 47 41 48 67 49 68 50 76 51 69 52 70 53 74 54
REMARK SMILES IDX 77 55 71 56 72 57 75 58 73 59 52 60 53 61 61 62 54 63 55 64
REMARK SMILES IDX 59 65 62 66 56 67 57 68 60 69 58 70 6 71 7 72 8 73 9 74
REMARK SMILES IDX 12 75 13 76 14 78 15 79 16 80 25 81 17 82 19 83 18 84 20 85
REMARK SMILES IDX 21 86 22 87 23 88 24 89 10 90 11 91
REMARK H PARENT 82 23 50 34 12 77 11 92
REMARK Flexibility Score: inf
ROOT
ATOM      1  C   UNL A   1      32.527  29.776  25.696  1.00  0.00     0.274 C 
ENDROOT
BRANCH   1   2
ATOM      2  C   UNL A   1      31.879  30.995  26.365  1.00  0.00     0.275 C 
BRANCH   2   3
ATOM      3  O   UNL A   1      32.575  31.445  27.537  1.00  0.00    -0.458 OA
BRANCH   3   4
ATOM      4  C   UNL A   1      33.703  32.180  27.621  1.00  0.00     0.338 C 
ATOM      5  O   UNL A   1      33.639  33.360  27.271  1.00  0.00    -0.246 OA
BRANCH   4   6
ATOM      6  C   UNL A   1      35.058  31.654  28.022  1.00  0.00     0.060 A 
ATOM      7  C   UNL A   1      36.271  32.353  28.139  1.00  0.00     0.016 A 
ATOM      8  C   UNL A   1      35.065  30.314  28.419  1.00  0.00     0.016 A 
ATOM      9  C   UNL A   1      37.402  31.785  28.761  1.00  0.00     0.010 A 
ATOM     10  C   UNL A   1      36.189  29.758  29.022  1.00  0.00     0.010 A 
ATOM     11  C   UNL A   1      37.357  30.488  29.262  1.00  0.00    -0.014 A 
BRANCH  11  12
ATOM     12  C   UNL A   1      38.460  29.852  30.042  1.00  0.00     0.031 A 
ATOM     13  C   UNL A   1      38.758  30.348  31.438  1.00  0.00     0.074 A 
ATOM     14  C   UNL A   1      39.324  28.993  29.453  1.00  0.00     0.049 A 
ATOM     15  N   UNL A   1      39.791  30.111  32.205  1.00  0.00    -0.248 NA
ATOM     16  C   UNL A   1      37.805  31.317  32.003  1.00  0.00     0.031 C 
ATOM     17  C   UNL A   1      39.253  28.514  28.071  1.00  0.00     0.029 A 
ATOM     18  N   UNL A   1      40.481  28.421  29.933  1.00  0.00    -0.354 N 
ATOM     19  C   UNL A   1      39.616  30.912  33.327  1.00  0.00     0.074 A 
ATOM     20  C   UNL A   1      38.457  31.740  33.074  1.00  0.00     0.031 C 
ATOM     21  C   UNL A   1      40.338  27.764  27.802  1.00  0.00     0.029 A 
ATOM     22  C   UNL A   1      41.177  27.694  28.994  1.00  0.00     0.049 A 
ATOM     23  H   UNL A   1      40.783  28.522  30.865  1.00  0.00     0.167 HD
ATOM     24  C   UNL A   1      40.304  30.911  34.496  1.00  0.00     0.037 A 
ATOM     25  C   UNL A   1      42.355  27.045  29.085  1.00  0.00     0.037 A 
ATOM     26  C   UNL A   1      41.400  30.024  34.781  1.00  0.00     0.049 A 
ATOM     27  C   UNL A   1      43.053  26.972  30.419  1.00  0.00     0.074 A 
ATOM     28  C   UNL A   1      42.065  29.827  35.978  1.00  0.00     0.029 A 
ATOM     29  N   UNL A   1      41.981  29.174  33.855  1.00  0.00    -0.354 N 
ATOM     30  N   UNL A   1      42.776  27.604  31.533  1.00  0.00    -0.248 NA
ATOM     31  C   UNL A   1      44.184  26.039  30.527  1.00  0.00     0.031 C 
ATOM     32  C   UNL A   1      43.055  28.859  35.774  1.00  0.00     0.029 A 
ATOM     33  C   UNL A   1      42.981  28.429  34.460  1.00  0.00     0.049 A 
ATOM     34  H   UNL A   1      41.724  29.108  32.907  1.00  0.00     0.167 HD
ATOM     35  C   UNL A   1      43.654  27.099  32.485  1.00  0.00     0.074 A 
ATOM     36  C   UNL A   1      44.475  26.113  31.817  1.00  0.00     0.031 C 
ATOM     37  C   UNL A   1      43.758  27.415  33.799  1.00  0.00     0.037 A 
BRANCH  24  38
ATOM     38  C   UNL A   1      39.827  31.838  35.580  1.00  0.00     0.064 A 
ATOM     39  C   UNL A   1      38.768  31.479  36.432  1.00  0.00     0.173 A 
ATOM     40  C   UNL A   1      40.437  33.083  35.791  1.00  0.00     0.173 A 
ATOM     41  F   UNL A   1      38.146  30.299  36.277  1.00  0.00    -0.203 F 
ATOM     42  C   UNL A   1      38.299  32.353  37.408  1.00  0.00     0.198 A 
ATOM     43  C   UNL A   1      39.995  33.937  36.801  1.00  0.00     0.198 A 
ATOM     44  F   UNL A   1      41.464  33.473  35.022  1.00  0.00    -0.203 F 
ATOM     45  F   UNL A   1      37.235  32.014  38.149  1.00  0.00    -0.200 F 
ATOM     46  C   UNL A   1      38.917  33.578  37.597  1.00  0.00     0.200 A 
ATOM     47  F   UNL A   1      40.606  35.113  36.999  1.00  0.00    -0.200 F 
ATOM     48  F   UNL A   1      38.468  34.416  38.541  1.00  0.00    -0.200 F 
ENDBRANCH  24  38
BRANCH  25  49
ATOM     49  C   UNL A   1      42.926  26.330  27.912  1.00  0.00     0.064 A 
ATOM     50  C   UNL A   1      43.798  26.983  27.027  1.00  0.00     0.173 A 
ATOM     51  C   UNL A   1      42.558  25.011  27.610  1.00  0.00     0.173 A 
ATOM     52  F   UNL A   1      44.156  28.254  27.262  1.00  0.00    -0.203 F 
ATOM     53  C   UNL A   1      44.245  26.361  25.863  1.00  0.00     0.198 A 
ATOM     54  C   UNL A   1      43.024  24.382  26.456  1.00  0.00     0.198 A 
ATOM     55  F   UNL A   1      41.730  24.346  28.427  1.00  0.00    -0.203 F 
ATOM     56  F   UNL A   1      45.022  27.034  25.004  1.00  0.00    -0.200 F 
ATOM     57  C   UNL A   1      43.857  25.061  25.578  1.00  0.00     0.200 A 
ATOM     58  F   UNL A   1      42.648  23.126  26.178  1.00  0.00    -0.200 F 
ATOM     59  F   UNL A   1      44.272  24.471  24.448  1.00  0.00    -0.200 F 
ENDBRANCH  25  49
BRANCH  37  60
ATOM     60  C   UNL A   1      44.713  26.610  34.632  1.00  0.00     0.064 A 
ATOM     61  C   UNL A   1      46.037  27.011  34.852  1.00  0.00     0.173 A 
ATOM     62  C   UNL A   1      44.276  25.422  35.241  1.00  0.00     0.173 A 
ATOM     63  F   UNL A   1      46.508  28.129  34.279  1.00  0.00    -0.203 F 
ATOM     64  C   UNL A   1      46.899  26.237  35.625  1.00  0.00     0.198 A 
ATOM     65  C   UNL A   1      45.131  24.668  36.039  1.00  0.00     0.198 A 
ATOM     66  F   UNL A   1      43.015  24.997  35.067  1.00  0.00    -0.203 F 
ATOM     67  F   UNL A   1      48.177  26.609  35.777  1.00  0.00    -0.200 F 
ATOM     68  C   UNL A   1      46.444  25.070  36.222  1.00  0.00     0.200 A 
ATOM     69  F   UNL A   1      44.684  23.549  36.625  1.00  0.00    -0.200 F 
ATOM     70  F   UNL A   1      47.274  24.329  36.969  1.00  0.00    -0.200 F 
ENDBRANCH  37  60
ENDBRANCH  11  12
ENDBRANCH   4   6
ENDBRANCH   3   4
ENDBRANCH   2   3
ENDBRANCH   1   2
BRANCH   1  71
ATOM     71  O   UNL A   1      32.714  28.697  26.633  1.00  0.00    -0.460 OA
BRANCH  71  72
ATOM     72  C   UNL A   1      32.771  27.430  26.132  1.00  0.00     0.331 C 
ATOM     73  O   UNL A   1      33.745  26.694  26.222  1.00  0.00    -0.250 OA
BRANCH  72  74
ATOM     74  C   UNL A   1      31.466  27.057  25.402  1.00  0.00     0.218 C 
BRANCH  74  75
ATOM     75  N   UNL A   1      31.800  26.485  24.096  1.00  0.00    -0.341 N 
ATOM     76  C   UNL A   1      31.171  26.561  22.895  1.00  0.00     0.226 C 
ATOM     77  H   UNL A   1      32.626  25.951  24.086  1.00  0.00     0.164 HD
ATOM     78  O   UNL A   1      31.568  25.757  22.043  1.00  0.00    -0.275 OA
BRANCH  76  79
ATOM     79  C   UNL A   1      30.207  27.668  22.478  1.00  0.00     0.107 C 
ATOM     80  C   UNL A   1      28.887  27.567  23.258  1.00  0.00     0.115 C 
ATOM     81  C   UNL A   1      30.507  29.151  22.570  1.00  0.00     0.133 C 
ATOM     82  C   UNL A   1      28.222  28.882  22.963  1.00  0.00     0.223 C 
ATOM     83  N   UNL A   1      29.194  29.768  22.540  1.00  0.00    -0.333 N 
ATOM     84  O   UNL A   1      27.029  29.130  23.094  1.00  0.00    -0.275 OA
BRANCH  83  85
ATOM     85  C   UNL A   1      28.884  31.122  22.052  1.00  0.00     0.234 C 
BRANCH  85  86
ATOM     86  C   UNL A   1      28.654  32.241  23.074  1.00  0.00     0.406 C 
ATOM     87  F   UNL A   1      29.360  32.003  24.211  1.00  0.00    -0.169 F 
ATOM     88  F   UNL A   1      29.075  33.437  22.607  1.00  0.00    -0.169 F 
ATOM     89  F   UNL A   1      27.360  32.366  23.439  1.00  0.00    -0.169 F 
ENDBRANCH  85  86
ENDBRANCH  83  85
ENDBRANCH  76  79
ENDBRANCH  74  75
BRANCH  74  90
ATOM     90  C   UNL A   1      30.701  26.051  26.293  1.00  0.00     0.193 C 
BRANCH  90  91
ATOM     91  O   UNL A   1      31.571  25.049  26.825  1.00  0.00    -0.394 OA
ATOM     92  H   UNL A   1      31.811  25.281  27.735  1.00  0.00     0.210 HD
ENDBRANCH  90  91
ENDBRANCH  74  90
ENDBRANCH  72  74
ENDBRANCH  71  72
ENDBRANCH   1  71
TORSDOF 17
ENDMDL
MODEL 2
REMARK VINA RESULT:     -11.1      5.830     11.167
REMARK SMILES O=C(OCCOC(=O)[C@H](CO)NC(=O)[C@H]1CC(=O)N(CC(F)(F)F)C1)c1ccc(-c2c3nc(c(-c4c(F)c(F)c(F)c(F)c4F)c4ccc([nH]4)c(-c4c(F)c(F)c(F)c(F)c4F)c4nc(c(-c5c(F)c(F)c(F)c(F)c5F)c5ccc2[nH]5)C=C4)C=C3)cc1
REMARK SMILES IDX 5 1 4 2 3 3 2 4 1 5 26 6 27 7 88 8 28 9 87 10 29 11 30 12
REMARK SMILES IDX 31 13 81 14 32 15 86 16 80 17 82 18 33 19 85 20 79 21 78 22
REMARK SMILES IDX 34 24 66 25 46 26 65 27 47 28 50 29 64 30 83 31 48 32 49 33
REMARK SMILES IDX 63 35 84 36 51 37 35 38 36 39 44 40 37 41 38 42 42 43 45 44
REMARK SMILES IDX 39 45 40 46 43 47 41 48 67 49 68 50 76 51 69 52 70 53 74 54
REMARK SMILES IDX 77 55 71 56 72 57 75 58 73 59 52 60 53 61 61 62 54 63 55 64
REMARK SMILES IDX 59 65 62 66 56 67 57 68 60 69 58 70 6 71 7 72 8 73 9 74
REMARK SMILES IDX 12 75 13 76 14 78 15 79 16 80 25 81 17 82 19 83 18 84 20 85
REMARK SMILES IDX 21 86 22 87 23 88 24 89 10 90 11 91
REMARK H PARENT 82 23 50 34 12 77 11 92
REMARK Flexibility Score: inf
ROOT
ATOM      1  C   UNL A   1      37.146  19.774  24.892  1.00  0.00     0.274 C 
ENDROOT
BRANCH   1   2
ATOM      2  C   UNL A   1      38.553  19.452  25.414  1.00  0.00     0.275 C 
BRANCH   2   3
ATOM      3  O   UNL A   1      39.345  20.617  25.687  1.00  0.00    -0.458 OA
BRANCH   3   4
ATOM      4  C   UNL A   1      40.187  20.846  26.717  1.00  0.00     0.338 C 
ATOM      5  O   UNL A   1      40.650  19.864  27.300  1.00  0.00    -0.246 OA
BRANCH   4   6
ATOM      6  C   UNL A   1      40.536  22.204  27.270  1.00  0.00     0.060 A 
ATOM      7  C   UNL A   1      41.425  22.525  28.309  1.00  0.00     0.016 A 
ATOM      8  C   UNL A   1      39.963  23.277  26.581  1.00  0.00     0.016 A 
ATOM      9  C   UNL A   1      41.839  23.852  28.554  1.00  0.00     0.010 A 
ATOM     10  C   UNL A   1      40.369  24.583  26.837  1.00  0.00     0.010 A 
ATOM     11  C   UNL A   1      41.351  24.899  27.779  1.00  0.00    -0.014 A 
BRANCH  11  12
ATOM     12  C   UNL A   1      41.825  26.311  27.885  1.00  0.00     0.031 A 
ATOM     13  C   UNL A   1      43.221  26.657  27.424  1.00  0.00     0.074 A 
ATOM     14  C   UNL A   1      41.113  27.234  28.571  1.00  0.00     0.049 A 
ATOM     15  N   UNL A   1      43.921  27.746  27.623  1.00  0.00    -0.248 NA
ATOM     16  C   UNL A   1      43.961  25.593  26.724  1.00  0.00     0.031 C 
ATOM     17  C   UNL A   1      39.804  27.023  29.194  1.00  0.00     0.029 A 
ATOM     18  N   UNL A   1      41.431  28.528  28.920  1.00  0.00    -0.354 N 
ATOM     19  C   UNL A   1      45.177  27.486  27.089  1.00  0.00     0.074 A 
ATOM     20  C   UNL A   1      45.184  26.096  26.689  1.00  0.00     0.031 C 
ATOM     21  C   UNL A   1      39.455  28.126  29.882  1.00  0.00     0.029 A 
ATOM     22  C   UNL A   1      40.505  29.129  29.742  1.00  0.00     0.049 A 
ATOM     23  H   UNL A   1      42.246  28.983  28.608  1.00  0.00     0.167 HD
ATOM     24  C   UNL A   1      46.210  28.339  26.878  1.00  0.00     0.037 A 
ATOM     25  C   UNL A   1      40.503  30.350  30.314  1.00  0.00     0.037 A 
ATOM     26  C   UNL A   1      46.170  29.742  27.192  1.00  0.00     0.049 A 
ATOM     27  C   UNL A   1      41.610  31.318  29.984  1.00  0.00     0.074 A 
ATOM     28  C   UNL A   1      47.091  30.726  26.880  1.00  0.00     0.029 A 
ATOM     29  N   UNL A   1      45.141  30.361  27.882  1.00  0.00    -0.354 N 
ATOM     30  N   UNL A   1      42.723  31.109  29.325  1.00  0.00    -0.248 NA
ATOM     31  C   UNL A   1      41.424  32.711  30.416  1.00  0.00     0.031 C 
ATOM     32  C   UNL A   1      46.620  31.943  27.387  1.00  0.00     0.029 A 
ATOM     33  C   UNL A   1      45.390  31.720  27.983  1.00  0.00     0.049 A 
ATOM     34  H   UNL A   1      44.349  29.904  28.248  1.00  0.00     0.167 HD
ATOM     35  C   UNL A   1      43.336  32.351  29.211  1.00  0.00     0.074 A 
ATOM     36  C   UNL A   1      42.474  33.306  29.871  1.00  0.00     0.031 C 
ATOM     37  C   UNL A   1      44.502  32.671  28.598  1.00  0.00     0.037 A 
BRANCH  24  38
ATOM     38  C   UNL A   1      47.432  27.789  26.193  1.00  0.00     0.064 A 
ATOM     39  C   UNL A   1      48.531  27.318  26.931  1.00  0.00     0.173 A 
ATOM     40  C   UNL A   1      47.505  27.709  24.794  1.00  0.00     0.173 A 
ATOM     41  F   UNL A   1      48.516  27.369  28.272  1.00  0.00    -0.203 F 
ATOM     42  C   UNL A   1      49.677  26.847  26.297  1.00  0.00     0.198 A 
ATOM     43  C   UNL A   1      48.637  27.195  24.164  1.00  0.00     0.198 A 
ATOM     44  F   UNL A   1      46.480  28.128  24.037  1.00  0.00    -0.203 F 
ATOM     45  F   UNL A   1      50.739  26.482  27.027  1.00  0.00    -0.200 F 
ATOM     46  C   UNL A   1      49.727  26.780  24.915  1.00  0.00     0.200 A 
ATOM     47  F   UNL A   1      48.678  27.108  22.827  1.00  0.00    -0.200 F 
ATOM     48  F   UNL A   1      50.829  26.322  24.306  1.00  0.00    -0.200 F 
ENDBRANCH  24  38
BRANCH  25  49
ATOM     49  C   UNL A   1      39.382  30.780  31.192  1.00  0.00     0.064 A 
ATOM     50  C   UNL A   1      39.393  30.492  32.565  1.00  0.00     0.173 A 
ATOM     51  C   UNL A   1      38.248  31.418  30.669  1.00  0.00     0.173 A 
ATOM     52  F   UNL A   1      40.445  29.859  33.104  1.00  0.00    -0.203 F 
ATOM     53  C   UNL A   1      38.297  30.786  33.374  1.00  0.00     0.198 A 
ATOM     54  C   UNL A   1      37.160  31.732  31.485  1.00  0.00     0.198 A 
ATOM     55  F   UNL A   1      38.192  31.716  29.364  1.00  0.00    -0.203 F 
ATOM     56  F   UNL A   1      38.310  30.438  34.668  1.00  0.00    -0.200 F 
ATOM     57  C   UNL A   1      37.181  31.405  32.833  1.00  0.00     0.200 A 
ATOM     58  F   UNL A   1      36.080  32.329  30.962  1.00  0.00    -0.200 F 
ATOM     59  F   UNL A   1      36.120  31.670  33.608  1.00  0.00    -0.200 F 
ENDBRANCH  25  49
BRANCH  37  60
ATOM     60  C   UNL A   1      44.861  34.126  28.507  1.00  0.00     0.064 A 
ATOM     61  C   UNL A   1      44.304  34.976  27.543  1.00  0.00     0.173 A 
ATOM     62  C   UNL A   1      45.768  34.678  29.426  1.00  0.00     0.173 A 
ATOM     63  F   UNL A   1      43.445  34.493  26.631  1.00  0.00    -0.203 F 
ATOM     64  C   UNL A   1      44.665  36.320  27.481  1.00  0.00     0.198 A 
ATOM     65  C   UNL A   1      46.102  36.028  29.381  1.00  0.00     0.198 A 
ATOM     66  F   UNL A   1      46.326  33.907  30.372  1.00  0.00    -0.203 F 
ATOM     67  F   UNL A   1      44.163  37.103  26.517  1.00  0.00    -0.200 F 
ATOM     68  C   UNL A   1      45.558  36.846  28.404  1.00  0.00     0.200 A 
ATOM     69  F   UNL A   1      46.954  36.536  30.282  1.00  0.00    -0.200 F 
ATOM     70  F   UNL A   1      45.900  38.140  28.345  1.00  0.00    -0.200 F 
ENDBRANCH  37  60
ENDBRANCH  11  12
ENDBRANCH   4   6
ENDBRANCH   3   4
ENDBRANCH   2   3
ENDBRANCH   1   2
BRANCH   1  71
ATOM     71  O   UNL A   1      37.038  21.152  24.482  1.00  0.00    -0.460 OA
BRANCH  71  72
ATOM     72  C   UNL A   1      36.061  21.907  25.060  1.00  0.00     0.331 C 
ATOM     73  O   UNL A   1      36.124  22.374  26.188  1.00  0.00    -0.250 OA
BRANCH  72  74
ATOM     74  C   UNL A   1      34.846  22.061  24.123  1.00  0.00     0.218 C 
BRANCH  74  75
ATOM     75  N   UNL A   1      33.631  22.160  24.933  1.00  0.00    -0.341 N 
ATOM     76  C   UNL A   1      32.518  21.384  24.980  1.00  0.00     0.226 C 
ATOM     77  H   UNL A   1      33.618  22.924  25.553  1.00  0.00     0.164 HD
ATOM     78  O   UNL A   1      31.560  21.878  25.587  1.00  0.00    -0.275 OA
BRANCH  76  79
ATOM     79  C   UNL A   1      32.448  19.922  24.547  1.00  0.00     0.107 C 
ATOM     80  C   UNL A   1      32.220  19.810  23.033  1.00  0.00     0.115 C 
ATOM     81  C   UNL A   1      33.550  18.905  24.769  1.00  0.00     0.133 C 
ATOM     82  C   UNL A   1      32.500  18.360  22.758  1.00  0.00     0.223 C 
ATOM     83  N   UNL A   1      33.253  17.863  23.804  1.00  0.00    -0.333 N 
ATOM     84  O   UNL A   1      32.140  17.733  21.768  1.00  0.00    -0.275 OA
BRANCH  83  85
ATOM     85  C   UNL A   1      33.612  16.441  23.926  1.00  0.00     0.234 C 
BRANCH  85  86
ATOM     86  C   UNL A   1      33.632  15.801  25.318  1.00  0.00     0.406 C 
ATOM     87  F   UNL A   1      33.228  14.505  25.254  1.00  0.00    -0.169 F 
ATOM     88  F   UNL A   1      34.876  15.787  25.844  1.00  0.00    -0.169 F 
ATOM     89  F   UNL A   1      32.813  16.419  26.195  1.00  0.00    -0.169 F 
ENDBRANCH  85  86
ENDBRANCH  83  85
ENDBRANCH  76  79
ENDBRANCH  74  75
BRANCH  74  90
ATOM     90  C   UNL A   1      35.073  23.330  23.268  1.00  0.00     0.193 C 
BRANCH  90  91
ATOM     91  O   UNL A   1      36.337  23.299  22.602  1.00  0.00    -0.394 OA
ATOM     92  H   UNL A   1      36.839  22.523  22.897  1.00  0.00     0.210 HD
ENDBRANCH  90  91
ENDBRANCH  74  90
ENDBRANCH  72  74
ENDBRANCH  71  72
ENDBRANCH   1  71
TORSDOF 17
ENDMDL
MODEL 3
REMARK VINA RESULT:     -11.1      2.393      4.075
REMARK SMILES O=C(OCCOC(=O)[C@H](CO)NC(=O)[C@H]1CC(=O)N(CC(F)(F)F)C1)c1ccc(-c2c3nc(c(-c4c(F)c(F)c(F)c(F)c4F)c4ccc([nH]4)c(-c4c(F)c(F)c(F)c(F)c4F)c4nc(c(-c5c(F)c(F)c(F)c(F)c5F)c5ccc2[nH]5)C=C4)C=C3)cc1
REMARK SMILES IDX 5 1 4 2 3 3 2 4 1 5 26 6 27 7 88 8 28 9 87 10 29 11 30 12
REMARK SMILES IDX 31 13 81 14 32 15 86 16 80 17 82 18 33 19 85 20 79 21 78 22
REMARK SMILES IDX 34 24 66 25 46 26 65 27 47 28 50 29 64 30 83 31 48 32 49 33
REMARK SMILES IDX 63 35 84 36 51 37 35 38 36 39 44 40 37 41 38 42 42 43 45 44
REMARK SMILES IDX 39 45 40 46 43 47 41 48 67 49 68 50 76 51 69 52 70 53 74 54
REMARK SMILES IDX 77 55 71 56 72 57 75 58 73 59 52 60 53 61 61 62 54 63 55 64
REMARK SMILES IDX 59 65 62 66 56 67 57 68 60 69 58 70 6 71 7 72 8 73 9 74
REMARK SMILES IDX 12 75 13 76 14 78 15 79 16 80 25 81 17 82 19 83 18 84 20 85
REMARK SMILES IDX 21 86 22 87 23 88 24 89 10 90 11 91
REMARK H PARENT 82 23 50 34 12 77 11 92
REMARK Flexibility Score: inf
ROOT
ATOM      1  C   UNL A   1      31.355  29.156  25.124  1.00  0.00     0.274 C 
ENDROOT
BRANCH   1   2
ATOM      2  C   UNL A   1      32.658  29.726  25.701  1.00  0.00     0.275 C 
BRANCH   2   3
ATOM      3  O   UNL A   1      32.451  30.688  26.746  1.00  0.00    -0.458 OA
BRANCH   3   4
ATOM      4  C   UNL A   1      33.343  31.530  27.310  1.00  0.00     0.338 C 
ATOM      5  O   UNL A   1      33.023  32.716  27.404  1.00  0.00    -0.246 OA
BRANCH   4   6
ATOM      6  C   UNL A   1      34.735  31.155  27.751  1.00  0.00     0.060 A 
ATOM      7  C   UNL A   1      35.822  31.998  28.034  1.00  0.00     0.016 A 
ATOM      8  C   UNL A   1      34.919  29.792  27.998  1.00  0.00     0.016 A 
ATOM      9  C   UNL A   1      36.987  31.525  28.674  1.00  0.00     0.010 A 
ATOM     10  C   UNL A   1      36.076  29.331  28.619  1.00  0.00     0.010 A 
ATOM     11  C   UNL A   1      37.106  30.184  29.024  1.00  0.00    -0.014 A 
BRANCH  11  12
ATOM     12  C   UNL A   1      38.244  29.621  29.810  1.00  0.00     0.031 A 
ATOM     13  C   UNL A   1      38.524  30.161  31.193  1.00  0.00     0.074 A 
ATOM     14  C   UNL A   1      39.147  28.795  29.233  1.00  0.00     0.049 A 
ATOM     15  N   UNL A   1      39.572  29.993  31.959  1.00  0.00    -0.248 NA
ATOM     16  C   UNL A   1      37.526  31.092  31.745  1.00  0.00     0.031 C 
ATOM     17  C   UNL A   1      39.093  28.284  27.861  1.00  0.00     0.029 A 
ATOM     18  N   UNL A   1      40.334  28.293  29.717  1.00  0.00    -0.354 N 
ATOM     19  C   UNL A   1      39.362  30.807  33.065  1.00  0.00     0.074 A 
ATOM     20  C   UNL A   1      38.162  31.569  32.803  1.00  0.00     0.031 C 
ATOM     21  C   UNL A   1      40.213  27.585  27.601  1.00  0.00     0.029 A 
ATOM     22  C   UNL A   1      41.062  27.583  28.789  1.00  0.00     0.049 A 
ATOM     23  H   UNL A   1      40.636  28.429  30.645  1.00  0.00     0.167 HD
ATOM     24  C   UNL A   1      40.056  30.866  34.229  1.00  0.00     0.037 A 
ATOM     25  C   UNL A   1      42.271  26.996  28.886  1.00  0.00     0.037 A 
ATOM     26  C   UNL A   1      41.197  30.041  34.526  1.00  0.00     0.049 A 
ATOM     27  C   UNL A   1      42.979  26.986  30.217  1.00  0.00     0.074 A 
ATOM     28  C   UNL A   1      41.878  29.903  35.722  1.00  0.00     0.029 A 
ATOM     29  N   UNL A   1      41.816  29.202  33.614  1.00  0.00    -0.354 N 
ATOM     30  N   UNL A   1      42.676  27.626  31.320  1.00  0.00    -0.248 NA
ATOM     31  C   UNL A   1      44.156  26.113  30.336  1.00  0.00     0.031 C 
ATOM     32  C   UNL A   1      42.914  28.982  35.532  1.00  0.00     0.029 A 
ATOM     33  C   UNL A   1      42.855  28.522  34.227  1.00  0.00     0.049 A 
ATOM     34  H   UNL A   1      41.556  29.104  32.669  1.00  0.00     0.167 HD
ATOM     35  C   UNL A   1      43.584  27.186  32.275  1.00  0.00     0.074 A 
ATOM     36  C   UNL A   1      44.450  26.230  31.622  1.00  0.00     0.031 C 
ATOM     37  C   UNL A   1      43.679  27.534  33.582  1.00  0.00     0.037 A 
BRANCH  24  38
ATOM     38  C   UNL A   1      39.538  31.789  35.297  1.00  0.00     0.064 A 
ATOM     39  C   UNL A   1      39.953  33.130  35.365  1.00  0.00     0.173 A 
ATOM     40  C   UNL A   1      38.606  31.349  36.248  1.00  0.00     0.173 A 
ATOM     41  F   UNL A   1      40.843  33.607  34.481  1.00  0.00    -0.203 F 
ATOM     42  C   UNL A   1      39.506  33.974  36.378  1.00  0.00     0.198 A 
ATOM     43  C   UNL A   1      38.125  32.209  37.234  1.00  0.00     0.198 A 
ATOM     44  F   UNL A   1      38.159  30.084  36.223  1.00  0.00    -0.203 F 
ATOM     45  F   UNL A   1      39.984  35.223  36.463  1.00  0.00    -0.200 F 
ATOM     46  C   UNL A   1      38.587  33.515  37.307  1.00  0.00     0.200 A 
ATOM     47  F   UNL A   1      37.219  31.773  38.120  1.00  0.00    -0.200 F 
ATOM     48  F   UNL A   1      38.153  34.330  38.278  1.00  0.00    -0.200 F 
ENDBRANCH  24  38
BRANCH  25  49
ATOM     49  C   UNL A   1      42.872  26.287  27.724  1.00  0.00     0.064 A 
ATOM     50  C   UNL A   1      42.622  24.923  27.507  1.00  0.00     0.173 A 
ATOM     51  C   UNL A   1      43.761  26.934  26.854  1.00  0.00     0.173 A 
ATOM     52  F   UNL A   1      41.799  24.258  28.330  1.00  0.00    -0.203 F 
ATOM     53  C   UNL A   1      43.271  24.223  26.492  1.00  0.00     0.198 A 
ATOM     54  C   UNL A   1      44.393  26.236  25.824  1.00  0.00     0.198 A 
ATOM     55  F   UNL A   1      44.029  28.236  27.020  1.00  0.00    -0.203 F 
ATOM     56  F   UNL A   1      43.063  22.907  26.352  1.00  0.00    -0.200 F 
ATOM     57  C   UNL A   1      44.156  24.879  25.651  1.00  0.00     0.200 A 
ATOM     58  F   UNL A   1      45.251  26.870  25.012  1.00  0.00    -0.200 F 
ATOM     59  F   UNL A   1      44.794  24.201  24.688  1.00  0.00    -0.200 F 
ENDBRANCH  25  49
BRANCH  37  60
ATOM     60  C   UNL A   1      44.677  26.796  34.426  1.00  0.00     0.064 A 
ATOM     61  C   UNL A   1      45.987  27.258  34.612  1.00  0.00     0.173 A 
ATOM     62  C   UNL A   1      44.298  25.612  35.078  1.00  0.00     0.173 A 
ATOM     63  F   UNL A   1      46.403  28.375  33.997  1.00  0.00    -0.203 F 
ATOM     64  C   UNL A   1      46.892  26.545  35.396  1.00  0.00     0.198 A 
ATOM     65  C   UNL A   1      45.195  24.919  35.887  1.00  0.00     0.198 A 
ATOM     66  F   UNL A   1      43.054  25.130  34.937  1.00  0.00    -0.203 F 
ATOM     67  F   UNL A   1      48.155  26.974  35.516  1.00  0.00    -0.200 F 
ATOM     68  C   UNL A   1      46.493  25.381  36.037  1.00  0.00     0.200 A 
ATOM     69  F   UNL A   1      44.803  23.803  36.515  1.00  0.00    -0.200 F 
ATOM     70  F   UNL A   1      47.364  24.699  36.793  1.00  0.00    -0.200 F 
ENDBRANCH  37  60
ENDBRANCH  11  12
ENDBRANCH   4   6
ENDBRANCH   3   4
ENDBRANCH   2   3
ENDBRANCH   1   2
BRANCH   1  71
ATOM     71  O   UNL A   1      31.184  27.769  25.477  1.00  0.00    -0.460 OA
BRANCH  71  72
ATOM     72  C   UNL A   1      31.381  26.840  24.498  1.00  0.00     0.331 C 
ATOM     73  O   UNL A   1      32.374  26.785  23.786  1.00  0.00    -0.250 OA
BRANCH  72  74
ATOM     74  C   UNL A   1      30.171  25.892  24.376  1.00  0.00     0.218 C 
BRANCH  74  75
ATOM     75  N   UNL A   1      29.946  25.241  25.668  1.00  0.00    -0.341 N 
ATOM     76  C   UNL A   1      30.580  24.206  26.274  1.00  0.00     0.226 C 
ATOM     77  H   UNL A   1      29.203  25.622  26.190  1.00  0.00     0.164 HD
ATOM     78  O   UNL A   1      29.988  23.727  27.250  1.00  0.00    -0.275 OA
BRANCH  76  79
ATOM     79  C   UNL A   1      32.010  23.760  25.982  1.00  0.00     0.107 C 
ATOM     80  C   UNL A   1      32.561  22.900  27.129  1.00  0.00     0.115 C 
ATOM     81  C   UNL A   1      32.430  22.958  24.766  1.00  0.00     0.133 C 
ATOM     82  C   UNL A   1      33.806  22.305  26.534  1.00  0.00     0.223 C 
ATOM     83  N   UNL A   1      33.703  22.382  25.159  1.00  0.00    -0.333 N 
ATOM     84  O   UNL A   1      34.741  21.818  27.161  1.00  0.00    -0.275 OA
BRANCH  83  85
ATOM     85  C   UNL A   1      34.797  21.998  24.253  1.00  0.00     0.234 C 
BRANCH  85  86
ATOM     86  C   UNL A   1      35.735  23.089  23.724  1.00  0.00     0.406 C 
ATOM     87  F   UNL A   1      36.481  23.608  24.734  1.00  0.00    -0.169 F 
ATOM     88  F   UNL A   1      36.609  22.599  22.817  1.00  0.00    -0.169 F 
ATOM     89  F   UNL A   1      35.077  24.121  23.156  1.00  0.00    -0.169 F 
ENDBRANCH  85  86
ENDBRANCH  83  85
ENDBRANCH  76  79
ENDBRANCH  74  75
BRANCH  74  90
ATOM     90  C   UNL A   1      28.954  26.740  23.939  1.00  0.00     0.193 C 
BRANCH  90  91
ATOM     91  O   UNL A   1      27.761  25.956  23.873  1.00  0.00    -0.394 OA
ATOM     92  H   UNL A   1      27.083  26.351  24.444  1.00  0.00     0.210 HD
ENDBRANCH  90  91
ENDBRANCH  74  90
ENDBRANCH  72  74
ENDBRANCH  71  72
ENDBRANCH   1  71
TORSDOF 17
ENDMDL
