MODEL 1
REMARK VINA RESULT:     -13.7      0.000      0.000
REMARK SMILES Cc1cc(NC(=O)c2ccc(Br)cc2N)ccc1C(=O)OCCOC(=O)c1ccc(-c2c3nc(c(-c4c(F)c(F)c(F)c(F)c4F)c4ccc([nH]4)c(-c4c(F)c(F)c(F)c(F)c4F)c4nc(c(-c5c(F)c(F)c(F)c(F)c5F)c5ccc2[nH]5)C=C4)C=C3)cc1
REMARK SMILES IDX 22 1 21 2 19 3 20 4 18 5 1 6 2 7 3 8 4 9 17 10 16 11 5 12
REMARK SMILES IDX 6 13 7 15 8 16 9 17 14 18 10 19 13 20 11 21 12 22 15 23
REMARK SMILES IDX 23 26 24 27 25 28 26 29 27 30 28 31 89 32 29 33 88 34 30 35
REMARK SMILES IDX 31 36 32 37 82 38 33 39 87 40 81 41 83 42 34 43 86 44 80 45
REMARK SMILES IDX 79 46 35 48 67 49 47 50 66 51 48 52 51 53 65 54 84 55 49 56
REMARK SMILES IDX 50 57 64 59 85 60 52 61 36 62 37 63 45 64 38 65 39 66 43 67
REMARK SMILES IDX 46 68 40 69 41 70 44 71 42 72 68 73 69 74 77 75 70 76 71 77
REMARK SMILES IDX 75 78 78 79 72 80 73 81 76 82 74 83 53 84 54 85 62 86 55 87
REMARK SMILES IDX 56 88 60 89 63 90 57 91 58 92 61 93 59 94
REMARK H PARENT 5 14 15 24 15 25 83 47 51 58
REMARK Flexibility Score: inf
ROOT
ATOM      1  C   UNL A   1      33.466  28.784  26.393  1.00  0.00     0.275 C 
ENDROOT
BRANCH   1   2
ATOM      2  O   UNL A   1      33.224  27.374  26.498  1.00  0.00    -0.458 OA
BRANCH   2   3
ATOM      3  C   UNL A   1      31.922  27.098  26.755  1.00  0.00     0.338 C 
ATOM      4  O   UNL A   1      31.222  27.653  27.589  1.00  0.00    -0.246 OA
BRANCH   3   5
ATOM      5  C   UNL A   1      31.404  25.932  26.032  1.00  0.00     0.063 A 
ATOM      6  C   UNL A   1      30.748  27.503  24.111  1.00  0.00     0.045 C 
ATOM      7  C   UNL A   1      30.930  26.146  24.731  1.00  0.00    -0.035 A 
ATOM      8  C   UNL A   1      30.677  25.034  23.926  1.00  0.00     0.030 A 
ATOM      9  C   UNL A   1      31.002  23.743  24.342  1.00  0.00     0.041 A 
ATOM     10  C   UNL A   1      31.578  24.630  26.521  1.00  0.00     0.018 A 
ATOM     11  C   UNL A   1      31.386  23.533  25.668  1.00  0.00     0.027 A 
BRANCH   9  12
ATOM     12  N   UNL A   1      30.984  22.657  23.448  1.00  0.00    -0.322 N 
ATOM     13  C   UNL A   1      32.053  21.961  22.903  1.00  0.00     0.257 C 
ATOM     14  H   UNL A   1      30.090  22.349  23.172  1.00  0.00     0.170 HD
ATOM     15  O   UNL A   1      31.891  21.270  21.900  1.00  0.00    -0.269 OA
BRANCH  13  16
ATOM     16  C   UNL A   1      33.400  21.992  23.545  1.00  0.00     0.063 A 
ATOM     17  C   UNL A   1      34.252  23.049  23.176  1.00  0.00     0.017 A 
ATOM     18  C   UNL A   1      33.815  21.042  24.506  1.00  0.00     0.045 A 
ATOM     19  C   UNL A   1      35.503  23.188  23.778  1.00  0.00     0.016 A 
ATOM     20  C   UNL A   1      35.090  21.184  25.075  1.00  0.00     0.042 A 
ATOM     21  C   UNL A   1      35.914  22.256  24.727  1.00  0.00     0.020 A 
ATOM     22  Br  UNL A   1      37.607  22.434  25.551  1.00  0.00    -0.051 Br
BRANCH  18  23
ATOM     23  N   UNL A   1      33.076  19.906  24.829  1.00  0.00    -0.398 N 
ATOM     24  H   UNL A   1      32.105  19.889  24.672  1.00  0.00     0.156 HD
ATOM     25  H   UNL A   1      33.527  19.120  25.214  1.00  0.00     0.156 HD
ENDBRANCH  18  23
ENDBRANCH  13  16
ENDBRANCH   9  12
ENDBRANCH   3   5
ENDBRANCH   2   3
ENDBRANCH   1   2
BRANCH   1  26
ATOM     26  C   UNL A   1      34.318  29.356  27.531  1.00  0.00     0.275 C 
BRANCH  26  27
ATOM     27  O   UNL A   1      35.496  30.166  27.257  1.00  0.00    -0.458 OA
BRANCH  27  28
ATOM     28  C   UNL A   1      36.379  30.633  28.166  1.00  0.00     0.338 C 
ATOM     29  O   UNL A   1      36.251  31.721  28.721  1.00  0.00    -0.246 OA
BRANCH  28  30
ATOM     30  C   UNL A   1      37.548  29.784  28.431  1.00  0.00     0.060 A 
ATOM     31  C   UNL A   1      37.548  28.944  29.561  1.00  0.00     0.016 A 
ATOM     32  C   UNL A   1      38.573  29.732  27.493  1.00  0.00     0.016 A 
ATOM     33  C   UNL A   1      38.519  27.965  29.695  1.00  0.00     0.010 A 
ATOM     34  C   UNL A   1      39.433  28.672  27.532  1.00  0.00     0.010 A 
ATOM     35  C   UNL A   1      39.440  27.836  28.660  1.00  0.00    -0.014 A 
BRANCH  35  36
ATOM     36  C   UNL A   1      40.693  27.125  28.802  1.00  0.00     0.031 A 
ATOM     37  C   UNL A   1      40.795  25.698  28.471  1.00  0.00     0.074 A 
ATOM     38  C   UNL A   1      41.678  28.014  29.067  1.00  0.00     0.049 A 
ATOM     39  N   UNL A   1      41.688  24.907  28.947  1.00  0.00    -0.248 NA
ATOM     40  C   UNL A   1      39.842  24.992  27.616  1.00  0.00     0.031 C 
ATOM     41  C   UNL A   1      43.121  27.948  28.981  1.00  0.00     0.029 A 
ATOM     42  N   UNL A   1      41.443  29.294  29.621  1.00  0.00    -0.354 N 
ATOM     43  C   UNL A   1      41.673  23.762  28.168  1.00  0.00     0.074 A 
ATOM     44  C   UNL A   1      40.393  23.776  27.519  1.00  0.00     0.031 C 
ATOM     45  C   UNL A   1      43.634  28.931  29.755  1.00  0.00     0.029 A 
ATOM     46  C   UNL A   1      42.520  29.569  30.456  1.00  0.00     0.049 A 
ATOM     47  H   UNL A   1      40.668  29.877  29.450  1.00  0.00     0.167 HD
ATOM     48  C   UNL A   1      42.849  23.086  27.998  1.00  0.00     0.037 A 
ATOM     49  C   UNL A   1      42.278  29.523  31.800  1.00  0.00     0.037 A 
ATOM     50  C   UNL A   1      43.889  23.782  28.758  1.00  0.00     0.049 A 
ATOM     51  C   UNL A   1      42.997  28.333  32.381  1.00  0.00     0.074 A 
ATOM     52  C   UNL A   1      44.798  24.753  28.372  1.00  0.00     0.029 A 
ATOM     53  N   UNL A   1      43.792  23.848  30.142  1.00  0.00    -0.354 N 
ATOM     54  N   UNL A   1      43.118  27.176  31.781  1.00  0.00    -0.248 NA
ATOM     55  C   UNL A   1      43.758  28.431  33.617  1.00  0.00     0.031 C 
ATOM     56  C   UNL A   1      45.176  25.471  29.538  1.00  0.00     0.029 A 
ATOM     57  C   UNL A   1      44.490  24.942  30.621  1.00  0.00     0.049 A 
ATOM     58  H   UNL A   1      43.297  23.208  30.703  1.00  0.00     0.167 HD
ATOM     59  C   UNL A   1      44.043  26.430  32.465  1.00  0.00     0.074 A 
ATOM     60  C   UNL A   1      44.390  27.247  33.617  1.00  0.00     0.031 C 
ATOM     61  C   UNL A   1      44.528  25.225  32.044  1.00  0.00     0.037 A 
BRANCH  48  62
ATOM     62  C   UNL A   1      43.186  22.049  26.937  1.00  0.00     0.064 A 
ATOM     63  C   UNL A   1      42.545  20.785  26.962  1.00  0.00     0.173 A 
ATOM     64  C   UNL A   1      44.128  22.196  25.900  1.00  0.00     0.173 A 
ATOM     65  F   UNL A   1      41.569  20.513  27.838  1.00  0.00    -0.203 F 
ATOM     66  C   UNL A   1      42.871  19.746  26.085  1.00  0.00     0.198 A 
ATOM     67  C   UNL A   1      44.465  21.148  25.028  1.00  0.00     0.198 A 
ATOM     68  F   UNL A   1      44.734  23.359  25.655  1.00  0.00    -0.203 F 
ATOM     69  F   UNL A   1      42.234  18.569  26.183  1.00  0.00    -0.200 F 
ATOM     70  C   UNL A   1      43.843  19.921  25.127  1.00  0.00     0.200 A 
ATOM     71  F   UNL A   1      45.399  21.342  24.087  1.00  0.00    -0.200 F 
ATOM     72  F   UNL A   1      44.162  18.924  24.291  1.00  0.00    -0.200 F 
ENDBRANCH  48  62
BRANCH  49  73
ATOM     73  C   UNL A   1      40.919  30.031  32.204  1.00  0.00     0.064 A 
ATOM     74  C   UNL A   1      40.543  31.339  31.807  1.00  0.00     0.173 A 
ATOM     75  C   UNL A   1      39.897  29.225  32.721  1.00  0.00     0.173 A 
ATOM     76  F   UNL A   1      41.468  32.181  31.315  1.00  0.00    -0.203 F 
ATOM     77  C   UNL A   1      39.215  31.770  31.817  1.00  0.00     0.198 A 
ATOM     78  C   UNL A   1      38.566  29.672  32.756  1.00  0.00     0.198 A 
ATOM     79  F   UNL A   1      40.155  27.976  33.129  1.00  0.00    -0.203 F 
ATOM     80  F   UNL A   1      38.897  32.973  31.316  1.00  0.00    -0.200 F 
ATOM     81  C   UNL A   1      38.223  30.929  32.280  1.00  0.00     0.200 A 
ATOM     82  F   UNL A   1      37.594  28.846  33.176  1.00  0.00    -0.200 F 
ATOM     83  F   UNL A   1      36.937  31.307  32.227  1.00  0.00    -0.200 F 
ENDBRANCH  49  73
BRANCH  61  84
ATOM     84  C   UNL A   1      45.195  24.226  32.951  1.00  0.00     0.064 A 
ATOM     85  C   UNL A   1      46.479  24.420  33.484  1.00  0.00     0.173 A 
ATOM     86  C   UNL A   1      44.480  23.117  33.465  1.00  0.00     0.173 A 
ATOM     87  F   UNL A   1      47.198  25.515  33.203  1.00  0.00    -0.203 F 
ATOM     88  C   UNL A   1      47.047  23.518  34.381  1.00  0.00     0.198 A 
ATOM     89  C   UNL A   1      45.018  22.270  34.428  1.00  0.00     0.198 A 
ATOM     90  F   UNL A   1      43.226  22.840  33.079  1.00  0.00    -0.203 F 
ATOM     91  F   UNL A   1      48.305  23.711  34.799  1.00  0.00    -0.200 F 
ATOM     92  C   UNL A   1      46.313  22.453  34.864  1.00  0.00     0.200 A 
ATOM     93  F   UNL A   1      44.264  21.291  34.947  1.00  0.00    -0.200 F 
ATOM     94  F   UNL A   1      46.844  21.620  35.766  1.00  0.00    -0.200 F 
ENDBRANCH  61  84
ENDBRANCH  35  36
ENDBRANCH  28  30
ENDBRANCH  27  28
ENDBRANCH  26  27
ENDBRANCH   1  26
TORSDOF 14
ENDMDL
MODEL 2
REMARK VINA RESULT:     -13.7      4.058     10.056
REMARK SMILES Cc1cc(NC(=O)c2ccc(Br)cc2N)ccc1C(=O)OCCOC(=O)c1ccc(-c2c3nc(c(-c4c(F)c(F)c(F)c(F)c4F)c4ccc([nH]4)c(-c4c(F)c(F)c(F)c(F)c4F)c4nc(c(-c5c(F)c(F)c(F)c(F)c5F)c5ccc2[nH]5)C=C4)C=C3)cc1
REMARK SMILES IDX 22 1 21 2 19 3 20 4 18 5 1 6 2 7 3 8 4 9 17 10 16 11 5 12
REMARK SMILES IDX 6 13 7 15 8 16 9 17 14 18 10 19 13 20 11 21 12 22 15 23
REMARK SMILES IDX 23 26 24 27 25 28 26 29 27 30 28 31 89 32 29 33 88 34 30 35
REMARK SMILES IDX 31 36 32 37 82 38 33 39 87 40 81 41 83 42 34 43 86 44 80 45
REMARK SMILES IDX 79 46 35 48 67 49 47 50 66 51 48 52 51 53 65 54 84 55 49 56
REMARK SMILES IDX 50 57 64 59 85 60 52 61 36 62 37 63 45 64 38 65 39 66 43 67
REMARK SMILES IDX 46 68 40 69 41 70 44 71 42 72 68 73 69 74 77 75 70 76 71 77
REMARK SMILES IDX 75 78 78 79 72 80 73 81 76 82 74 83 53 84 54 85 62 86 55 87
REMARK SMILES IDX 56 88 60 89 63 90 57 91 58 92 61 93 59 94
REMARK H PARENT 5 14 15 24 15 25 83 47 51 58
REMARK Flexibility Score: inf
ROOT
ATOM      1  C   UNL A   1      36.782  23.017  25.490  1.00  0.00     0.275 C 
ENDROOT
BRANCH   1   2
ATOM      2  O   UNL A   1      35.631  23.721  25.001  1.00  0.00    -0.458 OA
BRANCH   2   3
ATOM      3  C   UNL A   1      35.382  23.444  23.698  1.00  0.00     0.338 C 
ATOM      4  O   UNL A   1      36.188  23.011  22.889  1.00  0.00    -0.246 OA
BRANCH   3   5
ATOM      5  C   UNL A   1      34.046  23.848  23.246  1.00  0.00     0.063 A 
ATOM      6  C   UNL A   1      33.139  21.634  24.175  1.00  0.00     0.045 C 
ATOM      7  C   UNL A   1      32.978  23.000  23.569  1.00  0.00    -0.035 A 
ATOM      8  C   UNL A   1      31.677  23.473  23.389  1.00  0.00     0.030 A 
ATOM      9  C   UNL A   1      31.426  24.794  23.020  1.00  0.00     0.041 A 
ATOM     10  C   UNL A   1      33.807  25.123  22.716  1.00  0.00     0.018 A 
ATOM     11  C   UNL A   1      32.491  25.601  22.615  1.00  0.00     0.027 A 
BRANCH   9  12
ATOM     12  N   UNL A   1      30.131  25.340  23.083  1.00  0.00    -0.322 N 
ATOM     13  C   UNL A   1      29.616  26.256  23.989  1.00  0.00     0.257 C 
ATOM     14  H   UNL A   1      29.506  25.030  22.388  1.00  0.00     0.170 HD
ATOM     15  O   UNL A   1      28.399  26.380  24.114  1.00  0.00    -0.269 OA
BRANCH  13  16
ATOM     16  C   UNL A   1      30.515  27.141  24.785  1.00  0.00     0.063 A 
ATOM     17  C   UNL A   1      30.803  28.405  24.239  1.00  0.00     0.017 A 
ATOM     18  C   UNL A   1      31.037  26.771  26.047  1.00  0.00     0.045 A 
ATOM     19  C   UNL A   1      31.582  29.319  24.950  1.00  0.00     0.016 A 
ATOM     20  C   UNL A   1      31.844  27.695  26.728  1.00  0.00     0.042 A 
ATOM     21  C   UNL A   1      32.096  28.959  26.193  1.00  0.00     0.020 A 
ATOM     22  Br  UNL A   1      33.154  30.188  27.167  1.00  0.00    -0.051 Br
BRANCH  18  23
ATOM     23  N   UNL A   1      30.893  25.498  26.591  1.00  0.00    -0.398 N 
ATOM     24  H   UNL A   1      31.673  24.901  26.659  1.00  0.00     0.156 HD
ATOM     25  H   UNL A   1      30.013  25.195  26.909  1.00  0.00     0.156 HD
ENDBRANCH  18  23
ENDBRANCH  13  16
ENDBRANCH   9  12
ENDBRANCH   3   5
ENDBRANCH   2   3
ENDBRANCH   1   2
BRANCH   1  26
ATOM     26  C   UNL A   1      37.877  23.929  26.053  1.00  0.00     0.275 C 
BRANCH  26  27
ATOM     27  O   UNL A   1      39.076  23.378  26.667  1.00  0.00    -0.458 OA
BRANCH  27  28
ATOM     28  C   UNL A   1      40.287  23.971  26.736  1.00  0.00     0.338 C 
ATOM     29  O   UNL A   1      41.322  23.417  26.375  1.00  0.00    -0.246 OA
BRANCH  28  30
ATOM     30  C   UNL A   1      40.318  25.319  27.320  1.00  0.00     0.060 A 
ATOM     31  C   UNL A   1      40.512  26.430  26.478  1.00  0.00     0.016 A 
ATOM     32  C   UNL A   1      40.025  25.478  28.670  1.00  0.00     0.016 A 
ATOM     33  C   UNL A   1      40.300  27.711  26.963  1.00  0.00     0.010 A 
ATOM     34  C   UNL A   1      39.657  26.717  29.110  1.00  0.00     0.010 A 
ATOM     35  C   UNL A   1      39.856  27.829  28.276  1.00  0.00    -0.014 A 
BRANCH  35  36
ATOM     36  C   UNL A   1      39.926  29.065  29.025  1.00  0.00     0.031 A 
ATOM     37  C   UNL A   1      38.821  30.032  28.993  1.00  0.00     0.074 A 
ATOM     38  C   UNL A   1      41.010  29.031  29.834  1.00  0.00     0.049 A 
ATOM     39  N   UNL A   1      38.949  31.285  29.249  1.00  0.00    -0.248 NA
ATOM     40  C   UNL A   1      37.456  29.695  28.592  1.00  0.00     0.031 C 
ATOM     41  C   UNL A   1      41.398  29.792  31.002  1.00  0.00     0.029 A 
ATOM     42  N   UNL A   1      42.130  28.200  29.600  1.00  0.00    -0.354 N 
ATOM     43  C   UNL A   1      37.675  31.792  29.446  1.00  0.00     0.074 A 
ATOM     44  C   UNL A   1      36.800  30.839  28.821  1.00  0.00     0.031 C 
ATOM     45  C   UNL A   1      42.734  29.662  31.164  1.00  0.00     0.029 A 
ATOM     46  C   UNL A   1      43.248  28.912  30.018  1.00  0.00     0.049 A 
ATOM     47  H   UNL A   1      42.120  27.293  29.215  1.00  0.00     0.167 HD
ATOM     48  C   UNL A   1      37.525  32.829  30.323  1.00  0.00     0.037 A 
ATOM     49  C   UNL A   1      44.066  29.396  29.037  1.00  0.00     0.037 A 
ATOM     50  C   UNL A   1      38.847  33.178  30.846  1.00  0.00     0.049 A 
ATOM     51  C   UNL A   1      43.953  30.898  29.008  1.00  0.00     0.074 A 
ATOM     52  C   UNL A   1      39.508  32.765  31.991  1.00  0.00     0.029 A 
ATOM     53  N   UNL A   1      39.814  33.671  29.979  1.00  0.00    -0.354 N 
ATOM     54  N   UNL A   1      42.841  31.561  29.206  1.00  0.00    -0.248 NA
ATOM     55  C   UNL A   1      45.128  31.750  28.908  1.00  0.00     0.031 C 
ATOM     56  C   UNL A   1      40.901  32.929  31.763  1.00  0.00     0.029 A 
ATOM     57  C   UNL A   1      41.079  33.429  30.481  1.00  0.00     0.049 A 
ATOM     58  H   UNL A   1      39.625  34.128  29.127  1.00  0.00     0.167 HD
ATOM     59  C   UNL A   1      43.152  32.885  29.374  1.00  0.00     0.074 A 
ATOM     60  C   UNL A   1      44.587  32.954  29.151  1.00  0.00     0.031 C 
ATOM     61  C   UNL A   1      42.256  33.849  29.743  1.00  0.00     0.037 A 
BRANCH  48  62
ATOM     62  C   UNL A   1      36.245  33.317  30.984  1.00  0.00     0.064 A 
ATOM     63  C   UNL A   1      35.351  34.143  30.257  1.00  0.00     0.173 A 
ATOM     64  C   UNL A   1      35.838  33.054  32.307  1.00  0.00     0.173 A 
ATOM     65  F   UNL A   1      35.553  34.424  28.963  1.00  0.00    -0.203 F 
ATOM     66  C   UNL A   1      34.206  34.712  30.823  1.00  0.00     0.198 A 
ATOM     67  C   UNL A   1      34.696  33.636  32.878  1.00  0.00     0.198 A 
ATOM     68  F   UNL A   1      36.497  32.198  33.091  1.00  0.00    -0.203 F 
ATOM     69  F   UNL A   1      33.418  35.501  30.078  1.00  0.00    -0.200 F 
ATOM     70  C   UNL A   1      33.885  34.472  32.140  1.00  0.00     0.200 A 
ATOM     71  F   UNL A   1      34.387  33.374  34.157  1.00  0.00    -0.200 F 
ATOM     72  F   UNL A   1      32.793  35.023  32.686  1.00  0.00    -0.200 F 
ENDBRANCH  48  62
BRANCH  49  73
ATOM     73  C   UNL A   1      44.208  28.488  27.843  1.00  0.00     0.064 A 
ATOM     74  C   UNL A   1      44.814  27.220  28.030  1.00  0.00     0.173 A 
ATOM     75  C   UNL A   1      43.562  28.690  26.617  1.00  0.00     0.173 A 
ATOM     76  F   UNL A   1      45.469  26.953  29.173  1.00  0.00    -0.203 F 
ATOM     77  C   UNL A   1      44.682  26.185  27.102  1.00  0.00     0.198 A 
ATOM     78  C   UNL A   1      43.454  27.655  25.673  1.00  0.00     0.198 A 
ATOM     79  F   UNL A   1      42.964  29.857  26.346  1.00  0.00    -0.203 F 
ATOM     80  F   UNL A   1      45.171  24.968  27.382  1.00  0.00    -0.200 F 
ATOM     81  C   UNL A   1      43.989  26.400  25.927  1.00  0.00     0.200 A 
ATOM     82  F   UNL A   1      42.754  27.849  24.545  1.00  0.00    -0.200 F 
ATOM     83  F   UNL A   1      43.795  25.392  25.063  1.00  0.00    -0.200 F 
ENDBRANCH  49  73
BRANCH  61  84
ATOM     84  C   UNL A   1      42.473  35.322  29.526  1.00  0.00     0.064 A 
ATOM     85  C   UNL A   1      43.347  36.088  30.314  1.00  0.00     0.173 A 
ATOM     86  C   UNL A   1      41.941  35.977  28.388  1.00  0.00     0.173 A 
ATOM     87  F   UNL A   1      44.039  35.545  31.324  1.00  0.00    -0.203 F 
ATOM     88  C   UNL A   1      43.589  37.433  30.048  1.00  0.00     0.198 A 
ATOM     89  C   UNL A   1      42.257  37.294  28.077  1.00  0.00     0.198 A 
ATOM     90  F   UNL A   1      41.130  35.351  27.523  1.00  0.00    -0.203 F 
ATOM     91  F   UNL A   1      44.372  38.137  30.877  1.00  0.00    -0.200 F 
ATOM     92  C   UNL A   1      43.057  38.033  28.923  1.00  0.00     0.200 A 
ATOM     93  F   UNL A   1      41.800  37.836  26.939  1.00  0.00    -0.200 F 
ATOM     94  F   UNL A   1      43.336  39.311  28.643  1.00  0.00    -0.200 F 
ENDBRANCH  61  84
ENDBRANCH  35  36
ENDBRANCH  28  30
ENDBRANCH  27  28
ENDBRANCH  26  27
ENDBRANCH   1  26
TORSDOF 14
ENDMDL
MODEL 3
REMARK VINA RESULT:     -13.5      1.112      1.727
REMARK SMILES Cc1cc(NC(=O)c2ccc(Br)cc2N)ccc1C(=O)OCCOC(=O)c1ccc(-c2c3nc(c(-c4c(F)c(F)c(F)c(F)c4F)c4ccc([nH]4)c(-c4c(F)c(F)c(F)c(F)c4F)c4nc(c(-c5c(F)c(F)c(F)c(F)c5F)c5ccc2[nH]5)C=C4)C=C3)cc1
REMARK SMILES IDX 22 1 21 2 19 3 20 4 18 5 1 6 2 7 3 8 4 9 17 10 16 11 5 12
REMARK SMILES IDX 6 13 7 15 8 16 9 17 14 18 10 19 13 20 11 21 12 22 15 23
REMARK SMILES IDX 23 26 24 27 25 28 26 29 27 30 28 31 89 32 29 33 88 34 30 35
REMARK SMILES IDX 31 36 32 37 82 38 33 39 87 40 81 41 83 42 34 43 86 44 80 45
REMARK SMILES IDX 79 46 35 48 67 49 47 50 66 51 48 52 51 53 65 54 84 55 49 56
REMARK SMILES IDX 50 57 64 59 85 60 52 61 36 62 37 63 45 64 38 65 39 66 43 67
REMARK SMILES IDX 46 68 40 69 41 70 44 71 42 72 68 73 69 74 77 75 70 76 71 77
REMARK SMILES IDX 75 78 78 79 72 80 73 81 76 82 74 83 53 84 54 85 62 86 55 87
REMARK SMILES IDX 56 88 60 89 63 90 57 91 58 92 61 93 59 94
REMARK H PARENT 5 14 15 24 15 25 83 47 51 58
REMARK Flexibility Score: inf
ROOT
ATOM      1  C   UNL A   1      33.343  29.334  25.954  1.00  0.00     0.275 C 
ENDROOT
BRANCH   1   2
ATOM      2  O   UNL A   1      33.097  28.277  25.015  1.00  0.00    -0.458 OA
BRANCH   2   3
ATOM      3  C   UNL A   1      31.791  28.203  24.663  1.00  0.00     0.338 C 
ATOM      4  O   UNL A   1      31.083  29.142  24.330  1.00  0.00    -0.246 OA
BRANCH   3   5
ATOM      5  C   UNL A   1      31.196  26.874  24.846  1.00  0.00     0.063 A 
ATOM      6  C   UNL A   1      31.442  26.492  22.320  1.00  0.00     0.045 C 
ATOM      7  C   UNL A   1      31.125  26.044  23.720  1.00  0.00    -0.035 A 
ATOM      8  C   UNL A   1      30.813  24.697  23.907  1.00  0.00     0.030 A 
ATOM      9  C   UNL A   1      30.697  24.146  25.183  1.00  0.00     0.041 A 
ATOM     10  C   UNL A   1      30.918  26.367  26.123  1.00  0.00     0.018 A 
ATOM     11  C   UNL A   1      30.679  24.995  26.291  1.00  0.00     0.027 A 
BRANCH   9  12
ATOM     12  N   UNL A   1      30.634  22.754  25.378  1.00  0.00    -0.322 N 
ATOM     13  C   UNL A   1      31.661  21.821  25.334  1.00  0.00     0.257 C 
ATOM     14  H   UNL A   1      29.739  22.393  25.573  1.00  0.00     0.170 HD
ATOM     15  O   UNL A   1      31.403  20.627  25.196  1.00  0.00    -0.269 OA
BRANCH  13  16
ATOM     16  C   UNL A   1      33.085  22.235  25.505  1.00  0.00     0.063 A 
ATOM     17  C   UNL A   1      33.836  22.415  24.330  1.00  0.00     0.017 A 
ATOM     18  C   UNL A   1      33.668  22.476  26.771  1.00  0.00     0.045 A 
ATOM     19  C   UNL A   1      35.156  22.864  24.399  1.00  0.00     0.016 A 
ATOM     20  C   UNL A   1      35.006  22.896  26.816  1.00  0.00     0.042 A 
ATOM     21  C   UNL A   1      35.732  23.105  25.643  1.00  0.00     0.020 A 
ATOM     22  Br  UNL A   1      37.520  23.713  25.751  1.00  0.00    -0.051 Br
BRANCH  18  23
ATOM     23  N   UNL A   1      33.024  22.203  27.976  1.00  0.00    -0.398 N 
ATOM     24  H   UNL A   1      32.068  22.408  28.080  1.00  0.00     0.156 HD
ATOM     25  H   UNL A   1      33.527  21.805  28.722  1.00  0.00     0.156 HD
ENDBRANCH  18  23
ENDBRANCH  13  16
ENDBRANCH   9  12
ENDBRANCH   3   5
ENDBRANCH   2   3
ENDBRANCH   1   2
BRANCH   1  26
ATOM     26  C   UNL A   1      34.450  29.022  26.967  1.00  0.00     0.275 C 
BRANCH  26  27
ATOM     27  O   UNL A   1      35.539  29.958  27.205  1.00  0.00    -0.458 OA
BRANCH  27  28
ATOM     28  C   UNL A   1      36.248  30.091  28.347  1.00  0.00     0.338 C 
ATOM     29  O   UNL A   1      35.888  30.812  29.274  1.00  0.00    -0.246 OA
BRANCH  28  30
ATOM     30  C   UNL A   1      37.519  29.358  28.411  1.00  0.00     0.060 A 
ATOM     31  C   UNL A   1      38.500  29.591  27.428  1.00  0.00     0.016 A 
ATOM     32  C   UNL A   1      37.778  28.546  29.511  1.00  0.00     0.016 A 
ATOM     33  C   UNL A   1      39.785  29.104  27.604  1.00  0.00     0.010 A 
ATOM     34  C   UNL A   1      39.074  28.203  29.770  1.00  0.00     0.010 A 
ATOM     35  C   UNL A   1      40.053  28.429  28.790  1.00  0.00    -0.014 A 
BRANCH  35  36
ATOM     36  C   UNL A   1      41.208  27.574  28.969  1.00  0.00     0.031 A 
ATOM     37  C   UNL A   1      41.151  26.146  28.631  1.00  0.00     0.074 A 
ATOM     38  C   UNL A   1      42.282  28.339  29.274  1.00  0.00     0.049 A 
ATOM     39  N   UNL A   1      41.927  25.254  29.131  1.00  0.00    -0.248 NA
ATOM     40  C   UNL A   1      40.152  25.561  27.738  1.00  0.00     0.031 C 
ATOM     41  C   UNL A   1      43.708  28.103  29.237  1.00  0.00     0.029 A 
ATOM     42  N   UNL A   1      42.180  29.636  29.830  1.00  0.00    -0.354 N 
ATOM     43  C   UNL A   1      41.804  24.120  28.344  1.00  0.00     0.074 A 
ATOM     44  C   UNL A   1      40.558  24.289  27.651  1.00  0.00     0.031 C 
ATOM     45  C   UNL A   1      44.307  29.015  30.036  1.00  0.00     0.029 A 
ATOM     46  C   UNL A   1      43.252  29.778  30.704  1.00  0.00     0.049 A 
ATOM     47  H   UNL A   1      41.486  30.307  29.637  1.00  0.00     0.167 HD
ATOM     48  C   UNL A   1      42.897  23.311  28.209  1.00  0.00     0.037 A 
ATOM     49  C   UNL A   1      42.960  29.757  32.038  1.00  0.00     0.037 A 
ATOM     50  C   UNL A   1      43.984  23.876  29.009  1.00  0.00     0.049 A 
ATOM     51  C   UNL A   1      43.511  28.488  32.635  1.00  0.00     0.074 A 
ATOM     52  C   UNL A   1      45.016  24.734  28.662  1.00  0.00     0.029 A 
ATOM     53  N   UNL A   1      43.848  23.948  30.390  1.00  0.00    -0.354 N 
ATOM     54  N   UNL A   1      43.516  27.327  32.030  1.00  0.00    -0.248 NA
ATOM     55  C   UNL A   1      44.236  28.490  33.897  1.00  0.00     0.031 C 
ATOM     56  C   UNL A   1      45.435  25.398  29.846  1.00  0.00     0.029 A 
ATOM     57  C   UNL A   1      44.654  24.950  30.901  1.00  0.00     0.049 A 
ATOM     58  H   UNL A   1      43.262  23.369  30.928  1.00  0.00     0.167 HD
ATOM     59  C   UNL A   1      44.321  26.474  32.740  1.00  0.00     0.074 A 
ATOM     60  C   UNL A   1      44.722  27.240  33.910  1.00  0.00     0.031 C 
ATOM     61  C   UNL A   1      44.675  25.221  32.326  1.00  0.00     0.037 A 
BRANCH  48  62
ATOM     62  C   UNL A   1      43.146  22.245  27.152  1.00  0.00     0.064 A 
ATOM     63  C   UNL A   1      42.367  21.060  27.153  1.00  0.00     0.173 A 
ATOM     64  C   UNL A   1      44.127  22.287  26.142  1.00  0.00     0.173 A 
ATOM     65  F   UNL A   1      41.343  20.897  28.001  1.00  0.00    -0.203 F 
ATOM     66  C   UNL A   1      42.599  19.993  26.280  1.00  0.00     0.198 A 
ATOM     67  C   UNL A   1      44.369  21.210  25.275  1.00  0.00     0.198 A 
ATOM     68  F   UNL A   1      44.866  23.377  25.920  1.00  0.00    -0.203 F 
ATOM     69  F   UNL A   1      41.833  18.895  26.354  1.00  0.00    -0.200 F 
ATOM     70  C   UNL A   1      43.611  20.060  25.350  1.00  0.00     0.200 A 
ATOM     71  F   UNL A   1      45.345  21.301  24.360  1.00  0.00    -0.200 F 
ATOM     72  F   UNL A   1      43.841  19.036  24.517  1.00  0.00    -0.200 F 
ENDBRANCH  48  62
BRANCH  49  73
ATOM     73  C   UNL A   1      41.656  30.421  32.399  1.00  0.00     0.064 A 
ATOM     74  C   UNL A   1      41.565  31.831  32.285  1.00  0.00     0.173 A 
ATOM     75  C   UNL A   1      40.450  29.737  32.594  1.00  0.00     0.173 A 
ATOM     76  F   UNL A   1      42.679  32.563  32.112  1.00  0.00    -0.203 F 
ATOM     77  C   UNL A   1      40.340  32.500  32.251  1.00  0.00     0.198 A 
ATOM     78  C   UNL A   1      39.220  30.416  32.588  1.00  0.00     0.198 A 
ATOM     79  F   UNL A   1      40.435  28.404  32.719  1.00  0.00    -0.203 F 
ATOM     80  F   UNL A   1      40.303  33.820  32.019  1.00  0.00    -0.200 F 
ATOM     81  C   UNL A   1      39.165  31.788  32.389  1.00  0.00     0.200 A 
ATOM     82  F   UNL A   1      38.074  29.725  32.689  1.00  0.00    -0.200 F 
ATOM     83  F   UNL A   1      37.981  32.411  32.286  1.00  0.00    -0.200 F 
ENDBRANCH  49  73
BRANCH  61  84
ATOM     84  C   UNL A   1      45.187  24.147  33.248  1.00  0.00     0.064 A 
ATOM     85  C   UNL A   1      44.427  23.022  33.604  1.00  0.00     0.173 A 
ATOM     86  C   UNL A   1      46.542  24.126  33.659  1.00  0.00     0.173 A 
ATOM     87  F   UNL A   1      43.180  22.843  33.145  1.00  0.00    -0.203 F 
ATOM     88  C   UNL A   1      44.947  22.004  34.399  1.00  0.00     0.198 A 
ATOM     89  C   UNL A   1      47.082  23.063  34.376  1.00  0.00     0.198 A 
ATOM     90  F   UNL A   1      47.394  25.112  33.348  1.00  0.00    -0.203 F 
ATOM     91  F   UNL A   1      44.155  20.990  34.772  1.00  0.00    -0.200 F 
ATOM     92  C   UNL A   1      46.277  22.016  34.772  1.00  0.00     0.200 A 
ATOM     93  F   UNL A   1      48.392  23.050  34.660  1.00  0.00    -0.200 F 
ATOM     94  F   UNL A   1      46.786  21.009  35.490  1.00  0.00    -0.200 F 
ENDBRANCH  61  84
ENDBRANCH  35  36
ENDBRANCH  28  30
ENDBRANCH  27  28
ENDBRANCH  26  27
ENDBRANCH   1  26
TORSDOF 14
ENDMDL
