MODEL 1
REMARK VINA RESULT:     -11.3      0.000      0.000
REMARK SMILES C[C@@H](CCO)Sc1cc(C(=O)OCCOC(=O)c2ccc(-c3c4nc(c(-c5c(F)c(F)c(F)c(F)c5F)c5ccc([nH]5)c(-c5c(F)c(F)c(F)c(F)c5F)c5nc(c(-c6c(F)c(F)c(F)c(F)c6F)c6ccc3[nH]6)C=C5)C=C4)cc2)c2ccccc2n1
REMARK SMILES IDX 12 1 10 2 11 3 9 4 7 5 8 6 87 7 86 8 81 9 85 10 82 11 84 12
REMARK SMILES IDX 83 13 6 14 2 15 1 16 3 17 4 18 5 19 13 21 14 22 15 23 16 24
REMARK SMILES IDX 17 25 18 26 19 27 80 28 20 29 79 30 21 31 22 32 23 33 73 34
REMARK SMILES IDX 24 35 78 36 72 37 74 38 25 39 77 40 71 41 70 42 26 44 58 45
REMARK SMILES IDX 38 46 57 47 39 48 42 49 56 50 75 51 40 52 41 53 55 55 76 56
REMARK SMILES IDX 43 57 27 58 28 59 36 60 29 61 30 62 34 63 37 64 31 65 32 66
REMARK SMILES IDX 35 67 33 68 59 69 60 70 68 71 61 72 62 73 66 74 69 75 63 76
REMARK SMILES IDX 64 77 67 78 65 79 44 80 45 81 53 82 46 83 47 84 51 85 54 86
REMARK SMILES IDX 48 87 49 88 52 89 50 90
REMARK H PARENT 5 20 74 43 42 54
REMARK Flexibility Score: inf
ROOT
ATOM      1  O   UNL A   1      32.408  27.864  26.648  1.00  0.00    -0.458 OA
ENDROOT
BRANCH   1   2
ATOM      2  C   UNL A   1      31.799  26.678  26.409  1.00  0.00     0.339 C 
ATOM      3  O   UNL A   1      30.685  26.348  26.780  1.00  0.00    -0.246 OA
BRANCH   2   4
ATOM      4  C   UNL A   1      32.622  25.828  25.511  1.00  0.00     0.072 A 
ATOM      5  C   UNL A   1      34.388  24.211  25.378  1.00  0.00     0.098 A 
ATOM      6  C   UNL A   1      33.620  25.062  26.140  1.00  0.00     0.052 A 
ATOM      7  N   UNL A   1      34.226  24.146  24.042  1.00  0.00    -0.241 NA
ATOM      8  C   UNL A   1      33.332  24.927  23.421  1.00  0.00     0.072 A 
ATOM      9  C   UNL A   1      32.473  25.805  24.103  1.00  0.00     0.015 A 
ATOM     10  C   UNL A   1      33.285  24.864  22.036  1.00  0.00     0.029 A 
ATOM     11  C   UNL A   1      31.582  26.603  23.333  1.00  0.00     0.011 A 
ATOM     12  C   UNL A   1      32.407  25.649  21.290  1.00  0.00     0.002 A 
ATOM     13  C   UNL A   1      31.548  26.518  21.942  1.00  0.00     0.001 A 
BRANCH   5  14
ATOM     14  S   UNL A   1      35.682  23.128  25.922  1.00  0.00    -0.103 SA
BRANCH  14  15
ATOM     15  C   UNL A   1      35.817  21.676  24.805  1.00  0.00     0.052 C 
ATOM     16  C   UNL A   1      37.272  21.300  24.532  1.00  0.00     0.020 C 
BRANCH  15  17
ATOM     17  C   UNL A   1      34.850  20.480  24.946  1.00  0.00     0.043 C 
BRANCH  17  18
ATOM     18  C   UNL A   1      33.465  20.690  25.534  1.00  0.00     0.157 C 
BRANCH  18  19
ATOM     19  O   UNL A   1      33.343  20.093  26.814  1.00  0.00    -0.396 OA
ATOM     20  H   UNL A   1      34.094  20.359  27.368  1.00  0.00     0.210 HD
ENDBRANCH  18  19
ENDBRANCH  17  18
ENDBRANCH  15  17
ENDBRANCH  14  15
ENDBRANCH   5  14
ENDBRANCH   2   4
ENDBRANCH   1   2
BRANCH   1  21
ATOM     21  C   UNL A   1      31.569  28.969  27.052  1.00  0.00     0.275 C 
BRANCH  21  22
ATOM     22  C   UNL A   1      31.750  30.140  26.092  1.00  0.00     0.275 C 
BRANCH  22  23
ATOM     23  O   UNL A   1      33.126  30.550  26.139  1.00  0.00    -0.458 OA
BRANCH  23  24
ATOM     24  C   UNL A   1      33.457  31.432  27.104  1.00  0.00     0.338 C 
ATOM     25  O   UNL A   1      32.796  32.366  27.529  1.00  0.00    -0.246 OA
BRANCH  24  26
ATOM     26  C   UNL A   1      34.788  31.079  27.626  1.00  0.00     0.060 A 
ATOM     27  C   UNL A   1      35.081  29.749  27.908  1.00  0.00     0.016 A 
ATOM     28  C   UNL A   1      35.710  32.078  27.936  1.00  0.00     0.016 A 
ATOM     29  C   UNL A   1      36.256  29.436  28.585  1.00  0.00     0.010 A 
ATOM     30  C   UNL A   1      36.929  31.741  28.544  1.00  0.00     0.010 A 
ATOM     31  C   UNL A   1      37.199  30.417  28.930  1.00  0.00    -0.014 A 
BRANCH  31  32
ATOM     32  C   UNL A   1      38.394  30.061  29.765  1.00  0.00     0.031 A 
ATOM     33  C   UNL A   1      39.531  29.258  29.173  1.00  0.00     0.074 A 
ATOM     34  C   UNL A   1      38.532  30.517  31.029  1.00  0.00     0.049 A 
ATOM     35  N   UNL A   1      40.563  28.713  29.773  1.00  0.00    -0.248 NA
ATOM     36  C   UNL A   1      39.507  29.034  27.719  1.00  0.00     0.031 C 
ATOM     37  C   UNL A   1      37.576  31.367  31.736  1.00  0.00     0.029 A 
ATOM     38  N   UNL A   1      39.558  30.359  31.933  1.00  0.00    -0.354 N 
ATOM     39  C   UNL A   1      41.254  28.015  28.788  1.00  0.00     0.074 A 
ATOM     40  C   UNL A   1      40.540  28.224  27.547  1.00  0.00     0.031 C 
ATOM     41  C   UNL A   1      38.097  31.733  32.917  1.00  0.00     0.029 A 
ATOM     42  C   UNL A   1      39.366  31.040  33.112  1.00  0.00     0.049 A 
ATOM     43  H   UNL A   1      40.355  29.809  31.753  1.00  0.00     0.167 HD
ATOM     44  C   UNL A   1      42.373  27.259  28.908  1.00  0.00     0.037 A 
ATOM     45  C   UNL A   1      40.094  31.072  34.246  1.00  0.00     0.037 A 
ATOM     46  C   UNL A   1      43.141  27.114  30.119  1.00  0.00     0.049 A 
ATOM     47  C   UNL A   1      41.316  30.207  34.369  1.00  0.00     0.074 A 
ATOM     48  C   UNL A   1      44.287  26.365  30.330  1.00  0.00     0.029 A 
ATOM     49  N   UNL A   1      42.862  27.758  31.313  1.00  0.00    -0.354 N 
ATOM     50  N   UNL A   1      41.884  29.445  33.467  1.00  0.00    -0.248 NA
ATOM     51  C   UNL A   1      41.971  30.170  35.685  1.00  0.00     0.031 C 
ATOM     52  C   UNL A   1      44.684  26.532  31.661  1.00  0.00     0.029 A 
ATOM     53  C   UNL A   1      43.808  27.415  32.267  1.00  0.00     0.049 A 
ATOM     54  H   UNL A   1      42.103  28.368  31.462  1.00  0.00     0.167 HD
ATOM     55  C   UNL A   1      42.952  28.830  34.108  1.00  0.00     0.074 A 
ATOM     56  C   UNL A   1      42.978  29.336  35.464  1.00  0.00     0.031 C 
ATOM     57  C   UNL A   1      43.822  27.914  33.617  1.00  0.00     0.037 A 
BRANCH  44  58
ATOM     58  C   UNL A   1      42.817  26.477  27.707  1.00  0.00     0.064 A 
ATOM     59  C   UNL A   1      43.785  26.958  26.816  1.00  0.00     0.173 A 
ATOM     60  C   UNL A   1      42.291  25.196  27.477  1.00  0.00     0.173 A 
ATOM     61  F   UNL A   1      44.308  28.182  26.986  1.00  0.00    -0.203 F 
ATOM     62  C   UNL A   1      44.196  26.194  25.726  1.00  0.00     0.198 A 
ATOM     63  C   UNL A   1      42.722  24.424  26.402  1.00  0.00     0.198 A 
ATOM     64  F   UNL A   1      41.366  24.686  28.305  1.00  0.00    -0.203 F 
ATOM     65  F   UNL A   1      45.096  26.687  24.865  1.00  0.00    -0.200 F 
ATOM     66  C   UNL A   1      43.671  24.926  25.525  1.00  0.00     0.200 A 
ATOM     67  F   UNL A   1      42.222  23.194  26.218  1.00  0.00    -0.200 F 
ATOM     68  F   UNL A   1      44.074  24.188  24.481  1.00  0.00    -0.200 F 
ENDBRANCH  44  58
BRANCH  45  69
ATOM     69  C   UNL A   1      39.647  31.909  35.391  1.00  0.00     0.064 A 
ATOM     70  C   UNL A   1      40.185  33.187  35.602  1.00  0.00     0.173 A 
ATOM     71  C   UNL A   1      38.676  31.454  36.296  1.00  0.00     0.173 A 
ATOM     72  F   UNL A   1      41.142  33.653  34.787  1.00  0.00    -0.203 F 
ATOM     73  C   UNL A   1      39.766  33.976  36.673  1.00  0.00     0.198 A 
ATOM     74  C   UNL A   1      38.234  32.256  37.344  1.00  0.00     0.198 A 
ATOM     75  F   UNL A   1      38.138  30.234  36.145  1.00  0.00    -0.203 F 
ATOM     76  F   UNL A   1      40.323  35.177  36.875  1.00  0.00    -0.200 F 
ATOM     77  C   UNL A   1      38.783  33.514  37.535  1.00  0.00     0.200 A 
ATOM     78  F   UNL A   1      37.273  31.811  38.165  1.00  0.00    -0.200 F 
ATOM     79  F   UNL A   1      38.369  34.279  38.555  1.00  0.00    -0.200 F 
ENDBRANCH  45  69
BRANCH  57  80
ATOM     80  C   UNL A   1      44.876  27.400  34.551  1.00  0.00     0.064 A 
ATOM     81  C   UNL A   1      46.102  28.062  34.702  1.00  0.00     0.173 A 
ATOM     82  C   UNL A   1      44.650  26.249  35.321  1.00  0.00     0.173 A 
ATOM     83  F   UNL A   1      46.372  29.157  33.973  1.00  0.00    -0.203 F 
ATOM     84  C   UNL A   1      47.074  27.580  35.574  1.00  0.00     0.198 A 
ATOM     85  C   UNL A   1      45.614  25.783  36.210  1.00  0.00     0.198 A 
ATOM     86  F   UNL A   1      43.491  25.582  35.216  1.00  0.00    -0.203 F 
ATOM     87  F   UNL A   1      48.256  28.205  35.671  1.00  0.00    -0.200 F 
ATOM     88  C   UNL A   1      46.828  26.444  36.331  1.00  0.00     0.200 A 
ATOM     89  F   UNL A   1      45.372  24.689  36.947  1.00  0.00    -0.200 F 
ATOM     90  F   UNL A   1      47.763  25.981  37.171  1.00  0.00    -0.200 F 
ENDBRANCH  57  80
ENDBRANCH  31  32
ENDBRANCH  24  26
ENDBRANCH  23  24
ENDBRANCH  22  23
ENDBRANCH  21  22
ENDBRANCH   1  21
TORSDOF 16
ENDMDL
MODEL 2
REMARK VINA RESULT:     -11.2      4.697      7.440
REMARK SMILES C[C@@H](CCO)Sc1cc(C(=O)OCCOC(=O)c2ccc(-c3c4nc(c(-c5c(F)c(F)c(F)c(F)c5F)c5ccc([nH]5)c(-c5c(F)c(F)c(F)c(F)c5F)c5nc(c(-c6c(F)c(F)c(F)c(F)c6F)c6ccc3[nH]6)C=C5)C=C4)cc2)c2ccccc2n1
REMARK SMILES IDX 12 1 10 2 11 3 9 4 7 5 8 6 87 7 86 8 81 9 85 10 82 11 84 12
REMARK SMILES IDX 83 13 6 14 2 15 1 16 3 17 4 18 5 19 13 21 14 22 15 23 16 24
REMARK SMILES IDX 17 25 18 26 19 27 80 28 20 29 79 30 21 31 22 32 23 33 73 34
REMARK SMILES IDX 24 35 78 36 72 37 74 38 25 39 77 40 71 41 70 42 26 44 58 45
REMARK SMILES IDX 38 46 57 47 39 48 42 49 56 50 75 51 40 52 41 53 55 55 76 56
REMARK SMILES IDX 43 57 27 58 28 59 36 60 29 61 30 62 34 63 37 64 31 65 32 66
REMARK SMILES IDX 35 67 33 68 59 69 60 70 68 71 61 72 62 73 66 74 69 75 63 76
REMARK SMILES IDX 64 77 67 78 65 79 44 80 45 81 53 82 46 83 47 84 51 85 54 86
REMARK SMILES IDX 48 87 49 88 52 89 50 90
REMARK H PARENT 5 20 74 43 42 54
REMARK Flexibility Score: inf
ROOT
ATOM      1  O   UNL A   1      37.495  21.030  25.275  1.00  0.00    -0.458 OA
ENDROOT
BRANCH   1   2
ATOM      2  C   UNL A   1      36.663  21.746  24.482  1.00  0.00     0.339 C 
ATOM      3  O   UNL A   1      36.972  22.356  23.472  1.00  0.00    -0.246 OA
BRANCH   2   4
ATOM      4  C   UNL A   1      35.252  21.609  24.927  1.00  0.00     0.072 A 
ATOM      5  C   UNL A   1      33.431  20.096  25.311  1.00  0.00     0.098 A 
ATOM      6  C   UNL A   1      34.716  20.310  24.867  1.00  0.00     0.052 A 
ATOM      7  N   UNL A   1      32.675  21.122  25.750  1.00  0.00    -0.241 NA
ATOM      8  C   UNL A   1      33.146  22.375  25.739  1.00  0.00     0.072 A 
ATOM      9  C   UNL A   1      34.453  22.702  25.340  1.00  0.00     0.015 A 
ATOM     10  C   UNL A   1      32.277  23.386  26.125  1.00  0.00     0.029 A 
ATOM     11  C   UNL A   1      34.833  24.073  25.348  1.00  0.00     0.011 A 
ATOM     12  C   UNL A   1      32.659  24.726  26.131  1.00  0.00     0.002 A 
ATOM     13  C   UNL A   1      33.944  25.071  25.745  1.00  0.00     0.001 A 
BRANCH   5  14
ATOM     14  S   UNL A   1      32.537  18.567  25.367  1.00  0.00    -0.103 SA
BRANCH  14  15
ATOM     15  C   UNL A   1      32.961  17.521  23.917  1.00  0.00     0.052 C 
ATOM     16  C   UNL A   1      32.456  18.126  22.609  1.00  0.00     0.020 C 
BRANCH  15  17
ATOM     17  C   UNL A   1      34.336  16.823  23.826  1.00  0.00     0.043 C 
BRANCH  17  18
ATOM     18  C   UNL A   1      34.859  16.017  25.003  1.00  0.00     0.157 C 
BRANCH  18  19
ATOM     19  O   UNL A   1      34.009  14.925  25.310  1.00  0.00    -0.396 OA
ATOM     20  H   UNL A   1      34.508  14.258  25.808  1.00  0.00     0.210 HD
ENDBRANCH  18  19
ENDBRANCH  17  18
ENDBRANCH  15  17
ENDBRANCH  14  15
ENDBRANCH   5  14
ENDBRANCH   2   4
ENDBRANCH   1   2
BRANCH   1  21
ATOM     21  C   UNL A   1      37.910  19.732  24.798  1.00  0.00     0.275 C 
BRANCH  21  22
ATOM     22  C   UNL A   1      39.157  19.274  25.547  1.00  0.00     0.275 C 
BRANCH  22  23
ATOM     23  O   UNL A   1      39.416  20.215  26.602  1.00  0.00    -0.458 OA
BRANCH  23  24
ATOM     24  C   UNL A   1      40.702  20.344  26.989  1.00  0.00     0.338 C 
ATOM     25  O   UNL A   1      41.568  19.485  27.016  1.00  0.00    -0.246 OA
BRANCH  24  26
ATOM     26  C   UNL A   1      40.939  21.746  27.369  1.00  0.00     0.060 A 
ATOM     27  C   UNL A   1      40.300  22.763  26.667  1.00  0.00     0.016 A 
ATOM     28  C   UNL A   1      41.878  22.060  28.352  1.00  0.00     0.016 A 
ATOM     29  C   UNL A   1      40.672  24.086  26.888  1.00  0.00     0.010 A 
ATOM     30  C   UNL A   1      42.185  23.402  28.623  1.00  0.00     0.010 A 
ATOM     31  C   UNL A   1      41.626  24.438  27.855  1.00  0.00    -0.014 A 
BRANCH  31  32
ATOM     32  C   UNL A   1      42.091  25.859  27.981  1.00  0.00     0.031 A 
ATOM     33  C   UNL A   1      43.362  26.313  27.299  1.00  0.00     0.074 A 
ATOM     34  C   UNL A   1      41.352  26.788  28.626  1.00  0.00     0.049 A 
ATOM     35  N   UNL A   1      44.013  27.445  27.424  1.00  0.00    -0.248 NA
ATOM     36  C   UNL A   1      43.987  25.373  26.355  1.00  0.00     0.031 C 
ATOM     37  C   UNL A   1      40.064  26.551  29.275  1.00  0.00     0.029 A 
ATOM     38  N   UNL A   1      41.563  28.137  28.805  1.00  0.00    -0.354 N 
ATOM     39  C   UNL A   1      45.160  27.316  26.648  1.00  0.00     0.074 A 
ATOM     40  C   UNL A   1      45.106  26.006  26.036  1.00  0.00     0.031 C 
ATOM     41  C   UNL A   1      39.557  27.720  29.695  1.00  0.00     0.029 A 
ATOM     42  C   UNL A   1      40.539  28.774  29.465  1.00  0.00     0.049 A 
ATOM     43  H   UNL A   1      42.373  28.602  28.492  1.00  0.00     0.167 HD
ATOM     44  C   UNL A   1      46.171  28.202  26.471  1.00  0.00     0.037 A 
ATOM     45  C   UNL A   1      40.414  30.048  29.887  1.00  0.00     0.037 A 
ATOM     46  C   UNL A   1      46.194  29.540  27.004  1.00  0.00     0.049 A 
ATOM     47  C   UNL A   1      41.556  31.007  29.704  1.00  0.00     0.074 A 
ATOM     48  C   UNL A   1      47.181  30.504  26.876  1.00  0.00     0.029 A 
ATOM     49  N   UNL A   1      45.170  30.116  27.737  1.00  0.00    -0.354 N 
ATOM     50  N   UNL A   1      42.695  30.828  29.081  1.00  0.00    -0.248 NA
ATOM     51  C   UNL A   1      41.414  32.331  30.327  1.00  0.00     0.031 C 
ATOM     52  C   UNL A   1      46.766  31.653  27.557  1.00  0.00     0.029 A 
ATOM     53  C   UNL A   1      45.505  31.418  28.076  1.00  0.00     0.049 A 
ATOM     54  H   UNL A   1      44.328  29.667  27.981  1.00  0.00     0.167 HD
ATOM     55  C   UNL A   1      43.407  32.008  29.247  1.00  0.00     0.074 A 
ATOM     56  C   UNL A   1      42.559  32.911  29.996  1.00  0.00     0.031 C 
ATOM     57  C   UNL A   1      44.661  32.307  28.830  1.00  0.00     0.037 A 
BRANCH  44  58
ATOM     58  C   UNL A   1      47.376  27.738  25.705  1.00  0.00     0.064 A 
ATOM     59  C   UNL A   1      47.433  27.773  24.306  1.00  0.00     0.173 A 
ATOM     60  C   UNL A   1      48.513  27.296  26.399  1.00  0.00     0.173 A 
ATOM     61  F   UNL A   1      46.366  28.175  23.597  1.00  0.00    -0.203 F 
ATOM     62  C   UNL A   1      48.578  27.362  23.627  1.00  0.00     0.198 A 
ATOM     63  C   UNL A   1      49.665  26.912  25.719  1.00  0.00     0.198 A 
ATOM     64  F   UNL A   1      48.513  27.252  27.740  1.00  0.00    -0.203 F 
ATOM     65  F   UNL A   1      48.599  27.368  22.287  1.00  0.00    -0.200 F 
ATOM     66  C   UNL A   1      49.694  26.940  24.333  1.00  0.00     0.200 A 
ATOM     67  F   UNL A   1      50.747  26.517  26.405  1.00  0.00    -0.200 F 
ATOM     68  F   UNL A   1      50.799  26.555  23.678  1.00  0.00    -0.200 F 
ENDBRANCH  44  58
BRANCH  45  69
ATOM     69  C   UNL A   1      39.175  30.479  30.589  1.00  0.00     0.064 A 
ATOM     70  C   UNL A   1      38.088  31.003  29.875  1.00  0.00     0.173 A 
ATOM     71  C   UNL A   1      39.050  30.375  31.982  1.00  0.00     0.173 A 
ATOM     72  F   UNL A   1      38.172  31.156  28.545  1.00  0.00    -0.203 F 
ATOM     73  C   UNL A   1      36.924  31.405  30.529  1.00  0.00     0.198 A 
ATOM     74  C   UNL A   1      37.875  30.745  32.631  1.00  0.00     0.198 A 
ATOM     75  F   UNL A   1      40.066  29.891  32.712  1.00  0.00    -0.203 F 
ATOM     76  F   UNL A   1      35.915  31.938  29.829  1.00  0.00    -0.200 F 
ATOM     77  C   UNL A   1      36.815  31.264  31.905  1.00  0.00     0.200 A 
ATOM     78  F   UNL A   1      37.769  30.592  33.958  1.00  0.00    -0.200 F 
ATOM     79  F   UNL A   1      35.690  31.635  32.531  1.00  0.00    -0.200 F 
ENDBRANCH  45  69
BRANCH  57  80
ATOM     80  C   UNL A   1      45.193  33.667  29.172  1.00  0.00     0.064 A 
ATOM     81  C   UNL A   1      45.919  33.889  30.351  1.00  0.00     0.173 A 
ATOM     82  C   UNL A   1      44.996  34.752  28.305  1.00  0.00     0.173 A 
ATOM     83  F   UNL A   1      46.118  32.887  31.221  1.00  0.00    -0.203 F 
ATOM     84  C   UNL A   1      46.413  35.154  30.660  1.00  0.00     0.198 A 
ATOM     85  C   UNL A   1      45.511  36.010  28.606  1.00  0.00     0.198 A 
ATOM     86  F   UNL A   1      44.311  34.589  27.163  1.00  0.00    -0.203 F 
ATOM     87  F   UNL A   1      47.068  35.354  31.812  1.00  0.00    -0.200 F 
ATOM     88  C   UNL A   1      46.212  36.212  29.785  1.00  0.00     0.200 A 
ATOM     89  F   UNL A   1      45.324  37.030  27.755  1.00  0.00    -0.200 F 
ATOM     90  F   UNL A   1      46.689  37.428  30.083  1.00  0.00    -0.200 F 
ENDBRANCH  57  80
ENDBRANCH  31  32
ENDBRANCH  24  26
ENDBRANCH  23  24
ENDBRANCH  22  23
ENDBRANCH  21  22
ENDBRANCH   1  21
TORSDOF 16
ENDMDL
MODEL 3
REMARK VINA RESULT:     -11.2      0.940      1.973
REMARK SMILES C[C@@H](CCO)Sc1cc(C(=O)OCCOC(=O)c2ccc(-c3c4nc(c(-c5c(F)c(F)c(F)c(F)c5F)c5ccc([nH]5)c(-c5c(F)c(F)c(F)c(F)c5F)c5nc(c(-c6c(F)c(F)c(F)c(F)c6F)c6ccc3[nH]6)C=C5)C=C4)cc2)c2ccccc2n1
REMARK SMILES IDX 12 1 10 2 11 3 9 4 7 5 8 6 87 7 86 8 81 9 85 10 82 11 84 12
REMARK SMILES IDX 83 13 6 14 2 15 1 16 3 17 4 18 5 19 13 21 14 22 15 23 16 24
REMARK SMILES IDX 17 25 18 26 19 27 80 28 20 29 79 30 21 31 22 32 23 33 73 34
REMARK SMILES IDX 24 35 78 36 72 37 74 38 25 39 77 40 71 41 70 42 26 44 58 45
REMARK SMILES IDX 38 46 57 47 39 48 42 49 56 50 75 51 40 52 41 53 55 55 76 56
REMARK SMILES IDX 43 57 27 58 28 59 36 60 29 61 30 62 34 63 37 64 31 65 32 66
REMARK SMILES IDX 35 67 33 68 59 69 60 70 68 71 61 72 62 73 66 74 69 75 63 76
REMARK SMILES IDX 64 77 67 78 65 79 44 80 45 81 53 82 46 83 47 84 51 85 54 86
REMARK SMILES IDX 48 87 49 88 52 89 50 90
REMARK H PARENT 5 20 74 43 42 54
REMARK Flexibility Score: inf
ROOT
ATOM      1  O   UNL A   1      32.391  27.631  26.628  1.00  0.00    -0.458 OA
ENDROOT
BRANCH   1   2
ATOM      2  C   UNL A   1      31.642  26.520  26.435  1.00  0.00     0.339 C 
ATOM      3  O   UNL A   1      30.523  26.315  26.875  1.00  0.00    -0.246 OA
BRANCH   2   4
ATOM      4  C   UNL A   1      32.310  25.583  25.494  1.00  0.00     0.072 A 
ATOM      5  C   UNL A   1      33.712  23.650  25.280  1.00  0.00     0.098 A 
ATOM      6  C   UNL A   1      33.103  24.585  26.087  1.00  0.00     0.052 A 
ATOM      7  N   UNL A   1      33.594  23.715  23.940  1.00  0.00    -0.241 NA
ATOM      8  C   UNL A   1      32.905  24.706  23.359  1.00  0.00     0.072 A 
ATOM      9  C   UNL A   1      32.217  25.692  24.086  1.00  0.00     0.015 A 
ATOM     10  C   UNL A   1      32.902  24.753  21.973  1.00  0.00     0.029 A 
ATOM     11  C   UNL A   1      31.538  26.709  23.358  1.00  0.00     0.011 A 
ATOM     12  C   UNL A   1      32.233  25.753  21.268  1.00  0.00     0.002 A 
ATOM     13  C   UNL A   1      31.544  26.733  21.965  1.00  0.00     0.001 A 
BRANCH   5  14
ATOM     14  S   UNL A   1      34.734  22.288  25.771  1.00  0.00    -0.103 SA
BRANCH  14  15
ATOM     15  C   UNL A   1      36.493  22.620  25.353  1.00  0.00     0.052 C 
ATOM     16  C   UNL A   1      36.739  22.578  23.847  1.00  0.00     0.020 C 
BRANCH  15  17
ATOM     17  C   UNL A   1      37.292  23.700  26.115  1.00  0.00     0.043 C 
BRANCH  17  18
ATOM     18  C   UNL A   1      38.810  23.649  26.134  1.00  0.00     0.157 C 
BRANCH  18  19
ATOM     19  O   UNL A   1      39.298  22.929  27.254  1.00  0.00    -0.396 OA
ATOM     20  H   UNL A   1      38.588  22.830  27.908  1.00  0.00     0.210 HD
ENDBRANCH  18  19
ENDBRANCH  17  18
ENDBRANCH  15  17
ENDBRANCH  14  15
ENDBRANCH   5  14
ENDBRANCH   2   4
ENDBRANCH   1   2
BRANCH   1  21
ATOM     21  C   UNL A   1      31.739  28.772  27.228  1.00  0.00     0.275 C 
BRANCH  21  22
ATOM     22  C   UNL A   1      31.777  29.958  26.270  1.00  0.00     0.275 C 
BRANCH  22  23
ATOM     23  O   UNL A   1      33.130  30.435  26.200  1.00  0.00    -0.458 OA
BRANCH  23  24
ATOM     24  C   UNL A   1      33.482  31.378  27.097  1.00  0.00     0.338 C 
ATOM     25  O   UNL A   1      32.849  32.363  27.441  1.00  0.00    -0.246 OA
BRANCH  24  26
ATOM     26  C   UNL A   1      34.796  31.024  27.659  1.00  0.00     0.060 A 
ATOM     27  C   UNL A   1      35.082  29.693  27.945  1.00  0.00     0.016 A 
ATOM     28  C   UNL A   1      35.708  32.023  28.001  1.00  0.00     0.016 A 
ATOM     29  C   UNL A   1      36.236  29.378  28.658  1.00  0.00     0.010 A 
ATOM     30  C   UNL A   1      36.907  31.684  28.646  1.00  0.00     0.010 A 
ATOM     31  C   UNL A   1      37.167  30.359  29.035  1.00  0.00    -0.014 A 
BRANCH  31  32
ATOM     32  C   UNL A   1      38.335  30.001  29.905  1.00  0.00     0.031 A 
ATOM     33  C   UNL A   1      39.483  29.187  29.351  1.00  0.00     0.074 A 
ATOM     34  C   UNL A   1      38.440  30.464  31.171  1.00  0.00     0.049 A 
ATOM     35  N   UNL A   1      40.494  28.639  29.984  1.00  0.00    -0.248 NA
ATOM     36  C   UNL A   1      39.498  28.954  27.899  1.00  0.00     0.031 C 
ATOM     37  C   UNL A   1      37.470  31.325  31.845  1.00  0.00     0.029 A 
ATOM     38  N   UNL A   1      39.439  30.306  32.104  1.00  0.00    -0.354 N 
ATOM     39  C   UNL A   1      41.208  27.930  29.023  1.00  0.00     0.074 A 
ATOM     40  C   UNL A   1      40.531  28.135  27.761  1.00  0.00     0.031 C 
ATOM     41  C   UNL A   1      37.960  31.695  33.038  1.00  0.00     0.029 A 
ATOM     42  C   UNL A   1      39.218  30.995  33.273  1.00  0.00     0.049 A 
ATOM     43  H   UNL A   1      40.237  29.749  31.950  1.00  0.00     0.167 HD
ATOM     44  C   UNL A   1      42.318  27.168  29.180  1.00  0.00     0.037 A 
ATOM     45  C   UNL A   1      39.914  31.029  34.427  1.00  0.00     0.037 A 
ATOM     46  C   UNL A   1      43.050  27.026  30.412  1.00  0.00     0.049 A 
ATOM     47  C   UNL A   1      41.127  30.158  34.589  1.00  0.00     0.074 A 
ATOM     48  C   UNL A   1      44.185  26.270  30.661  1.00  0.00     0.029 A 
ATOM     49  N   UNL A   1      42.742  27.679  31.594  1.00  0.00    -0.354 N 
ATOM     50  N   UNL A   1      41.715  29.386  33.709  1.00  0.00    -0.248 NA
ATOM     51  C   UNL A   1      41.744  30.125  35.924  1.00  0.00     0.031 C 
ATOM     52  C   UNL A   1      44.545  26.444  32.001  1.00  0.00     0.029 A 
ATOM     53  C   UNL A   1      43.658  27.337  32.577  1.00  0.00     0.049 A 
ATOM     54  H   UNL A   1      41.983  28.295  31.718  1.00  0.00     0.167 HD
ATOM     55  C   UNL A   1      42.760  28.769  34.383  1.00  0.00     0.074 A 
ATOM     56  C   UNL A   1      42.752  29.284  35.736  1.00  0.00     0.031 C 
ATOM     57  C   UNL A   1      43.637  27.844  33.923  1.00  0.00     0.037 A 
BRANCH  44  58
ATOM     58  C   UNL A   1      42.790  26.375  27.996  1.00  0.00     0.064 A 
ATOM     59  C   UNL A   1      42.350  25.068  27.746  1.00  0.00     0.173 A 
ATOM     60  C   UNL A   1      43.664  26.963  27.069  1.00  0.00     0.173 A 
ATOM     61  F   UNL A   1      41.524  24.458  28.610  1.00  0.00    -0.203 F 
ATOM     62  C   UNL A   1      42.786  24.371  26.622  1.00  0.00     0.198 A 
ATOM     63  C   UNL A   1      44.076  26.274  25.932  1.00  0.00     0.198 A 
ATOM     64  F   UNL A   1      44.108  28.215  27.257  1.00  0.00    -0.203 F 
ATOM     65  F   UNL A   1      42.383  23.109  26.420  1.00  0.00    -0.200 F 
ATOM     66  C   UNL A   1      43.641  24.976  25.713  1.00  0.00     0.200 A 
ATOM     67  F   UNL A   1      44.892  26.866  25.049  1.00  0.00    -0.200 F 
ATOM     68  F   UNL A   1      44.051  24.307  24.626  1.00  0.00    -0.200 F 
ENDBRANCH  44  58
BRANCH  45  69
ATOM     69  C   UNL A   1      39.441  31.877  35.554  1.00  0.00     0.064 A 
ATOM     70  C   UNL A   1      38.513  31.387  36.484  1.00  0.00     0.173 A 
ATOM     71  C   UNL A   1      39.905  33.190  35.727  1.00  0.00     0.173 A 
ATOM     72  F   UNL A   1      38.012  30.152  36.341  1.00  0.00    -0.203 F 
ATOM     73  C   UNL A   1      38.070  32.179  37.543  1.00  0.00     0.198 A 
ATOM     74  C   UNL A   1      39.488  33.967  36.804  1.00  0.00     0.198 A 
ATOM     75  F   UNL A   1      40.785  33.710  34.858  1.00  0.00    -0.203 F 
ATOM     76  F   UNL A   1      37.154  31.701  38.395  1.00  0.00    -0.200 F 
ATOM     77  C   UNL A   1      38.567  33.463  37.708  1.00  0.00     0.200 A 
ATOM     78  F   UNL A   1      39.983  35.201  36.967  1.00  0.00    -0.200 F 
ATOM     79  F   UNL A   1      38.153  34.217  38.735  1.00  0.00    -0.200 F 
ENDBRANCH  45  69
BRANCH  57  80
ATOM     80  C   UNL A   1      44.661  27.329  34.890  1.00  0.00     0.064 A 
ATOM     81  C   UNL A   1      45.888  27.984  35.070  1.00  0.00     0.173 A 
ATOM     82  C   UNL A   1      44.405  26.186  35.661  1.00  0.00     0.173 A 
ATOM     83  F   UNL A   1      46.186  29.071  34.342  1.00  0.00    -0.203 F 
ATOM     84  C   UNL A   1      46.831  27.501  35.973  1.00  0.00     0.198 A 
ATOM     85  C   UNL A   1      45.341  25.719  36.580  1.00  0.00     0.198 A 
ATOM     86  F   UNL A   1      43.245  25.526  35.529  1.00  0.00    -0.203 F 
ATOM     87  F   UNL A   1      48.015  28.118  36.098  1.00  0.00    -0.200 F 
ATOM     88  C   UNL A   1      46.556  26.372  36.730  1.00  0.00     0.200 A 
ATOM     89  F   UNL A   1      45.070  24.632  37.318  1.00  0.00    -0.200 F 
ATOM     90  F   UNL A   1      47.464  25.909  37.600  1.00  0.00    -0.200 F 
ENDBRANCH  57  80
ENDBRANCH  31  32
ENDBRANCH  24  26
ENDBRANCH  23  24
ENDBRANCH  22  23
ENDBRANCH  21  22
ENDBRANCH   1  21
TORSDOF 16
ENDMDL
