MODEL 1
REMARK VINA RESULT:     -11.3      0.000      0.000
REMARK SMILES CC[C@@H](C)N(CC(=O)OCCOC(=O)c1ccc(-c2c3nc(c(-c4c(F)c(F)c(F)c(F)c4F)c4ccc([nH]4)c(-c4c(F)c(F)c(F)c(F)c4F)c4nc(c(-c5c(F)c(F)c(F)c(F)c5F)c5ccc2[nH]5)C=C4)C=C3)cc1)C(=O)c1ccc(F)c(F)c1F
REMARK SMILES IDX 10 1 9 2 7 3 8 4 6 5 5 6 3 7 4 8 2 9 1 10 78 11 79 12 80 13
REMARK SMILES IDX 81 14 87 15 82 16 85 17 88 18 83 19 86 20 84 21 11 22 12 23
REMARK SMILES IDX 13 24 14 25 15 26 16 27 77 28 17 29 76 30 18 31 19 32 20 33
REMARK SMILES IDX 70 34 21 35 75 36 69 37 71 38 22 39 74 40 68 41 67 42 23 44
REMARK SMILES IDX 55 45 35 46 54 47 36 48 39 49 53 50 72 51 37 52 38 53 52 55
REMARK SMILES IDX 73 56 40 57 24 58 25 59 33 60 26 61 27 62 31 63 34 64 28 65
REMARK SMILES IDX 29 66 32 67 30 68 56 69 57 70 65 71 58 72 59 73 63 74 66 75
REMARK SMILES IDX 60 76 61 77 64 78 62 79 41 80 42 81 50 82 43 83 44 84 48 85
REMARK SMILES IDX 51 86 45 87 46 88 49 89 47 90
REMARK H PARENT 71 43 39 54
REMARK Flexibility Score: inf
ROOT
ATOM      1  C   UNL A   1      32.114  28.228  27.100  1.00  0.00     0.274 C 
ENDROOT
BRANCH   1   2
ATOM      2  O   UNL A   1      30.921  27.449  26.869  1.00  0.00    -0.461 OA
BRANCH   2   3
ATOM      3  C   UNL A   1      31.137  26.213  26.350  1.00  0.00     0.325 C 
ATOM      4  O   UNL A   1      31.500  25.240  27.007  1.00  0.00    -0.250 OA
BRANCH   3   5
ATOM      5  C   UNL A   1      30.659  26.059  24.909  1.00  0.00     0.242 C 
BRANCH   5   6
ATOM      6  N   UNL A   1      31.268  26.860  23.841  1.00  0.00    -0.325 N 
BRANCH   6   7
ATOM      7  C   UNL A   1      32.744  26.796  23.765  1.00  0.00     0.082 C 
ATOM      8  C   UNL A   1      33.343  27.774  22.748  1.00  0.00     0.031 C 
BRANCH   7   9
ATOM      9  C   UNL A   1      33.202  25.337  23.564  1.00  0.00     0.021 C 
ATOM     10  C   UNL A   1      34.423  24.952  24.385  1.00  0.00     0.006 C 
ENDBRANCH   7   9
ENDBRANCH   6   7
BRANCH   6  11
ATOM     11  C   UNL A   1      30.558  27.494  22.816  1.00  0.00     0.257 C 
ATOM     12  O   UNL A   1      30.656  27.203  21.627  1.00  0.00    -0.269 OA
BRANCH  11  13
ATOM     13  C   UNL A   1      29.579  28.543  23.121  1.00  0.00     0.079 A 
ATOM     14  C   UNL A   1      28.219  28.345  22.834  1.00  0.00     0.020 A 
ATOM     15  C   UNL A   1      30.041  29.788  23.548  1.00  0.00     0.174 A 
ATOM     16  C   UNL A   1      27.316  29.388  23.044  1.00  0.00     0.043 A 
ATOM     17  C   UNL A   1      29.138  30.828  23.738  1.00  0.00     0.195 A 
ATOM     18  F   UNL A   1      31.344  29.987  23.793  1.00  0.00    -0.203 F 
ATOM     19  C   UNL A   1      27.782  30.621  23.502  1.00  0.00     0.161 A 
ATOM     20  F   UNL A   1      29.567  32.023  24.169  1.00  0.00    -0.200 F 
ATOM     21  F   UNL A   1      26.901  31.609  23.712  1.00  0.00    -0.204 F 
ENDBRANCH  11  13
ENDBRANCH   6  11
ENDBRANCH   5   6
ENDBRANCH   3   5
ENDBRANCH   2   3
ENDBRANCH   1   2
BRANCH   1  22
ATOM     22  C   UNL A   1      31.863  29.738  26.987  1.00  0.00     0.275 C 
BRANCH  22  23
ATOM     23  O   UNL A   1      32.968  30.441  26.381  1.00  0.00    -0.458 OA
BRANCH  23  24
ATOM     24  C   UNL A   1      33.529  31.362  27.191  1.00  0.00     0.338 C 
ATOM     25  O   UNL A   1      33.050  32.436  27.516  1.00  0.00    -0.246 OA
BRANCH  24  26
ATOM     26  C   UNL A   1      34.825  30.949  27.736  1.00  0.00     0.060 A 
ATOM     27  C   UNL A   1      34.984  29.650  28.223  1.00  0.00     0.016 A 
ATOM     28  C   UNL A   1      35.784  31.931  27.997  1.00  0.00     0.016 A 
ATOM     29  C   UNL A   1      36.087  29.345  29.016  1.00  0.00     0.010 A 
ATOM     30  C   UNL A   1      36.918  31.607  28.745  1.00  0.00     0.010 A 
ATOM     31  C   UNL A   1      37.064  30.319  29.280  1.00  0.00    -0.014 A 
BRANCH  31  32
ATOM     32  C   UNL A   1      38.270  29.952  30.055  1.00  0.00     0.031 A 
ATOM     33  C   UNL A   1      38.504  30.476  31.441  1.00  0.00     0.074 A 
ATOM     34  C   UNL A   1      39.156  29.113  29.489  1.00  0.00     0.049 A 
ATOM     35  N   UNL A   1      39.497  30.227  32.258  1.00  0.00    -0.248 NA
ATOM     36  C   UNL A   1      37.495  31.396  31.985  1.00  0.00     0.031 C 
ATOM     37  C   UNL A   1      39.028  28.544  28.146  1.00  0.00     0.029 A 
ATOM     38  N   UNL A   1      40.328  28.589  29.967  1.00  0.00    -0.354 N 
ATOM     39  C   UNL A   1      39.232  30.952  33.412  1.00  0.00     0.074 A 
ATOM     40  C   UNL A   1      37.991  31.665  33.186  1.00  0.00     0.031 C 
ATOM     41  C   UNL A   1      40.074  27.738  27.913  1.00  0.00     0.029 A 
ATOM     42  C   UNL A   1      40.957  27.761  29.074  1.00  0.00     0.049 A 
ATOM     43  H   UNL A   1      40.682  28.788  30.864  1.00  0.00     0.167 HD
ATOM     44  C   UNL A   1      39.960  31.011  34.553  1.00  0.00     0.037 A 
ATOM     45  C   UNL A   1      42.125  27.101  29.173  1.00  0.00     0.037 A 
ATOM     46  C   UNL A   1      41.201  30.313  34.768  1.00  0.00     0.049 A 
ATOM     47  C   UNL A   1      42.927  27.213  30.433  1.00  0.00     0.074 A 
ATOM     48  C   UNL A   1      42.003  30.301  35.897  1.00  0.00     0.029 A 
ATOM     49  N   UNL A   1      41.827  29.510  33.827  1.00  0.00    -0.354 N 
ATOM     50  N   UNL A   1      42.654  27.885  31.525  1.00  0.00    -0.248 NA
ATOM     51  C   UNL A   1      44.198  26.480  30.475  1.00  0.00     0.031 C 
ATOM     52  C   UNL A   1      43.129  29.514  35.628  1.00  0.00     0.029 A 
ATOM     53  C   UNL A   1      43.015  29.014  34.341  1.00  0.00     0.049 A 
ATOM     54  H   UNL A   1      41.479  29.320  32.926  1.00  0.00     0.167 HD
ATOM     55  C   UNL A   1      43.718  27.661  32.383  1.00  0.00     0.074 A 
ATOM     56  C   UNL A   1      44.633  26.773  31.693  1.00  0.00     0.031 C 
ATOM     57  C   UNL A   1      43.921  28.151  33.630  1.00  0.00     0.037 A 
BRANCH  44  58
ATOM     58  C   UNL A   1      39.439  31.872  35.662  1.00  0.00     0.064 A 
ATOM     59  C   UNL A   1      38.504  31.383  36.585  1.00  0.00     0.173 A 
ATOM     60  C   UNL A   1      39.928  33.173  35.846  1.00  0.00     0.173 A 
ATOM     61  F   UNL A   1      38.001  30.147  36.443  1.00  0.00    -0.203 F 
ATOM     62  C   UNL A   1      38.073  32.169  37.651  1.00  0.00     0.198 A 
ATOM     63  C   UNL A   1      39.504  33.953  36.919  1.00  0.00     0.198 A 
ATOM     64  F   UNL A   1      40.826  33.683  34.989  1.00  0.00    -0.203 F 
ATOM     65  F   UNL A   1      37.166  31.688  38.513  1.00  0.00    -0.200 F 
ATOM     66  C   UNL A   1      38.577  33.450  37.820  1.00  0.00     0.200 A 
ATOM     67  F   UNL A   1      39.996  35.189  37.084  1.00  0.00    -0.200 F 
ATOM     68  F   UNL A   1      38.167  34.202  38.851  1.00  0.00    -0.200 F 
ENDBRANCH  44  58
BRANCH  45  69
ATOM     69  C   UNL A   1      42.585  26.284  28.028  1.00  0.00     0.064 A 
ATOM     70  C   UNL A   1      42.116  24.979  27.842  1.00  0.00     0.173 A 
ATOM     71  C   UNL A   1      43.447  26.821  27.061  1.00  0.00     0.173 A 
ATOM     72  F   UNL A   1      41.300  24.425  28.751  1.00  0.00    -0.203 F 
ATOM     73  C   UNL A   1      42.487  24.239  26.722  1.00  0.00     0.198 A 
ATOM     74  C   UNL A   1      43.803  26.086  25.933  1.00  0.00     0.198 A 
ATOM     75  F   UNL A   1      43.913  28.071  27.198  1.00  0.00    -0.203 F 
ATOM     76  F   UNL A   1      42.032  22.988  26.567  1.00  0.00    -0.200 F 
ATOM     77  C   UNL A   1      43.322  24.797  25.765  1.00  0.00     0.200 A 
ATOM     78  F   UNL A   1      44.597  26.634  25.003  1.00  0.00    -0.200 F 
ATOM     79  F   UNL A   1      43.662  24.091  24.677  1.00  0.00    -0.200 F 
ENDBRANCH  45  69
BRANCH  57  80
ATOM     80  C   UNL A   1      45.189  27.744  34.311  1.00  0.00     0.064 A 
ATOM     81  C   UNL A   1      45.245  26.585  35.099  1.00  0.00     0.173 A 
ATOM     82  C   UNL A   1      46.354  28.511  34.174  1.00  0.00     0.173 A 
ATOM     83  F   UNL A   1      44.148  25.833  35.271  1.00  0.00    -0.203 F 
ATOM     84  C   UNL A   1      46.423  26.219  35.743  1.00  0.00     0.198 A 
ATOM     85  C   UNL A   1      47.533  28.133  34.808  1.00  0.00     0.198 A 
ATOM     86  F   UNL A   1      46.343  29.628  33.432  1.00  0.00    -0.203 F 
ATOM     87  F   UNL A   1      46.447  25.129  36.522  1.00  0.00    -0.200 F 
ATOM     88  C   UNL A   1      47.565  26.991  35.596  1.00  0.00     0.200 A 
ATOM     89  F   UNL A   1      48.637  28.879  34.666  1.00  0.00    -0.200 F 
ATOM     90  F   UNL A   1      48.697  26.641  36.224  1.00  0.00    -0.200 F 
ENDBRANCH  57  80
ENDBRANCH  31  32
ENDBRANCH  24  26
ENDBRANCH  23  24
ENDBRANCH  22  23
ENDBRANCH   1  22
TORSDOF 16
ENDMDL
MODEL 2
REMARK VINA RESULT:     -11.2      5.504      8.401
REMARK SMILES CC[C@@H](C)N(CC(=O)OCCOC(=O)c1ccc(-c2c3nc(c(-c4c(F)c(F)c(F)c(F)c4F)c4ccc([nH]4)c(-c4c(F)c(F)c(F)c(F)c4F)c4nc(c(-c5c(F)c(F)c(F)c(F)c5F)c5ccc2[nH]5)C=C4)C=C3)cc1)C(=O)c1ccc(F)c(F)c1F
REMARK SMILES IDX 10 1 9 2 7 3 8 4 6 5 5 6 3 7 4 8 2 9 1 10 78 11 79 12 80 13
REMARK SMILES IDX 81 14 87 15 82 16 85 17 88 18 83 19 86 20 84 21 11 22 12 23
REMARK SMILES IDX 13 24 14 25 15 26 16 27 77 28 17 29 76 30 18 31 19 32 20 33
REMARK SMILES IDX 70 34 21 35 75 36 69 37 71 38 22 39 74 40 68 41 67 42 23 44
REMARK SMILES IDX 55 45 35 46 54 47 36 48 39 49 53 50 72 51 37 52 38 53 52 55
REMARK SMILES IDX 73 56 40 57 24 58 25 59 33 60 26 61 27 62 31 63 34 64 28 65
REMARK SMILES IDX 29 66 32 67 30 68 56 69 57 70 65 71 58 72 59 73 63 74 66 75
REMARK SMILES IDX 60 76 61 77 64 78 62 79 41 80 42 81 50 82 43 83 44 84 48 85
REMARK SMILES IDX 51 86 45 87 46 88 49 89 47 90
REMARK H PARENT 71 43 39 54
REMARK Flexibility Score: inf
ROOT
ATOM      1  C   UNL A   1      38.138  21.049  25.032  1.00  0.00     0.274 C 
ENDROOT
BRANCH   1   2
ATOM      2  O   UNL A   1      37.036  21.549  25.818  1.00  0.00    -0.461 OA
BRANCH   2   3
ATOM      3  C   UNL A   1      35.823  21.031  25.499  1.00  0.00     0.325 C 
ATOM      4  O   UNL A   1      35.659  20.013  24.830  1.00  0.00    -0.250 OA
BRANCH   3   5
ATOM      5  C   UNL A   1      34.661  21.683  26.242  1.00  0.00     0.242 C 
BRANCH   5   6
ATOM      6  N   UNL A   1      33.435  22.047  25.521  1.00  0.00    -0.325 N 
BRANCH   6   7
ATOM      7  C   UNL A   1      33.521  23.284  24.714  1.00  0.00     0.082 C 
ATOM      8  C   UNL A   1      34.156  23.066  23.336  1.00  0.00     0.031 C 
BRANCH   7   9
ATOM      9  C   UNL A   1      34.192  24.407  25.532  1.00  0.00     0.021 C 
ATOM     10  C   UNL A   1      33.290  25.601  25.801  1.00  0.00     0.006 C 
ENDBRANCH   7   9
ENDBRANCH   6   7
BRANCH   6  11
ATOM     11  C   UNL A   1      32.308  21.229  25.400  1.00  0.00     0.257 C 
ATOM     12  O   UNL A   1      31.160  21.598  25.632  1.00  0.00    -0.269 OA
BRANCH  11  13
ATOM     13  C   UNL A   1      32.432  19.849  24.919  1.00  0.00     0.079 A 
ATOM     14  C   UNL A   1      32.732  18.812  25.816  1.00  0.00     0.020 A 
ATOM     15  C   UNL A   1      32.407  19.613  23.544  1.00  0.00     0.174 A 
ATOM     16  C   UNL A   1      32.939  17.522  25.327  1.00  0.00     0.043 A 
ATOM     17  C   UNL A   1      32.631  18.329  23.063  1.00  0.00     0.195 A 
ATOM     18  F   UNL A   1      32.151  20.610  22.684  1.00  0.00    -0.203 F 
ATOM     19  C   UNL A   1      32.880  17.288  23.953  1.00  0.00     0.161 A 
ATOM     20  F   UNL A   1      32.588  18.086  21.745  1.00  0.00    -0.200 F 
ATOM     21  F   UNL A   1      33.068  16.041  23.499  1.00  0.00    -0.204 F 
ENDBRANCH  11  13
ENDBRANCH   6  11
ENDBRANCH   5   6
ENDBRANCH   3   5
ENDBRANCH   2   3
ENDBRANCH   1   2
BRANCH   1  22
ATOM     22  C   UNL A   1      38.963  19.992  25.776  1.00  0.00     0.275 C 
BRANCH  22  23
ATOM     23  O   UNL A   1      40.347  20.374  25.931  1.00  0.00    -0.458 OA
BRANCH  23  24
ATOM     24  C   UNL A   1      40.701  20.604  27.212  1.00  0.00     0.338 C 
ATOM     25  O   UNL A   1      40.843  19.769  28.091  1.00  0.00    -0.246 OA
BRANCH  24  26
ATOM     26  C   UNL A   1      40.968  22.016  27.499  1.00  0.00     0.060 A 
ATOM     27  C   UNL A   1      40.555  22.992  26.591  1.00  0.00     0.016 A 
ATOM     28  C   UNL A   1      41.855  22.332  28.532  1.00  0.00     0.016 A 
ATOM     29  C   UNL A   1      41.068  24.283  26.691  1.00  0.00     0.010 A 
ATOM     30  C   UNL A   1      42.324  23.640  28.663  1.00  0.00     0.010 A 
ATOM     31  C   UNL A   1      41.953  24.618  27.729  1.00  0.00    -0.014 A 
BRANCH  31  32
ATOM     32  C   UNL A   1      42.422  26.015  27.866  1.00  0.00     0.031 A 
ATOM     33  C   UNL A   1      41.614  27.048  28.595  1.00  0.00     0.074 A 
ATOM     34  C   UNL A   1      43.612  26.339  27.330  1.00  0.00     0.049 A 
ATOM     35  N   UNL A   1      41.900  28.305  28.823  1.00  0.00    -0.248 NA
ATOM     36  C   UNL A   1      40.320  26.617  29.143  1.00  0.00     0.031 C 
ATOM     37  C   UNL A   1      44.479  25.414  26.597  1.00  0.00     0.029 A 
ATOM     38  N   UNL A   1      44.299  27.524  27.320  1.00  0.00    -0.354 N 
ATOM     39  C   UNL A   1      40.829  28.815  29.544  1.00  0.00     0.074 A 
ATOM     40  C   UNL A   1      39.876  27.735  29.703  1.00  0.00     0.031 C 
ATOM     41  C   UNL A   1      45.591  26.063  26.223  1.00  0.00     0.029 A 
ATOM     42  C   UNL A   1      45.497  27.452  26.659  1.00  0.00     0.049 A 
ATOM     43  H   UNL A   1      43.965  28.346  27.747  1.00  0.00     0.167 HD
ATOM     44  C   UNL A   1      40.662  30.070  30.027  1.00  0.00     0.037 A 
ATOM     45  C   UNL A   1      46.416  28.404  26.417  1.00  0.00     0.037 A 
ATOM     46  C   UNL A   1      41.604  31.145  29.853  1.00  0.00     0.049 A 
ATOM     47  C   UNL A   1      46.189  29.792  26.933  1.00  0.00     0.074 A 
ATOM     48  C   UNL A   1      41.528  32.447  30.319  1.00  0.00     0.029 A 
ATOM     49  N   UNL A   1      42.793  31.044  29.146  1.00  0.00    -0.354 N 
ATOM     50  N   UNL A   1      45.182  30.255  27.632  1.00  0.00    -0.248 NA
ATOM     51  C   UNL A   1      47.222  30.788  26.625  1.00  0.00     0.031 C 
ATOM     52  C   UNL A   1      42.657  33.142  29.868  1.00  0.00     0.029 A 
ATOM     53  C   UNL A   1      43.449  32.266  29.145  1.00  0.00     0.049 A 
ATOM     54  H   UNL A   1      43.122  30.226  28.708  1.00  0.00     0.167 HD
ATOM     55  C   UNL A   1      45.454  31.596  27.845  1.00  0.00     0.074 A 
ATOM     56  C   UNL A   1      46.734  31.868  27.220  1.00  0.00     0.031 C 
ATOM     57  C   UNL A   1      44.709  32.520  28.497  1.00  0.00     0.037 A 
BRANCH  44  58
ATOM     58  C   UNL A   1      39.404  30.357  30.786  1.00  0.00     0.064 A 
ATOM     59  C   UNL A   1      39.340  30.194  32.178  1.00  0.00     0.173 A 
ATOM     60  C   UNL A   1      38.274  30.865  30.130  1.00  0.00     0.173 A 
ATOM     61  F   UNL A   1      40.394  29.701  32.847  1.00  0.00    -0.203 F 
ATOM     62  C   UNL A   1      38.186  30.524  32.884  1.00  0.00     0.198 A 
ATOM     63  C   UNL A   1      37.126  31.205  30.840  1.00  0.00     0.198 A 
ATOM     64  F   UNL A   1      38.289  31.041  28.800  1.00  0.00    -0.203 F 
ATOM     65  F   UNL A   1      38.140  30.345  34.212  1.00  0.00    -0.200 F 
ATOM     66  C   UNL A   1      37.082  31.034  32.216  1.00  0.00     0.200 A 
ATOM     67  F   UNL A   1      36.062  31.703  30.194  1.00  0.00    -0.200 F 
ATOM     68  F   UNL A   1      35.976  31.359  32.899  1.00  0.00    -0.200 F 
ENDBRANCH  44  58
BRANCH  45  69
ATOM     69  C   UNL A   1      47.627  28.050  25.642  1.00  0.00     0.064 A 
ATOM     70  C   UNL A   1      48.844  27.801  26.287  1.00  0.00     0.173 A 
ATOM     71  C   UNL A   1      47.569  27.886  24.251  1.00  0.00     0.173 A 
ATOM     72  F   UNL A   1      48.944  27.959  27.614  1.00  0.00    -0.203 F 
ATOM     73  C   UNL A   1      49.963  27.390  25.565  1.00  0.00     0.198 A 
ATOM     74  C   UNL A   1      48.684  27.458  23.535  1.00  0.00     0.198 A 
ATOM     75  F   UNL A   1      46.420  28.107  23.597  1.00  0.00    -0.203 F 
ATOM     76  F   UNL A   1      51.121  27.164  26.201  1.00  0.00    -0.200 F 
ATOM     77  C   UNL A   1      49.879  27.210  24.192  1.00  0.00     0.200 A 
ATOM     78  F   UNL A   1      48.594  27.271  22.211  1.00  0.00    -0.200 F 
ATOM     79  F   UNL A   1      50.950  26.796  23.502  1.00  0.00    -0.200 F 
ENDBRANCH  45  69
BRANCH  57  80
ATOM     80  C   UNL A   1      45.259  33.910  28.548  1.00  0.00     0.064 A 
ATOM     81  C   UNL A   1      44.918  34.858  27.572  1.00  0.00     0.173 A 
ATOM     82  C   UNL A   1      46.126  34.300  29.577  1.00  0.00     0.173 A 
ATOM     83  F   UNL A   1      44.106  34.521  26.559  1.00  0.00    -0.203 F 
ATOM     84  C   UNL A   1      45.445  36.145  27.615  1.00  0.00     0.198 A 
ATOM     85  C   UNL A   1      46.639  35.593  29.625  1.00  0.00     0.198 A 
ATOM     86  F   UNL A   1      46.480  33.425  30.530  1.00  0.00    -0.203 F 
ATOM     87  F   UNL A   1      45.138  37.025  26.652  1.00  0.00    -0.200 F 
ATOM     88  C   UNL A   1      46.302  36.512  28.641  1.00  0.00     0.200 A 
ATOM     89  F   UNL A   1      47.467  35.948  30.616  1.00  0.00    -0.200 F 
ATOM     90  F   UNL A   1      46.815  37.750  28.676  1.00  0.00    -0.200 F 
ENDBRANCH  57  80
ENDBRANCH  31  32
ENDBRANCH  24  26
ENDBRANCH  23  24
ENDBRANCH  22  23
ENDBRANCH   1  22
TORSDOF 16
ENDMDL
MODEL 3
REMARK VINA RESULT:     -11.1      0.319      7.350
REMARK SMILES CC[C@@H](C)N(CC(=O)OCCOC(=O)c1ccc(-c2c3nc(c(-c4c(F)c(F)c(F)c(F)c4F)c4ccc([nH]4)c(-c4c(F)c(F)c(F)c(F)c4F)c4nc(c(-c5c(F)c(F)c(F)c(F)c5F)c5ccc2[nH]5)C=C4)C=C3)cc1)C(=O)c1ccc(F)c(F)c1F
REMARK SMILES IDX 10 1 9 2 7 3 8 4 6 5 5 6 3 7 4 8 2 9 1 10 78 11 79 12 80 13
REMARK SMILES IDX 81 14 87 15 82 16 85 17 88 18 83 19 86 20 84 21 11 22 12 23
REMARK SMILES IDX 13 24 14 25 15 26 16 27 77 28 17 29 76 30 18 31 19 32 20 33
REMARK SMILES IDX 70 34 21 35 75 36 69 37 71 38 22 39 74 40 68 41 67 42 23 44
REMARK SMILES IDX 55 45 35 46 54 47 36 48 39 49 53 50 72 51 37 52 38 53 52 55
REMARK SMILES IDX 73 56 40 57 24 58 25 59 33 60 26 61 27 62 31 63 34 64 28 65
REMARK SMILES IDX 29 66 32 67 30 68 56 69 57 70 65 71 58 72 59 73 63 74 66 75
REMARK SMILES IDX 60 76 61 77 64 78 62 79 41 80 42 81 50 82 43 83 44 84 48 85
REMARK SMILES IDX 51 86 45 87 46 88 49 89 47 90
REMARK H PARENT 71 43 39 54
REMARK Flexibility Score: inf
ROOT
ATOM      1  C   UNL A   1      32.049  28.236  26.997  1.00  0.00     0.274 C 
ENDROOT
BRANCH   1   2
ATOM      2  O   UNL A   1      30.851  27.457  26.794  1.00  0.00    -0.461 OA
BRANCH   2   3
ATOM      3  C   UNL A   1      31.059  26.194  26.344  1.00  0.00     0.325 C 
ATOM      4  O   UNL A   1      31.345  25.240  27.064  1.00  0.00    -0.250 OA
BRANCH   3   5
ATOM      5  C   UNL A   1      30.674  25.990  24.882  1.00  0.00     0.242 C 
BRANCH   5   6
ATOM      6  N   UNL A   1      31.273  26.828  23.837  1.00  0.00    -0.325 N 
BRANCH   6   7
ATOM      7  C   UNL A   1      32.752  26.806  23.781  1.00  0.00     0.082 C 
ATOM      8  C   UNL A   1      33.332  27.751  22.723  1.00  0.00     0.031 C 
BRANCH   7   9
ATOM      9  C   UNL A   1      33.257  25.354  23.656  1.00  0.00     0.021 C 
ATOM     10  C   UNL A   1      33.007  24.727  22.293  1.00  0.00     0.006 C 
ENDBRANCH   7   9
ENDBRANCH   6   7
BRANCH   6  11
ATOM     11  C   UNL A   1      30.559  27.462  22.815  1.00  0.00     0.257 C 
ATOM     12  O   UNL A   1      30.652  27.170  21.626  1.00  0.00    -0.269 OA
BRANCH  11  13
ATOM     13  C   UNL A   1      29.582  28.511  23.124  1.00  0.00     0.079 A 
ATOM     14  C   UNL A   1      28.217  28.300  22.876  1.00  0.00     0.020 A 
ATOM     15  C   UNL A   1      30.048  29.768  23.512  1.00  0.00     0.174 A 
ATOM     16  C   UNL A   1      27.313  29.342  23.088  1.00  0.00     0.043 A 
ATOM     17  C   UNL A   1      29.144  30.806  23.704  1.00  0.00     0.195 A 
ATOM     18  F   UNL A   1      31.356  29.979  23.719  1.00  0.00    -0.203 F 
ATOM     19  C   UNL A   1      27.784  30.587  23.508  1.00  0.00     0.161 A 
ATOM     20  F   UNL A   1      29.577  32.012  24.099  1.00  0.00    -0.200 F 
ATOM     21  F   UNL A   1      26.902  31.575  23.720  1.00  0.00    -0.204 F 
ENDBRANCH  11  13
ENDBRANCH   6  11
ENDBRANCH   5   6
ENDBRANCH   3   5
ENDBRANCH   2   3
ENDBRANCH   1   2
BRANCH   1  22
ATOM     22  C   UNL A   1      31.802  29.744  26.864  1.00  0.00     0.275 C 
BRANCH  22  23
ATOM     23  O   UNL A   1      32.923  30.442  26.279  1.00  0.00    -0.458 OA
BRANCH  23  24
ATOM     24  C   UNL A   1      33.467  31.366  27.097  1.00  0.00     0.338 C 
ATOM     25  O   UNL A   1      32.972  32.432  27.425  1.00  0.00    -0.246 OA
BRANCH  24  26
ATOM     26  C   UNL A   1      34.766  30.968  27.645  1.00  0.00     0.060 A 
ATOM     27  C   UNL A   1      34.969  29.644  28.041  1.00  0.00     0.016 A 
ATOM     28  C   UNL A   1      35.675  31.966  28.002  1.00  0.00     0.016 A 
ATOM     29  C   UNL A   1      36.065  29.327  28.839  1.00  0.00     0.010 A 
ATOM     30  C   UNL A   1      36.804  31.636  28.755  1.00  0.00     0.010 A 
ATOM     31  C   UNL A   1      36.993  30.319  29.199  1.00  0.00    -0.014 A 
BRANCH  31  32
ATOM     32  C   UNL A   1      38.195  29.946  29.978  1.00  0.00     0.031 A 
ATOM     33  C   UNL A   1      39.242  29.030  29.418  1.00  0.00     0.074 A 
ATOM     34  C   UNL A   1      38.337  30.466  31.210  1.00  0.00     0.049 A 
ATOM     35  N   UNL A   1      40.363  28.630  29.964  1.00  0.00    -0.248 NA
ATOM     36  C   UNL A   1      39.007  28.495  28.069  1.00  0.00     0.031 C 
ATOM     37  C   UNL A   1      37.379  31.366  31.854  1.00  0.00     0.029 A 
ATOM     38  N   UNL A   1      39.338  30.322  32.134  1.00  0.00    -0.354 N 
ATOM     39  C   UNL A   1      40.969  27.803  29.028  1.00  0.00     0.074 A 
ATOM     40  C   UNL A   1      40.085  27.744  27.882  1.00  0.00     0.031 C 
ATOM     41  C   UNL A   1      37.846  31.706  33.065  1.00  0.00     0.029 A 
ATOM     42  C   UNL A   1      39.114  31.023  33.290  1.00  0.00     0.049 A 
ATOM     43  H   UNL A   1      40.139  29.769  31.982  1.00  0.00     0.167 HD
ATOM     44  C   UNL A   1      42.156  27.156  29.122  1.00  0.00     0.037 A 
ATOM     45  C   UNL A   1      39.845  31.097  34.418  1.00  0.00     0.037 A 
ATOM     46  C   UNL A   1      43.025  27.205  30.270  1.00  0.00     0.049 A 
ATOM     47  C   UNL A   1      41.136  30.344  34.507  1.00  0.00     0.074 A 
ATOM     48  C   UNL A   1      44.255  26.593  30.451  1.00  0.00     0.029 A 
ATOM     49  N   UNL A   1      42.749  27.897  31.439  1.00  0.00    -0.354 N 
ATOM     50  N   UNL A   1      41.709  29.583  33.607  1.00  0.00    -0.248 NA
ATOM     51  C   UNL A   1      41.880  30.456  35.768  1.00  0.00     0.031 C 
ATOM     52  C   UNL A   1      44.709  26.893  31.741  1.00  0.00     0.029 A 
ATOM     53  C   UNL A   1      43.775  27.713  32.353  1.00  0.00     0.049 A 
ATOM     54  H   UNL A   1      41.943  28.441  31.596  1.00  0.00     0.167 HD
ATOM     55  C   UNL A   1      42.877  29.121  34.189  1.00  0.00     0.074 A 
ATOM     56  C   UNL A   1      42.944  29.705  35.515  1.00  0.00     0.031 C 
ATOM     57  C   UNL A   1      43.809  28.284  33.673  1.00  0.00     0.037 A 
BRANCH  44  58
ATOM     58  C   UNL A   1      42.587  26.326  27.953  1.00  0.00     0.064 A 
ATOM     59  C   UNL A   1      43.459  26.836  26.980  1.00  0.00     0.173 A 
ATOM     60  C   UNL A   1      42.179  24.989  27.837  1.00  0.00     0.173 A 
ATOM     61  F   UNL A   1      43.867  28.112  27.045  1.00  0.00    -0.203 F 
ATOM     62  C   UNL A   1      43.905  26.036  25.931  1.00  0.00     0.198 A 
ATOM     63  C   UNL A   1      42.635  24.190  26.793  1.00  0.00     0.198 A 
ATOM     64  F   UNL A   1      41.347  24.457  28.745  1.00  0.00    -0.203 F 
ATOM     65  F   UNL A   1      44.726  26.548  25.002  1.00  0.00    -0.200 F 
ATOM     66  C   UNL A   1      43.497  24.713  25.840  1.00  0.00     0.200 A 
ATOM     67  F   UNL A   1      42.245  22.910  26.710  1.00  0.00    -0.200 F 
ATOM     68  F   UNL A   1      43.933  23.944  24.834  1.00  0.00    -0.200 F 
ENDBRANCH  44  58
BRANCH  45  69
ATOM     69  C   UNL A   1      39.346  31.924  35.540  1.00  0.00     0.064 A 
ATOM     70  C   UNL A   1      38.490  31.382  36.505  1.00  0.00     0.173 A 
ATOM     71  C   UNL A   1      39.776  33.248  35.705  1.00  0.00     0.173 A 
ATOM     72  F   UNL A   1      38.047  30.124  36.377  1.00  0.00    -0.203 F 
ATOM     73  C   UNL A   1      38.085  32.137  37.604  1.00  0.00     0.198 A 
ATOM     74  C   UNL A   1      39.384  33.995  36.813  1.00  0.00     0.198 A 
ATOM     75  F   UNL A   1      40.603  33.802  34.806  1.00  0.00    -0.203 F 
ATOM     76  F   UNL A   1      37.258  31.602  38.513  1.00  0.00    -0.200 F 
ATOM     77  C   UNL A   1      38.540  33.438  37.761  1.00  0.00     0.200 A 
ATOM     78  F   UNL A   1      39.838  35.246  36.969  1.00  0.00    -0.200 F 
ATOM     79  F   UNL A   1      38.166  34.156  38.830  1.00  0.00    -0.200 F 
ENDBRANCH  45  69
BRANCH  57  80
ATOM     80  C   UNL A   1      44.968  27.945  34.558  1.00  0.00     0.064 A 
ATOM     81  C   UNL A   1      44.934  26.817  35.391  1.00  0.00     0.173 A 
ATOM     82  C   UNL A   1      46.118  28.745  34.570  1.00  0.00     0.173 A 
ATOM     83  F   UNL A   1      43.845  26.035  35.424  1.00  0.00    -0.203 F 
ATOM     84  C   UNL A   1      46.007  26.514  36.223  1.00  0.00     0.198 A 
ATOM     85  C   UNL A   1      47.195  28.430  35.393  1.00  0.00     0.198 A 
ATOM     86  F   UNL A   1      46.191  29.834  33.790  1.00  0.00    -0.203 F 
ATOM     87  F   UNL A   1      45.941  25.455  37.041  1.00  0.00    -0.200 F 
ATOM     88  C   UNL A   1      47.136  27.319  36.222  1.00  0.00     0.200 A 
ATOM     89  F   UNL A   1      48.286  29.208  35.392  1.00  0.00    -0.200 F 
ATOM     90  F   UNL A   1      48.166  27.031  37.031  1.00  0.00    -0.200 F 
ENDBRANCH  57  80
ENDBRANCH  31  32
ENDBRANCH  24  26
ENDBRANCH  23  24
ENDBRANCH  22  23
ENDBRANCH   1  22
TORSDOF 16
ENDMDL
