MODEL 1
REMARK VINA RESULT:     -13.5      0.000      0.000
REMARK SMILES CC1(C)[C@H](C(=O)N(Cc2ccccc2)Cc2ccccc2)CC[C@@]1(C)C(=O)OCCOC(=O)c1ccc(-c2c3nc(c(-c4c(F)c(F)c(F)c(F)c4F)c4ccc([nH]4)c(-c4c(F)c(F)c(F)c(F)c4F)c4nc(c(-c5c(F)c(F)c(F)c(F)c5F)c5ccc2[nH]5)C=C4)C=C3)cc1
REMARK SMILES IDX 29 1 28 2 26 3 27 4 24 5 1 6 2 7 3 8 4 9 22 10 23 11 25 12
REMARK SMILES IDX 5 13 6 14 7 15 8 16 9 17 10 18 14 19 11 20 13 21 12 22 15 23
REMARK SMILES IDX 16 24 17 25 21 26 18 27 20 28 19 29 30 30 31 31 32 32 33 33
REMARK SMILES IDX 34 34 35 35 96 36 36 37 95 38 37 39 38 40 39 41 89 42 40 43
REMARK SMILES IDX 94 44 88 45 90 46 41 47 93 48 87 49 86 50 42 52 74 53 54 54
REMARK SMILES IDX 73 55 55 56 58 57 72 58 91 59 56 60 57 61 71 63 92 64 59 65
REMARK SMILES IDX 43 66 44 67 52 68 45 69 46 70 50 71 53 72 47 73 48 74 51 75
REMARK SMILES IDX 49 76 75 77 76 78 84 79 77 80 78 81 82 82 85 83 79 84 80 85
REMARK SMILES IDX 83 86 81 87 60 88 61 89 69 90 62 91 63 92 67 93 70 94 64 95
REMARK SMILES IDX 65 96 68 97 66 98
REMARK H PARENT 90 51 58 62
REMARK Flexibility Score: inf
ROOT
ATOM      1  C   UNL A   1      31.185  29.716  24.698  1.00  0.00     0.274 C 
ENDROOT
BRANCH   1   2
ATOM      2  O   UNL A   1      31.364  28.357  25.138  1.00  0.00    -0.462 OA
BRANCH   2   3
ATOM      3  C   UNL A   1      31.295  27.391  24.180  1.00  0.00     0.312 C 
ATOM      4  O   UNL A   1      30.342  27.226  23.430  1.00  0.00    -0.252 OA
BRANCH   3   5
ATOM      5  C   UNL A   1      32.560  26.509  24.186  1.00  0.00     0.071 C 
ATOM      6  C   UNL A   1      31.215  25.410  26.169  1.00  0.00     0.013 C 
ATOM      7  C   UNL A   1      32.416  25.294  25.197  1.00  0.00    -0.008 C 
ATOM      8  C   UNL A   1      33.640  25.168  26.100  1.00  0.00     0.013 C 
ATOM      9  C   UNL A   1      32.184  24.068  24.268  1.00  0.00     0.085 C 
ATOM     10  C   UNL A   1      32.797  24.362  22.915  1.00  0.00     0.015 C 
ATOM     11  C   UNL A   1      32.744  25.873  22.770  1.00  0.00     0.020 C 
ATOM     12  C   UNL A   1      33.788  27.419  24.443  1.00  0.00     0.024 C 
BRANCH   9  13
ATOM     13  C   UNL A   1      32.348  22.646  24.829  1.00  0.00     0.226 C 
ATOM     14  O   UNL A   1      31.319  22.163  25.329  1.00  0.00    -0.275 OA
ATOM     15  N   UNL A   1      33.529  21.899  24.832  1.00  0.00    -0.334 N 
BRANCH  15  16
ATOM     16  C   UNL A   1      34.729  22.083  23.987  1.00  0.00     0.155 C 
BRANCH  16  17
ATOM     17  C   UNL A   1      36.086  22.244  24.661  1.00  0.00    -0.029 A 
ATOM     18  C   UNL A   1      36.459  23.511  25.158  1.00  0.00     0.005 A 
ATOM     19  C   UNL A   1      37.034  21.219  24.765  1.00  0.00     0.005 A 
ATOM     20  C   UNL A   1      37.653  23.703  25.857  1.00  0.00     0.000 A 
ATOM     21  C   UNL A   1      38.237  21.411  25.454  1.00  0.00     0.000 A 
ATOM     22  C   UNL A   1      38.536  22.643  26.021  1.00  0.00     0.000 A 
ENDBRANCH  16  17
ENDBRANCH  15  16
BRANCH  15  23
ATOM     23  C   UNL A   1      33.403  20.599  25.508  1.00  0.00     0.155 C 
BRANCH  23  24
ATOM     24  C   UNL A   1      33.477  19.401  24.577  1.00  0.00    -0.029 A 
ATOM     25  C   UNL A   1      32.486  19.227  23.600  1.00  0.00     0.005 A 
ATOM     26  C   UNL A   1      34.502  18.448  24.656  1.00  0.00     0.005 A 
ATOM     27  C   UNL A   1      32.499  18.109  22.761  1.00  0.00     0.000 A 
ATOM     28  C   UNL A   1      34.512  17.327  23.827  1.00  0.00     0.000 A 
ATOM     29  C   UNL A   1      33.507  17.154  22.882  1.00  0.00     0.000 A 
ENDBRANCH  23  24
ENDBRANCH  15  23
ENDBRANCH   9  13
ENDBRANCH   3   5
ENDBRANCH   2   3
ENDBRANCH   1   2
BRANCH   1  30
ATOM     30  C   UNL A   1      31.411  30.673  25.863  1.00  0.00     0.275 C 
BRANCH  30  31
ATOM     31  O   UNL A   1      32.744  30.494  26.376  1.00  0.00    -0.458 OA
BRANCH  31  32
ATOM     32  C   UNL A   1      33.232  31.525  27.101  1.00  0.00     0.338 C 
ATOM     33  O   UNL A   1      32.677  32.568  27.395  1.00  0.00    -0.246 OA
BRANCH  32  34
ATOM     34  C   UNL A   1      34.580  31.188  27.582  1.00  0.00     0.060 A 
ATOM     35  C   UNL A   1      34.868  29.861  27.891  1.00  0.00     0.016 A 
ATOM     36  C   UNL A   1      35.490  32.197  27.888  1.00  0.00     0.016 A 
ATOM     37  C   UNL A   1      36.020  29.540  28.599  1.00  0.00     0.010 A 
ATOM     38  C   UNL A   1      36.691  31.863  28.520  1.00  0.00     0.010 A 
ATOM     39  C   UNL A   1      36.946  30.538  28.922  1.00  0.00    -0.014 A 
BRANCH  39  40
ATOM     40  C   UNL A   1      38.139  30.202  29.740  1.00  0.00     0.031 A 
ATOM     41  C   UNL A   1      39.213  29.316  29.169  1.00  0.00     0.074 A 
ATOM     42  C   UNL A   1      38.283  30.716  30.976  1.00  0.00     0.049 A 
ATOM     43  N   UNL A   1      40.252  28.783  29.761  1.00  0.00    -0.248 NA
ATOM     44  C   UNL A   1      39.098  28.977  27.742  1.00  0.00     0.031 C 
ATOM     45  C   UNL A   1      37.347  31.633  31.627  1.00  0.00     0.029 A 
ATOM     46  N   UNL A   1      39.279  30.544  31.905  1.00  0.00    -0.354 N 
ATOM     47  C   UNL A   1      40.878  28.003  28.798  1.00  0.00     0.074 A 
ATOM     48  C   UNL A   1      40.108  28.134  27.580  1.00  0.00     0.031 C 
ATOM     49  C   UNL A   1      37.823  31.961  32.837  1.00  0.00     0.029 A 
ATOM     50  C   UNL A   1      39.058  31.224  33.077  1.00  0.00     0.049 A 
ATOM     51  H   UNL A   1      40.075  29.986  31.746  1.00  0.00     0.167 HD
ATOM     52  C   UNL A   1      41.992  27.242  28.924  1.00  0.00     0.037 A 
ATOM     53  C   UNL A   1      39.754  31.223  34.230  1.00  0.00     0.037 A 
ATOM     54  C   UNL A   1      42.785  27.155  30.121  1.00  0.00     0.049 A 
ATOM     55  C   UNL A   1      40.987  30.371  34.342  1.00  0.00     0.074 A 
ATOM     56  C   UNL A   1      43.927  26.408  30.351  1.00  0.00     0.029 A 
ATOM     57  N   UNL A   1      42.525  27.858  31.288  1.00  0.00    -0.354 N 
ATOM     58  N   UNL A   1      41.535  29.587  33.447  1.00  0.00    -0.248 NA
ATOM     59  C   UNL A   1      41.691  30.396  35.631  1.00  0.00     0.031 C 
ATOM     60  C   UNL A   1      44.346  26.643  31.666  1.00  0.00     0.029 A 
ATOM     61  C   UNL A   1      43.486  27.562  32.242  1.00  0.00     0.049 A 
ATOM     62  H   UNL A   1      41.770  28.476  31.420  1.00  0.00     0.167 HD
ATOM     63  C   UNL A   1      42.649  29.032  34.058  1.00  0.00     0.074 A 
ATOM     64  C   UNL A   1      42.715  29.589  35.394  1.00  0.00     0.031 C 
ATOM     65  C   UNL A   1      43.536  28.134  33.563  1.00  0.00     0.037 A 
BRANCH  52  66
ATOM     66  C   UNL A   1      42.397  26.412  27.742  1.00  0.00     0.064 A 
ATOM     67  C   UNL A   1      41.837  25.151  27.493  1.00  0.00     0.173 A 
ATOM     68  C   UNL A   1      43.344  26.903  26.830  1.00  0.00     0.173 A 
ATOM     69  F   UNL A   1      40.942  24.631  28.345  1.00  0.00    -0.203 F 
ATOM     70  C   UNL A   1      42.226  24.402  26.385  1.00  0.00     0.198 A 
ATOM     71  C   UNL A   1      43.714  26.162  25.711  1.00  0.00     0.198 A 
ATOM     72  F   UNL A   1      43.908  28.104  27.023  1.00  0.00    -0.203 F 
ATOM     73  F   UNL A   1      41.709  23.182  26.188  1.00  0.00    -0.200 F 
ATOM     74  C   UNL A   1      43.159  24.910  25.492  1.00  0.00     0.200 A 
ATOM     75  F   UNL A   1      44.609  26.658  24.845  1.00  0.00    -0.200 F 
ATOM     76  F   UNL A   1      43.529  24.190  24.424  1.00  0.00    -0.200 F 
ENDBRANCH  52  66
BRANCH  53  77
ATOM     77  C   UNL A   1      39.280  32.036  35.379  1.00  0.00     0.064 A 
ATOM     78  C   UNL A   1      38.470  31.474  36.375  1.00  0.00     0.173 A 
ATOM     79  C   UNL A   1      39.626  33.389  35.503  1.00  0.00     0.173 A 
ATOM     80  F   UNL A   1      38.092  30.190  36.286  1.00  0.00    -0.203 F 
ATOM     81  C   UNL A   1      38.014  32.240  37.446  1.00  0.00     0.198 A 
ATOM     82  C   UNL A   1      39.193  34.146  36.589  1.00  0.00     0.198 A 
ATOM     83  F   UNL A   1      40.397  33.973  34.575  1.00  0.00    -0.203 F 
ATOM     84  F   UNL A   1      37.207  31.690  38.363  1.00  0.00    -0.200 F 
ATOM     85  C   UNL A   1      38.381  33.573  37.556  1.00  0.00     0.200 A 
ATOM     86  F   UNL A   1      39.560  35.430  36.697  1.00  0.00    -0.200 F 
ATOM     87  F   UNL A   1      37.946  34.307  38.589  1.00  0.00    -0.200 F 
ENDBRANCH  53  77
BRANCH  65  88
ATOM     88  C   UNL A   1      44.663  27.727  34.462  1.00  0.00     0.064 A 
ATOM     89  C   UNL A   1      44.557  26.618  35.313  1.00  0.00     0.173 A 
ATOM     90  C   UNL A   1      45.866  28.449  34.464  1.00  0.00     0.173 A 
ATOM     91  F   UNL A   1      43.420  25.908  35.358  1.00  0.00    -0.203 F 
ATOM     92  C   UNL A   1      45.606  26.262  36.155  1.00  0.00     0.198 A 
ATOM     93  C   UNL A   1      46.921  28.075  35.289  1.00  0.00     0.198 A 
ATOM     94  F   UNL A   1      46.015  29.515  33.664  1.00  0.00    -0.203 F 
ATOM     95  F   UNL A   1      45.467  25.228  36.997  1.00  0.00    -0.200 F 
ATOM     96  C   UNL A   1      46.788  26.987  36.140  1.00  0.00     0.200 A 
ATOM     97  F   UNL A   1      48.065  28.773  35.269  1.00  0.00    -0.200 F 
ATOM     98  F   UNL A   1      47.796  26.646  36.955  1.00  0.00    -0.200 F 
ENDBRANCH  65  88
ENDBRANCH  39  40
ENDBRANCH  32  34
ENDBRANCH  31  32
ENDBRANCH  30  31
ENDBRANCH   1  30
TORSDOF 16
ENDMDL
MODEL 2
REMARK VINA RESULT:     -13.4      0.096      1.613
REMARK SMILES CC1(C)[C@H](C(=O)N(Cc2ccccc2)Cc2ccccc2)CC[C@@]1(C)C(=O)OCCOC(=O)c1ccc(-c2c3nc(c(-c4c(F)c(F)c(F)c(F)c4F)c4ccc([nH]4)c(-c4c(F)c(F)c(F)c(F)c4F)c4nc(c(-c5c(F)c(F)c(F)c(F)c5F)c5ccc2[nH]5)C=C4)C=C3)cc1
REMARK SMILES IDX 29 1 28 2 26 3 27 4 24 5 1 6 2 7 3 8 4 9 22 10 23 11 25 12
REMARK SMILES IDX 5 13 6 14 7 15 8 16 9 17 10 18 14 19 11 20 13 21 12 22 15 23
REMARK SMILES IDX 16 24 17 25 21 26 18 27 20 28 19 29 30 30 31 31 32 32 33 33
REMARK SMILES IDX 34 34 35 35 96 36 36 37 95 38 37 39 38 40 39 41 89 42 40 43
REMARK SMILES IDX 94 44 88 45 90 46 41 47 93 48 87 49 86 50 42 52 74 53 54 54
REMARK SMILES IDX 73 55 55 56 58 57 72 58 91 59 56 60 57 61 71 63 92 64 59 65
REMARK SMILES IDX 43 66 44 67 52 68 45 69 46 70 50 71 53 72 47 73 48 74 51 75
REMARK SMILES IDX 49 76 75 77 76 78 84 79 77 80 78 81 82 82 85 83 79 84 80 85
REMARK SMILES IDX 83 86 81 87 60 88 61 89 69 90 62 91 63 92 67 93 70 94 64 95
REMARK SMILES IDX 65 96 68 97 66 98
REMARK H PARENT 90 51 58 62
REMARK Flexibility Score: inf
ROOT
ATOM      1  C   UNL A   1      31.227  29.646  24.633  1.00  0.00     0.274 C 
ENDROOT
BRANCH   1   2
ATOM      2  O   UNL A   1      31.314  28.263  25.024  1.00  0.00    -0.462 OA
BRANCH   2   3
ATOM      3  C   UNL A   1      31.351  27.345  24.019  1.00  0.00     0.312 C 
ATOM      4  O   UNL A   1      30.477  27.210  23.172  1.00  0.00    -0.252 OA
BRANCH   3   5
ATOM      5  C   UNL A   1      32.621  26.474  24.104  1.00  0.00     0.071 C 
ATOM      6  C   UNL A   1      31.177  25.383  26.020  1.00  0.00     0.013 C 
ATOM      7  C   UNL A   1      32.431  25.268  25.117  1.00  0.00    -0.008 C 
ATOM      8  C   UNL A   1      33.604  25.162  26.089  1.00  0.00     0.013 C 
ATOM      9  C   UNL A   1      32.262  24.031  24.190  1.00  0.00     0.085 C 
ATOM     10  C   UNL A   1      32.947  24.317  22.871  1.00  0.00     0.015 C 
ATOM     11  C   UNL A   1      32.890  25.826  22.707  1.00  0.00     0.020 C 
ATOM     12  C   UNL A   1      33.825  27.398  24.420  1.00  0.00     0.024 C 
BRANCH   9  13
ATOM     13  C   UNL A   1      32.407  22.616  24.774  1.00  0.00     0.226 C 
ATOM     14  O   UNL A   1      31.364  22.146  25.258  1.00  0.00    -0.275 OA
ATOM     15  N   UNL A   1      33.583  21.863  24.813  1.00  0.00    -0.334 N 
BRANCH  15  16
ATOM     16  C   UNL A   1      34.802  22.030  23.993  1.00  0.00     0.155 C 
BRANCH  16  17
ATOM     17  C   UNL A   1      36.132  22.282  24.692  1.00  0.00    -0.029 A 
ATOM     18  C   UNL A   1      36.426  23.580  25.161  1.00  0.00     0.005 A 
ATOM     19  C   UNL A   1      37.130  21.313  24.848  1.00  0.00     0.005 A 
ATOM     20  C   UNL A   1      37.591  23.855  25.881  1.00  0.00     0.000 A 
ATOM     21  C   UNL A   1      38.304  21.587  25.558  1.00  0.00     0.000 A 
ATOM     22  C   UNL A   1      38.524  22.849  26.096  1.00  0.00     0.000 A 
ENDBRANCH  16  17
ENDBRANCH  15  16
BRANCH  15  23
ATOM     23  C   UNL A   1      33.435  20.573  25.503  1.00  0.00     0.155 C 
BRANCH  23  24
ATOM     24  C   UNL A   1      33.454  19.366  24.583  1.00  0.00    -0.029 A 
ATOM     25  C   UNL A   1      34.496  18.433  24.693  1.00  0.00     0.005 A 
ATOM     26  C   UNL A   1      32.467  19.142  23.614  1.00  0.00     0.005 A 
ATOM     27  C   UNL A   1      34.569  17.337  23.829  1.00  0.00     0.000 A 
ATOM     28  C   UNL A   1      32.542  18.054  22.743  1.00  0.00     0.000 A 
ATOM     29  C   UNL A   1      33.597  17.155  22.848  1.00  0.00     0.000 A 
ENDBRANCH  23  24
ENDBRANCH  15  23
ENDBRANCH   9  13
ENDBRANCH   3   5
ENDBRANCH   2   3
ENDBRANCH   1   2
BRANCH   1  30
ATOM     30  C   UNL A   1      31.468  30.543  25.842  1.00  0.00     0.275 C 
BRANCH  30  31
ATOM     31  O   UNL A   1      32.851  30.463  26.229  1.00  0.00    -0.458 OA
BRANCH  31  32
ATOM     32  C   UNL A   1      33.284  31.444  27.050  1.00  0.00     0.338 C 
ATOM     33  O   UNL A   1      32.685  32.439  27.415  1.00  0.00    -0.246 OA
BRANCH  32  34
ATOM     34  C   UNL A   1      34.631  31.113  27.539  1.00  0.00     0.060 A 
ATOM     35  C   UNL A   1      34.920  29.789  27.860  1.00  0.00     0.016 A 
ATOM     36  C   UNL A   1      35.539  32.126  27.839  1.00  0.00     0.016 A 
ATOM     37  C   UNL A   1      36.070  29.476  28.574  1.00  0.00     0.010 A 
ATOM     38  C   UNL A   1      36.738  31.799  28.478  1.00  0.00     0.010 A 
ATOM     39  C   UNL A   1      36.994  30.478  28.892  1.00  0.00    -0.014 A 
BRANCH  39  40
ATOM     40  C   UNL A   1      38.185  30.150  29.717  1.00  0.00     0.031 A 
ATOM     41  C   UNL A   1      39.268  29.272  29.152  1.00  0.00     0.074 A 
ATOM     42  C   UNL A   1      38.319  30.665  30.953  1.00  0.00     0.049 A 
ATOM     43  N   UNL A   1      40.307  28.746  29.749  1.00  0.00    -0.248 NA
ATOM     44  C   UNL A   1      39.163  28.931  27.724  1.00  0.00     0.031 C 
ATOM     45  C   UNL A   1      37.372  31.576  31.599  1.00  0.00     0.029 A 
ATOM     46  N   UNL A   1      39.310  30.501  31.887  1.00  0.00    -0.354 N 
ATOM     47  C   UNL A   1      40.944  27.971  28.790  1.00  0.00     0.074 A 
ATOM     48  C   UNL A   1      40.180  28.096  27.568  1.00  0.00     0.031 C 
ATOM     49  C   UNL A   1      37.839  31.908  32.812  1.00  0.00     0.029 A 
ATOM     50  C   UNL A   1      39.078  31.179  33.058  1.00  0.00     0.049 A 
ATOM     51  H   UNL A   1      40.111  29.949  31.733  1.00  0.00     0.167 HD
ATOM     52  C   UNL A   1      42.063  27.218  28.922  1.00  0.00     0.037 A 
ATOM     53  C   UNL A   1      39.768  31.184  34.215  1.00  0.00     0.037 A 
ATOM     54  C   UNL A   1      42.850  27.137  30.124  1.00  0.00     0.049 A 
ATOM     55  C   UNL A   1      41.006  30.341  34.334  1.00  0.00     0.074 A 
ATOM     56  C   UNL A   1      43.996  26.398  30.360  1.00  0.00     0.029 A 
ATOM     57  N   UNL A   1      42.579  27.838  31.289  1.00  0.00    -0.354 N 
ATOM     58  N   UNL A   1      41.564  29.560  33.442  1.00  0.00    -0.248 NA
ATOM     59  C   UNL A   1      41.703  30.371  35.627  1.00  0.00     0.031 C 
ATOM     60  C   UNL A   1      44.406  26.636  31.677  1.00  0.00     0.029 A 
ATOM     61  C   UNL A   1      43.536  27.549  32.249  1.00  0.00     0.049 A 
ATOM     62  H   UNL A   1      41.818  28.450  31.417  1.00  0.00     0.167 HD
ATOM     63  C   UNL A   1      42.679  29.013  34.060  1.00  0.00     0.074 A 
ATOM     64  C   UNL A   1      42.734  29.571  35.395  1.00  0.00     0.031 C 
ATOM     65  C   UNL A   1      43.575  28.121  33.569  1.00  0.00     0.037 A 
BRANCH  52  66
ATOM     66  C   UNL A   1      42.480  26.390  27.743  1.00  0.00     0.064 A 
ATOM     67  C   UNL A   1      41.935  25.123  27.495  1.00  0.00     0.173 A 
ATOM     68  C   UNL A   1      43.424  26.890  26.832  1.00  0.00     0.173 A 
ATOM     69  F   UNL A   1      41.045  24.593  28.346  1.00  0.00    -0.203 F 
ATOM     70  C   UNL A   1      42.336  24.376  26.389  1.00  0.00     0.198 A 
ATOM     71  C   UNL A   1      43.805  26.152  25.715  1.00  0.00     0.198 A 
ATOM     72  F   UNL A   1      43.973  28.099  27.024  1.00  0.00    -0.203 F 
ATOM     73  F   UNL A   1      41.834  23.150  26.193  1.00  0.00    -0.200 F 
ATOM     74  C   UNL A   1      43.264  24.893  25.498  1.00  0.00     0.200 A 
ATOM     75  F   UNL A   1      44.695  26.657  24.850  1.00  0.00    -0.200 F 
ATOM     76  F   UNL A   1      43.645  24.175  24.432  1.00  0.00    -0.200 F 
ENDBRANCH  52  66
BRANCH  53  77
ATOM     77  C   UNL A   1      39.282  31.993  35.361  1.00  0.00     0.064 A 
ATOM     78  C   UNL A   1      39.634  33.343  35.493  1.00  0.00     0.173 A 
ATOM     79  C   UNL A   1      38.456  31.433  36.347  1.00  0.00     0.173 A 
ATOM     80  F   UNL A   1      40.441  33.916  34.588  1.00  0.00    -0.203 F 
ATOM     81  C   UNL A   1      39.188  34.099  36.576  1.00  0.00     0.198 A 
ATOM     82  C   UNL A   1      37.989  32.196  37.413  1.00  0.00     0.198 A 
ATOM     83  F   UNL A   1      38.093  30.145  36.266  1.00  0.00    -0.203 F 
ATOM     84  F   UNL A   1      39.573  35.376  36.702  1.00  0.00    -0.200 F 
ATOM     85  C   UNL A   1      38.361  33.527  37.531  1.00  0.00     0.200 A 
ATOM     86  F   UNL A   1      37.180  31.643  38.328  1.00  0.00    -0.200 F 
ATOM     87  F   UNL A   1      37.930  34.256  38.569  1.00  0.00    -0.200 F 
ENDBRANCH  53  77
BRANCH  65  88
ATOM     88  C   UNL A   1      44.700  27.723  34.475  1.00  0.00     0.064 A 
ATOM     89  C   UNL A   1      45.904  28.441  34.506  1.00  0.00     0.173 A 
ATOM     90  C   UNL A   1      44.567  26.618  35.329  1.00  0.00     0.173 A 
ATOM     91  F   UNL A   1      46.082  29.495  33.695  1.00  0.00    -0.203 F 
ATOM     92  C   UNL A   1      46.947  28.050  35.340  1.00  0.00     0.198 A 
ATOM     93  C   UNL A   1      45.603  26.245  36.179  1.00  0.00     0.198 A 
ATOM     94  F   UNL A   1      43.433  25.903  35.337  1.00  0.00    -0.203 F 
ATOM     95  F   UNL A   1      48.107  28.720  35.319  1.00  0.00    -0.200 F 
ATOM     96  C   UNL A   1      46.795  26.955  36.178  1.00  0.00     0.200 A 
ATOM     97  F   UNL A   1      45.453  25.191  36.993  1.00  0.00    -0.200 F 
ATOM     98  F   UNL A   1      47.802  26.577  36.978  1.00  0.00    -0.200 F 
ENDBRANCH  65  88
ENDBRANCH  39  40
ENDBRANCH  32  34
ENDBRANCH  31  32
ENDBRANCH  30  31
ENDBRANCH   1  30
TORSDOF 16
ENDMDL
MODEL 3
REMARK VINA RESULT:     -13.3      3.952      9.719
REMARK SMILES CC1(C)[C@H](C(=O)N(Cc2ccccc2)Cc2ccccc2)CC[C@@]1(C)C(=O)OCCOC(=O)c1ccc(-c2c3nc(c(-c4c(F)c(F)c(F)c(F)c4F)c4ccc([nH]4)c(-c4c(F)c(F)c(F)c(F)c4F)c4nc(c(-c5c(F)c(F)c(F)c(F)c5F)c5ccc2[nH]5)C=C4)C=C3)cc1
REMARK SMILES IDX 29 1 28 2 26 3 27 4 24 5 1 6 2 7 3 8 4 9 22 10 23 11 25 12
REMARK SMILES IDX 5 13 6 14 7 15 8 16 9 17 10 18 14 19 11 20 13 21 12 22 15 23
REMARK SMILES IDX 16 24 17 25 21 26 18 27 20 28 19 29 30 30 31 31 32 32 33 33
REMARK SMILES IDX 34 34 35 35 96 36 36 37 95 38 37 39 38 40 39 41 89 42 40 43
REMARK SMILES IDX 94 44 88 45 90 46 41 47 93 48 87 49 86 50 42 52 74 53 54 54
REMARK SMILES IDX 73 55 55 56 58 57 72 58 91 59 56 60 57 61 71 63 92 64 59 65
REMARK SMILES IDX 43 66 44 67 52 68 45 69 46 70 50 71 53 72 47 73 48 74 51 75
REMARK SMILES IDX 49 76 75 77 76 78 84 79 77 80 78 81 82 82 85 83 79 84 80 85
REMARK SMILES IDX 83 86 81 87 60 88 61 89 69 90 62 91 63 92 67 93 70 94 64 95
REMARK SMILES IDX 65 96 68 97 66 98
REMARK H PARENT 90 51 58 62
REMARK Flexibility Score: inf
ROOT
ATOM      1  C   UNL A   1      35.282  20.323  24.981  1.00  0.00     0.274 C 
ENDROOT
BRANCH   1   2
ATOM      2  O   UNL A   1      34.571  21.014  26.025  1.00  0.00    -0.462 OA
BRANCH   2   3
ATOM      3  C   UNL A   1      33.388  21.593  25.679  1.00  0.00     0.312 C 
ATOM      4  O   UNL A   1      32.490  21.024  25.072  1.00  0.00    -0.252 OA
BRANCH   3   5
ATOM      5  C   UNL A   1      33.338  23.069  26.122  1.00  0.00     0.071 C 
ATOM      6  C   UNL A   1      33.820  23.369  23.548  1.00  0.00     0.013 C 
ATOM      7  C   UNL A   1      33.410  24.051  24.878  1.00  0.00    -0.008 C 
ATOM      8  C   UNL A   1      34.449  25.150  25.089  1.00  0.00     0.013 C 
ATOM      9  C   UNL A   1      31.953  24.575  24.738  1.00  0.00     0.085 C 
ATOM     10  C   UNL A   1      31.276  24.491  26.089  1.00  0.00     0.015 C 
ATOM     11  C   UNL A   1      31.965  23.349  26.814  1.00  0.00     0.020 C 
ATOM     12  C   UNL A   1      34.443  23.296  27.187  1.00  0.00     0.024 C 
BRANCH   9  13
ATOM     13  C   UNL A   1      31.669  25.817  23.876  1.00  0.00     0.226 C 
ATOM     14  O   UNL A   1      31.513  25.584  22.666  1.00  0.00    -0.275 OA
ATOM     15  N   UNL A   1      31.596  27.133  24.337  1.00  0.00    -0.334 N 
BRANCH  15  16
ATOM     16  C   UNL A   1      31.365  27.606  25.720  1.00  0.00     0.155 C 
BRANCH  16  17
ATOM     17  C   UNL A   1      32.357  28.582  26.340  1.00  0.00    -0.029 A 
ATOM     18  C   UNL A   1      33.654  28.130  26.664  1.00  0.00     0.005 A 
ATOM     19  C   UNL A   1      32.046  29.905  26.678  1.00  0.00     0.005 A 
ATOM     20  C   UNL A   1      34.632  28.997  27.158  1.00  0.00     0.000 A 
ATOM     21  C   UNL A   1      33.019  30.773  27.184  1.00  0.00     0.000 A 
ATOM     22  C   UNL A   1      34.317  30.327  27.401  1.00  0.00     0.000 A 
ENDBRANCH  16  17
ENDBRANCH  15  16
BRANCH  15  23
ATOM     23  C   UNL A   1      31.388  28.122  23.269  1.00  0.00     0.155 C 
BRANCH  23  24
ATOM     24  C   UNL A   1      30.033  28.806  23.305  1.00  0.00    -0.029 A 
ATOM     25  C   UNL A   1      28.876  28.052  23.065  1.00  0.00     0.005 A 
ATOM     26  C   UNL A   1      29.887  30.175  23.567  1.00  0.00     0.005 A 
ATOM     27  C   UNL A   1      27.618  28.661  23.043  1.00  0.00     0.000 A 
ATOM     28  C   UNL A   1      28.634  30.788  23.536  1.00  0.00     0.000 A 
ATOM     29  C   UNL A   1      27.499  30.030  23.268  1.00  0.00     0.000 A 
ENDBRANCH  23  24
ENDBRANCH  15  23
ENDBRANCH   9  13
ENDBRANCH   3   5
ENDBRANCH   2   3
ENDBRANCH   1   2
BRANCH   1  30
ATOM     30  C   UNL A   1      36.546  21.094  24.616  1.00  0.00     0.275 C 
BRANCH  30  31
ATOM     31  O   UNL A   1      37.150  21.616  25.813  1.00  0.00    -0.458 OA
BRANCH  31  32
ATOM     32  C   UNL A   1      38.488  21.458  25.905  1.00  0.00     0.338 C 
ATOM     33  O   UNL A   1      39.170  20.543  25.482  1.00  0.00    -0.246 OA
BRANCH  32  34
ATOM     34  C   UNL A   1      39.074  22.636  26.562  1.00  0.00     0.060 A 
ATOM     35  C   UNL A   1      38.583  23.898  26.235  1.00  0.00     0.016 A 
ATOM     36  C   UNL A   1      40.210  22.506  27.358  1.00  0.00     0.016 A 
ATOM     37  C   UNL A   1      39.277  25.041  26.614  1.00  0.00     0.010 A 
ATOM     38  C   UNL A   1      40.857  23.658  27.815  1.00  0.00     0.010 A 
ATOM     39  C   UNL A   1      40.423  24.934  27.409  1.00  0.00    -0.014 A 
BRANCH  39  40
ATOM     40  C   UNL A   1      41.202  26.152  27.752  1.00  0.00     0.031 A 
ATOM     41  C   UNL A   1      40.564  27.243  28.569  1.00  0.00     0.074 A 
ATOM     42  C   UNL A   1      42.486  26.270  27.366  1.00  0.00     0.049 A 
ATOM     43  N   UNL A   1      41.011  28.440  28.849  1.00  0.00    -0.248 NA
ATOM     44  C   UNL A   1      39.241  26.948  29.143  1.00  0.00     0.031 C 
ATOM     45  C   UNL A   1      43.242  25.263  26.620  1.00  0.00     0.029 A 
ATOM     46  N   UNL A   1      43.386  27.288  27.555  1.00  0.00    -0.354 N 
ATOM     47  C   UNL A   1      40.004  29.060  29.578  1.00  0.00     0.074 A 
ATOM     48  C   UNL A   1      38.924  28.106  29.704  1.00  0.00     0.031 C 
ATOM     49  C   UNL A   1      44.496  25.703  26.435  1.00  0.00     0.029 A 
ATOM     50  C   UNL A   1      44.612  27.049  26.985  1.00  0.00     0.049 A 
ATOM     51  H   UNL A   1      43.173  28.112  28.052  1.00  0.00     0.167 HD
ATOM     52  C   UNL A   1      39.985  30.315  30.089  1.00  0.00     0.037 A 
ATOM     53  C   UNL A   1      45.696  27.840  26.884  1.00  0.00     0.037 A 
ATOM     54  C   UNL A   1      41.082  31.242  30.007  1.00  0.00     0.049 A 
ATOM     55  C   UNL A   1      45.648  29.228  27.461  1.00  0.00     0.074 A 
ATOM     56  C   UNL A   1      41.158  32.538  30.488  1.00  0.00     0.029 A 
ATOM     57  N   UNL A   1      42.306  30.961  29.418  1.00  0.00    -0.354 N 
ATOM     58  N   UNL A   1      44.669  29.827  28.091  1.00  0.00    -0.248 NA
ATOM     59  C   UNL A   1      46.854  30.051  27.301  1.00  0.00     0.031 C 
ATOM     60  C   UNL A   1      42.422  33.049  30.170  1.00  0.00     0.029 A 
ATOM     61  C   UNL A   1      43.144  32.060  29.524  1.00  0.00     0.049 A 
ATOM     62  H   UNL A   1      42.544  30.108  28.989  1.00  0.00     0.167 HD
ATOM     63  C   UNL A   1      45.140  31.093  28.410  1.00  0.00     0.074 A 
ATOM     64  C   UNL A   1      46.503  31.166  27.926  1.00  0.00     0.031 C 
ATOM     65  C   UNL A   1      44.499  32.108  29.040  1.00  0.00     0.037 A 
BRANCH  52  66
ATOM     66  C   UNL A   1      38.719  30.770  30.752  1.00  0.00     0.064 A 
ATOM     67  C   UNL A   1      37.626  31.250  30.016  1.00  0.00     0.173 A 
ATOM     68  C   UNL A   1      38.591  30.696  32.148  1.00  0.00     0.173 A 
ATOM     69  F   UNL A   1      37.707  31.357  28.682  1.00  0.00    -0.203 F 
ATOM     70  C   UNL A   1      36.459  31.661  30.656  1.00  0.00     0.198 A 
ATOM     71  C   UNL A   1      37.414  31.086  32.782  1.00  0.00     0.198 A 
ATOM     72  F   UNL A   1      39.606  30.242  32.897  1.00  0.00    -0.203 F 
ATOM     73  F   UNL A   1      35.442  32.156  29.937  1.00  0.00    -0.200 F 
ATOM     74  C   UNL A   1      36.351  31.573  32.035  1.00  0.00     0.200 A 
ATOM     75  F   UNL A   1      37.309  30.991  34.115  1.00  0.00    -0.200 F 
ATOM     76  F   UNL A   1      35.225  31.965  32.648  1.00  0.00    -0.200 F 
ENDBRANCH  52  66
BRANCH  53  77
ATOM     77  C   UNL A   1      46.907  27.348  26.180  1.00  0.00     0.064 A 
ATOM     78  C   UNL A   1      47.924  26.678  26.874  1.00  0.00     0.173 A 
ATOM     79  C   UNL A   1      47.073  27.538  24.800  1.00  0.00     0.173 A 
ATOM     80  F   UNL A   1      47.821  26.495  28.199  1.00  0.00    -0.203 F 
ATOM     81  C   UNL A   1      49.066  26.228  26.216  1.00  0.00     0.198 A 
ATOM     82  C   UNL A   1      48.202  27.063  24.139  1.00  0.00     0.198 A 
ATOM     83  F   UNL A   1      46.129  28.174  24.092  1.00  0.00    -0.203 F 
ATOM     84  F   UNL A   1      50.043  25.627  26.910  1.00  0.00    -0.200 F 
ATOM     85  C   UNL A   1      49.201  26.414  24.848  1.00  0.00     0.200 A 
ATOM     86  F   UNL A   1      48.323  27.234  22.815  1.00  0.00    -0.200 F 
ATOM     87  F   UNL A   1      50.299  25.977  24.216  1.00  0.00    -0.200 F 
ENDBRANCH  53  77
BRANCH  65  88
ATOM     88  C   UNL A   1      45.280  33.367  29.263  1.00  0.00     0.064 A 
ATOM     89  C   UNL A   1      45.268  34.412  28.328  1.00  0.00     0.173 A 
ATOM     90  C   UNL A   1      46.040  33.534  30.430  1.00  0.00     0.173 A 
ATOM     91  F   UNL A   1      44.569  34.290  27.189  1.00  0.00    -0.203 F 
ATOM     92  C   UNL A   1      46.011  35.569  28.540  1.00  0.00     0.198 A 
ATOM     93  C   UNL A   1      46.762  34.702  30.650  1.00  0.00     0.198 A 
ATOM     94  F   UNL A   1      46.079  32.564  31.355  1.00  0.00    -0.203 F 
ATOM     95  F   UNL A   1      46.025  36.535  27.611  1.00  0.00    -0.200 F 
ATOM     96  C   UNL A   1      46.754  35.715  29.702  1.00  0.00     0.200 A 
ATOM     97  F   UNL A   1      47.475  34.845  31.776  1.00  0.00    -0.200 F 
ATOM     98  F   UNL A   1      47.474  36.828  29.904  1.00  0.00    -0.200 F 
ENDBRANCH  65  88
ENDBRANCH  39  40
ENDBRANCH  32  34
ENDBRANCH  31  32
ENDBRANCH  30  31
ENDBRANCH   1  30
TORSDOF 16
ENDMDL
