MODEL 1
REMARK VINA RESULT:     -10.3      0.000      0.000
REMARK SMILES COC(=O)[C@@H]([NH2+]CC(C)(C)C(=O)OCCOC(=O)c1ccc(-c2c3nc(c(-c4c(F)c(F)c(F)c(F)c4F)c4ccc([nH]4)c(-c4c(F)c(F)c(F)c(F)c4F)c4nc(c(-c5c(F)c(F)c(F)c(F)c5F)c5ccc2[nH]5)C=C4)C=C3)cc1)c1ccccc1
REMARK SMILES IDX 13 1 11 2 12 3 8 4 9 5 10 6 7 7 6 8 5 11 3 12 4 13 2 14 1 15
REMARK SMILES IDX 82 16 83 17 87 18 84 19 86 20 85 21 14 22 15 23 16 24 17 25
REMARK SMILES IDX 18 26 19 27 20 28 81 29 21 30 80 31 22 32 23 33 24 34 74 35
REMARK SMILES IDX 25 36 79 37 73 38 75 39 26 40 78 41 72 42 71 43 27 45 59 46
REMARK SMILES IDX 39 47 58 48 40 49 43 50 57 51 76 52 41 53 42 54 56 56 77 57
REMARK SMILES IDX 44 58 28 59 29 60 37 61 30 62 31 63 35 64 38 65 32 66 33 67
REMARK SMILES IDX 36 68 34 69 60 70 61 71 69 72 62 73 63 74 67 75 70 76 64 77
REMARK SMILES IDX 65 78 68 79 66 80 45 81 46 82 54 83 47 84 48 85 52 86 55 87
REMARK SMILES IDX 49 88 50 89 53 90 51 91
REMARK H PARENT 6 9 6 10 75 44 43 55
REMARK Flexibility Score: inf
ROOT
ATOM      1  O   UNL A   1      42.239  19.485  25.072  1.00  0.00    -0.461 OA
ENDROOT
BRANCH   1   2
ATOM      2  C   UNL A   1      43.422  18.943  25.438  1.00  0.00     0.317 C 
ATOM      3  O   UNL A   1      43.470  18.004  26.193  1.00  0.00    -0.251 OA
BRANCH   2   4
ATOM      4  C   UNL A   1      44.678  19.503  24.836  1.00  0.00     0.111 C 
ATOM      5  C   UNL A   1      44.824  19.168  23.349  1.00  0.00     0.029 C 
ATOM      6  C   UNL A   1      45.839  18.812  25.596  1.00  0.00     0.029 C 
BRANCH   4   7
ATOM      7  C   UNL A   1      44.730  21.083  25.042  1.00  0.00     0.279 C 
BRANCH   7   8
ATOM      8  N   UNL A   1      43.804  22.185  24.659  1.00  0.00    -0.330 N 
ATOM      9  H   UNL A   1      44.156  22.524  23.764  1.00  0.00     0.347 HD
ATOM     10  H   UNL A   1      42.915  21.699  24.767  1.00  0.00     0.347 HD
BRANCH   8  11
ATOM     11  C   UNL A   1      43.500  23.425  25.452  1.00  0.00     0.324 C 
BRANCH  11  12
ATOM     12  C   UNL A   1      44.407  24.586  24.939  1.00  0.00     0.369 C 
ATOM     13  O   UNL A   1      45.525  24.437  24.462  1.00  0.00    -0.245 OA
BRANCH  12  14
ATOM     14  O   UNL A   1      43.741  25.786  24.984  1.00  0.00    -0.464 OA
ATOM     15  C   UNL A   1      44.556  26.878  25.408  1.00  0.00     0.282 C 
ENDBRANCH  12  14
ENDBRANCH  11  12
BRANCH  11  16
ATOM     16  C   UNL A   1      43.737  23.377  26.991  1.00  0.00     0.021 A 
ATOM     17  C   UNL A   1      44.937  23.779  27.588  1.00  0.00     0.010 A 
ATOM     18  C   UNL A   1      42.710  23.028  27.887  1.00  0.00     0.010 A 
ATOM     19  C   UNL A   1      45.159  23.712  28.972  1.00  0.00     0.001 A 
ATOM     20  C   UNL A   1      42.927  22.915  29.269  1.00  0.00     0.001 A 
ATOM     21  C   UNL A   1      44.161  23.242  29.813  1.00  0.00     0.000 A 
ENDBRANCH  11  16
ENDBRANCH   8  11
ENDBRANCH   7   8
ENDBRANCH   4   7
ENDBRANCH   2   4
ENDBRANCH   1   2
BRANCH   1  22
ATOM     22  C   UNL A   1      41.470  19.920  26.221  1.00  0.00     0.274 C 
BRANCH  22  23
ATOM     23  C   UNL A   1      40.115  20.628  25.928  1.00  0.00     0.275 C 
BRANCH  23  24
ATOM     24  O   UNL A   1      39.719  21.686  26.848  1.00  0.00    -0.458 OA
BRANCH  24  25
ATOM     25  C   UNL A   1      39.051  22.752  26.321  1.00  0.00     0.338 C 
ATOM     26  O   UNL A   1      38.047  22.682  25.626  1.00  0.00    -0.246 OA
BRANCH  25  27
ATOM     27  C   UNL A   1      39.546  24.066  26.842  1.00  0.00     0.060 A 
ATOM     28  C   UNL A   1      39.234  24.392  28.166  1.00  0.00     0.016 A 
ATOM     29  C   UNL A   1      40.212  25.021  26.087  1.00  0.00     0.016 A 
ATOM     30  C   UNL A   1      39.654  25.582  28.788  1.00  0.00     0.010 A 
ATOM     31  C   UNL A   1      40.616  26.237  26.697  1.00  0.00     0.010 A 
ATOM     32  C   UNL A   1      40.363  26.534  28.066  1.00  0.00    -0.014 A 
BRANCH  32  33
ATOM     33  C   UNL A   1      40.710  27.888  28.642  1.00  0.00     0.031 A 
ATOM     34  C   UNL A   1      42.110  28.090  29.152  1.00  0.00     0.074 A 
ATOM     35  C   UNL A   1      39.873  28.947  28.741  1.00  0.00     0.049 A 
ATOM     36  N   UNL A   1      42.611  29.055  29.881  1.00  0.00    -0.248 NA
ATOM     37  C   UNL A   1      43.080  27.055  28.768  1.00  0.00     0.031 C 
ATOM     38  C   UNL A   1      38.561  29.072  28.125  1.00  0.00     0.029 A 
ATOM     39  N   UNL A   1      39.993  30.129  29.453  1.00  0.00    -0.354 N 
ATOM     40  C   UNL A   1      43.949  28.734  30.051  1.00  0.00     0.074 A 
ATOM     41  C   UNL A   1      44.154  27.439  29.435  1.00  0.00     0.031 C 
ATOM     42  C   UNL A   1      37.927  30.154  28.611  1.00  0.00     0.029 A 
ATOM     43  C   UNL A   1      38.823  30.860  29.520  1.00  0.00     0.049 A 
ATOM     44  H   UNL A   1      40.834  30.420  29.873  1.00  0.00     0.167 HD
ATOM     45  C   UNL A   1      44.940  29.467  30.611  1.00  0.00     0.037 A 
ATOM     46  C   UNL A   1      38.504  31.976  30.213  1.00  0.00     0.037 A 
ATOM     47  C   UNL A   1      44.775  30.779  31.173  1.00  0.00     0.049 A 
ATOM     48  C   UNL A   1      39.581  32.715  30.967  1.00  0.00     0.074 A 
ATOM     49  C   UNL A   1      45.739  31.603  31.729  1.00  0.00     0.029 A 
ATOM     50  N   UNL A   1      43.573  31.465  31.248  1.00  0.00    -0.354 N 
ATOM     51  N   UNL A   1      40.848  32.413  31.101  1.00  0.00    -0.248 NA
ATOM     52  C   UNL A   1      39.202  33.986  31.606  1.00  0.00     0.031 C 
ATOM     53  C   UNL A   1      45.112  32.766  32.185  1.00  0.00     0.029 A 
ATOM     54  C   UNL A   1      43.767  32.692  31.863  1.00  0.00     0.049 A 
ATOM     55  H   UNL A   1      42.709  31.131  30.913  1.00  0.00     0.167 HD
ATOM     56  C   UNL A   1      41.430  33.486  31.765  1.00  0.00     0.074 A 
ATOM     57  C   UNL A   1      40.375  34.442  32.025  1.00  0.00     0.031 C 
ATOM     58  C   UNL A   1      42.730  33.664  32.101  1.00  0.00     0.037 A 
BRANCH  45  59
ATOM     59  C   UNL A   1      46.301  28.839  30.633  1.00  0.00     0.064 A 
ATOM     60  C   UNL A   1      47.203  28.998  29.568  1.00  0.00     0.173 A 
ATOM     61  C   UNL A   1      46.687  28.025  31.707  1.00  0.00     0.173 A 
ATOM     62  F   UNL A   1      46.872  29.752  28.509  1.00  0.00    -0.203 F 
ATOM     63  C   UNL A   1      48.413  28.312  29.550  1.00  0.00     0.198 A 
ATOM     64  C   UNL A   1      47.916  27.375  31.704  1.00  0.00     0.198 A 
ATOM     65  F   UNL A   1      45.864  27.848  32.753  1.00  0.00    -0.203 F 
ATOM     66  F   UNL A   1      49.215  28.403  28.480  1.00  0.00    -0.200 F 
ATOM     67  C   UNL A   1      48.769  27.503  30.618  1.00  0.00     0.200 A 
ATOM     68  F   UNL A   1      48.267  26.605  32.743  1.00  0.00    -0.200 F 
ATOM     69  F   UNL A   1      49.928  26.832  30.593  1.00  0.00    -0.200 F 
ENDBRANCH  45  59
BRANCH  46  70
ATOM     70  C   UNL A   1      37.116  32.522  30.193  1.00  0.00     0.064 A 
ATOM     71  C   UNL A   1      36.683  33.370  29.162  1.00  0.00     0.173 A 
ATOM     72  C   UNL A   1      36.220  32.274  31.245  1.00  0.00     0.173 A 
ATOM     73  F   UNL A   1      37.513  33.669  28.152  1.00  0.00    -0.203 F 
ATOM     74  C   UNL A   1      35.426  33.974  29.200  1.00  0.00     0.198 A 
ATOM     75  C   UNL A   1      34.953  32.861  31.270  1.00  0.00     0.198 A 
ATOM     76  F   UNL A   1      36.583  31.482  32.265  1.00  0.00    -0.203 F 
ATOM     77  F   UNL A   1      35.066  34.828  28.232  1.00  0.00    -0.200 F 
ATOM     78  C   UNL A   1      34.561  33.717  30.253  1.00  0.00     0.200 A 
ATOM     79  F   UNL A   1      34.119  32.612  32.289  1.00  0.00    -0.200 F 
ATOM     80  F   UNL A   1      33.358  34.307  30.293  1.00  0.00    -0.200 F 
ENDBRANCH  46  70
BRANCH  58  81
ATOM     81  C   UNL A   1      43.125  34.970  32.730  1.00  0.00     0.064 A 
ATOM     82  C   UNL A   1      43.188  35.140  34.120  1.00  0.00     0.173 A 
ATOM     83  C   UNL A   1      43.514  36.052  31.920  1.00  0.00     0.173 A 
ATOM     84  F   UNL A   1      42.812  34.146  34.939  1.00  0.00    -0.203 F 
ATOM     85  C   UNL A   1      43.609  36.345  34.677  1.00  0.00     0.198 A 
ATOM     86  C   UNL A   1      43.968  37.243  32.482  1.00  0.00     0.198 A 
ATOM     87  F   UNL A   1      43.477  35.944  30.584  1.00  0.00    -0.203 F 
ATOM     88  F   UNL A   1      43.622  36.496  36.009  1.00  0.00    -0.200 F 
ATOM     89  C   UNL A   1      44.010  37.391  33.858  1.00  0.00     0.200 A 
ATOM     90  F   UNL A   1      44.370  38.245  31.687  1.00  0.00    -0.200 F 
ATOM     91  F   UNL A   1      44.434  38.542  34.398  1.00  0.00    -0.200 F 
ENDBRANCH  58  81
ENDBRANCH  32  33
ENDBRANCH  25  27
ENDBRANCH  24  25
ENDBRANCH  23  24
ENDBRANCH  22  23
ENDBRANCH   1  22
TORSDOF 17
ENDMDL
MODEL 2
REMARK VINA RESULT:      -9.7      5.832     11.603
REMARK SMILES COC(=O)[C@@H]([NH2+]CC(C)(C)C(=O)OCCOC(=O)c1ccc(-c2c3nc(c(-c4c(F)c(F)c(F)c(F)c4F)c4ccc([nH]4)c(-c4c(F)c(F)c(F)c(F)c4F)c4nc(c(-c5c(F)c(F)c(F)c(F)c5F)c5ccc2[nH]5)C=C4)C=C3)cc1)c1ccccc1
REMARK SMILES IDX 13 1 11 2 12 3 8 4 9 5 10 6 7 7 6 8 5 11 3 12 4 13 2 14 1 15
REMARK SMILES IDX 82 16 83 17 87 18 84 19 86 20 85 21 14 22 15 23 16 24 17 25
REMARK SMILES IDX 18 26 19 27 20 28 81 29 21 30 80 31 22 32 23 33 24 34 74 35
REMARK SMILES IDX 25 36 79 37 73 38 75 39 26 40 78 41 72 42 71 43 27 45 59 46
REMARK SMILES IDX 39 47 58 48 40 49 43 50 57 51 76 52 41 53 42 54 56 56 77 57
REMARK SMILES IDX 44 58 28 59 29 60 37 61 30 62 31 63 35 64 38 65 32 66 33 67
REMARK SMILES IDX 36 68 34 69 60 70 61 71 69 72 62 73 63 74 67 75 70 76 64 77
REMARK SMILES IDX 65 78 68 79 66 80 45 81 46 82 54 83 47 84 48 85 52 86 55 87
REMARK SMILES IDX 49 88 50 89 53 90 51 91
REMARK H PARENT 6 9 6 10 75 44 43 55
REMARK Flexibility Score: inf
ROOT
ATOM      1  O   UNL A   1      32.093  31.168  26.212  1.00  0.00    -0.461 OA
ENDROOT
BRANCH   1   2
ATOM      2  C   UNL A   1      32.936  30.261  26.753  1.00  0.00     0.317 C 
ATOM      3  O   UNL A   1      33.833  30.602  27.483  1.00  0.00    -0.251 OA
BRANCH   2   4
ATOM      4  C   UNL A   1      32.693  28.807  26.470  1.00  0.00     0.111 C 
ATOM      5  C   UNL A   1      31.745  28.156  27.480  1.00  0.00     0.029 C 
ATOM      6  C   UNL A   1      34.079  28.126  26.610  1.00  0.00     0.029 C 
BRANCH   4   7
ATOM      7  C   UNL A   1      32.121  28.622  24.993  1.00  0.00     0.279 C 
BRANCH   7   8
ATOM      8  N   UNL A   1      31.323  29.506  24.099  1.00  0.00    -0.330 N 
ATOM      9  H   UNL A   1      31.474  30.448  24.459  1.00  0.00     0.347 HD
ATOM     10  H   UNL A   1      31.670  29.185  23.196  1.00  0.00     0.347 HD
BRANCH   8  11
ATOM     11  C   UNL A   1      29.846  29.424  23.833  1.00  0.00     0.324 C 
BRANCH  11  12
ATOM     12  C   UNL A   1      29.541  28.085  23.092  1.00  0.00     0.369 C 
ATOM     13  O   UNL A   1      28.622  27.327  23.375  1.00  0.00    -0.245 OA
BRANCH  12  14
ATOM     14  O   UNL A   1      30.368  27.925  22.007  1.00  0.00    -0.464 OA
ATOM     15  C   UNL A   1      31.188  26.760  22.078  1.00  0.00     0.282 C 
ENDBRANCH  12  14
ENDBRANCH  11  12
BRANCH  11  16
ATOM     16  C   UNL A   1      29.207  30.533  22.945  1.00  0.00     0.021 A 
ATOM     17  C   UNL A   1      28.708  30.284  21.661  1.00  0.00     0.010 A 
ATOM     18  C   UNL A   1      28.991  31.835  23.429  1.00  0.00     0.010 A 
ATOM     19  C   UNL A   1      28.155  31.288  20.852  1.00  0.00     0.001 A 
ATOM     20  C   UNL A   1      28.479  32.861  22.620  1.00  0.00     0.001 A 
ATOM     21  C   UNL A   1      28.074  32.591  21.320  1.00  0.00     0.000 A 
ENDBRANCH  11  16
ENDBRANCH   8  11
ENDBRANCH   7   8
ENDBRANCH   4   7
ENDBRANCH   2   4
ENDBRANCH   1   2
BRANCH   1  22
ATOM     22  C   UNL A   1      31.635  32.129  27.197  1.00  0.00     0.274 C 
BRANCH  22  23
ATOM     23  C   UNL A   1      32.162  33.586  27.050  1.00  0.00     0.275 C 
BRANCH  23  24
ATOM     24  O   UNL A   1      32.315  34.351  28.281  1.00  0.00    -0.458 OA
BRANCH  24  25
ATOM     25  C   UNL A   1      33.500  34.998  28.469  1.00  0.00     0.338 C 
ATOM     26  O   UNL A   1      33.652  36.212  28.448  1.00  0.00    -0.246 OA
BRANCH  25  27
ATOM     27  C   UNL A   1      34.600  34.084  28.912  1.00  0.00     0.060 A 
ATOM     28  C   UNL A   1      34.295  33.142  29.900  1.00  0.00     0.016 A 
ATOM     29  C   UNL A   1      35.918  34.159  28.484  1.00  0.00     0.016 A 
ATOM     30  C   UNL A   1      35.226  32.209  30.392  1.00  0.00     0.010 A 
ATOM     31  C   UNL A   1      36.872  33.241  28.995  1.00  0.00     0.010 A 
ATOM     32  C   UNL A   1      36.541  32.233  29.944  1.00  0.00    -0.014 A 
BRANCH  32  33
ATOM     33  C   UNL A   1      37.613  31.352  30.545  1.00  0.00     0.031 A 
ATOM     34  C   UNL A   1      38.045  31.646  31.955  1.00  0.00     0.074 A 
ATOM     35  C   UNL A   1      38.224  30.313  29.930  1.00  0.00     0.049 A 
ATOM     36  N   UNL A   1      39.075  31.202  32.631  1.00  0.00    -0.248 NA
ATOM     37  C   UNL A   1      37.177  32.562  32.707  1.00  0.00     0.031 C 
ATOM     38  C   UNL A   1      37.830  29.701  28.671  1.00  0.00     0.029 A 
ATOM     39  N   UNL A   1      39.363  29.604  30.274  1.00  0.00    -0.354 N 
ATOM     40  C   UNL A   1      38.981  31.798  33.880  1.00  0.00     0.074 A 
ATOM     41  C   UNL A   1      37.855  32.706  33.831  1.00  0.00     0.031 C 
ATOM     42  C   UNL A   1      38.783  28.847  28.257  1.00  0.00     0.029 A 
ATOM     43  C   UNL A   1      39.832  28.781  29.269  1.00  0.00     0.049 A 
ATOM     44  H   UNL A   1      39.798  29.680  31.154  1.00  0.00     0.167 HD
ATOM     45  C   UNL A   1      39.721  31.572  34.991  1.00  0.00     0.037 A 
ATOM     46  C   UNL A   1      40.960  28.043  29.170  1.00  0.00     0.037 A 
ATOM     47  C   UNL A   1      40.803  30.631  35.083  1.00  0.00     0.049 A 
ATOM     48  C   UNL A   1      41.869  27.913  30.367  1.00  0.00     0.074 A 
ATOM     49  C   UNL A   1      41.579  30.319  36.186  1.00  0.00     0.029 A 
ATOM     50  N   UNL A   1      41.262  29.846  34.037  1.00  0.00    -0.354 N 
ATOM     51  N   UNL A   1      41.757  28.462  31.550  1.00  0.00    -0.248 NA
ATOM     52  C   UNL A   1      43.020  27.003  30.240  1.00  0.00     0.031 C 
ATOM     53  C   UNL A   1      42.540  29.381  35.795  1.00  0.00     0.029 A 
ATOM     54  C   UNL A   1      42.327  29.067  34.463  1.00  0.00     0.049 A 
ATOM     55  H   UNL A   1      40.887  29.841  33.127  1.00  0.00     0.167 HD
ATOM     56  C   UNL A   1      42.769  27.909  32.326  1.00  0.00     0.074 A 
ATOM     57  C   UNL A   1      43.498  26.993  31.477  1.00  0.00     0.031 C 
ATOM     58  C   UNL A   1      43.042  28.130  33.634  1.00  0.00     0.037 A 
BRANCH  45  59
ATOM     59  C   UNL A   1      39.360  32.377  36.204  1.00  0.00     0.064 A 
ATOM     60  C   UNL A   1      39.991  33.598  36.492  1.00  0.00     0.173 A 
ATOM     61  C   UNL A   1      38.410  31.896  37.114  1.00  0.00     0.173 A 
ATOM     62  F   UNL A   1      40.921  34.091  35.659  1.00  0.00    -0.203 F 
ATOM     63  C   UNL A   1      39.732  34.272  37.680  1.00  0.00     0.198 A 
ATOM     64  C   UNL A   1      38.122  32.595  38.282  1.00  0.00     0.198 A 
ATOM     65  F   UNL A   1      37.772  30.738  36.880  1.00  0.00    -0.203 F 
ATOM     66  F   UNL A   1      40.416  35.385  37.979  1.00  0.00    -0.200 F 
ATOM     67  C   UNL A   1      38.796  33.772  38.572  1.00  0.00     0.200 A 
ATOM     68  F   UNL A   1      37.207  32.119  39.137  1.00  0.00    -0.200 F 
ATOM     69  F   UNL A   1      38.557  34.415  39.723  1.00  0.00    -0.200 F 
ENDBRANCH  45  59
BRANCH  46  70
ATOM     70  C   UNL A   1      41.288  27.307  27.915  1.00  0.00     0.064 A 
ATOM     71  C   UNL A   1      40.932  25.960  27.748  1.00  0.00     0.173 A 
ATOM     72  C   UNL A   1      42.038  27.908  26.892  1.00  0.00     0.173 A 
ATOM     73  F   UNL A   1      40.247  25.327  28.712  1.00  0.00    -0.203 F 
ATOM     74  C   UNL A   1      41.336  25.237  26.626  1.00  0.00     0.198 A 
ATOM     75  C   UNL A   1      42.423  27.189  25.758  1.00  0.00     0.198 A 
ATOM     76  F   UNL A   1      42.420  29.189  27.002  1.00  0.00    -0.203 F 
ATOM     77  F   UNL A   1      41.032  23.935  26.525  1.00  0.00    -0.200 F 
ATOM     78  C   UNL A   1      42.081  25.852  25.631  1.00  0.00     0.200 A 
ATOM     79  F   UNL A   1      43.143  27.786  24.799  1.00  0.00    -0.200 F 
ATOM     80  F   UNL A   1      42.479  25.153  24.560  1.00  0.00    -0.200 F 
ENDBRANCH  46  70
BRANCH  58  81
ATOM     81  C   UNL A   1      44.137  27.323  34.273  1.00  0.00     0.064 A 
ATOM     82  C   UNL A   1      43.906  26.052  34.817  1.00  0.00     0.173 A 
ATOM     83  C   UNL A   1      45.456  27.808  34.279  1.00  0.00     0.173 A 
ATOM     84  F   UNL A   1      42.663  25.549  34.853  1.00  0.00    -0.203 F 
ATOM     85  C   UNL A   1      44.950  25.303  35.356  1.00  0.00     0.198 A 
ATOM     86  C   UNL A   1      46.502  27.041  34.788  1.00  0.00     0.198 A 
ATOM     87  F   UNL A   1      45.736  29.016  33.769  1.00  0.00    -0.203 F 
ATOM     88  F   UNL A   1      44.697  24.106  35.906  1.00  0.00    -0.200 F 
ATOM     89  C   UNL A   1      46.247  25.791  35.330  1.00  0.00     0.200 A 
ATOM     90  F   UNL A   1      47.757  27.510  34.746  1.00  0.00    -0.200 F 
ATOM     91  F   UNL A   1      47.251  25.059  35.831  1.00  0.00    -0.200 F 
ENDBRANCH  58  81
ENDBRANCH  32  33
ENDBRANCH  25  27
ENDBRANCH  24  25
ENDBRANCH  23  24
ENDBRANCH  22  23
ENDBRANCH   1  22
TORSDOF 17
ENDMDL
MODEL 3
REMARK VINA RESULT:      -9.6      4.015      6.843
REMARK SMILES COC(=O)[C@@H]([NH2+]CC(C)(C)C(=O)OCCOC(=O)c1ccc(-c2c3nc(c(-c4c(F)c(F)c(F)c(F)c4F)c4ccc([nH]4)c(-c4c(F)c(F)c(F)c(F)c4F)c4nc(c(-c5c(F)c(F)c(F)c(F)c5F)c5ccc2[nH]5)C=C4)C=C3)cc1)c1ccccc1
REMARK SMILES IDX 13 1 11 2 12 3 8 4 9 5 10 6 7 7 6 8 5 11 3 12 4 13 2 14 1 15
REMARK SMILES IDX 82 16 83 17 87 18 84 19 86 20 85 21 14 22 15 23 16 24 17 25
REMARK SMILES IDX 18 26 19 27 20 28 81 29 21 30 80 31 22 32 23 33 24 34 74 35
REMARK SMILES IDX 25 36 79 37 73 38 75 39 26 40 78 41 72 42 71 43 27 45 59 46
REMARK SMILES IDX 39 47 58 48 40 49 43 50 57 51 76 52 41 53 42 54 56 56 77 57
REMARK SMILES IDX 44 58 28 59 29 60 37 61 30 62 31 63 35 64 38 65 32 66 33 67
REMARK SMILES IDX 36 68 34 69 60 70 61 71 69 72 62 73 63 74 67 75 70 76 64 77
REMARK SMILES IDX 65 78 68 79 66 80 45 81 46 82 54 83 47 84 48 85 52 86 55 87
REMARK SMILES IDX 49 88 50 89 53 90 51 91
REMARK H PARENT 6 9 6 10 75 44 43 55
REMARK Flexibility Score: inf
ROOT
ATOM      1  O   UNL A   1      37.943  21.261  25.360  1.00  0.00    -0.461 OA
ENDROOT
BRANCH   1   2
ATOM      2  C   UNL A   1      36.631  21.574  25.268  1.00  0.00     0.317 C 
ATOM      3  O   UNL A   1      35.787  20.715  25.217  1.00  0.00    -0.251 OA
BRANCH   2   4
ATOM      4  C   UNL A   1      36.242  23.024  25.290  1.00  0.00     0.111 C 
ATOM      5  C   UNL A   1      35.890  23.565  23.902  1.00  0.00     0.029 C 
ATOM      6  C   UNL A   1      37.502  23.778  25.789  1.00  0.00     0.029 C 
BRANCH   4   7
ATOM      7  C   UNL A   1      35.018  23.251  26.287  1.00  0.00     0.279 C 
BRANCH   7   8
ATOM      8  N   UNL A   1      33.824  24.139  26.237  1.00  0.00    -0.330 N 
ATOM      9  H   UNL A   1      33.515  24.219  27.205  1.00  0.00     0.347 HD
ATOM     10  H   UNL A   1      34.216  24.914  25.704  1.00  0.00     0.347 HD
BRANCH   8  11
ATOM     11  C   UNL A   1      32.565  23.915  25.446  1.00  0.00     0.324 C 
BRANCH  11  12
ATOM     12  C   UNL A   1      31.349  23.915  26.423  1.00  0.00     0.369 C 
ATOM     13  O   UNL A   1      31.379  23.490  27.571  1.00  0.00    -0.245 OA
BRANCH  12  14
ATOM     14  O   UNL A   1      30.272  24.559  25.866  1.00  0.00    -0.464 OA
ATOM     15  C   UNL A   1      30.367  25.982  25.916  1.00  0.00     0.282 C 
ENDBRANCH  12  14
ENDBRANCH  11  12
BRANCH  11  16
ATOM     16  C   UNL A   1      32.440  22.585  24.644  1.00  0.00     0.021 A 
ATOM     17  C   UNL A   1      32.374  21.330  25.261  1.00  0.00     0.010 A 
ATOM     18  C   UNL A   1      32.274  22.576  23.248  1.00  0.00     0.010 A 
ATOM     19  C   UNL A   1      32.287  20.131  24.537  1.00  0.00     0.001 A 
ATOM     20  C   UNL A   1      32.228  21.385  22.505  1.00  0.00     0.001 A 
ATOM     21  C   UNL A   1      32.252  20.157  23.151  1.00  0.00     0.000 A 
ENDBRANCH  11  16
ENDBRANCH   8  11
ENDBRANCH   7   8
ENDBRANCH   4   7
ENDBRANCH   2   4
ENDBRANCH   1   2
BRANCH   1  22
ATOM     22  C   UNL A   1      38.195  19.888  24.970  1.00  0.00     0.274 C 
BRANCH  22  23
ATOM     23  C   UNL A   1      39.288  19.122  25.772  1.00  0.00     0.275 C 
BRANCH  23  24
ATOM     24  O   UNL A   1      40.617  19.717  25.793  1.00  0.00    -0.458 OA
BRANCH  24  25
ATOM     25  C   UNL A   1      41.171  19.962  27.015  1.00  0.00     0.338 C 
ATOM     26  O   UNL A   1      41.586  19.108  27.786  1.00  0.00    -0.246 OA
BRANCH  25  27
ATOM     27  C   UNL A   1      41.418  21.418  27.262  1.00  0.00     0.060 A 
ATOM     28  C   UNL A   1      41.086  22.310  26.236  1.00  0.00     0.016 A 
ATOM     29  C   UNL A   1      42.033  21.941  28.391  1.00  0.00     0.016 A 
ATOM     30  C   UNL A   1      41.245  23.703  26.342  1.00  0.00     0.010 A 
ATOM     31  C   UNL A   1      42.224  23.343  28.496  1.00  0.00     0.010 A 
ATOM     32  C   UNL A   1      41.815  24.256  27.483  1.00  0.00    -0.014 A 
BRANCH  32  33
ATOM     33  C   UNL A   1      42.143  25.728  27.588  1.00  0.00     0.031 A 
ATOM     34  C   UNL A   1      43.491  26.178  27.096  1.00  0.00     0.074 A 
ATOM     35  C   UNL A   1      41.329  26.690  28.084  1.00  0.00     0.049 A 
ATOM     36  N   UNL A   1      44.111  27.319  27.261  1.00  0.00    -0.248 NA
ATOM     37  C   UNL A   1      44.233  25.196  26.293  1.00  0.00     0.031 C 
ATOM     38  C   UNL A   1      39.919  26.545  28.407  1.00  0.00     0.029 A 
ATOM     39  N   UNL A   1      41.598  27.997  28.452  1.00  0.00    -0.354 N 
ATOM     40  C   UNL A   1      45.318  27.184  26.593  1.00  0.00     0.074 A 
ATOM     41  C   UNL A   1      45.382  25.821  26.109  1.00  0.00     0.031 C 
ATOM     42  C   UNL A   1      39.488  27.630  29.077  1.00  0.00     0.029 A 
ATOM     43  C   UNL A   1      40.576  28.597  29.161  1.00  0.00     0.049 A 
ATOM     44  H   UNL A   1      42.440  28.456  28.229  1.00  0.00     0.167 HD
ATOM     45  C   UNL A   1      46.266  28.118  26.344  1.00  0.00     0.037 A 
ATOM     46  C   UNL A   1      40.506  29.790  29.792  1.00  0.00     0.037 A 
ATOM     47  C   UNL A   1      46.197  29.492  26.760  1.00  0.00     0.049 A 
ATOM     48  C   UNL A   1      41.636  30.778  29.641  1.00  0.00     0.074 A 
ATOM     49  C   UNL A   1      47.103  30.509  26.516  1.00  0.00     0.029 A 
ATOM     50  N   UNL A   1      45.164  30.046  27.499  1.00  0.00    -0.354 N 
ATOM     51  N   UNL A   1      42.762  30.647  28.987  1.00  0.00    -0.248 NA
ATOM     52  C   UNL A   1      41.454  32.106  30.253  1.00  0.00     0.031 C 
ATOM     53  C   UNL A   1      46.643  31.668  27.150  1.00  0.00     0.029 A 
ATOM     54  C   UNL A   1      45.423  31.386  27.741  1.00  0.00     0.049 A 
ATOM     55  H   UNL A   1      44.365  29.560  27.806  1.00  0.00     0.167 HD
ATOM     56  C   UNL A   1      43.383  31.889  29.041  1.00  0.00     0.074 A 
ATOM     57  C   UNL A   1      42.519  32.759  29.807  1.00  0.00     0.031 C 
ATOM     58  C   UNL A   1      44.555  32.270  28.478  1.00  0.00     0.037 A 
BRANCH  45  59
ATOM     59  C   UNL A   1      47.468  27.656  25.576  1.00  0.00     0.064 A 
ATOM     60  C   UNL A   1      48.642  27.239  26.224  1.00  0.00     0.173 A 
ATOM     61  C   UNL A   1      47.462  27.681  24.174  1.00  0.00     0.173 A 
ATOM     62  F   UNL A   1      48.702  27.216  27.564  1.00  0.00    -0.203 F 
ATOM     63  C   UNL A   1      49.786  26.928  25.497  1.00  0.00     0.198 A 
ATOM     64  C   UNL A   1      48.596  27.328  23.450  1.00  0.00     0.198 A 
ATOM     65  F   UNL A   1      46.362  28.063  23.508  1.00  0.00    -0.203 F 
ATOM     66  F   UNL A   1      50.923  26.627  26.140  1.00  0.00    -0.200 F 
ATOM     67  C   UNL A   1      49.762  26.971  24.112  1.00  0.00     0.200 A 
ATOM     68  F   UNL A   1      48.568  27.355  22.111  1.00  0.00    -0.200 F 
ATOM     69  F   UNL A   1      50.869  26.685  23.413  1.00  0.00    -0.200 F 
ENDBRANCH  45  59
BRANCH  46  70
ATOM     70  C   UNL A   1      39.301  30.169  30.587  1.00  0.00     0.064 A 
ATOM     71  C   UNL A   1      39.207  29.865  31.954  1.00  0.00     0.173 A 
ATOM     72  C   UNL A   1      38.186  30.768  29.980  1.00  0.00     0.173 A 
ATOM     73  F   UNL A   1      40.229  29.259  32.574  1.00  0.00    -0.203 F 
ATOM     74  C   UNL A   1      38.038  30.115  32.673  1.00  0.00     0.198 A 
ATOM     75  C   UNL A   1      37.025  31.038  30.706  1.00  0.00     0.198 A 
ATOM     76  F   UNL A   1      38.213  31.069  28.673  1.00  0.00    -0.203 F 
ATOM     77  F   UNL A   1      37.957  29.756  33.961  1.00  0.00    -0.200 F 
ATOM     78  C   UNL A   1      36.948  30.702  32.049  1.00  0.00     0.200 A 
ATOM     79  F   UNL A   1      35.972  31.606  30.101  1.00  0.00    -0.200 F 
ATOM     80  F   UNL A   1      35.821  30.931  32.738  1.00  0.00    -0.200 F 
ENDBRANCH  46  70
BRANCH  58  81
ATOM     81  C   UNL A   1      44.962  33.711  28.598  1.00  0.00     0.064 A 
ATOM     82  C   UNL A   1      45.801  34.166  29.625  1.00  0.00     0.173 A 
ATOM     83  C   UNL A   1      44.556  34.640  27.625  1.00  0.00     0.173 A 
ATOM     84  F   UNL A   1      46.205  33.325  30.589  1.00  0.00    -0.203 F 
ATOM     85  C   UNL A   1      46.207  35.498  29.682  1.00  0.00     0.198 A 
ATOM     86  C   UNL A   1      44.992  35.962  27.667  1.00  0.00     0.198 A 
ATOM     87  F   UNL A   1      43.756  34.260  26.619  1.00  0.00    -0.203 F 
ATOM     88  F   UNL A   1      46.977  35.917  30.696  1.00  0.00    -0.200 F 
ATOM     89  C   UNL A   1      45.812  36.391  28.698  1.00  0.00     0.200 A 
ATOM     90  F   UNL A   1      44.621  36.819  26.705  1.00  0.00    -0.200 F 
ATOM     91  F   UNL A   1      46.220  37.667  28.746  1.00  0.00    -0.200 F 
ENDBRANCH  58  81
ENDBRANCH  32  33
ENDBRANCH  25  27
ENDBRANCH  24  25
ENDBRANCH  23  24
ENDBRANCH  22  23
ENDBRANCH   1  22
TORSDOF 17
ENDMDL
