MODEL 1
REMARK VINA RESULT:     -13.5      0.000      0.000
REMARK SMILES Cc1c(NC(=O)C(F)(F)F)cccc1C(=O)OCCOC(=O)c1ccc(-c2c3nc(c(-c4c(F)c(F)c(F)c(F)c4F)c4ccc([nH]4)c(-c4c(F)c(F)c(F)c(F)c4F)c4nc(c(-c5c(F)c(F)c(F)c(F)c5F)c5ccc2[nH]5)C=C4)C=C3)cc1
REMARK SMILES IDX 18 1 17 2 15 3 16 4 14 5 1 6 2 7 3 8 11 9 13 10 12 11 4 12
REMARK SMILES IDX 5 13 6 15 7 16 8 17 9 18 10 19 19 20 20 21 21 22 22 23 23 24
REMARK SMILES IDX 24 25 85 26 25 27 84 28 26 29 27 30 28 31 78 32 29 33 83 34
REMARK SMILES IDX 77 35 79 36 30 37 82 38 76 39 75 40 31 42 63 43 43 44 62 45
REMARK SMILES IDX 44 46 47 47 61 48 80 49 45 50 46 51 60 53 81 54 48 55 32 56
REMARK SMILES IDX 33 57 41 58 34 59 35 60 39 61 42 62 36 63 37 64 40 65 38 66
REMARK SMILES IDX 64 67 65 68 73 69 66 70 67 71 71 72 74 73 68 74 69 75 72 76
REMARK SMILES IDX 70 77 49 78 50 79 58 80 51 81 52 82 56 83 59 84 53 85 54 86
REMARK SMILES IDX 57 87 55 88
REMARK H PARENT 4 14 79 41 47 52
REMARK Flexibility Score: inf
ROOT
ATOM      1  C   UNL A   1      32.866  30.813  26.507  1.00  0.00     0.275 C 
ENDROOT
BRANCH   1   2
ATOM      2  O   UNL A   1      31.823  29.903  26.120  1.00  0.00    -0.458 OA
BRANCH   2   3
ATOM      3  C   UNL A   1      32.201  29.110  25.083  1.00  0.00     0.338 C 
ATOM      4  O   UNL A   1      33.216  29.258  24.419  1.00  0.00    -0.246 OA
BRANCH   3   5
ATOM      5  C   UNL A   1      31.243  28.032  24.753  1.00  0.00     0.065 A 
ATOM      6  C   UNL A   1      31.969  26.814  26.861  1.00  0.00     0.047 C 
ATOM      7  C   UNL A   1      31.028  26.992  25.686  1.00  0.00    -0.013 A 
ATOM      8  C   UNL A   1      29.940  26.099  25.499  1.00  0.00     0.045 A 
ATOM      9  C   UNL A   1      29.067  26.319  24.432  1.00  0.00     0.026 A 
ATOM     10  C   UNL A   1      30.429  28.149  23.624  1.00  0.00     0.016 A 
ATOM     11  C   UNL A   1      29.320  27.321  23.490  1.00  0.00     0.003 A 
BRANCH   8  12
ATOM     12  N   UNL A   1      29.814  25.036  26.417  1.00  0.00    -0.318 N 
ATOM     13  C   UNL A   1      30.278  23.752  26.501  1.00  0.00     0.330 C 
ATOM     14  H   UNL A   1      29.254  25.278  27.190  1.00  0.00     0.170 HD
ATOM     15  O   UNL A   1      29.950  23.150  27.537  1.00  0.00    -0.264 OA
BRANCH  13  16
ATOM     16  C   UNL A   1      31.135  23.081  25.426  1.00  0.00     0.471 C 
ATOM     17  F   UNL A   1      31.245  21.736  25.617  1.00  0.00    -0.162 F 
ATOM     18  F   UNL A   1      30.653  23.263  24.164  1.00  0.00    -0.162 F 
ATOM     19  F   UNL A   1      32.412  23.558  25.402  1.00  0.00    -0.162 F 
ENDBRANCH  13  16
ENDBRANCH   8  12
ENDBRANCH   3   5
ENDBRANCH   2   3
ENDBRANCH   1   2
BRANCH   1  20
ATOM     20  C   UNL A   1      33.812  30.277  27.590  1.00  0.00     0.275 C 
BRANCH  20  21
ATOM     21  O   UNL A   1      35.216  30.005  27.318  1.00  0.00    -0.458 OA
BRANCH  21  22
ATOM     22  C   UNL A   1      36.260  30.638  27.893  1.00  0.00     0.338 C 
ATOM     23  O   UNL A   1      36.274  31.845  28.113  1.00  0.00    -0.246 OA
BRANCH  22  24
ATOM     24  C   UNL A   1      37.428  29.792  28.181  1.00  0.00     0.060 A 
ATOM     25  C   UNL A   1      37.421  28.981  29.331  1.00  0.00     0.016 A 
ATOM     26  C   UNL A   1      38.450  29.703  27.242  1.00  0.00     0.016 A 
ATOM     27  C   UNL A   1      38.376  27.990  29.488  1.00  0.00     0.010 A 
ATOM     28  C   UNL A   1      39.304  28.638  27.313  1.00  0.00     0.010 A 
ATOM     29  C   UNL A   1      39.299  27.829  28.461  1.00  0.00    -0.014 A 
BRANCH  29  30
ATOM     30  C   UNL A   1      40.553  27.128  28.634  1.00  0.00     0.031 A 
ATOM     31  C   UNL A   1      40.671  25.693  28.356  1.00  0.00     0.074 A 
ATOM     32  C   UNL A   1      41.539  28.026  28.866  1.00  0.00     0.049 A 
ATOM     33  N   UNL A   1      41.656  24.973  28.751  1.00  0.00    -0.248 NA
ATOM     34  C   UNL A   1      39.666  24.907  27.648  1.00  0.00     0.031 C 
ATOM     35  C   UNL A   1      42.982  27.948  28.777  1.00  0.00     0.029 A 
ATOM     36  N   UNL A   1      41.311  29.322  29.382  1.00  0.00    -0.354 N 
ATOM     37  C   UNL A   1      41.603  23.773  28.064  1.00  0.00     0.074 A 
ATOM     38  C   UNL A   1      40.272  23.720  27.525  1.00  0.00     0.031 C 
ATOM     39  C   UNL A   1      43.502  28.950  29.519  1.00  0.00     0.029 A 
ATOM     40  C   UNL A   1      42.393  29.610  30.208  1.00  0.00     0.049 A 
ATOM     41  H   UNL A   1      40.539  29.905  29.193  1.00  0.00     0.167 HD
ATOM     42  C   UNL A   1      42.777  23.091  27.903  1.00  0.00     0.037 A 
ATOM     43  C   UNL A   1      42.157  29.595  31.554  1.00  0.00     0.037 A 
ATOM     44  C   UNL A   1      43.823  23.796  28.646  1.00  0.00     0.049 A 
ATOM     45  C   UNL A   1      42.883  28.422  32.164  1.00  0.00     0.074 A 
ATOM     46  C   UNL A   1      44.737  24.757  28.248  1.00  0.00     0.029 A 
ATOM     47  N   UNL A   1      43.720  23.890  30.031  1.00  0.00    -0.354 N 
ATOM     48  N   UNL A   1      43.017  27.253  31.591  1.00  0.00    -0.248 NA
ATOM     49  C   UNL A   1      43.639  28.554  33.401  1.00  0.00     0.031 C 
ATOM     50  C   UNL A   1      45.099  25.505  29.402  1.00  0.00     0.029 A 
ATOM     51  C   UNL A   1      44.409  24.997  30.492  1.00  0.00     0.049 A 
ATOM     52  H   UNL A   1      43.228  23.257  30.601  1.00  0.00     0.167 HD
ATOM     53  C   UNL A   1      43.941  26.528  32.298  1.00  0.00     0.074 A 
ATOM     54  C   UNL A   1      44.276  27.374  33.432  1.00  0.00     0.031 C 
ATOM     55  C   UNL A   1      44.433  25.313  31.909  1.00  0.00     0.037 A 
BRANCH  42  56
ATOM     56  C   UNL A   1      43.095  22.006  26.887  1.00  0.00     0.064 A 
ATOM     57  C   UNL A   1      42.428  20.758  26.966  1.00  0.00     0.173 A 
ATOM     58  C   UNL A   1      44.058  22.080  25.861  1.00  0.00     0.173 A 
ATOM     59  F   UNL A   1      41.443  20.546  27.849  1.00  0.00    -0.203 F 
ATOM     60  C   UNL A   1      42.746  19.669  26.146  1.00  0.00     0.198 A 
ATOM     61  C   UNL A   1      44.379  20.986  25.042  1.00  0.00     0.198 A 
ATOM     62  F   UNL A   1      44.712  23.209  25.584  1.00  0.00    -0.203 F 
ATOM     63  F   UNL A   1      42.092  18.509  26.300  1.00  0.00    -0.200 F 
ATOM     64  C   UNL A   1      43.731  19.779  25.191  1.00  0.00     0.200 A 
ATOM     65  F   UNL A   1      45.329  21.118  24.104  1.00  0.00    -0.200 F 
ATOM     66  F   UNL A   1      44.044  18.736  24.410  1.00  0.00    -0.200 F 
ENDBRANCH  42  56
BRANCH  43  67
ATOM     67  C   UNL A   1      40.800  30.112  31.952  1.00  0.00     0.064 A 
ATOM     68  C   UNL A   1      39.796  29.172  32.296  1.00  0.00     0.173 A 
ATOM     69  C   UNL A   1      40.524  31.450  32.257  1.00  0.00     0.173 A 
ATOM     70  F   UNL A   1      39.974  27.869  32.022  1.00  0.00    -0.203 F 
ATOM     71  C   UNL A   1      38.647  29.531  33.004  1.00  0.00     0.198 A 
ATOM     72  C   UNL A   1      39.354  31.814  32.945  1.00  0.00     0.198 A 
ATOM     73  F   UNL A   1      41.410  32.411  31.965  1.00  0.00    -0.203 F 
ATOM     74  F   UNL A   1      37.788  28.586  33.413  1.00  0.00    -0.200 F 
ATOM     75  C   UNL A   1      38.433  30.853  33.340  1.00  0.00     0.200 A 
ATOM     76  F   UNL A   1      39.157  33.092  33.303  1.00  0.00    -0.200 F 
ATOM     77  F   UNL A   1      37.371  31.199  34.083  1.00  0.00    -0.200 F 
ENDBRANCH  43  67
BRANCH  55  78
ATOM     78  C   UNL A   1      45.095  24.339  32.849  1.00  0.00     0.064 A 
ATOM     79  C   UNL A   1      46.374  24.549  33.389  1.00  0.00     0.173 A 
ATOM     80  C   UNL A   1      44.378  23.242  33.383  1.00  0.00     0.173 A 
ATOM     81  F   UNL A   1      47.093  25.640  33.088  1.00  0.00    -0.203 F 
ATOM     82  C   UNL A   1      46.935  23.673  34.312  1.00  0.00     0.198 A 
ATOM     83  C   UNL A   1      44.909  22.420  34.372  1.00  0.00     0.198 A 
ATOM     84  F   UNL A   1      43.127  22.953  32.994  1.00  0.00    -0.203 F 
ATOM     85  F   UNL A   1      48.190  23.878  34.738  1.00  0.00    -0.200 F 
ATOM     86  C   UNL A   1      46.199  22.617  34.814  1.00  0.00     0.200 A 
ATOM     87  F   UNL A   1      44.153  21.452  34.908  1.00  0.00    -0.200 F 
ATOM     88  F   UNL A   1      46.725  21.808  35.742  1.00  0.00    -0.200 F 
ENDBRANCH  55  78
ENDBRANCH  29  30
ENDBRANCH  22  24
ENDBRANCH  21  22
ENDBRANCH  20  21
ENDBRANCH   1  20
TORSDOF 13
ENDMDL
MODEL 2
REMARK VINA RESULT:     -13.2      1.070      2.018
REMARK SMILES Cc1c(NC(=O)C(F)(F)F)cccc1C(=O)OCCOC(=O)c1ccc(-c2c3nc(c(-c4c(F)c(F)c(F)c(F)c4F)c4ccc([nH]4)c(-c4c(F)c(F)c(F)c(F)c4F)c4nc(c(-c5c(F)c(F)c(F)c(F)c5F)c5ccc2[nH]5)C=C4)C=C3)cc1
REMARK SMILES IDX 18 1 17 2 15 3 16 4 14 5 1 6 2 7 3 8 11 9 13 10 12 11 4 12
REMARK SMILES IDX 5 13 6 15 7 16 8 17 9 18 10 19 19 20 20 21 21 22 22 23 23 24
REMARK SMILES IDX 24 25 85 26 25 27 84 28 26 29 27 30 28 31 78 32 29 33 83 34
REMARK SMILES IDX 77 35 79 36 30 37 82 38 76 39 75 40 31 42 63 43 43 44 62 45
REMARK SMILES IDX 44 46 47 47 61 48 80 49 45 50 46 51 60 53 81 54 48 55 32 56
REMARK SMILES IDX 33 57 41 58 34 59 35 60 39 61 42 62 36 63 37 64 40 65 38 66
REMARK SMILES IDX 64 67 65 68 73 69 66 70 67 71 71 72 74 73 68 74 69 75 72 76
REMARK SMILES IDX 70 77 49 78 50 79 58 80 51 81 52 82 56 83 59 84 53 85 54 86
REMARK SMILES IDX 57 87 55 88
REMARK H PARENT 4 14 79 41 47 52
REMARK Flexibility Score: inf
ROOT
ATOM      1  C   UNL A   1      32.159  30.094  26.900  1.00  0.00     0.275 C 
ENDROOT
BRANCH   1   2
ATOM      2  O   UNL A   1      31.833  30.014  25.503  1.00  0.00    -0.458 OA
BRANCH   2   3
ATOM      3  C   UNL A   1      32.308  28.875  24.935  1.00  0.00     0.338 C 
ATOM      4  O   UNL A   1      33.476  28.674  24.633  1.00  0.00    -0.246 OA
BRANCH   3   5
ATOM      5  C   UNL A   1      31.277  27.856  24.641  1.00  0.00     0.065 A 
ATOM      6  C   UNL A   1      31.991  26.605  26.734  1.00  0.00     0.047 C 
ATOM      7  C   UNL A   1      31.027  26.836  25.588  1.00  0.00    -0.013 A 
ATOM      8  C   UNL A   1      29.881  26.010  25.441  1.00  0.00     0.045 A 
ATOM      9  C   UNL A   1      28.990  26.279  24.400  1.00  0.00     0.026 A 
ATOM     10  C   UNL A   1      30.436  28.017  23.538  1.00  0.00     0.016 A 
ATOM     11  C   UNL A   1      29.275  27.259  23.443  1.00  0.00     0.003 A 
BRANCH   8  12
ATOM     12  N   UNL A   1      29.719  24.962  26.369  1.00  0.00    -0.318 N 
ATOM     13  C   UNL A   1      30.185  23.682  26.495  1.00  0.00     0.330 C 
ATOM     14  H   UNL A   1      29.122  25.213  27.111  1.00  0.00     0.170 HD
ATOM     15  O   UNL A   1      29.813  23.095  27.525  1.00  0.00    -0.264 OA
BRANCH  13  16
ATOM     16  C   UNL A   1      31.095  22.999  25.471  1.00  0.00     0.471 C 
ATOM     17  F   UNL A   1      31.185  21.655  25.677  1.00  0.00    -0.162 F 
ATOM     18  F   UNL A   1      30.681  23.175  24.185  1.00  0.00    -0.162 F 
ATOM     19  F   UNL A   1      32.374  23.469  25.513  1.00  0.00    -0.162 F 
ENDBRANCH  13  16
ENDBRANCH   8  12
ENDBRANCH   3   5
ENDBRANCH   2   3
ENDBRANCH   1   2
BRANCH   1  20
ATOM     20  C   UNL A   1      33.366  30.986  27.223  1.00  0.00     0.275 C 
BRANCH  20  21
ATOM     21  O   UNL A   1      34.646  30.429  27.635  1.00  0.00    -0.458 OA
BRANCH  21  22
ATOM     22  C   UNL A   1      35.400  30.877  28.660  1.00  0.00     0.338 C 
ATOM     23  O   UNL A   1      35.074  31.824  29.368  1.00  0.00    -0.246 OA
BRANCH  22  24
ATOM     24  C   UNL A   1      36.691  30.196  28.836  1.00  0.00     0.060 A 
ATOM     25  C   UNL A   1      36.860  29.317  29.922  1.00  0.00     0.016 A 
ATOM     26  C   UNL A   1      37.666  30.324  27.853  1.00  0.00     0.016 A 
ATOM     27  C   UNL A   1      37.956  28.470  29.966  1.00  0.00     0.010 A 
ATOM     28  C   UNL A   1      38.668  29.395  27.810  1.00  0.00     0.010 A 
ATOM     29  C   UNL A   1      38.839  28.519  28.894  1.00  0.00    -0.014 A 
BRANCH  29  30
ATOM     30  C   UNL A   1      40.189  28.001  28.964  1.00  0.00     0.031 A 
ATOM     31  C   UNL A   1      40.500  26.624  28.569  1.00  0.00     0.074 A 
ATOM     32  C   UNL A   1      41.044  29.016  29.227  1.00  0.00     0.049 A 
ATOM     33  N   UNL A   1      41.598  26.031  28.869  1.00  0.00    -0.248 NA
ATOM     34  C   UNL A   1      39.587  25.749  27.841  1.00  0.00     0.031 C 
ATOM     35  C   UNL A   1      42.477  29.161  29.078  1.00  0.00     0.029 A 
ATOM     36  N   UNL A   1      40.655  30.224  29.851  1.00  0.00    -0.354 N 
ATOM     37  C   UNL A   1      41.687  24.889  28.093  1.00  0.00     0.074 A 
ATOM     38  C   UNL A   1      40.352  24.677  27.602  1.00  0.00     0.031 C 
ATOM     39  C   UNL A   1      42.882  30.173  29.875  1.00  0.00     0.029 A 
ATOM     40  C   UNL A   1      41.724  30.609  30.655  1.00  0.00     0.049 A 
ATOM     41  H   UNL A   1      39.799  30.698  29.739  1.00  0.00     0.167 HD
ATOM     42  C   UNL A   1      42.937  24.402  27.834  1.00  0.00     0.037 A 
ATOM     43  C   UNL A   1      41.559  30.462  32.004  1.00  0.00     0.037 A 
ATOM     44  C   UNL A   1      43.905  25.200  28.590  1.00  0.00     0.049 A 
ATOM     45  C   UNL A   1      42.477  29.370  32.492  1.00  0.00     0.074 A 
ATOM     46  C   UNL A   1      44.649  26.312  28.233  1.00  0.00     0.029 A 
ATOM     47  N   UNL A   1      43.858  25.178  29.980  1.00  0.00    -0.354 N 
ATOM     48  N   UNL A   1      42.751  28.278  31.825  1.00  0.00    -0.248 NA
ATOM     49  C   UNL A   1      43.266  29.524  33.706  1.00  0.00     0.031 C 
ATOM     50  C   UNL A   1      44.955  27.021  29.427  1.00  0.00     0.029 A 
ATOM     51  C   UNL A   1      44.401  26.339  30.500  1.00  0.00     0.049 A 
ATOM     52  H   UNL A   1      43.492  24.440  30.517  1.00  0.00     0.167 HD
ATOM     53  C   UNL A   1      43.804  27.650  32.437  1.00  0.00     0.074 A 
ATOM     54  C   UNL A   1      44.069  28.452  33.620  1.00  0.00     0.031 C 
ATOM     55  C   UNL A   1      44.448  26.552  31.936  1.00  0.00     0.037 A 
BRANCH  42  56
ATOM     56  C   UNL A   1      43.359  23.453  26.724  1.00  0.00     0.064 A 
ATOM     57  C   UNL A   1      43.089  22.067  26.851  1.00  0.00     0.173 A 
ATOM     58  C   UNL A   1      44.068  23.797  25.557  1.00  0.00     0.173 A 
ATOM     59  F   UNL A   1      42.371  21.585  27.874  1.00  0.00    -0.203 F 
ATOM     60  C   UNL A   1      43.546  21.113  25.934  1.00  0.00     0.198 A 
ATOM     61  C   UNL A   1      44.531  22.839  24.641  1.00  0.00     0.198 A 
ATOM     62  F   UNL A   1      44.326  25.065  25.232  1.00  0.00    -0.203 F 
ATOM     63  F   UNL A   1      43.276  19.816  26.136  1.00  0.00    -0.200 F 
ATOM     64  C   UNL A   1      44.279  21.498  24.834  1.00  0.00     0.200 A 
ATOM     65  F   UNL A   1      45.227  23.235  23.564  1.00  0.00    -0.200 F 
ATOM     66  F   UNL A   1      44.726  20.586  23.960  1.00  0.00    -0.200 F 
ENDBRANCH  42  56
BRANCH  43  67
ATOM     67  C   UNL A   1      40.163  30.742  32.493  1.00  0.00     0.064 A 
ATOM     68  C   UNL A   1      39.624  32.037  32.289  1.00  0.00     0.173 A 
ATOM     69  C   UNL A   1      39.258  29.755  32.903  1.00  0.00     0.173 A 
ATOM     70  F   UNL A   1      40.429  33.046  31.911  1.00  0.00    -0.203 F 
ATOM     71  C   UNL A   1      38.256  32.300  32.373  1.00  0.00     0.198 A 
ATOM     72  C   UNL A   1      37.885  30.028  33.016  1.00  0.00     0.198 A 
ATOM     73  F   UNL A   1      39.674  28.501  33.127  1.00  0.00    -0.203 F 
ATOM     74  F   UNL A   1      37.784  33.513  32.051  1.00  0.00    -0.200 F 
ATOM     75  C   UNL A   1      37.383  31.290  32.726  1.00  0.00     0.200 A 
ATOM     76  F   UNL A   1      37.029  29.042  33.325  1.00  0.00    -0.200 F 
ATOM     77  F   UNL A   1      36.060  31.512  32.739  1.00  0.00    -0.200 F 
ENDBRANCH  43  67
BRANCH  55  78
ATOM     78  C   UNL A   1      45.290  25.623  32.770  1.00  0.00     0.064 A 
ATOM     79  C   UNL A   1      44.798  24.422  33.306  1.00  0.00     0.173 A 
ATOM     80  C   UNL A   1      46.684  25.826  32.904  1.00  0.00     0.173 A 
ATOM     81  F   UNL A   1      43.530  24.033  33.111  1.00  0.00    -0.203 F 
ATOM     82  C   UNL A   1      45.614  23.543  34.013  1.00  0.00     0.198 A 
ATOM     83  C   UNL A   1      47.511  24.902  33.533  1.00  0.00     0.198 A 
ATOM     84  F   UNL A   1      47.296  26.907  32.397  1.00  0.00    -0.203 F 
ATOM     85  F   UNL A   1      45.077  22.449  34.570  1.00  0.00    -0.200 F 
ATOM     86  C   UNL A   1      46.971  23.775  34.114  1.00  0.00     0.200 A 
ATOM     87  F   UNL A   1      48.837  25.100  33.551  1.00  0.00    -0.200 F 
ATOM     88  F   UNL A   1      47.760  22.899  34.749  1.00  0.00    -0.200 F 
ENDBRANCH  55  78
ENDBRANCH  29  30
ENDBRANCH  22  24
ENDBRANCH  21  22
ENDBRANCH  20  21
ENDBRANCH   1  20
TORSDOF 13
ENDMDL
MODEL 3
REMARK VINA RESULT:     -13.1      4.167     10.271
REMARK SMILES Cc1c(NC(=O)C(F)(F)F)cccc1C(=O)OCCOC(=O)c1ccc(-c2c3nc(c(-c4c(F)c(F)c(F)c(F)c4F)c4ccc([nH]4)c(-c4c(F)c(F)c(F)c(F)c4F)c4nc(c(-c5c(F)c(F)c(F)c(F)c5F)c5ccc2[nH]5)C=C4)C=C3)cc1
REMARK SMILES IDX 18 1 17 2 15 3 16 4 14 5 1 6 2 7 3 8 11 9 13 10 12 11 4 12
REMARK SMILES IDX 5 13 6 15 7 16 8 17 9 18 10 19 19 20 20 21 21 22 22 23 23 24
REMARK SMILES IDX 24 25 85 26 25 27 84 28 26 29 27 30 28 31 78 32 29 33 83 34
REMARK SMILES IDX 77 35 79 36 30 37 82 38 76 39 75 40 31 42 63 43 43 44 62 45
REMARK SMILES IDX 44 46 47 47 61 48 80 49 45 50 46 51 60 53 81 54 48 55 32 56
REMARK SMILES IDX 33 57 41 58 34 59 35 60 39 61 42 62 36 63 37 64 40 65 38 66
REMARK SMILES IDX 64 67 65 68 73 69 66 70 67 71 71 72 74 73 68 74 69 75 72 76
REMARK SMILES IDX 70 77 49 78 50 79 58 80 51 81 52 82 56 83 59 84 53 85 54 86
REMARK SMILES IDX 57 87 55 88
REMARK H PARENT 4 14 79 41 47 52
REMARK Flexibility Score: inf
ROOT
ATOM      1  C   UNL A   1      36.404  22.897  25.829  1.00  0.00     0.275 C 
ENDROOT
BRANCH   1   2
ATOM      2  O   UNL A   1      35.106  23.152  26.390  1.00  0.00    -0.458 OA
BRANCH   2   3
ATOM      3  C   UNL A   1      34.143  23.214  25.433  1.00  0.00     0.338 C 
ATOM      4  O   UNL A   1      34.220  22.705  24.324  1.00  0.00    -0.246 OA
BRANCH   3   5
ATOM      5  C   UNL A   1      32.955  24.011  25.807  1.00  0.00     0.065 A 
ATOM      6  C   UNL A   1      34.039  26.037  24.722  1.00  0.00     0.047 C 
ATOM      7  C   UNL A   1      32.842  25.341  25.337  1.00  0.00    -0.013 A 
ATOM      8  C   UNL A   1      31.606  26.027  25.472  1.00  0.00     0.045 A 
ATOM      9  C   UNL A   1      30.512  25.341  26.002  1.00  0.00     0.026 A 
ATOM     10  C   UNL A   1      31.879  23.395  26.451  1.00  0.00     0.016 A 
ATOM     11  C   UNL A   1      30.651  24.044  26.507  1.00  0.00     0.003 A 
BRANCH   8  12
ATOM     12  N   UNL A   1      31.569  27.373  25.055  1.00  0.00    -0.318 N 
ATOM     13  C   UNL A   1      31.741  28.591  25.653  1.00  0.00     0.330 C 
ATOM     14  H   UNL A   1      31.370  27.458  24.094  1.00  0.00     0.170 HD
ATOM     15  O   UNL A   1      31.659  29.563  24.883  1.00  0.00    -0.264 OA
BRANCH  13  16
ATOM     16  C   UNL A   1      32.016  28.778  27.147  1.00  0.00     0.471 C 
ATOM     17  F   UNL A   1      33.177  28.181  27.538  1.00  0.00    -0.162 F 
ATOM     18  F   UNL A   1      32.100  30.087  27.516  1.00  0.00    -0.162 F 
ATOM     19  F   UNL A   1      31.038  28.239  27.930  1.00  0.00    -0.162 F 
ENDBRANCH  13  16
ENDBRANCH   8  12
ENDBRANCH   3   5
ENDBRANCH   2   3
ENDBRANCH   1   2
BRANCH   1  20
ATOM     20  C   UNL A   1      37.456  23.971  26.138  1.00  0.00     0.275 C 
BRANCH  20  21
ATOM     21  O   UNL A   1      38.878  23.664  26.181  1.00  0.00    -0.458 OA
BRANCH  21  22
ATOM     22  C   UNL A   1      39.694  23.885  27.232  1.00  0.00     0.338 C 
ATOM     23  O   UNL A   1      40.311  22.990  27.801  1.00  0.00    -0.246 OA
BRANCH  22  24
ATOM     24  C   UNL A   1      39.746  25.275  27.708  1.00  0.00     0.060 A 
ATOM     25  C   UNL A   1      40.134  26.292  26.816  1.00  0.00     0.016 A 
ATOM     26  C   UNL A   1      39.277  25.575  28.982  1.00  0.00     0.016 A 
ATOM     27  C   UNL A   1      39.941  27.622  27.152  1.00  0.00     0.010 A 
ATOM     28  C   UNL A   1      38.946  26.871  29.263  1.00  0.00     0.010 A 
ATOM     29  C   UNL A   1      39.335  27.886  28.374  1.00  0.00    -0.014 A 
BRANCH  29  30
ATOM     30  C   UNL A   1      39.410  29.177  29.025  1.00  0.00     0.031 A 
ATOM     31  C   UNL A   1      38.402  30.214  28.786  1.00  0.00     0.074 A 
ATOM     32  C   UNL A   1      40.378  29.144  29.972  1.00  0.00     0.049 A 
ATOM     33  N   UNL A   1      38.564  31.446  29.104  1.00  0.00    -0.248 NA
ATOM     34  C   UNL A   1      37.127  29.984  28.114  1.00  0.00     0.031 C 
ATOM     35  C   UNL A   1      40.663  29.981  31.117  1.00  0.00     0.029 A 
ATOM     36  N   UNL A   1      41.458  28.232  29.953  1.00  0.00    -0.354 N 
ATOM     37  C   UNL A   1      37.329  32.067  29.026  1.00  0.00     0.074 A 
ATOM     38  C   UNL A   1      36.516  31.166  28.255  1.00  0.00     0.031 C 
ATOM     39  C   UNL A   1      41.955  29.791  31.465  1.00  0.00     0.029 A 
ATOM     40  C   UNL A   1      42.558  28.921  30.456  1.00  0.00     0.049 A 
ATOM     41  H   UNL A   1      41.436  27.296  29.647  1.00  0.00     0.167 HD
ATOM     42  C   UNL A   1      37.136  33.178  29.797  1.00  0.00     0.037 A 
ATOM     43  C   UNL A   1      43.520  29.280  29.554  1.00  0.00     0.037 A 
ATOM     44  C   UNL A   1      38.403  33.505  30.455  1.00  0.00     0.049 A 
ATOM     45  C   UNL A   1      43.515  30.780  29.405  1.00  0.00     0.074 A 
ATOM     46  C   UNL A   1      38.902  33.160  31.700  1.00  0.00     0.029 A 
ATOM     47  N   UNL A   1      39.494  33.871  29.673  1.00  0.00    -0.354 N 
ATOM     48  N   UNL A   1      42.438  31.523  29.422  1.00  0.00    -0.248 NA
ATOM     49  C   UNL A   1      44.751  31.548  29.383  1.00  0.00     0.031 C 
ATOM     50  C   UNL A   1      40.321  33.217  31.621  1.00  0.00     0.029 A 
ATOM     51  C   UNL A   1      40.677  33.597  30.336  1.00  0.00     0.049 A 
ATOM     52  H   UNL A   1      39.433  34.270  28.776  1.00  0.00     0.167 HD
ATOM     53  C   UNL A   1      42.819  32.836  29.526  1.00  0.00     0.074 A 
ATOM     54  C   UNL A   1      44.272  32.798  29.469  1.00  0.00     0.031 C 
ATOM     55  C   UNL A   1      41.956  33.880  29.709  1.00  0.00     0.037 A 
BRANCH  42  56
ATOM     56  C   UNL A   1      35.818  33.804  30.221  1.00  0.00     0.064 A 
ATOM     57  C   UNL A   1      34.981  34.399  29.244  1.00  0.00     0.173 A 
ATOM     58  C   UNL A   1      35.332  33.914  31.539  1.00  0.00     0.173 A 
ATOM     59  F   UNL A   1      35.271  34.328  27.938  1.00  0.00    -0.203 F 
ATOM     60  C   UNL A   1      33.811  35.098  29.563  1.00  0.00     0.198 A 
ATOM     61  C   UNL A   1      34.161  34.620  31.859  1.00  0.00     0.198 A 
ATOM     62  F   UNL A   1      35.944  33.331  32.571  1.00  0.00    -0.203 F 
ATOM     63  F   UNL A   1      33.086  35.661  28.586  1.00  0.00    -0.200 F 
ATOM     64  C   UNL A   1      33.407  35.220  30.873  1.00  0.00     0.200 A 
ATOM     65  F   UNL A   1      33.772  34.711  33.140  1.00  0.00    -0.200 F 
ATOM     66  F   UNL A   1      32.292  35.896  31.183  1.00  0.00    -0.200 F 
ENDBRANCH  42  56
BRANCH  43  67
ATOM     67  C   UNL A   1      43.750  28.273  28.458  1.00  0.00     0.064 A 
ATOM     68  C   UNL A   1      43.178  28.521  27.185  1.00  0.00     0.173 A 
ATOM     69  C   UNL A   1      44.694  27.241  28.519  1.00  0.00     0.173 A 
ATOM     70  F   UNL A   1      42.250  29.483  27.043  1.00  0.00    -0.203 F 
ATOM     71  C   UNL A   1      43.607  27.863  26.031  1.00  0.00     0.198 A 
ATOM     72  C   UNL A   1      45.105  26.559  27.362  1.00  0.00     0.198 A 
ATOM     73  F   UNL A   1      45.286  26.929  29.680  1.00  0.00    -0.203 F 
ATOM     74  F   UNL A   1      43.120  28.221  24.834  1.00  0.00    -0.200 F 
ATOM     75  C   UNL A   1      44.581  26.889  26.118  1.00  0.00     0.200 A 
ATOM     76  F   UNL A   1      46.075  25.636  27.437  1.00  0.00    -0.200 F 
ATOM     77  F   UNL A   1      45.053  26.302  25.008  1.00  0.00    -0.200 F 
ENDBRANCH  43  67
BRANCH  55  78
ATOM     78  C   UNL A   1      42.301  35.314  29.402  1.00  0.00     0.064 A 
ATOM     79  C   UNL A   1      43.178  36.074  30.193  1.00  0.00     0.173 A 
ATOM     80  C   UNL A   1      41.897  35.916  28.186  1.00  0.00     0.173 A 
ATOM     81  F   UNL A   1      43.759  35.563  31.287  1.00  0.00    -0.203 F 
ATOM     82  C   UNL A   1      43.539  37.374  29.849  1.00  0.00     0.198 A 
ATOM     83  C   UNL A   1      42.333  37.180  27.804  1.00  0.00     0.198 A 
ATOM     84  F   UNL A   1      41.100  35.284  27.312  1.00  0.00    -0.203 F 
ATOM     85  F   UNL A   1      44.318  38.082  30.679  1.00  0.00    -0.200 F 
ATOM     86  C   UNL A   1      43.129  37.921  28.650  1.00  0.00     0.200 A 
ATOM     87  F   UNL A   1      41.994  37.663  26.600  1.00  0.00    -0.200 F 
ATOM     88  F   UNL A   1      43.523  39.151  28.299  1.00  0.00    -0.200 F 
ENDBRANCH  55  78
ENDBRANCH  29  30
ENDBRANCH  22  24
ENDBRANCH  21  22
ENDBRANCH  20  21
ENDBRANCH   1  20
TORSDOF 13
ENDMDL
