MODEL 1
REMARK VINA RESULT:     -11.5      0.000      0.000
REMARK SMILES COc1ccc(NS(=O)(=O)c2ccc(NC(=O)[C@H]3CCCC[C@@H]3C(=O)OCCOC(=O)c3ccc(-c4c5nc(c(-c6c(F)c(F)c(F)c(F)c6F)c6ccc([nH]6)c(-c6c(F)c(F)c(F)c(F)c6F)c6nc(c(-c7c(F)c(F)c(F)c(F)c7F)c7ccc4[nH]7)C=C6)C=C5)cc3)cc2)cc1
REMARK SMILES IDX 24 1 25 2 23 3 18 4 19 5 20 6 22 7 21 8 16 9 15 10 17 12
REMARK SMILES IDX 14 13 11 14 12 15 96 16 13 17 95 18 8 19 9 20 10 21 7 22
REMARK SMILES IDX 6 24 3 25 4 26 98 27 5 28 97 29 2 30 1 31 26 32 27 33 28 34
REMARK SMILES IDX 29 35 30 36 31 37 32 38 33 39 94 40 34 41 93 42 35 43 36 44
REMARK SMILES IDX 37 45 87 46 38 47 92 48 86 49 88 50 39 51 91 52 85 53 84 54
REMARK SMILES IDX 40 56 72 57 52 58 71 59 53 60 56 61 70 62 89 63 54 64 55 65
REMARK SMILES IDX 69 67 90 68 57 69 41 70 42 71 50 72 43 73 44 74 48 75 51 76
REMARK SMILES IDX 45 77 46 78 49 79 47 80 73 81 74 82 82 83 75 84 76 85 80 86
REMARK SMILES IDX 83 87 77 88 78 89 81 90 79 91 58 92 59 93 67 94 60 95 61 96
REMARK SMILES IDX 65 97 68 98 62 99 63 100 66 101 64 102
REMARK H PARENT 15 11 7 23 88 55 56 66
REMARK Flexibility Score: inf
ROOT
ATOM      1  C   UNL A   1      42.741  23.857  25.620  1.00  0.00     0.309 C 
ATOM      2  O   UNL A   1      42.667  24.990  25.161  1.00  0.00    -0.252 OA
ENDROOT
BRANCH   1   3
ATOM      3  C   UNL A   1      41.696  23.256  26.553  1.00  0.00     0.111 C 
ATOM      4  C   UNL A   1      40.247  23.259  26.053  1.00  0.00     0.093 C 
ATOM      5  C   UNL A   1      39.598  24.622  26.421  1.00  0.00     0.014 C 
ATOM      6  C   UNL A   1      39.727  24.974  27.907  1.00  0.00     0.001 C 
ATOM      7  C   UNL A   1      41.855  23.657  28.016  1.00  0.00     0.016 C 
ATOM      8  C   UNL A   1      41.170  24.949  28.386  1.00  0.00     0.001 C 
BRANCH   4   9
ATOM      9  C   UNL A   1      39.293  22.114  26.500  1.00  0.00     0.228 C 
ATOM     10  N   UNL A   1      37.996  21.938  26.115  1.00  0.00    -0.326 N 
ATOM     11  H   UNL A   1      37.578  21.124  26.480  1.00  0.00     0.169 HD
ATOM     12  O   UNL A   1      39.720  21.243  27.274  1.00  0.00    -0.274 OA
BRANCH  10  13
ATOM     13  C   UNL A   1      37.149  22.691  25.300  1.00  0.00     0.041 A 
ATOM     14  C   UNL A   1      34.949  23.714  23.944  1.00  0.00     0.087 A 
ATOM     15  C   UNL A   1      35.904  22.953  23.255  1.00  0.00     0.024 A 
ATOM     16  C   UNL A   1      35.220  24.151  25.240  1.00  0.00     0.024 A 
ATOM     17  C   UNL A   1      37.033  22.472  23.927  1.00  0.00     0.027 A 
ATOM     18  C   UNL A   1      36.320  23.628  25.926  1.00  0.00     0.027 A 
BRANCH  14  19
ATOM     19  S   UNL A   1      33.485  24.246  23.100  1.00  0.00     0.261 S 
ATOM     20  O   UNL A   1      33.672  23.958  21.694  1.00  0.00    -0.201 OA
ATOM     21  O   UNL A   1      33.234  25.608  23.531  1.00  0.00    -0.201 OA
BRANCH  19  22
ATOM     22  N   UNL A   1      32.115  23.348  23.544  1.00  0.00    -0.280 N 
ATOM     23  H   UNL A   1      31.265  23.837  23.628  1.00  0.00     0.180 HD
BRANCH  22  24
ATOM     24  C   UNL A   1      32.090  21.938  23.810  1.00  0.00     0.049 A 
ATOM     25  C   UNL A   1      32.545  19.184  24.274  1.00  0.00     0.119 A 
ATOM     26  C   UNL A   1      32.294  19.664  22.989  1.00  0.00     0.048 A 
ATOM     27  C   UNL A   1      32.609  20.092  25.329  1.00  0.00     0.048 A 
ATOM     28  C   UNL A   1      32.066  21.027  22.759  1.00  0.00     0.030 A 
ATOM     29  C   UNL A   1      32.382  21.463  25.096  1.00  0.00     0.030 A 
BRANCH  25  30
ATOM     30  O   UNL A   1      32.733  17.833  24.356  1.00  0.00    -0.497 OA
ATOM     31  C   UNL A   1      33.723  17.271  23.502  1.00  0.00     0.278 C 
ENDBRANCH  25  30
ENDBRANCH  22  24
ENDBRANCH  19  22
ENDBRANCH  14  19
ENDBRANCH  10  13
ENDBRANCH   4   9
ENDBRANCH   1   3
BRANCH   1  32
ATOM     32  O   UNL A   1      43.840  23.053  25.518  1.00  0.00    -0.462 OA
BRANCH  32  33
ATOM     33  C   UNL A   1      44.621  23.200  24.311  1.00  0.00     0.274 C 
BRANCH  33  34
ATOM     34  C   UNL A   1      46.018  23.749  24.593  1.00  0.00     0.275 C 
BRANCH  34  35
ATOM     35  O   UNL A   1      45.970  25.185  24.609  1.00  0.00    -0.458 OA
BRANCH  35  36
ATOM     36  C   UNL A   1      46.581  25.792  25.650  1.00  0.00     0.338 C 
ATOM     37  O   UNL A   1      47.784  25.853  25.868  1.00  0.00    -0.246 OA
BRANCH  36  38
ATOM     38  C   UNL A   1      45.577  26.476  26.491  1.00  0.00     0.060 A 
ATOM     39  C   UNL A   1      45.263  27.809  26.246  1.00  0.00     0.016 A 
ATOM     40  C   UNL A   1      45.057  25.853  27.625  1.00  0.00     0.016 A 
ATOM     41  C   UNL A   1      44.553  28.547  27.184  1.00  0.00     0.010 A 
ATOM     42  C   UNL A   1      44.236  26.575  28.505  1.00  0.00     0.010 A 
ATOM     43  C   UNL A   1      44.014  27.952  28.322  1.00  0.00    -0.014 A 
BRANCH  43  44
ATOM     44  C   UNL A   1      43.328  28.794  29.348  1.00  0.00     0.031 A 
ATOM     45  C   UNL A   1      44.094  29.248  30.563  1.00  0.00     0.074 A 
ATOM     46  C   UNL A   1      42.062  29.237  29.190  1.00  0.00     0.049 A 
ATOM     47  N   UNL A   1      43.644  29.691  31.708  1.00  0.00    -0.248 NA
ATOM     48  C   UNL A   1      45.562  29.174  30.483  1.00  0.00     0.031 C 
ATOM     49  C   UNL A   1      41.210  29.007  28.022  1.00  0.00     0.029 A 
ATOM     50  N   UNL A   1      41.275  30.006  30.016  1.00  0.00    -0.354 N 
ATOM     51  C   UNL A   1      44.761  29.832  32.521  1.00  0.00     0.074 A 
ATOM     52  C   UNL A   1      45.915  29.472  31.726  1.00  0.00     0.031 C 
ATOM     53  C   UNL A   1      40.063  29.686  28.167  1.00  0.00     0.029 A 
ATOM     54  C   UNL A   1      40.027  30.268  29.502  1.00  0.00     0.049 A 
ATOM     55  H   UNL A   1      41.577  30.337  30.892  1.00  0.00     0.167 HD
ATOM     56  C   UNL A   1      44.805  30.204  33.823  1.00  0.00     0.037 A 
ATOM     57  C   UNL A   1      38.946  30.842  30.063  1.00  0.00     0.037 A 
ATOM     58  C   UNL A   1      43.662  30.667  34.565  1.00  0.00     0.049 A 
ATOM     59  C   UNL A   1      39.003  31.240  31.511  1.00  0.00     0.074 A 
ATOM     60  C   UNL A   1      43.586  31.044  35.894  1.00  0.00     0.029 A 
ATOM     61  N   UNL A   1      42.401  30.861  34.023  1.00  0.00    -0.354 N 
ATOM     62  N   UNL A   1      40.014  31.184  32.344  1.00  0.00    -0.248 NA
ATOM     63  C   UNL A   1      37.755  31.729  32.112  1.00  0.00     0.031 C 
ATOM     64  C   UNL A   1      42.273  31.450  36.160  1.00  0.00     0.029 A 
ATOM     65  C   UNL A   1      41.541  31.359  34.987  1.00  0.00     0.049 A 
ATOM     66  H   UNL A   1      42.153  30.673  33.088  1.00  0.00     0.167 HD
ATOM     67  C   UNL A   1      39.524  31.619  33.566  1.00  0.00     0.074 A 
ATOM     68  C   UNL A   1      38.134  31.970  33.360  1.00  0.00     0.031 C 
ATOM     69  C   UNL A   1      40.162  31.701  34.759  1.00  0.00     0.037 A 
BRANCH  56  70
ATOM     70  C   UNL A   1      46.110  30.056  34.545  1.00  0.00     0.064 A 
ATOM     71  C   UNL A   1      46.444  28.908  35.273  1.00  0.00     0.173 A 
ATOM     72  C   UNL A   1      47.060  31.090  34.475  1.00  0.00     0.173 A 
ATOM     73  F   UNL A   1      45.565  27.901  35.387  1.00  0.00    -0.203 F 
ATOM     74  C   UNL A   1      47.673  28.807  35.924  1.00  0.00     0.198 A 
ATOM     75  C   UNL A   1      48.296  30.974  35.103  1.00  0.00     0.198 A 
ATOM     76  F   UNL A   1      46.789  32.210  33.790  1.00  0.00    -0.203 F 
ATOM     77  F   UNL A   1      47.956  27.717  36.651  1.00  0.00    -0.200 F 
ATOM     78  C   UNL A   1      48.599  29.835  35.832  1.00  0.00     0.200 A 
ATOM     79  F   UNL A   1      49.192  31.965  35.002  1.00  0.00    -0.200 F 
ATOM     80  F   UNL A   1      49.783  29.732  36.451  1.00  0.00    -0.200 F 
ENDBRANCH  56  70
BRANCH  57  81
ATOM     81  C   UNL A   1      37.686  30.981  29.282  1.00  0.00     0.064 A 
ATOM     82  C   UNL A   1      36.850  29.879  29.058  1.00  0.00     0.173 A 
ATOM     83  C   UNL A   1      37.286  32.218  28.753  1.00  0.00     0.173 A 
ATOM     84  F   UNL A   1      37.203  28.667  29.512  1.00  0.00    -0.203 F 
ATOM     85  C   UNL A   1      35.664  30.009  28.338  1.00  0.00     0.198 A 
ATOM     86  C   UNL A   1      36.082  32.356  28.066  1.00  0.00     0.198 A 
ATOM     87  F   UNL A   1      38.052  33.305  28.930  1.00  0.00    -0.203 F 
ATOM     88  F   UNL A   1      34.901  28.932  28.105  1.00  0.00    -0.200 F 
ATOM     89  C   UNL A   1      35.274  31.250  27.854  1.00  0.00     0.200 A 
ATOM     90  F   UNL A   1      35.703  33.560  27.619  1.00  0.00    -0.200 F 
ATOM     91  F   UNL A   1      34.124  31.379  27.179  1.00  0.00    -0.200 F 
ENDBRANCH  57  81
BRANCH  69  92
ATOM     92  C   UNL A   1      39.365  32.208  35.922  1.00  0.00     0.064 A 
ATOM     93  C   UNL A   1      38.509  31.362  36.643  1.00  0.00     0.173 A 
ATOM     94  C   UNL A   1      39.475  33.543  36.332  1.00  0.00     0.173 A 
ATOM     95  F   UNL A   1      38.358  30.081  36.274  1.00  0.00    -0.203 F 
ATOM     96  C   UNL A   1      37.772  31.844  37.721  1.00  0.00     0.198 A 
ATOM     97  C   UNL A   1      38.756  34.016  37.425  1.00  0.00     0.198 A 
ATOM     98  F   UNL A   1      40.284  34.388  35.674  1.00  0.00    -0.203 F 
ATOM     99  F   UNL A   1      36.927  31.031  38.369  1.00  0.00    -0.200 F 
ATOM    100  C   UNL A   1      37.900  33.168  38.114  1.00  0.00     0.200 A 
ATOM    101  F   UNL A   1      38.884  35.293  37.809  1.00  0.00    -0.200 F 
ATOM    102  F   UNL A   1      37.192  33.631  39.153  1.00  0.00    -0.200 F 
ENDBRANCH  69  92
ENDBRANCH  43  44
ENDBRANCH  36  38
ENDBRANCH  35  36
ENDBRANCH  34  35
ENDBRANCH  33  34
ENDBRANCH  32  33
ENDBRANCH   1  32
TORSDOF 17
ENDMDL
MODEL 2
REMARK VINA RESULT:     -11.2      4.609      7.045
REMARK SMILES COc1ccc(NS(=O)(=O)c2ccc(NC(=O)[C@H]3CCCC[C@@H]3C(=O)OCCOC(=O)c3ccc(-c4c5nc(c(-c6c(F)c(F)c(F)c(F)c6F)c6ccc([nH]6)c(-c6c(F)c(F)c(F)c(F)c6F)c6nc(c(-c7c(F)c(F)c(F)c(F)c7F)c7ccc4[nH]7)C=C6)C=C5)cc3)cc2)cc1
REMARK SMILES IDX 24 1 25 2 23 3 18 4 19 5 20 6 22 7 21 8 16 9 15 10 17 12
REMARK SMILES IDX 14 13 11 14 12 15 96 16 13 17 95 18 8 19 9 20 10 21 7 22
REMARK SMILES IDX 6 24 3 25 4 26 98 27 5 28 97 29 2 30 1 31 26 32 27 33 28 34
REMARK SMILES IDX 29 35 30 36 31 37 32 38 33 39 94 40 34 41 93 42 35 43 36 44
REMARK SMILES IDX 37 45 87 46 38 47 92 48 86 49 88 50 39 51 91 52 85 53 84 54
REMARK SMILES IDX 40 56 72 57 52 58 71 59 53 60 56 61 70 62 89 63 54 64 55 65
REMARK SMILES IDX 69 67 90 68 57 69 41 70 42 71 50 72 43 73 44 74 48 75 51 76
REMARK SMILES IDX 45 77 46 78 49 79 47 80 73 81 74 82 82 83 75 84 76 85 80 86
REMARK SMILES IDX 83 87 77 88 78 89 81 90 79 91 58 92 59 93 67 94 60 95 61 96
REMARK SMILES IDX 65 97 68 98 62 99 63 100 66 101 64 102
REMARK H PARENT 15 11 7 23 88 55 56 66
REMARK Flexibility Score: inf
ROOT
ATOM      1  C   UNL A   1      44.935  24.154  26.784  1.00  0.00     0.309 C 
ATOM      2  O   UNL A   1      45.082  23.881  27.969  1.00  0.00    -0.252 OA
ENDROOT
BRANCH   1   3
ATOM      3  C   UNL A   1      43.591  24.519  26.164  1.00  0.00     0.111 C 
ATOM      4  C   UNL A   1      42.561  25.170  27.094  1.00  0.00     0.093 C 
ATOM      5  C   UNL A   1      41.770  24.046  27.820  1.00  0.00     0.014 C 
ATOM      6  C   UNL A   1      41.158  23.019  26.862  1.00  0.00     0.001 C 
ATOM      7  C   UNL A   1      43.015  23.454  25.238  1.00  0.00     0.016 C 
ATOM      8  C   UNL A   1      42.193  22.400  25.937  1.00  0.00     0.001 C 
BRANCH   4   9
ATOM      9  C   UNL A   1      41.548  26.191  26.502  1.00  0.00     0.228 C 
ATOM     10  N   UNL A   1      40.724  27.022  27.204  1.00  0.00    -0.326 N 
ATOM     11  H   UNL A   1      40.188  27.624  26.637  1.00  0.00     0.169 HD
ATOM     12  O   UNL A   1      41.460  26.305  25.269  1.00  0.00    -0.274 OA
BRANCH  10  13
ATOM     13  C   UNL A   1      40.498  27.183  28.572  1.00  0.00     0.041 A 
ATOM     14  C   UNL A   1      39.604  28.056  31.054  1.00  0.00     0.087 A 
ATOM     15  C   UNL A   1      40.909  28.354  30.635  1.00  0.00     0.024 A 
ATOM     16  C   UNL A   1      38.844  27.132  30.337  1.00  0.00     0.024 A 
ATOM     17  C   UNL A   1      41.374  27.880  29.403  1.00  0.00     0.027 A 
ATOM     18  C   UNL A   1      39.289  26.702  29.083  1.00  0.00     0.027 A 
BRANCH  14  19
ATOM     19  S   UNL A   1      39.002  28.731  32.577  1.00  0.00     0.261 S 
ATOM     20  O   UNL A   1      40.093  28.683  33.528  1.00  0.00    -0.201 OA
ATOM     21  O   UNL A   1      37.759  28.044  32.868  1.00  0.00    -0.201 OA
BRANCH  19  22
ATOM     22  N   UNL A   1      38.615  30.379  32.450  1.00  0.00    -0.280 N 
ATOM     23  H   UNL A   1      39.311  31.025  32.708  1.00  0.00     0.180 HD
BRANCH  22  24
ATOM     24  C   UNL A   1      37.358  30.909  32.002  1.00  0.00     0.049 A 
ATOM     25  C   UNL A   1      35.147  32.377  31.023  1.00  0.00     0.119 A 
ATOM     26  C   UNL A   1      35.473  32.388  32.379  1.00  0.00     0.048 A 
ATOM     27  C   UNL A   1      35.956  31.660  30.144  1.00  0.00     0.048 A 
ATOM     28  C   UNL A   1      36.565  31.659  32.865  1.00  0.00     0.030 A 
ATOM     29  C   UNL A   1      37.056  30.929  30.633  1.00  0.00     0.030 A 
BRANCH  25  30
ATOM     30  O   UNL A   1      34.047  33.118  30.690  1.00  0.00    -0.497 OA
ATOM     31  C   UNL A   1      34.186  34.533  30.751  1.00  0.00     0.278 C 
ENDBRANCH  25  30
ENDBRANCH  22  24
ENDBRANCH  19  22
ENDBRANCH  14  19
ENDBRANCH  10  13
ENDBRANCH   4   9
ENDBRANCH   1   3
BRANCH   1  32
ATOM     32  O   UNL A   1      45.897  23.987  25.829  1.00  0.00    -0.462 OA
BRANCH  32  33
ATOM     33  C   UNL A   1      47.145  24.677  26.061  1.00  0.00     0.274 C 
BRANCH  33  34
ATOM     34  C   UNL A   1      47.562  25.531  24.865  1.00  0.00     0.275 C 
BRANCH  34  35
ATOM     35  O   UNL A   1      46.432  26.291  24.409  1.00  0.00    -0.458 OA
BRANCH  35  36
ATOM     36  C   UNL A   1      46.523  27.633  24.540  1.00  0.00     0.338 C 
ATOM     37  O   UNL A   1      46.789  28.446  23.664  1.00  0.00    -0.246 OA
BRANCH  36  38
ATOM     38  C   UNL A   1      46.166  28.028  25.918  1.00  0.00     0.060 A 
ATOM     39  C   UNL A   1      44.845  27.934  26.343  1.00  0.00     0.016 A 
ATOM     40  C   UNL A   1      47.105  28.641  26.748  1.00  0.00     0.016 A 
ATOM     41  C   UNL A   1      44.438  28.560  27.514  1.00  0.00     0.010 A 
ATOM     42  C   UNL A   1      46.707  29.161  27.989  1.00  0.00     0.010 A 
ATOM     43  C   UNL A   1      45.353  29.173  28.368  1.00  0.00    -0.014 A 
BRANCH  43  44
ATOM     44  C   UNL A   1      44.868  29.906  29.576  1.00  0.00     0.031 A 
ATOM     45  C   UNL A   1      44.802  29.189  30.898  1.00  0.00     0.074 A 
ATOM     46  C   UNL A   1      44.561  31.221  29.547  1.00  0.00     0.049 A 
ATOM     47  N   UNL A   1      44.132  29.500  31.977  1.00  0.00    -0.248 NA
ATOM     48  C   UNL A   1      45.579  27.944  31.013  1.00  0.00     0.031 C 
ATOM     49  C   UNL A   1      44.686  32.109  28.390  1.00  0.00     0.029 A 
ATOM     50  N   UNL A   1      44.101  32.053  30.542  1.00  0.00    -0.354 N 
ATOM     51  C   UNL A   1      44.310  28.435  32.850  1.00  0.00     0.074 A 
ATOM     52  C   UNL A   1      45.187  27.489  32.195  1.00  0.00     0.031 C 
ATOM     53  C   UNL A   1      44.396  33.365  28.759  1.00  0.00     0.029 A 
ATOM     54  C   UNL A   1      43.911  33.352  30.133  1.00  0.00     0.049 A 
ATOM     55  H   UNL A   1      43.924  31.746  31.461  1.00  0.00     0.167 HD
ATOM     56  C   UNL A   1      43.762  28.259  34.076  1.00  0.00     0.037 A 
ATOM     57  C   UNL A   1      43.342  34.399  30.759  1.00  0.00     0.037 A 
ATOM     58  C   UNL A   1      42.983  29.260  34.759  1.00  0.00     0.049 A 
ATOM     59  C   UNL A   1      42.728  34.189  32.114  1.00  0.00     0.074 A 
ATOM     60  C   UNL A   1      42.359  29.181  35.992  1.00  0.00     0.029 A 
ATOM     61  N   UNL A   1      42.765  30.543  34.283  1.00  0.00    -0.354 N 
ATOM     62  N   UNL A   1      42.720  33.111  32.860  1.00  0.00    -0.248 NA
ATOM     63  C   UNL A   1      41.996  35.325  32.691  1.00  0.00     0.031 C 
ATOM     64  C   UNL A   1      41.747  30.412  36.252  1.00  0.00     0.029 A 
ATOM     65  C   UNL A   1      42.021  31.269  35.198  1.00  0.00     0.049 A 
ATOM     66  H   UNL A   1      43.091  30.888  33.420  1.00  0.00     0.167 HD
ATOM     67  C   UNL A   1      41.977  33.433  33.986  1.00  0.00     0.074 A 
ATOM     68  C   UNL A   1      41.579  34.819  33.843  1.00  0.00     0.031 C 
ATOM     69  C   UNL A   1      41.636  32.646  35.035  1.00  0.00     0.037 A 
BRANCH  56  70
ATOM     70  C   UNL A   1      43.922  26.918  34.725  1.00  0.00     0.064 A 
ATOM     71  C   UNL A   1      42.915  25.946  34.708  1.00  0.00     0.173 A 
ATOM     72  C   UNL A   1      45.136  26.595  35.356  1.00  0.00     0.173 A 
ATOM     73  F   UNL A   1      41.730  26.211  34.136  1.00  0.00    -0.203 F 
ATOM     74  C   UNL A   1      43.108  24.706  35.315  1.00  0.00     0.198 A 
ATOM     75  C   UNL A   1      45.334  25.347  35.938  1.00  0.00     0.198 A 
ATOM     76  F   UNL A   1      46.133  27.491  35.400  1.00  0.00    -0.203 F 
ATOM     77  F   UNL A   1      42.114  23.805  35.325  1.00  0.00    -0.200 F 
ATOM     78  C   UNL A   1      44.318  24.406  35.922  1.00  0.00     0.200 A 
ATOM     79  F   UNL A   1      46.510  25.057  36.513  1.00  0.00    -0.200 F 
ATOM     80  F   UNL A   1      44.503  23.210  36.499  1.00  0.00    -0.200 F 
ENDBRANCH  56  70
BRANCH  57  81
ATOM     81  C   UNL A   1      43.235  35.713  30.068  1.00  0.00     0.064 A 
ATOM     82  C   UNL A   1      44.101  36.768  30.387  1.00  0.00     0.173 A 
ATOM     83  C   UNL A   1      42.275  35.940  29.069  1.00  0.00     0.173 A 
ATOM     84  F   UNL A   1      45.014  36.616  31.357  1.00  0.00    -0.203 F 
ATOM     85  C   UNL A   1      44.011  37.996  29.733  1.00  0.00     0.198 A 
ATOM     86  C   UNL A   1      42.210  37.154  28.390  1.00  0.00     0.198 A 
ATOM     87  F   UNL A   1      41.415  34.968  28.731  1.00  0.00    -0.203 F 
ATOM     88  F   UNL A   1      44.826  39.001  30.082  1.00  0.00    -0.200 F 
ATOM     89  C   UNL A   1      43.075  38.184  28.726  1.00  0.00     0.200 A 
ATOM     90  F   UNL A   1      41.317  37.321  27.406  1.00  0.00    -0.200 F 
ATOM     91  F   UNL A   1      43.002  39.357  28.084  1.00  0.00    -0.200 F 
ENDBRANCH  57  81
BRANCH  69  92
ATOM     92  C   UNL A   1      40.810  33.275  36.116  1.00  0.00     0.064 A 
ATOM     93  C   UNL A   1      39.409  33.223  36.085  1.00  0.00     0.173 A 
ATOM     94  C   UNL A   1      41.426  33.913  37.200  1.00  0.00     0.173 A 
ATOM     95  F   UNL A   1      38.777  32.638  35.056  1.00  0.00    -0.203 F 
ATOM     96  C   UNL A   1      38.652  33.811  37.094  1.00  0.00     0.198 A 
ATOM     97  C   UNL A   1      40.666  34.480  38.220  1.00  0.00     0.198 A 
ATOM     98  F   UNL A   1      42.764  33.985  37.273  1.00  0.00    -0.203 F 
ATOM     99  F   UNL A   1      37.314  33.789  37.024  1.00  0.00    -0.200 F 
ATOM    100  C   UNL A   1      39.280  34.434  38.162  1.00  0.00     0.200 A 
ATOM    101  F   UNL A   1      41.273  35.076  39.255  1.00  0.00    -0.200 F 
ATOM    102  F   UNL A   1      38.550  34.999  39.133  1.00  0.00    -0.200 F 
ENDBRANCH  69  92
ENDBRANCH  43  44
ENDBRANCH  36  38
ENDBRANCH  35  36
ENDBRANCH  34  35
ENDBRANCH  33  34
ENDBRANCH  32  33
ENDBRANCH   1  32
TORSDOF 17
ENDMDL
MODEL 3
REMARK VINA RESULT:     -11.1      4.702      9.533
REMARK SMILES COc1ccc(NS(=O)(=O)c2ccc(NC(=O)[C@H]3CCCC[C@@H]3C(=O)OCCOC(=O)c3ccc(-c4c5nc(c(-c6c(F)c(F)c(F)c(F)c6F)c6ccc([nH]6)c(-c6c(F)c(F)c(F)c(F)c6F)c6nc(c(-c7c(F)c(F)c(F)c(F)c7F)c7ccc4[nH]7)C=C6)C=C5)cc3)cc2)cc1
REMARK SMILES IDX 24 1 25 2 23 3 18 4 19 5 20 6 22 7 21 8 16 9 15 10 17 12
REMARK SMILES IDX 14 13 11 14 12 15 96 16 13 17 95 18 8 19 9 20 10 21 7 22
REMARK SMILES IDX 6 24 3 25 4 26 98 27 5 28 97 29 2 30 1 31 26 32 27 33 28 34
REMARK SMILES IDX 29 35 30 36 31 37 32 38 33 39 94 40 34 41 93 42 35 43 36 44
REMARK SMILES IDX 37 45 87 46 38 47 92 48 86 49 88 50 39 51 91 52 85 53 84 54
REMARK SMILES IDX 40 56 72 57 52 58 71 59 53 60 56 61 70 62 89 63 54 64 55 65
REMARK SMILES IDX 69 67 90 68 57 69 41 70 42 71 50 72 43 73 44 74 48 75 51 76
REMARK SMILES IDX 45 77 46 78 49 79 47 80 73 81 74 82 82 83 75 84 76 85 80 86
REMARK SMILES IDX 83 87 77 88 78 89 81 90 79 91 58 92 59 93 67 94 60 95 61 96
REMARK SMILES IDX 65 97 68 98 62 99 63 100 66 101 64 102
REMARK H PARENT 15 11 7 23 88 55 56 66
REMARK Flexibility Score: inf
ROOT
ATOM      1  C   UNL A   1      35.855  31.636  31.402  1.00  0.00     0.309 C 
ATOM      2  O   UNL A   1      36.144  30.587  31.965  1.00  0.00    -0.252 OA
ENDROOT
BRANCH   1   3
ATOM      3  C   UNL A   1      35.987  31.848  29.898  1.00  0.00     0.111 C 
ATOM      4  C   UNL A   1      35.220  30.874  28.998  1.00  0.00     0.093 C 
ATOM      5  C   UNL A   1      36.102  29.616  28.763  1.00  0.00     0.014 C 
ATOM      6  C   UNL A   1      37.504  29.948  28.241  1.00  0.00     0.001 C 
ATOM      7  C   UNL A   1      37.406  32.151  29.428  1.00  0.00     0.016 C 
ATOM      8  C   UNL A   1      38.240  30.929  29.138  1.00  0.00     0.001 C 
BRANCH   4   9
ATOM      9  C   UNL A   1      34.688  31.375  27.624  1.00  0.00     0.228 C 
ATOM     10  N   UNL A   1      33.930  30.667  26.737  1.00  0.00    -0.326 N 
ATOM     11  H   UNL A   1      33.662  31.183  25.942  1.00  0.00     0.169 HD
ATOM     12  O   UNL A   1      34.944  32.536  27.267  1.00  0.00    -0.274 OA
BRANCH  10  13
ATOM     13  C   UNL A   1      33.462  29.353  26.742  1.00  0.00     0.041 A 
ATOM     14  C   UNL A   1      32.179  26.964  26.132  1.00  0.00     0.087 A 
ATOM     15  C   UNL A   1      31.716  27.757  27.192  1.00  0.00     0.024 A 
ATOM     16  C   UNL A   1      33.410  27.251  25.544  1.00  0.00     0.024 A 
ATOM     17  C   UNL A   1      32.386  28.939  27.526  1.00  0.00     0.027 A 
ATOM     18  C   UNL A   1      34.049  28.458  25.841  1.00  0.00     0.027 A 
BRANCH  14  19
ATOM     19  S   UNL A   1      31.273  25.515  25.668  1.00  0.00     0.261 S 
ATOM     20  O   UNL A   1      30.076  25.957  24.985  1.00  0.00    -0.201 OA
ATOM     21  O   UNL A   1      31.163  24.699  26.862  1.00  0.00    -0.201 OA
BRANCH  19  22
ATOM     22  N   UNL A   1      32.097  24.570  24.523  1.00  0.00    -0.280 N 
ATOM     23  H   UNL A   1      31.987  24.814  23.576  1.00  0.00     0.180 HD
BRANCH  22  24
ATOM     24  C   UNL A   1      32.939  23.446  24.819  1.00  0.00     0.049 A 
ATOM     25  C   UNL A   1      34.700  21.233  24.903  1.00  0.00     0.119 A 
ATOM     26  C   UNL A   1      33.332  21.055  24.700  1.00  0.00     0.048 A 
ATOM     27  C   UNL A   1      35.197  22.529  25.025  1.00  0.00     0.048 A 
ATOM     28  C   UNL A   1      32.459  22.150  24.661  1.00  0.00     0.030 A 
ATOM     29  C   UNL A   1      34.319  23.630  24.983  1.00  0.00     0.030 A 
BRANCH  25  30
ATOM     30  O   UNL A   1      35.432  20.079  24.936  1.00  0.00    -0.497 OA
ATOM     31  C   UNL A   1      36.846  20.215  24.870  1.00  0.00     0.278 C 
ENDBRANCH  25  30
ENDBRANCH  22  24
ENDBRANCH  19  22
ENDBRANCH  14  19
ENDBRANCH  10  13
ENDBRANCH   4   9
ENDBRANCH   1   3
BRANCH   1  32
ATOM     32  O   UNL A   1      35.561  32.803  32.047  1.00  0.00    -0.462 OA
BRANCH  32  33
ATOM     33  C   UNL A   1      35.476  32.725  33.487  1.00  0.00     0.274 C 
BRANCH  33  34
ATOM     34  C   UNL A   1      36.035  33.975  34.164  1.00  0.00     0.275 C 
BRANCH  34  35
ATOM     35  O   UNL A   1      37.444  33.807  34.383  1.00  0.00    -0.458 OA
BRANCH  35  36
ATOM     36  C   UNL A   1      37.835  32.605  34.860  1.00  0.00     0.338 C 
ATOM     37  O   UNL A   1      37.552  32.111  35.944  1.00  0.00    -0.246 OA
BRANCH  36  38
ATOM     38  C   UNL A   1      38.621  31.889  33.833  1.00  0.00     0.060 A 
ATOM     39  C   UNL A   1      38.964  30.556  34.032  1.00  0.00     0.016 A 
ATOM     40  C   UNL A   1      39.157  32.574  32.743  1.00  0.00     0.016 A 
ATOM     41  C   UNL A   1      39.930  29.954  33.236  1.00  0.00     0.010 A 
ATOM     42  C   UNL A   1      40.038  31.917  31.870  1.00  0.00     0.010 A 
ATOM     43  C   UNL A   1      40.478  30.608  32.135  1.00  0.00    -0.014 A 
BRANCH  43  44
ATOM     44  C   UNL A   1      41.573  29.960  31.352  1.00  0.00     0.031 A 
ATOM     45  C   UNL A   1      42.970  30.514  31.438  1.00  0.00     0.074 A 
ATOM     46  C   UNL A   1      41.375  28.836  30.629  1.00  0.00     0.049 A 
ATOM     47  N   UNL A   1      43.983  30.336  30.630  1.00  0.00    -0.248 NA
ATOM     48  C   UNL A   1      43.258  31.404  32.574  1.00  0.00     0.031 C 
ATOM     49  C   UNL A   1      40.123  28.085  30.532  1.00  0.00     0.029 A 
ATOM     50  N   UNL A   1      42.248  28.109  29.852  1.00  0.00    -0.354 N 
ATOM     51  C   UNL A   1      44.984  31.181  31.091  1.00  0.00     0.074 A 
ATOM     52  C   UNL A   1      44.475  31.839  32.275  1.00  0.00     0.031 C 
ATOM     53  C   UNL A   1      40.328  26.969  29.817  1.00  0.00     0.029 A 
ATOM     54  C   UNL A   1      41.678  27.001  29.271  1.00  0.00     0.049 A 
ATOM     55  H   UNL A   1      43.191  28.359  29.724  1.00  0.00     0.167 HD
ATOM     56  C   UNL A   1      46.206  31.402  30.550  1.00  0.00     0.037 A 
ATOM     57  C   UNL A   1      42.155  26.148  28.345  1.00  0.00     0.037 A 
ATOM     58  C   UNL A   1      46.738  30.658  29.439  1.00  0.00     0.049 A 
ATOM     59  C   UNL A   1      43.507  26.409  27.744  1.00  0.00     0.074 A 
ATOM     60  C   UNL A   1      47.952  30.813  28.793  1.00  0.00     0.029 A 
ATOM     61  N   UNL A   1      46.103  29.581  28.839  1.00  0.00    -0.354 N 
ATOM     62  N   UNL A   1      44.378  27.342  28.043  1.00  0.00    -0.248 NA
ATOM     63  C   UNL A   1      43.919  25.534  26.639  1.00  0.00     0.031 C 
ATOM     64  C   UNL A   1      48.043  29.841  27.790  1.00  0.00     0.029 A 
ATOM     65  C   UNL A   1      46.901  29.057  27.836  1.00  0.00     0.049 A 
ATOM     66  H   UNL A   1      45.215  29.238  29.091  1.00  0.00     0.167 HD
ATOM     67  C   UNL A   1      45.434  27.174  27.160  1.00  0.00     0.074 A 
ATOM     68  C   UNL A   1      45.112  26.027  26.336  1.00  0.00     0.031 C 
ATOM     69  C   UNL A   1      46.561  27.916  27.029  1.00  0.00     0.037 A 
BRANCH  56  70
ATOM     70  C   UNL A   1      47.017  32.535  31.101  1.00  0.00     0.064 A 
ATOM     71  C   UNL A   1      47.961  32.361  32.121  1.00  0.00     0.173 A 
ATOM     72  C   UNL A   1      46.857  33.825  30.567  1.00  0.00     0.173 A 
ATOM     73  F   UNL A   1      48.138  31.154  32.678  1.00  0.00    -0.203 F 
ATOM     74  C   UNL A   1      48.702  33.440  32.600  1.00  0.00     0.198 A 
ATOM     75  C   UNL A   1      47.617  34.894  31.029  1.00  0.00     0.198 A 
ATOM     76  F   UNL A   1      45.966  34.045  29.589  1.00  0.00    -0.203 F 
ATOM     77  F   UNL A   1      49.570  33.260  33.606  1.00  0.00    -0.200 F 
ATOM     78  C   UNL A   1      48.535  34.702  32.050  1.00  0.00     0.200 A 
ATOM     79  F   UNL A   1      47.461  36.110  30.486  1.00  0.00    -0.200 F 
ATOM     80  F   UNL A   1      49.255  35.736  32.507  1.00  0.00    -0.200 F 
ENDBRANCH  56  70
BRANCH  57  81
ATOM     81  C   UNL A   1      41.306  25.027  27.856  1.00  0.00     0.064 A 
ATOM     82  C   UNL A   1      41.533  23.711  28.283  1.00  0.00     0.173 A 
ATOM     83  C   UNL A   1      40.247  25.246  26.961  1.00  0.00     0.173 A 
ATOM     84  F   UNL A   1      42.553  23.441  29.111  1.00  0.00    -0.203 F 
ATOM     85  C   UNL A   1      40.732  22.661  27.837  1.00  0.00     0.198 A 
ATOM     86  C   UNL A   1      39.425  24.203  26.544  1.00  0.00     0.198 A 
ATOM     87  F   UNL A   1      39.991  26.484  26.513  1.00  0.00    -0.203 F 
ATOM     88  F   UNL A   1      40.993  21.407  28.230  1.00  0.00    -0.200 F 
ATOM     89  C   UNL A   1      39.671  22.909  26.978  1.00  0.00     0.200 A 
ATOM     90  F   UNL A   1      38.390  24.453  25.732  1.00  0.00    -0.200 F 
ATOM     91  F   UNL A   1      38.889  21.904  26.565  1.00  0.00    -0.200 F 
ENDBRANCH  57  81
BRANCH  69  92
ATOM     92  C   UNL A   1      47.532  27.493  25.969  1.00  0.00     0.064 A 
ATOM     93  C   UNL A   1      48.643  26.694  26.275  1.00  0.00     0.173 A 
ATOM     94  C   UNL A   1      47.336  27.872  24.634  1.00  0.00     0.173 A 
ATOM     95  F   UNL A   1      48.880  26.324  27.543  1.00  0.00    -0.203 F 
ATOM     96  C   UNL A   1      49.539  26.308  25.282  1.00  0.00     0.198 A 
ATOM     97  C   UNL A   1      48.221  27.464  23.640  1.00  0.00     0.198 A 
ATOM     98  F   UNL A   1      46.285  28.633  24.294  1.00  0.00    -0.203 F 
ATOM     99  F   UNL A   1      50.618  25.582  25.602  1.00  0.00    -0.200 F 
ATOM    100  C   UNL A   1      49.324  26.689  23.966  1.00  0.00     0.200 A 
ATOM    101  F   UNL A   1      48.010  27.826  22.367  1.00  0.00    -0.200 F 
ATOM    102  F   UNL A   1      50.187  26.316  23.011  1.00  0.00    -0.200 F 
ENDBRANCH  69  92
ENDBRANCH  43  44
ENDBRANCH  36  38
ENDBRANCH  35  36
ENDBRANCH  34  35
ENDBRANCH  33  34
ENDBRANCH  32  33
ENDBRANCH   1  32
TORSDOF 17
ENDMDL
