MODEL 1
REMARK VINA RESULT:     -13.0      0.000      0.000
REMARK SMILES Cc1nc(C(=O)N2C[C@@H]3CC[N@@H+](C)C[C@]3(C(=O)OCCOC(=O)c3ccc(-c4c5nc(c(-c6c(F)c(F)c(F)c(F)c6F)c6ccc([nH]6)c(-c6c(F)c(F)c(F)c(F)c6F)c6nc(c(-c7c(F)c(F)c(F)c(F)c7F)c7ccc4[nH]7)C=C6)C=C5)cc3)C2)cs1
REMARK SMILES IDX 19 1 18 2 16 3 17 4 15 5 7 6 8 7 87 8 9 9 10 10 14 11 11 12
REMARK SMILES IDX 12 13 13 14 5 16 6 17 4 18 1 19 2 20 3 21 89 22 88 23 20 24
REMARK SMILES IDX 21 25 22 26 23 27 24 28 25 29 86 30 26 31 85 32 27 33 28 34
REMARK SMILES IDX 29 35 79 36 30 37 84 38 78 39 80 40 31 41 83 42 77 43 76 44
REMARK SMILES IDX 32 46 64 47 44 48 63 49 45 50 48 51 62 52 81 53 46 54 47 55
REMARK SMILES IDX 61 57 82 58 49 59 33 60 34 61 42 62 35 63 36 64 40 65 43 66
REMARK SMILES IDX 37 67 38 68 41 69 39 70 65 71 66 72 74 73 67 74 68 75 72 76
REMARK SMILES IDX 75 77 69 78 70 79 73 80 71 81 50 82 51 83 59 84 52 85 53 86
REMARK SMILES IDX 57 87 60 88 54 89 55 90 58 91 56 92
REMARK H PARENT 12 15 80 45 48 56
REMARK Flexibility Score: inf
ROOT
ATOM      1  C   UNL A   1      32.079  27.477  26.895  1.00  0.00     0.274 C 
ENDROOT
BRANCH   1   2
ATOM      2  O   UNL A   1      32.252  26.498  25.833  1.00  0.00    -0.461 OA
BRANCH   2   3
ATOM      3  C   UNL A   1      31.269  25.560  25.580  1.00  0.00     0.320 C 
ATOM      4  O   UNL A   1      30.552  25.070  26.440  1.00  0.00    -0.251 OA
BRANCH   3   5
ATOM      5  C   UNL A   1      31.166  25.361  24.040  1.00  0.00     0.139 C 
ATOM      6  N   UNL A   1      31.073  27.281  22.591  1.00  0.00    -0.336 N 
ATOM      7  C   UNL A   1      32.009  26.405  21.977  1.00  0.00     0.125 C 
ATOM      8  C   UNL A   1      30.302  26.581  23.611  1.00  0.00     0.145 C 
ATOM      9  C   UNL A   1      32.406  25.408  23.060  1.00  0.00     0.039 C 
ATOM     10  C   UNL A   1      32.772  24.116  22.256  1.00  0.00     0.068 C 
ATOM     11  C   UNL A   1      30.642  23.919  23.911  1.00  0.00     0.283 C 
ATOM     12  C   UNL A   1      32.514  22.774  22.915  1.00  0.00     0.262 C 
ATOM     13  N   UNL A   1      31.729  22.913  24.128  1.00  0.00    -0.336 N 
ATOM     14  C   UNL A   1      32.679  23.153  25.232  1.00  0.00     0.332 C 
ATOM     15  H   UNL A   1      31.210  22.076  24.392  1.00  0.00     0.347 HD
BRANCH   6  16
ATOM     16  C   UNL A   1      31.291  28.649  22.555  1.00  0.00     0.273 C 
ATOM     17  O   UNL A   1      32.412  29.132  22.657  1.00  0.00    -0.267 OA
BRANCH  16  18
ATOM     18  C   UNL A   1      30.070  29.467  22.479  1.00  0.00     0.139 A 
ATOM     19  C   UNL A   1      27.918  31.601  20.420  1.00  0.00     0.079 C 
ATOM     20  C   UNL A   1      28.576  30.779  21.472  1.00  0.00     0.090 A 
ATOM     21  N   UNL A   1      29.654  30.052  21.281  1.00  0.00    -0.236 NA
ATOM     22  S   UNL A   1      27.941  30.743  23.068  1.00  0.00    -0.127 S 
ATOM     23  C   UNL A   1      29.237  29.729  23.551  1.00  0.00     0.101 A 
ENDBRANCH  16  18
ENDBRANCH   6  16
ENDBRANCH   3   5
ENDBRANCH   2   3
ENDBRANCH   1   2
BRANCH   1  24
ATOM     24  C   UNL A   1      31.536  28.815  26.302  1.00  0.00     0.275 C 
BRANCH  24  25
ATOM     25  O   UNL A   1      32.610  29.696  25.879  1.00  0.00    -0.458 OA
BRANCH  25  26
ATOM     26  C   UNL A   1      32.896  30.787  26.660  1.00  0.00     0.338 C 
ATOM     27  O   UNL A   1      32.108  31.675  26.945  1.00  0.00    -0.246 OA
BRANCH  26  28
ATOM     28  C   UNL A   1      34.297  30.717  27.211  1.00  0.00     0.060 A 
ATOM     29  C   UNL A   1      34.970  29.511  27.227  1.00  0.00     0.016 A 
ATOM     30  C   UNL A   1      34.943  31.804  27.810  1.00  0.00     0.016 A 
ATOM     31  C   UNL A   1      36.087  29.314  28.049  1.00  0.00     0.010 A 
ATOM     32  C   UNL A   1      36.192  31.636  28.475  1.00  0.00     0.010 A 
ATOM     33  C   UNL A   1      36.768  30.364  28.674  1.00  0.00    -0.014 A 
BRANCH  33  34
ATOM     34  C   UNL A   1      37.997  30.097  29.536  1.00  0.00     0.031 A 
ATOM     35  C   UNL A   1      39.214  29.375  28.980  1.00  0.00     0.074 A 
ATOM     36  C   UNL A   1      38.125  30.544  30.814  1.00  0.00     0.049 A 
ATOM     37  N   UNL A   1      40.200  28.790  29.625  1.00  0.00    -0.248 NA
ATOM     38  C   UNL A   1      39.341  29.291  27.519  1.00  0.00     0.031 C 
ATOM     39  C   UNL A   1      37.137  31.317  31.565  1.00  0.00     0.029 A 
ATOM     40  N   UNL A   1      39.180  30.448  31.707  1.00  0.00    -0.354 N 
ATOM     41  C   UNL A   1      40.977  28.159  28.660  1.00  0.00     0.074 A 
ATOM     42  C   UNL A   1      40.385  28.484  27.378  1.00  0.00     0.031 C 
ATOM     43  C   UNL A   1      37.677  31.754  32.710  1.00  0.00     0.029 A 
ATOM     44  C   UNL A   1      38.981  31.131  32.887  1.00  0.00     0.049 A 
ATOM     45  H   UNL A   1      39.999  29.938  31.514  1.00  0.00     0.167 HD
ATOM     46  C   UNL A   1      42.065  27.363  28.825  1.00  0.00     0.037 A 
ATOM     47  C   UNL A   1      39.703  31.203  34.026  1.00  0.00     0.037 A 
ATOM     48  C   UNL A   1      42.752  27.146  30.075  1.00  0.00     0.049 A 
ATOM     49  C   UNL A   1      40.923  30.343  34.195  1.00  0.00     0.074 A 
ATOM     50  C   UNL A   1      43.828  26.313  30.341  1.00  0.00     0.029 A 
ATOM     51  N   UNL A   1      42.473  27.817  31.254  1.00  0.00    -0.354 N 
ATOM     52  N   UNL A   1      41.501  29.552  33.329  1.00  0.00    -0.248 NA
ATOM     53  C   UNL A   1      41.548  30.332  35.528  1.00  0.00     0.031 C 
ATOM     54  C   UNL A   1      44.198  26.478  31.683  1.00  0.00     0.029 A 
ATOM     55  C   UNL A   1      43.368  27.433  32.242  1.00  0.00     0.049 A 
ATOM     56  H   UNL A   1      41.748  28.472  31.372  1.00  0.00     0.167 HD
ATOM     57  C   UNL A   1      42.534  28.929  34.017  1.00  0.00     0.074 A 
ATOM     58  C   UNL A   1      42.538  29.469  35.358  1.00  0.00     0.031 C 
ATOM     59  C   UNL A   1      43.379  27.967  33.577  1.00  0.00     0.037 A 
BRANCH  46  60
ATOM     60  C   UNL A   1      42.552  26.595  27.632  1.00  0.00     0.064 A 
ATOM     61  C   UNL A   1      43.565  27.069  26.789  1.00  0.00     0.173 A 
ATOM     62  C   UNL A   1      42.015  25.324  27.365  1.00  0.00     0.173 A 
ATOM     63  F   UNL A   1      44.103  28.279  26.995  1.00  0.00    -0.203 F 
ATOM     64  C   UNL A   1      44.006  26.308  25.707  1.00  0.00     0.198 A 
ATOM     65  C   UNL A   1      42.476  24.557  26.300  1.00  0.00     0.198 A 
ATOM     66  F   UNL A   1      41.053  24.817  28.152  1.00  0.00    -0.203 F 
ATOM     67  F   UNL A   1      44.948  26.796  24.888  1.00  0.00    -0.200 F 
ATOM     68  C   UNL A   1      43.466  25.051  25.467  1.00  0.00     0.200 A 
ATOM     69  F   UNL A   1      41.964  23.336  26.081  1.00  0.00    -0.200 F 
ATOM     70  F   UNL A   1      43.899  24.322  24.429  1.00  0.00    -0.200 F 
ENDBRANCH  46  60
BRANCH  47  71
ATOM     71  C   UNL A   1      39.234  32.053  35.159  1.00  0.00     0.064 A 
ATOM     72  C   UNL A   1      38.482  31.505  36.206  1.00  0.00     0.173 A 
ATOM     73  C   UNL A   1      39.517  33.427  35.213  1.00  0.00     0.173 A 
ATOM     74  F   UNL A   1      38.144  30.207  36.180  1.00  0.00    -0.203 F 
ATOM     75  C   UNL A   1      38.038  32.296  37.265  1.00  0.00     0.198 A 
ATOM     76  C   UNL A   1      39.107  34.208  36.291  1.00  0.00     0.198 A 
ATOM     77  F   UNL A   1      40.218  34.008  34.227  1.00  0.00    -0.203 F 
ATOM     78  F   UNL A   1      37.284  31.755  38.233  1.00  0.00    -0.200 F 
ATOM     79  C   UNL A   1      38.364  33.643  37.313  1.00  0.00     0.200 A 
ATOM     80  F   UNL A   1      39.439  35.505  36.338  1.00  0.00    -0.200 F 
ATOM     81  F   UNL A   1      37.953  34.398  38.341  1.00  0.00    -0.200 F 
ENDBRANCH  47  71
BRANCH  59  82
ATOM     82  C   UNL A   1      44.384  27.437  34.553  1.00  0.00     0.064 A 
ATOM     83  C   UNL A   1      45.633  28.055  34.717  1.00  0.00     0.173 A 
ATOM     84  C   UNL A   1      44.097  26.314  35.340  1.00  0.00     0.173 A 
ATOM     85  F   UNL A   1      45.960  29.122  33.971  1.00  0.00    -0.203 F 
ATOM     86  C   UNL A   1      46.564  27.558  35.625  1.00  0.00     0.198 A 
ATOM     87  C   UNL A   1      45.024  25.828  36.259  1.00  0.00     0.198 A 
ATOM     88  F   UNL A   1      42.918  25.686  35.217  1.00  0.00    -0.203 F 
ATOM     89  F   UNL A   1      47.764  28.143  35.739  1.00  0.00    -0.200 F 
ATOM     90  C   UNL A   1      46.258  26.447  36.397  1.00  0.00     0.200 A 
ATOM     91  F   UNL A   1      44.728  24.756  37.006  1.00  0.00    -0.200 F 
ATOM     92  F   UNL A   1      47.157  25.968  37.268  1.00  0.00    -0.200 F 
ENDBRANCH  59  82
ENDBRANCH  33  34
ENDBRANCH  26  28
ENDBRANCH  25  26
ENDBRANCH  24  25
ENDBRANCH   1  24
TORSDOF 13
ENDMDL
MODEL 2
REMARK VINA RESULT:     -12.7      0.505      1.673
REMARK SMILES Cc1nc(C(=O)N2C[C@@H]3CC[N@@H+](C)C[C@]3(C(=O)OCCOC(=O)c3ccc(-c4c5nc(c(-c6c(F)c(F)c(F)c(F)c6F)c6ccc([nH]6)c(-c6c(F)c(F)c(F)c(F)c6F)c6nc(c(-c7c(F)c(F)c(F)c(F)c7F)c7ccc4[nH]7)C=C6)C=C5)cc3)C2)cs1
REMARK SMILES IDX 19 1 18 2 16 3 17 4 15 5 7 6 8 7 87 8 9 9 10 10 14 11 11 12
REMARK SMILES IDX 12 13 13 14 5 16 6 17 4 18 1 19 2 20 3 21 89 22 88 23 20 24
REMARK SMILES IDX 21 25 22 26 23 27 24 28 25 29 86 30 26 31 85 32 27 33 28 34
REMARK SMILES IDX 29 35 79 36 30 37 84 38 78 39 80 40 31 41 83 42 77 43 76 44
REMARK SMILES IDX 32 46 64 47 44 48 63 49 45 50 48 51 62 52 81 53 46 54 47 55
REMARK SMILES IDX 61 57 82 58 49 59 33 60 34 61 42 62 35 63 36 64 40 65 43 66
REMARK SMILES IDX 37 67 38 68 41 69 39 70 65 71 66 72 74 73 67 74 68 75 72 76
REMARK SMILES IDX 75 77 69 78 70 79 73 80 71 81 50 82 51 83 59 84 52 85 53 86
REMARK SMILES IDX 57 87 60 88 54 89 55 90 58 91 56 92
REMARK H PARENT 12 15 80 45 48 56
REMARK Flexibility Score: inf
ROOT
ATOM      1  C   UNL A   1      31.592  27.398  27.143  1.00  0.00     0.274 C 
ENDROOT
BRANCH   1   2
ATOM      2  O   UNL A   1      30.739  27.074  26.011  1.00  0.00    -0.461 OA
BRANCH   2   3
ATOM      3  C   UNL A   1      30.452  25.756  25.707  1.00  0.00     0.320 C 
ATOM      4  O   UNL A   1      29.704  25.048  26.365  1.00  0.00    -0.251 OA
BRANCH   3   5
ATOM      5  C   UNL A   1      31.130  25.407  24.350  1.00  0.00     0.139 C 
ATOM      6  N   UNL A   1      31.739  27.172  22.831  1.00  0.00    -0.336 N 
ATOM      7  C   UNL A   1      32.870  26.311  22.862  1.00  0.00     0.125 C 
ATOM      8  C   UNL A   1      30.575  26.518  23.414  1.00  0.00     0.145 C 
ATOM      9  C   UNL A   1      32.692  25.450  24.108  1.00  0.00     0.039 C 
ATOM     10  C   UNL A   1      33.428  24.117  23.744  1.00  0.00     0.068 C 
ATOM     11  C   UNL A   1      30.760  23.926  24.149  1.00  0.00     0.283 C 
ATOM     12  C   UNL A   1      32.897  22.828  24.341  1.00  0.00     0.262 C 
ATOM     13  N   UNL A   1      31.612  23.024  24.987  1.00  0.00    -0.336 N 
ATOM     14  C   UNL A   1      31.885  23.432  26.378  1.00  0.00     0.332 C 
ATOM     15  H   UNL A   1      31.043  22.180  25.057  1.00  0.00     0.347 HD
BRANCH   6  16
ATOM     16  C   UNL A   1      31.926  28.543  22.749  1.00  0.00     0.273 C 
ATOM     17  O   UNL A   1      33.041  29.049  22.754  1.00  0.00    -0.267 OA
BRANCH  16  18
ATOM     18  C   UNL A   1      30.686  29.336  22.748  1.00  0.00     0.139 A 
ATOM     19  C   UNL A   1      27.967  30.797  20.774  1.00  0.00     0.079 C 
ATOM     20  C   UNL A   1      28.916  30.320  21.816  1.00  0.00     0.090 A 
ATOM     21  N   UNL A   1      29.945  29.535  21.581  1.00  0.00    -0.236 NA
ATOM     22  S   UNL A   1      28.719  30.798  23.454  1.00  0.00    -0.127 S 
ATOM     23  C   UNL A   1      30.147  29.943  23.867  1.00  0.00     0.101 A 
ENDBRANCH  16  18
ENDBRANCH   6  16
ENDBRANCH   3   5
ENDBRANCH   2   3
ENDBRANCH   1   2
BRANCH   1  24
ATOM     24  C   UNL A   1      31.553  28.934  27.417  1.00  0.00     0.275 C 
BRANCH  24  25
ATOM     25  O   UNL A   1      32.399  29.672  26.494  1.00  0.00    -0.458 OA
BRANCH  25  26
ATOM     26  C   UNL A   1      32.877  30.894  26.893  1.00  0.00     0.338 C 
ATOM     27  O   UNL A   1      32.233  31.931  26.908  1.00  0.00    -0.246 OA
BRANCH  26  28
ATOM     28  C   UNL A   1      34.291  30.790  27.406  1.00  0.00     0.060 A 
ATOM     29  C   UNL A   1      34.917  29.559  27.453  1.00  0.00     0.016 A 
ATOM     30  C   UNL A   1      34.996  31.873  27.941  1.00  0.00     0.016 A 
ATOM     31  C   UNL A   1      36.049  29.351  28.249  1.00  0.00     0.010 A 
ATOM     32  C   UNL A   1      36.257  31.682  28.576  1.00  0.00     0.010 A 
ATOM     33  C   UNL A   1      36.789  30.397  28.811  1.00  0.00    -0.014 A 
BRANCH  33  34
ATOM     34  C   UNL A   1      38.033  30.116  29.648  1.00  0.00     0.031 A 
ATOM     35  C   UNL A   1      39.230  29.381  29.067  1.00  0.00     0.074 A 
ATOM     36  C   UNL A   1      38.192  30.561  30.922  1.00  0.00     0.049 A 
ATOM     37  N   UNL A   1      40.222  28.785  29.691  1.00  0.00    -0.248 NA
ATOM     38  C   UNL A   1      39.326  29.296  27.603  1.00  0.00     0.031 C 
ATOM     39  C   UNL A   1      37.228  31.345  31.694  1.00  0.00     0.029 A 
ATOM     40  N   UNL A   1      39.264  30.453  31.794  1.00  0.00    -0.354 N 
ATOM     41  C   UNL A   1      40.972  28.145  28.710  1.00  0.00     0.074 A 
ATOM     42  C   UNL A   1      40.357  28.477  27.440  1.00  0.00     0.031 C 
ATOM     43  C   UNL A   1      37.796  31.775  32.828  1.00  0.00     0.029 A 
ATOM     44  C   UNL A   1      39.096  31.137  32.978  1.00  0.00     0.049 A 
ATOM     45  H   UNL A   1      40.073  29.934  31.584  1.00  0.00     0.167 HD
ATOM     46  C   UNL A   1      42.054  27.337  28.853  1.00  0.00     0.037 A 
ATOM     47  C   UNL A   1      39.843  31.201  34.102  1.00  0.00     0.037 A 
ATOM     48  C   UNL A   1      42.764  27.112  30.088  1.00  0.00     0.049 A 
ATOM     49  C   UNL A   1      41.056  30.327  34.245  1.00  0.00     0.074 A 
ATOM     50  C   UNL A   1      43.836  26.266  30.332  1.00  0.00     0.029 A 
ATOM     51  N   UNL A   1      42.517  27.785  31.272  1.00  0.00    -0.354 N 
ATOM     52  N   UNL A   1      41.608  29.529  33.368  1.00  0.00    -0.248 NA
ATOM     53  C   UNL A   1      41.708  30.309  35.566  1.00  0.00     0.031 C 
ATOM     54  C   UNL A   1      44.235  26.426  31.666  1.00  0.00     0.029 A 
ATOM     55  C   UNL A   1      43.428  27.390  32.242  1.00  0.00     0.049 A 
ATOM     56  H   UNL A   1      41.802  28.448  31.406  1.00  0.00     0.167 HD
ATOM     57  C   UNL A   1      42.646  28.895  34.034  1.00  0.00     0.074 A 
ATOM     58  C   UNL A   1      42.685  29.435  35.375  1.00  0.00     0.031 C 
ATOM     59  C   UNL A   1      43.472  27.924  33.577  1.00  0.00     0.037 A 
BRANCH  46  60
ATOM     60  C   UNL A   1      42.507  26.564  27.650  1.00  0.00     0.064 A 
ATOM     61  C   UNL A   1      43.539  27.005  26.811  1.00  0.00     0.173 A 
ATOM     62  C   UNL A   1      41.918  25.320  27.367  1.00  0.00     0.173 A 
ATOM     63  F   UNL A   1      44.128  28.189  27.032  1.00  0.00    -0.203 F 
ATOM     64  C   UNL A   1      43.947  26.240  25.720  1.00  0.00     0.198 A 
ATOM     65  C   UNL A   1      42.345  24.547  26.292  1.00  0.00     0.198 A 
ATOM     66  F   UNL A   1      40.935  24.844  28.149  1.00  0.00    -0.203 F 
ATOM     67  F   UNL A   1      44.909  26.698  24.906  1.00  0.00    -0.200 F 
ATOM     68  C   UNL A   1      43.355  25.010  25.465  1.00  0.00     0.200 A 
ATOM     69  F   UNL A   1      41.783  23.352  26.059  1.00  0.00    -0.200 F 
ATOM     70  F   UNL A   1      43.756  24.275  24.418  1.00  0.00    -0.200 F 
ENDBRANCH  46  60
BRANCH  47  71
ATOM     71  C   UNL A   1      39.407  32.056  35.244  1.00  0.00     0.064 A 
ATOM     72  C   UNL A   1      39.814  33.393  35.339  1.00  0.00     0.173 A 
ATOM     73  C   UNL A   1      38.588  31.553  36.267  1.00  0.00     0.173 A 
ATOM     74  F   UNL A   1      40.635  33.911  34.412  1.00  0.00    -0.203 F 
ATOM     75  C   UNL A   1      39.413  34.195  36.406  1.00  0.00     0.198 A 
ATOM     76  C   UNL A   1      38.155  32.366  37.312  1.00  0.00     0.198 A 
ATOM     77  F   UNL A   1      38.185  30.274  36.237  1.00  0.00    -0.203 F 
ATOM     78  F   UNL A   1      39.851  35.459  36.495  1.00  0.00    -0.200 F 
ATOM     79  C   UNL A   1      38.572  33.684  37.384  1.00  0.00     0.200 A 
ATOM     80  F   UNL A   1      37.331  31.870  38.244  1.00  0.00    -0.200 F 
ATOM     81  F   UNL A   1      38.171  34.461  38.399  1.00  0.00    -0.200 F 
ENDBRANCH  47  71
BRANCH  59  82
ATOM     82  C   UNL A   1      44.491  27.382  34.532  1.00  0.00     0.064 A 
ATOM     83  C   UNL A   1      44.215  26.261  35.328  1.00  0.00     0.173 A 
ATOM     84  C   UNL A   1      45.756  27.974  34.643  1.00  0.00     0.173 A 
ATOM     85  F   UNL A   1      43.011  25.672  35.270  1.00  0.00    -0.203 F 
ATOM     86  C   UNL A   1      45.166  25.761  36.215  1.00  0.00     0.198 A 
ATOM     87  C   UNL A   1      46.711  27.463  35.519  1.00  0.00     0.198 A 
ATOM     88  F   UNL A   1      46.066  29.050  33.904  1.00  0.00    -0.203 F 
ATOM     89  F   UNL A   1      44.868  24.711  36.992  1.00  0.00    -0.200 F 
ATOM     90  C   UNL A   1      46.413  26.360  36.307  1.00  0.00     0.200 A 
ATOM     91  F   UNL A   1      47.916  28.041  35.608  1.00  0.00    -0.200 F 
ATOM     92  F   UNL A   1      47.326  25.880  37.163  1.00  0.00    -0.200 F 
ENDBRANCH  59  82
ENDBRANCH  33  34
ENDBRANCH  26  28
ENDBRANCH  25  26
ENDBRANCH  24  25
ENDBRANCH   1  24
TORSDOF 13
ENDMDL
MODEL 3
REMARK VINA RESULT:     -12.4      4.666      9.961
REMARK SMILES Cc1nc(C(=O)N2C[C@@H]3CC[N@@H+](C)C[C@]3(C(=O)OCCOC(=O)c3ccc(-c4c5nc(c(-c6c(F)c(F)c(F)c(F)c6F)c6ccc([nH]6)c(-c6c(F)c(F)c(F)c(F)c6F)c6nc(c(-c7c(F)c(F)c(F)c(F)c7F)c7ccc4[nH]7)C=C6)C=C5)cc3)C2)cs1
REMARK SMILES IDX 19 1 18 2 16 3 17 4 15 5 7 6 8 7 87 8 9 9 10 10 14 11 11 12
REMARK SMILES IDX 12 13 13 14 5 16 6 17 4 18 1 19 2 20 3 21 89 22 88 23 20 24
REMARK SMILES IDX 21 25 22 26 23 27 24 28 25 29 86 30 26 31 85 32 27 33 28 34
REMARK SMILES IDX 29 35 79 36 30 37 84 38 78 39 80 40 31 41 83 42 77 43 76 44
REMARK SMILES IDX 32 46 64 47 44 48 63 49 45 50 48 51 62 52 81 53 46 54 47 55
REMARK SMILES IDX 61 57 82 58 49 59 33 60 34 61 42 62 35 63 36 64 40 65 43 66
REMARK SMILES IDX 37 67 38 68 41 69 39 70 65 71 66 72 74 73 67 74 68 75 72 76
REMARK SMILES IDX 75 77 69 78 70 79 73 80 71 81 50 82 51 83 59 84 52 85 53 86
REMARK SMILES IDX 57 87 60 88 54 89 55 90 58 91 56 92
REMARK H PARENT 12 15 80 45 48 56
REMARK Flexibility Score: inf
ROOT
ATOM      1  C   UNL A   1      35.914  23.168  23.443  1.00  0.00     0.274 C 
ENDROOT
BRANCH   1   2
ATOM      2  O   UNL A   1      34.674  23.697  23.989  1.00  0.00    -0.461 OA
BRANCH   2   3
ATOM      3  C   UNL A   1      33.583  23.911  23.166  1.00  0.00     0.320 C 
ATOM      4  O   UNL A   1      33.663  24.300  22.012  1.00  0.00    -0.251 OA
BRANCH   3   5
ATOM      5  C   UNL A   1      32.303  23.450  23.921  1.00  0.00     0.139 C 
ATOM      6  N   UNL A   1      32.385  21.502  25.333  1.00  0.00    -0.336 N 
ATOM      7  C   UNL A   1      31.684  22.475  26.095  1.00  0.00     0.125 C 
ATOM      8  C   UNL A   1      32.472  21.903  23.935  1.00  0.00     0.145 C 
ATOM      9  C   UNL A   1      31.989  23.812  25.428  1.00  0.00     0.039 C 
ATOM     10  C   UNL A   1      30.722  24.678  25.740  1.00  0.00     0.068 C 
ATOM     11  C   UNL A   1      31.170  24.129  23.129  1.00  0.00     0.283 C 
ATOM     12  C   UNL A   1      30.308  25.721  24.720  1.00  0.00     0.262 C 
ATOM     13  N   UNL A   1      31.045  25.579  23.477  1.00  0.00    -0.336 N 
ATOM     14  C   UNL A   1      32.286  26.363  23.618  1.00  0.00     0.332 C 
ATOM     15  H   UNL A   1      30.570  25.965  22.660  1.00  0.00     0.347 HD
BRANCH   6  16
ATOM     16  C   UNL A   1      33.259  20.635  25.969  1.00  0.00     0.273 C 
ATOM     17  O   UNL A   1      34.044  21.017  26.828  1.00  0.00    -0.267 OA
BRANCH  16  18
ATOM     18  C   UNL A   1      33.232  19.251  25.467  1.00  0.00     0.139 A 
ATOM     19  C   UNL A   1      34.124  16.937  22.770  1.00  0.00     0.079 C 
ATOM     20  C   UNL A   1      33.655  17.623  24.005  1.00  0.00     0.090 A 
ATOM     21  N   UNL A   1      33.866  18.893  24.275  1.00  0.00    -0.236 NA
ATOM     22  S   UNL A   1      32.765  16.759  25.193  1.00  0.00    -0.127 S 
ATOM     23  C   UNL A   1      32.598  18.201  26.105  1.00  0.00     0.101 A 
ENDBRANCH  16  18
ENDBRANCH   6  16
ENDBRANCH   3   5
ENDBRANCH   2   3
ENDBRANCH   1   2
BRANCH   1  24
ATOM     24  C   UNL A   1      36.263  21.811  24.130  1.00  0.00     0.275 C 
BRANCH  24  25
ATOM     25  O   UNL A   1      36.765  22.000  25.481  1.00  0.00    -0.458 OA
BRANCH  25  26
ATOM     26  C   UNL A   1      38.063  21.642  25.742  1.00  0.00     0.338 C 
ATOM     27  O   UNL A   1      38.597  20.608  25.372  1.00  0.00    -0.246 OA
BRANCH  26  28
ATOM     28  C   UNL A   1      38.797  22.734  26.479  1.00  0.00     0.060 A 
ATOM     29  C   UNL A   1      38.299  24.022  26.473  1.00  0.00     0.016 A 
ATOM     30  C   UNL A   1      40.032  22.542  27.106  1.00  0.00     0.016 A 
ATOM     31  C   UNL A   1      39.109  25.115  26.804  1.00  0.00     0.010 A 
ATOM     32  C   UNL A   1      40.765  23.645  27.629  1.00  0.00     0.010 A 
ATOM     33  C   UNL A   1      40.354  24.979  27.429  1.00  0.00    -0.014 A 
BRANCH  33  34
ATOM     34  C   UNL A   1      41.185  26.205  27.795  1.00  0.00     0.031 A 
ATOM     35  C   UNL A   1      40.671  27.247  28.775  1.00  0.00     0.074 A 
ATOM     36  C   UNL A   1      42.449  26.412  27.342  1.00  0.00     0.049 A 
ATOM     37  N   UNL A   1      41.081  28.482  28.966  1.00  0.00    -0.248 NA
ATOM     38  C   UNL A   1      39.554  26.862  29.648  1.00  0.00     0.031 C 
ATOM     39  C   UNL A   1      43.204  25.537  26.446  1.00  0.00     0.029 A 
ATOM     40  N   UNL A   1      43.357  27.422  27.618  1.00  0.00    -0.354 N 
ATOM     41  C   UNL A   1      40.191  29.053  29.869  1.00  0.00     0.074 A 
ATOM     42  C   UNL A   1      39.255  28.012  30.239  1.00  0.00     0.031 C 
ATOM     43  C   UNL A   1      44.477  25.948  26.375  1.00  0.00     0.029 A 
ATOM     44  C   UNL A   1      44.599  27.231  27.052  1.00  0.00     0.049 A 
ATOM     45  H   UNL A   1      43.134  28.206  28.169  1.00  0.00     0.167 HD
ATOM     46  C   UNL A   1      40.143  30.331  30.328  1.00  0.00     0.037 A 
ATOM     47  C   UNL A   1      45.701  28.010  26.998  1.00  0.00     0.037 A 
ATOM     48  C   UNL A   1      41.146  31.339  30.086  1.00  0.00     0.049 A 
ATOM     49  C   UNL A   1      45.653  29.413  27.533  1.00  0.00     0.074 A 
ATOM     50  C   UNL A   1      41.147  32.672  30.468  1.00  0.00     0.029 A 
ATOM     51  N   UNL A   1      42.357  31.108  29.457  1.00  0.00    -0.354 N 
ATOM     52  N   UNL A   1      44.688  30.019  28.175  1.00  0.00    -0.248 NA
ATOM     53  C   UNL A   1      46.824  30.265  27.268  1.00  0.00     0.031 C 
ATOM     54  C   UNL A   1      42.359  33.249  30.066  1.00  0.00     0.029 A 
ATOM     55  C   UNL A   1      43.121  32.267  29.458  1.00  0.00     0.049 A 
ATOM     56  H   UNL A   1      42.637  30.249  29.067  1.00  0.00     0.167 HD
ATOM     57  C   UNL A   1      45.120  31.324  28.364  1.00  0.00     0.074 A 
ATOM     58  C   UNL A   1      46.456  31.413  27.815  1.00  0.00     0.031 C 
ATOM     59  C   UNL A   1      44.449  32.362  28.915  1.00  0.00     0.037 A 
BRANCH  46  60
ATOM     60  C   UNL A   1      38.919  30.749  31.090  1.00  0.00     0.064 A 
ATOM     61  C   UNL A   1      38.849  30.711  32.488  1.00  0.00     0.173 A 
ATOM     62  C   UNL A   1      37.808  31.249  30.389  1.00  0.00     0.173 A 
ATOM     63  F   UNL A   1      39.878  30.235  33.203  1.00  0.00    -0.203 F 
ATOM     64  C   UNL A   1      37.701  31.136  33.156  1.00  0.00     0.198 A 
ATOM     65  C   UNL A   1      36.675  31.696  31.060  1.00  0.00     0.198 A 
ATOM     66  F   UNL A   1      37.831  31.320  29.049  1.00  0.00    -0.203 F 
ATOM     67  F   UNL A   1      37.638  31.055  34.492  1.00  0.00    -0.200 F 
ATOM     68  C   UNL A   1      36.619  31.634  32.443  1.00  0.00     0.200 A 
ATOM     69  F   UNL A   1      35.638  32.192  30.368  1.00  0.00    -0.200 F 
ATOM     70  F   UNL A   1      35.520  32.047  33.090  1.00  0.00    -0.200 F 
ENDBRANCH  46  60
BRANCH  47  71
ATOM     71  C   UNL A   1      46.932  27.522  26.311  1.00  0.00     0.064 A 
ATOM     72  C   UNL A   1      47.077  27.641  24.923  1.00  0.00     0.173 A 
ATOM     73  C   UNL A   1      47.980  26.918  27.024  1.00  0.00     0.173 A 
ATOM     74  F   UNL A   1      46.086  28.168  24.188  1.00  0.00    -0.203 F 
ATOM     75  C   UNL A   1      48.224  27.182  24.276  1.00  0.00     0.198 A 
ATOM     76  C   UNL A   1      49.142  26.497  26.382  1.00  0.00     0.198 A 
ATOM     77  F   UNL A   1      47.885  26.761  28.353  1.00  0.00    -0.203 F 
ATOM     78  F   UNL A   1      48.319  27.270  22.941  1.00  0.00    -0.200 F 
ATOM     79  C   UNL A   1      49.261  26.624  25.008  1.00  0.00     0.200 A 
ATOM     80  F   UNL A   1      50.146  25.973  27.098  1.00  0.00    -0.200 F 
ATOM     81  F   UNL A   1      50.371  26.202  24.388  1.00  0.00    -0.200 F 
ENDBRANCH  47  71
BRANCH  59  82
ATOM     82  C   UNL A   1      45.147  33.687  28.957  1.00  0.00     0.064 A 
ATOM     83  C   UNL A   1      44.991  34.623  27.923  1.00  0.00     0.173 A 
ATOM     84  C   UNL A   1      45.964  34.034  30.042  1.00  0.00     0.173 A 
ATOM     85  F   UNL A   1      44.234  34.327  26.856  1.00  0.00    -0.203 F 
ATOM     86  C   UNL A   1      45.643  35.853  27.966  1.00  0.00     0.198 A 
ATOM     87  C   UNL A   1      46.602  35.271  30.090  1.00  0.00     0.198 A 
ATOM     88  F   UNL A   1      46.146  33.172  31.053  1.00  0.00    -0.203 F 
ATOM     89  F   UNL A   1      45.508  36.716  26.950  1.00  0.00    -0.200 F 
ATOM     90  C   UNL A   1      46.444  36.177  29.051  1.00  0.00     0.200 A 
ATOM     91  F   UNL A   1      47.375  35.586  31.138  1.00  0.00    -0.200 F 
ATOM     92  F   UNL A   1      47.073  37.361  29.089  1.00  0.00    -0.200 F 
ENDBRANCH  59  82
ENDBRANCH  33  34
ENDBRANCH  26  28
ENDBRANCH  25  26
ENDBRANCH  24  25
ENDBRANCH   1  24
TORSDOF 13
ENDMDL
