MODEL 1
REMARK VINA RESULT:     -11.1      0.000      0.000
REMARK SMILES CC[C@](C)(NC(=O)NC[C@@H](C)[NH+](C)C)C(=O)OCCOC(=O)c1ccc(-c2c3nc(c(-c4c(F)c(F)c(F)c(F)c4F)c4ccc([nH]4)c(-c4c(F)c(F)c(F)c(F)c4F)c4nc(c(-c5c(F)c(F)c(F)c(F)c5F)c5ccc2[nH]5)C=C4)C=C3)cc1
REMARK SMILES IDX 18 1 17 2 15 3 16 4 3 5 4 6 2 7 1 8 5 9 6 10 7 12 8 13 9 15
REMARK SMILES IDX 10 16 11 17 12 18 13 19 14 20 19 22 20 23 21 24 22 25 23 26
REMARK SMILES IDX 24 27 85 28 25 29 84 30 26 31 27 32 28 33 78 34 29 35 83 36
REMARK SMILES IDX 77 37 79 38 30 39 82 40 76 41 75 42 31 44 63 45 43 46 62 47
REMARK SMILES IDX 44 48 47 49 61 50 80 51 45 52 46 53 60 55 81 56 48 57 32 58
REMARK SMILES IDX 33 59 41 60 34 61 35 62 39 63 42 64 36 65 37 66 40 67 38 68
REMARK SMILES IDX 64 69 65 70 73 71 66 72 67 73 71 74 74 75 68 76 69 77 72 78
REMARK SMILES IDX 70 79 49 80 50 81 58 82 51 83 52 84 56 85 59 86 53 87 54 88
REMARK SMILES IDX 57 89 55 90
REMARK H PARENT 5 11 8 14 12 21 79 43 47 54
REMARK Flexibility Score: inf
ROOT
ATOM      1  C   UNL A   1      31.924  28.302  26.731  1.00  0.00     0.274 C 
ENDROOT
BRANCH   1   2
ATOM      2  O   UNL A   1      31.377  27.921  25.444  1.00  0.00    -0.460 OA
BRANCH   2   3
ATOM      3  C   UNL A   1      32.244  27.516  24.469  1.00  0.00     0.331 C 
ATOM      4  O   UNL A   1      33.345  27.038  24.718  1.00  0.00    -0.249 OA
BRANCH   3   5
ATOM      5  C   UNL A   1      31.653  27.721  23.019  1.00  0.00     0.136 C 
ATOM      6  C   UNL A   1      31.726  29.251  22.766  1.00  0.00     0.047 C 
BRANCH   5   7
ATOM      7  C   UNL A   1      30.155  27.326  22.823  1.00  0.00     0.037 C 
ATOM      8  C   UNL A   1      29.135  28.447  22.915  1.00  0.00     0.007 C 
ENDBRANCH   5   7
BRANCH   5   9
ATOM      9  N   UNL A   1      32.464  27.048  21.960  1.00  0.00    -0.322 N 
ATOM     10  C   UNL A   1      32.470  25.825  21.397  1.00  0.00     0.315 C 
ATOM     11  H   UNL A   1      33.159  27.638  21.587  1.00  0.00     0.166 HD
ATOM     12  O   UNL A   1      33.086  25.683  20.339  1.00  0.00    -0.249 OA
ATOM     13  N   UNL A   1      31.836  24.751  21.913  1.00  0.00    -0.332 N 
ATOM     14  H   UNL A   1      31.595  24.047  21.268  1.00  0.00     0.165 HD
BRANCH  13  15
ATOM     15  C   UNL A   1      31.466  24.500  23.285  1.00  0.00     0.182 C 
BRANCH  15  16
ATOM     16  C   UNL A   1      32.257  23.462  24.110  1.00  0.00     0.200 C 
ATOM     17  C   UNL A   1      32.603  22.277  23.194  1.00  0.00     0.077 C 
BRANCH  16  18
ATOM     18  N   UNL A   1      33.438  24.085  24.778  1.00  0.00    -0.336 N 
ATOM     19  C   UNL A   1      33.491  23.835  26.215  1.00  0.00     0.332 C 
ATOM     20  C   UNL A   1      34.748  23.814  24.190  1.00  0.00     0.332 C 
ATOM     21  H   UNL A   1      33.255  25.073  24.606  1.00  0.00     0.347 HD
ENDBRANCH  16  18
ENDBRANCH  15  16
ENDBRANCH  13  15
ENDBRANCH   5   9
ENDBRANCH   3   5
ENDBRANCH   2   3
ENDBRANCH   1   2
BRANCH   1  22
ATOM     22  C   UNL A   1      31.986  29.835  26.826  1.00  0.00     0.275 C 
BRANCH  22  23
ATOM     23  O   UNL A   1      33.326  30.273  26.572  1.00  0.00    -0.458 OA
BRANCH  23  24
ATOM     24  C   UNL A   1      33.641  31.389  27.270  1.00  0.00     0.338 C 
ATOM     25  O   UNL A   1      32.881  32.249  27.668  1.00  0.00    -0.246 OA
BRANCH  24  26
ATOM     26  C   UNL A   1      34.994  31.157  27.803  1.00  0.00     0.060 A 
ATOM     27  C   UNL A   1      35.363  29.825  28.014  1.00  0.00     0.016 A 
ATOM     28  C   UNL A   1      35.906  32.194  27.983  1.00  0.00     0.016 A 
ATOM     29  C   UNL A   1      36.643  29.508  28.435  1.00  0.00     0.010 A 
ATOM     30  C   UNL A   1      37.181  31.888  28.444  1.00  0.00     0.010 A 
ATOM     31  C   UNL A   1      37.530  30.549  28.709  1.00  0.00    -0.014 A 
BRANCH  31  32
ATOM     32  C   UNL A   1      38.697  30.286  29.566  1.00  0.00     0.031 A 
ATOM     33  C   UNL A   1      39.727  29.349  29.011  1.00  0.00     0.074 A 
ATOM     34  C   UNL A   1      38.819  30.858  30.772  1.00  0.00     0.049 A 
ATOM     35  N   UNL A   1      40.699  28.727  29.615  1.00  0.00    -0.248 NA
ATOM     36  C   UNL A   1      39.625  29.052  27.570  1.00  0.00     0.031 C 
ATOM     37  C   UNL A   1      37.913  31.859  31.331  1.00  0.00     0.029 A 
ATOM     38  N   UNL A   1      39.749  30.652  31.753  1.00  0.00    -0.354 N 
ATOM     39  C   UNL A   1      41.285  27.926  28.643  1.00  0.00     0.074 A 
ATOM     40  C   UNL A   1      40.565  28.136  27.411  1.00  0.00     0.031 C 
ATOM     41  C   UNL A   1      38.318  32.161  32.578  1.00  0.00     0.029 A 
ATOM     42  C   UNL A   1      39.465  31.324  32.916  1.00  0.00     0.049 A 
ATOM     43  H   UNL A   1      40.543  30.081  31.637  1.00  0.00     0.167 HD
ATOM     44  C   UNL A   1      42.330  27.081  28.789  1.00  0.00     0.037 A 
ATOM     45  C   UNL A   1      40.046  31.213  34.125  1.00  0.00     0.037 A 
ATOM     46  C   UNL A   1      43.031  26.925  30.032  1.00  0.00     0.049 A 
ATOM     47  C   UNL A   1      41.179  30.231  34.277  1.00  0.00     0.074 A 
ATOM     48  C   UNL A   1      44.101  26.103  30.329  1.00  0.00     0.029 A 
ATOM     49  N   UNL A   1      42.723  27.627  31.192  1.00  0.00    -0.354 N 
ATOM     50  N   UNL A   1      41.705  29.427  33.380  1.00  0.00    -0.248 NA
ATOM     51  C   UNL A   1      41.792  30.128  35.606  1.00  0.00     0.031 C 
ATOM     52  C   UNL A   1      44.414  26.279  31.681  1.00  0.00     0.029 A 
ATOM     53  C   UNL A   1      43.576  27.250  32.212  1.00  0.00     0.049 A 
ATOM     54  H   UNL A   1      42.004  28.293  31.275  1.00  0.00     0.167 HD
ATOM     55  C   UNL A   1      42.724  28.742  34.026  1.00  0.00     0.074 A 
ATOM     56  C   UNL A   1      42.751  29.239  35.389  1.00  0.00     0.031 C 
ATOM     57  C   UNL A   1      43.565  27.790  33.549  1.00  0.00     0.037 A 
BRANCH  44  58
ATOM     58  C   UNL A   1      42.723  26.247  27.605  1.00  0.00     0.064 A 
ATOM     59  C   UNL A   1      42.116  25.014  27.325  1.00  0.00     0.173 A 
ATOM     60  C   UNL A   1      43.732  26.691  26.736  1.00  0.00     0.173 A 
ATOM     61  F   UNL A   1      41.166  24.528  28.138  1.00  0.00    -0.203 F 
ATOM     62  C   UNL A   1      42.519  24.247  26.233  1.00  0.00     0.198 A 
ATOM     63  C   UNL A   1      44.112  25.936  25.629  1.00  0.00     0.198 A 
ATOM     64  F   UNL A   1      44.356  27.856  26.963  1.00  0.00    -0.203 F 
ATOM     65  F   UNL A   1      41.961  23.048  26.015  1.00  0.00    -0.200 F 
ATOM     66  C   UNL A   1      43.510  24.712  25.381  1.00  0.00     0.200 A 
ATOM     67  F   UNL A   1      45.066  26.391  24.805  1.00  0.00    -0.200 F 
ATOM     68  F   UNL A   1      43.892  23.976  24.329  1.00  0.00    -0.200 F 
ENDBRANCH  44  58
BRANCH  45  69
ATOM     69  C   UNL A   1      39.542  32.010  35.275  1.00  0.00     0.064 A 
ATOM     70  C   UNL A   1      39.963  33.331  35.482  1.00  0.00     0.173 A 
ATOM     71  C   UNL A   1      38.624  31.473  36.192  1.00  0.00     0.173 A 
ATOM     72  F   UNL A   1      40.856  33.886  34.649  1.00  0.00    -0.203 F 
ATOM     73  C   UNL A   1      39.501  34.076  36.566  1.00  0.00     0.198 A 
ATOM     74  C   UNL A   1      38.138  32.229  37.258  1.00  0.00     0.198 A 
ATOM     75  F   UNL A   1      38.186  30.214  36.045  1.00  0.00    -0.203 F 
ATOM     76  F   UNL A   1      39.957  35.321  36.763  1.00  0.00    -0.200 F 
ATOM     77  C   UNL A   1      38.583  33.528  37.448  1.00  0.00     0.200 A 
ATOM     78  F   UNL A   1      37.239  31.699  38.098  1.00  0.00    -0.200 F 
ATOM     79  F   UNL A   1      38.132  34.247  38.486  1.00  0.00    -0.200 F 
ENDBRANCH  45  69
BRANCH  57  80
ATOM     80  C   UNL A   1      44.603  27.269  34.497  1.00  0.00     0.064 A 
ATOM     81  C   UNL A   1      44.380  26.125  35.275  1.00  0.00     0.173 A 
ATOM     82  C   UNL A   1      45.852  27.899  34.586  1.00  0.00     0.173 A 
ATOM     83  F   UNL A   1      43.194  25.497  35.230  1.00  0.00    -0.203 F 
ATOM     84  C   UNL A   1      45.364  25.647  36.134  1.00  0.00     0.198 A 
ATOM     85  C   UNL A   1      46.845  27.399  35.420  1.00  0.00     0.198 A 
ATOM     86  F   UNL A   1      46.113  28.991  33.849  1.00  0.00    -0.203 F 
ATOM     87  F   UNL A   1      45.115  24.582  36.908  1.00  0.00    -0.200 F 
ATOM     88  C   UNL A   1      46.598  26.280  36.199  1.00  0.00     0.200 A 
ATOM     89  F   UNL A   1      48.041  28.001  35.469  1.00  0.00    -0.200 F 
ATOM     90  F   UNL A   1      47.546  25.812  37.021  1.00  0.00    -0.200 F 
ENDBRANCH  57  80
ENDBRANCH  31  32
ENDBRANCH  24  26
ENDBRANCH  23  24
ENDBRANCH  22  23
ENDBRANCH   1  22
TORSDOF 16
ENDMDL
MODEL 2
REMARK VINA RESULT:     -11.0      1.319      2.114
REMARK SMILES CC[C@](C)(NC(=O)NC[C@@H](C)[NH+](C)C)C(=O)OCCOC(=O)c1ccc(-c2c3nc(c(-c4c(F)c(F)c(F)c(F)c4F)c4ccc([nH]4)c(-c4c(F)c(F)c(F)c(F)c4F)c4nc(c(-c5c(F)c(F)c(F)c(F)c5F)c5ccc2[nH]5)C=C4)C=C3)cc1
REMARK SMILES IDX 18 1 17 2 15 3 16 4 3 5 4 6 2 7 1 8 5 9 6 10 7 12 8 13 9 15
REMARK SMILES IDX 10 16 11 17 12 18 13 19 14 20 19 22 20 23 21 24 22 25 23 26
REMARK SMILES IDX 24 27 85 28 25 29 84 30 26 31 27 32 28 33 78 34 29 35 83 36
REMARK SMILES IDX 77 37 79 38 30 39 82 40 76 41 75 42 31 44 63 45 43 46 62 47
REMARK SMILES IDX 44 48 47 49 61 50 80 51 45 52 46 53 60 55 81 56 48 57 32 58
REMARK SMILES IDX 33 59 41 60 34 61 35 62 39 63 42 64 36 65 37 66 40 67 38 68
REMARK SMILES IDX 64 69 65 70 73 71 66 72 67 73 71 74 74 75 68 76 69 77 72 78
REMARK SMILES IDX 70 79 49 80 50 81 58 82 51 83 52 84 56 85 59 86 53 87 54 88
REMARK SMILES IDX 57 89 55 90
REMARK H PARENT 5 11 8 14 12 21 79 43 47 54
REMARK Flexibility Score: inf
ROOT
ATOM      1  C   UNL A   1      32.591  29.094  25.473  1.00  0.00     0.274 C 
ENDROOT
BRANCH   1   2
ATOM      2  O   UNL A   1      31.439  28.217  25.498  1.00  0.00    -0.460 OA
BRANCH   2   3
ATOM      3  C   UNL A   1      31.388  27.243  26.454  1.00  0.00     0.331 C 
ATOM      4  O   UNL A   1      31.299  27.493  27.651  1.00  0.00    -0.249 OA
BRANCH   3   5
ATOM      5  C   UNL A   1      31.442  25.791  25.835  1.00  0.00     0.136 C 
ATOM      6  C   UNL A   1      32.906  25.316  26.046  1.00  0.00     0.047 C 
BRANCH   5   7
ATOM      7  C   UNL A   1      31.176  25.687  24.300  1.00  0.00     0.037 C 
ATOM      8  C   UNL A   1      29.734  25.824  23.845  1.00  0.00     0.007 C 
ENDBRANCH   5   7
BRANCH   5   9
ATOM      9  N   UNL A   1      30.547  24.825  26.539  1.00  0.00    -0.322 N 
ATOM     10  C   UNL A   1      30.521  23.487  26.692  1.00  0.00     0.315 C 
ATOM     11  H   UNL A   1      29.798  25.271  26.997  1.00  0.00     0.166 HD
ATOM     12  O   UNL A   1      29.803  23.025  27.581  1.00  0.00    -0.249 OA
ATOM     13  N   UNL A   1      31.239  22.625  25.943  1.00  0.00    -0.332 N 
ATOM     14  H   UNL A   1      31.434  21.755  26.361  1.00  0.00     0.165 HD
BRANCH  13  15
ATOM     15  C   UNL A   1      31.759  22.812  24.609  1.00  0.00     0.182 C 
BRANCH  15  16
ATOM     16  C   UNL A   1      32.621  21.704  23.966  1.00  0.00     0.200 C 
ATOM     17  C   UNL A   1      32.014  21.350  22.599  1.00  0.00     0.077 C 
BRANCH  16  18
ATOM     18  N   UNL A   1      34.060  22.096  23.914  1.00  0.00    -0.336 N 
ATOM     19  C   UNL A   1      34.302  23.314  23.147  1.00  0.00     0.332 C 
ATOM     20  C   UNL A   1      34.770  22.177  25.188  1.00  0.00     0.332 C 
ATOM     21  H   UNL A   1      34.459  21.296  23.424  1.00  0.00     0.347 HD
ENDBRANCH  16  18
ENDBRANCH  15  16
ENDBRANCH  13  15
ENDBRANCH   5   9
ENDBRANCH   3   5
ENDBRANCH   2   3
ENDBRANCH   1   2
BRANCH   1  22
ATOM     22  C   UNL A   1      32.220  30.443  26.112  1.00  0.00     0.275 C 
BRANCH  22  23
ATOM     23  O   UNL A   1      32.877  30.565  27.379  1.00  0.00    -0.458 OA
BRANCH  23  24
ATOM     24  C   UNL A   1      33.502  31.759  27.518  1.00  0.00     0.338 C 
ATOM     25  O   UNL A   1      32.989  32.859  27.554  1.00  0.00    -0.246 OA
BRANCH  24  26
ATOM     26  C   UNL A   1      34.850  31.447  28.022  1.00  0.00     0.060 A 
ATOM     27  C   UNL A   1      35.085  30.122  28.400  1.00  0.00     0.016 A 
ATOM     28  C   UNL A   1      35.877  32.388  28.020  1.00  0.00     0.016 A 
ATOM     29  C   UNL A   1      36.345  29.719  28.809  1.00  0.00     0.010 A 
ATOM     30  C   UNL A   1      37.134  32.003  28.467  1.00  0.00     0.010 A 
ATOM     31  C   UNL A   1      37.353  30.680  28.900  1.00  0.00    -0.014 A 
BRANCH  31  32
ATOM     32  C   UNL A   1      38.530  30.402  29.736  1.00  0.00     0.031 A 
ATOM     33  C   UNL A   1      39.548  29.466  29.156  1.00  0.00     0.074 A 
ATOM     34  C   UNL A   1      38.672  30.959  30.947  1.00  0.00     0.049 A 
ATOM     35  N   UNL A   1      40.525  28.833  29.739  1.00  0.00    -0.248 NA
ATOM     36  C   UNL A   1      39.423  29.186  27.713  1.00  0.00     0.031 C 
ATOM     37  C   UNL A   1      37.780  31.958  31.531  1.00  0.00     0.029 A 
ATOM     38  N   UNL A   1      39.616  30.737  31.912  1.00  0.00    -0.354 N 
ATOM     39  C   UNL A   1      41.093  28.040  28.750  1.00  0.00     0.074 A 
ATOM     40  C   UNL A   1      40.356  28.267  27.530  1.00  0.00     0.031 C 
ATOM     41  C   UNL A   1      38.204  32.244  32.774  1.00  0.00     0.029 A 
ATOM     42  C   UNL A   1      39.352  31.398  33.087  1.00  0.00     0.049 A 
ATOM     43  H   UNL A   1      40.405  30.164  31.779  1.00  0.00     0.167 HD
ATOM     44  C   UNL A   1      42.136  27.189  28.871  1.00  0.00     0.037 A 
ATOM     45  C   UNL A   1      39.950  31.271  34.286  1.00  0.00     0.037 A 
ATOM     46  C   UNL A   1      42.854  27.015  30.102  1.00  0.00     0.049 A 
ATOM     47  C   UNL A   1      41.080  30.281  34.410  1.00  0.00     0.074 A 
ATOM     48  C   UNL A   1      43.925  26.185  30.374  1.00  0.00     0.029 A 
ATOM     49  N   UNL A   1      42.567  27.705  31.274  1.00  0.00    -0.354 N 
ATOM     50  N   UNL A   1      41.588  29.485  33.496  1.00  0.00    -0.248 NA
ATOM     51  C   UNL A   1      41.711  30.160  35.729  1.00  0.00     0.031 C 
ATOM     52  C   UNL A   1      44.258  26.344  31.723  1.00  0.00     0.029 A 
ATOM     53  C   UNL A   1      43.432  27.313  32.277  1.00  0.00     0.049 A 
ATOM     54  H   UNL A   1      41.852  28.374  31.375  1.00  0.00     0.167 HD
ATOM     55  C   UNL A   1      42.614  28.789  34.120  1.00  0.00     0.074 A 
ATOM     56  C   UNL A   1      42.663  29.269  35.488  1.00  0.00     0.031 C 
ATOM     57  C   UNL A   1      43.443  27.838  33.620  1.00  0.00     0.037 A 
BRANCH  44  58
ATOM     58  C   UNL A   1      42.508  26.366  27.672  1.00  0.00     0.064 A 
ATOM     59  C   UNL A   1      41.885  25.143  27.383  1.00  0.00     0.173 A 
ATOM     60  C   UNL A   1      43.512  26.811  26.798  1.00  0.00     0.173 A 
ATOM     61  F   UNL A   1      40.939  24.656  28.200  1.00  0.00    -0.203 F 
ATOM     62  C   UNL A   1      42.268  24.386  26.277  1.00  0.00     0.198 A 
ATOM     63  C   UNL A   1      43.872  26.066  25.677  1.00  0.00     0.198 A 
ATOM     64  F   UNL A   1      44.150  27.967  27.033  1.00  0.00    -0.203 F 
ATOM     65  F   UNL A   1      41.696  23.195  26.050  1.00  0.00    -0.200 F 
ATOM     66  C   UNL A   1      43.255  24.852  25.420  1.00  0.00     0.200 A 
ATOM     67  F   UNL A   1      44.822  26.523  24.849  1.00  0.00    -0.200 F 
ATOM     68  F   UNL A   1      43.618  24.126  24.355  1.00  0.00    -0.200 F 
ENDBRANCH  44  58
BRANCH  45  69
ATOM     69  C   UNL A   1      39.466  32.057  35.452  1.00  0.00     0.064 A 
ATOM     70  C   UNL A   1      39.912  33.367  35.678  1.00  0.00     0.173 A 
ATOM     71  C   UNL A   1      38.544  31.521  36.365  1.00  0.00     0.173 A 
ATOM     72  F   UNL A   1      40.810  33.919  34.849  1.00  0.00    -0.203 F 
ATOM     73  C   UNL A   1      39.470  34.102  36.777  1.00  0.00     0.198 A 
ATOM     74  C   UNL A   1      38.077  32.268  37.446  1.00  0.00     0.198 A 
ATOM     75  F   UNL A   1      38.082  30.272  36.199  1.00  0.00    -0.203 F 
ATOM     76  F   UNL A   1      39.948  35.334  36.993  1.00  0.00    -0.200 F 
ATOM     77  C   UNL A   1      38.546  33.554  37.655  1.00  0.00     0.200 A 
ATOM     78  F   UNL A   1      37.174  31.739  38.282  1.00  0.00    -0.200 F 
ATOM     79  F   UNL A   1      38.114  34.264  38.707  1.00  0.00    -0.200 F 
ENDBRANCH  45  69
BRANCH  57  80
ATOM     80  C   UNL A   1      44.492  27.301  34.547  1.00  0.00     0.064 A 
ATOM     81  C   UNL A   1      45.732  27.936  34.700  1.00  0.00     0.173 A 
ATOM     82  C   UNL A   1      44.227  26.164  35.324  1.00  0.00     0.173 A 
ATOM     83  F   UNL A   1      46.032  29.019  33.968  1.00  0.00    -0.203 F 
ATOM     84  C   UNL A   1      46.684  27.431  35.580  1.00  0.00     0.198 A 
ATOM     85  C   UNL A   1      45.168  25.683  36.227  1.00  0.00     0.198 A 
ATOM     86  F   UNL A   1      43.048  25.532  35.218  1.00  0.00    -0.203 F 
ATOM     87  F   UNL A   1      47.883  28.022  35.676  1.00  0.00    -0.200 F 
ATOM     88  C   UNL A   1      46.398  26.311  36.348  1.00  0.00     0.200 A 
ATOM     89  F   UNL A   1      44.884  24.612  36.980  1.00  0.00    -0.200 F 
ATOM     90  F   UNL A   1      47.314  25.833  37.201  1.00  0.00    -0.200 F 
ENDBRANCH  57  80
ENDBRANCH  31  32
ENDBRANCH  24  26
ENDBRANCH  23  24
ENDBRANCH  22  23
ENDBRANCH   1  22
TORSDOF 16
ENDMDL
MODEL 3
REMARK VINA RESULT:     -10.9      0.667      1.872
REMARK SMILES CC[C@](C)(NC(=O)NC[C@@H](C)[NH+](C)C)C(=O)OCCOC(=O)c1ccc(-c2c3nc(c(-c4c(F)c(F)c(F)c(F)c4F)c4ccc([nH]4)c(-c4c(F)c(F)c(F)c(F)c4F)c4nc(c(-c5c(F)c(F)c(F)c(F)c5F)c5ccc2[nH]5)C=C4)C=C3)cc1
REMARK SMILES IDX 18 1 17 2 15 3 16 4 3 5 4 6 2 7 1 8 5 9 6 10 7 12 8 13 9 15
REMARK SMILES IDX 10 16 11 17 12 18 13 19 14 20 19 22 20 23 21 24 22 25 23 26
REMARK SMILES IDX 24 27 85 28 25 29 84 30 26 31 27 32 28 33 78 34 29 35 83 36
REMARK SMILES IDX 77 37 79 38 30 39 82 40 76 41 75 42 31 44 63 45 43 46 62 47
REMARK SMILES IDX 44 48 47 49 61 50 80 51 45 52 46 53 60 55 81 56 48 57 32 58
REMARK SMILES IDX 33 59 41 60 34 61 35 62 39 63 42 64 36 65 37 66 40 67 38 68
REMARK SMILES IDX 64 69 65 70 73 71 66 72 67 73 71 74 74 75 68 76 69 77 72 78
REMARK SMILES IDX 70 79 49 80 50 81 58 82 51 83 52 84 56 85 59 86 53 87 54 88
REMARK SMILES IDX 57 89 55 90
REMARK H PARENT 5 11 8 14 12 21 79 43 47 54
REMARK Flexibility Score: inf
ROOT
ATOM      1  C   UNL A   1      31.541  28.958  25.722  1.00  0.00     0.274 C 
ENDROOT
BRANCH   1   2
ATOM      2  O   UNL A   1      32.182  27.805  25.123  1.00  0.00    -0.460 OA
BRANCH   2   3
ATOM      3  C   UNL A   1      32.644  27.915  23.843  1.00  0.00     0.331 C 
ATOM      4  O   UNL A   1      33.757  28.353  23.576  1.00  0.00    -0.249 OA
BRANCH   3   5
ATOM      5  C   UNL A   1      31.594  27.404  22.779  1.00  0.00     0.136 C 
ATOM      6  C   UNL A   1      30.784  28.665  22.374  1.00  0.00     0.047 C 
BRANCH   5   7
ATOM      7  C   UNL A   1      30.545  26.367  23.292  1.00  0.00     0.037 C 
ATOM      8  C   UNL A   1      29.175  26.907  23.664  1.00  0.00     0.007 C 
ENDBRANCH   5   7
BRANCH   5   9
ATOM      9  N   UNL A   1      32.235  26.861  21.544  1.00  0.00    -0.322 N 
ATOM     10  C   UNL A   1      32.758  25.674  21.185  1.00  0.00     0.315 C 
ATOM     11  H   UNL A   1      32.288  27.530  20.823  1.00  0.00     0.166 HD
ATOM     12  O   UNL A   1      32.946  25.469  19.984  1.00  0.00    -0.249 OA
ATOM     13  N   UNL A   1      33.078  24.693  22.055  1.00  0.00    -0.332 N 
ATOM     14  H   UNL A   1      33.090  23.780  21.684  1.00  0.00     0.165 HD
BRANCH  13  15
ATOM     15  C   UNL A   1      33.403  24.806  23.456  1.00  0.00     0.182 C 
BRANCH  15  16
ATOM     16  C   UNL A   1      34.808  24.393  23.947  1.00  0.00     0.200 C 
ATOM     17  C   UNL A   1      34.881  24.631  25.464  1.00  0.00     0.077 C 
BRANCH  16  18
ATOM     18  N   UNL A   1      35.141  22.999  23.530  1.00  0.00    -0.336 N 
ATOM     19  C   UNL A   1      36.570  22.776  23.335  1.00  0.00     0.332 C 
ATOM     20  C   UNL A   1      34.587  21.917  24.340  1.00  0.00     0.332 C 
ATOM     21  H   UNL A   1      34.658  22.948  22.633  1.00  0.00     0.347 HD
ENDBRANCH  16  18
ENDBRANCH  15  16
ENDBRANCH  13  15
ENDBRANCH   5   9
ENDBRANCH   3   5
ENDBRANCH   2   3
ENDBRANCH   1   2
BRANCH   1  22
ATOM     22  C   UNL A   1      32.555  30.110  25.823  1.00  0.00     0.275 C 
BRANCH  22  23
ATOM     23  O   UNL A   1      33.056  30.186  27.162  1.00  0.00    -0.458 OA
BRANCH  23  24
ATOM     24  C   UNL A   1      33.569  31.406  27.448  1.00  0.00     0.338 C 
ATOM     25  O   UNL A   1      32.959  32.447  27.590  1.00  0.00    -0.246 OA
BRANCH  24  26
ATOM     26  C   UNL A   1      34.930  31.159  27.953  1.00  0.00     0.060 A 
ATOM     27  C   UNL A   1      35.252  29.833  28.257  1.00  0.00     0.016 A 
ATOM     28  C   UNL A   1      35.889  32.166  28.020  1.00  0.00     0.016 A 
ATOM     29  C   UNL A   1      36.533  29.495  28.659  1.00  0.00     0.010 A 
ATOM     30  C   UNL A   1      37.166  31.843  28.462  1.00  0.00     0.010 A 
ATOM     31  C   UNL A   1      37.471  30.515  28.821  1.00  0.00    -0.014 A 
BRANCH  31  32
ATOM     32  C   UNL A   1      38.656  30.270  29.657  1.00  0.00     0.031 A 
ATOM     33  C   UNL A   1      39.685  29.339  29.089  1.00  0.00     0.074 A 
ATOM     34  C   UNL A   1      38.795  30.851  30.856  1.00  0.00     0.049 A 
ATOM     35  N   UNL A   1      40.675  28.731  29.679  1.00  0.00    -0.248 NA
ATOM     36  C   UNL A   1      39.559  29.031  27.651  1.00  0.00     0.031 C 
ATOM     37  C   UNL A   1      37.890  31.847  31.426  1.00  0.00     0.029 A 
ATOM     38  N   UNL A   1      39.746  30.661  31.821  1.00  0.00    -0.354 N 
ATOM     39  C   UNL A   1      41.250  27.929  28.701  1.00  0.00     0.074 A 
ATOM     40  C   UNL A   1      40.504  28.123  27.481  1.00  0.00     0.031 C 
ATOM     41  C   UNL A   1      38.315  32.162  32.662  1.00  0.00     0.029 A 
ATOM     42  C   UNL A   1      39.477  31.339  32.984  1.00  0.00     0.049 A 
ATOM     43  H   UNL A   1      40.543  30.097  31.694  1.00  0.00     0.167 HD
ATOM     44  C   UNL A   1      42.306  27.096  28.832  1.00  0.00     0.037 A 
ATOM     45  C   UNL A   1      40.082  31.242  34.183  1.00  0.00     0.037 A 
ATOM     46  C   UNL A   1      43.032  26.955  30.063  1.00  0.00     0.049 A 
ATOM     47  C   UNL A   1      41.228  30.272  34.320  1.00  0.00     0.074 A 
ATOM     48  C   UNL A   1      44.116  26.147  30.345  1.00  0.00     0.029 A 
ATOM     49  N   UNL A   1      42.739  27.662  31.224  1.00  0.00    -0.354 N 
ATOM     50  N   UNL A   1      41.744  29.467  33.418  1.00  0.00    -0.248 NA
ATOM     51  C   UNL A   1      41.867  30.184  35.638  1.00  0.00     0.031 C 
ATOM     52  C   UNL A   1      44.453  26.335  31.689  1.00  0.00     0.029 A 
ATOM     53  C   UNL A   1      43.615  27.301  32.229  1.00  0.00     0.049 A 
ATOM     54  H   UNL A   1      42.015  28.322  31.316  1.00  0.00     0.167 HD
ATOM     55  C   UNL A   1      42.783  28.798  34.049  1.00  0.00     0.074 A 
ATOM     56  C   UNL A   1      42.830  29.304  35.408  1.00  0.00     0.031 C 
ATOM     57  C   UNL A   1      43.624  27.850  33.563  1.00  0.00     0.037 A 
BRANCH  44  58
ATOM     58  C   UNL A   1      42.685  26.257  27.647  1.00  0.00     0.064 A 
ATOM     59  C   UNL A   1      42.079  25.020  27.382  1.00  0.00     0.173 A 
ATOM     60  C   UNL A   1      43.679  26.701  26.760  1.00  0.00     0.173 A 
ATOM     61  F   UNL A   1      41.144  24.534  28.212  1.00  0.00    -0.203 F 
ATOM     62  C   UNL A   1      42.469  24.249  26.288  1.00  0.00     0.198 A 
ATOM     63  C   UNL A   1      44.045  25.942  25.651  1.00  0.00     0.198 A 
ATOM     64  F   UNL A   1      44.300  27.871  26.972  1.00  0.00    -0.203 F 
ATOM     65  F   UNL A   1      41.914  23.046  26.085  1.00  0.00    -0.200 F 
ATOM     66  C   UNL A   1      43.445  24.715  25.419  1.00  0.00     0.200 A 
ATOM     67  F   UNL A   1      44.984  26.398  24.811  1.00  0.00    -0.200 F 
ATOM     68  F   UNL A   1      43.814  23.975  24.365  1.00  0.00    -0.200 F 
ENDBRANCH  44  58
BRANCH  45  69
ATOM     69  C   UNL A   1      39.591  32.042  35.337  1.00  0.00     0.064 A 
ATOM     70  C   UNL A   1      38.665  31.511  36.245  1.00  0.00     0.173 A 
ATOM     71  C   UNL A   1      40.039  33.354  35.561  1.00  0.00     0.173 A 
ATOM     72  F   UNL A   1      38.187  30.271  36.064  1.00  0.00    -0.203 F 
ATOM     73  C   UNL A   1      38.194  32.264  37.320  1.00  0.00     0.198 A 
ATOM     74  C   UNL A   1      39.592  34.095  36.655  1.00  0.00     0.198 A 
ATOM     75  F   UNL A   1      40.925  33.914  34.724  1.00  0.00    -0.203 F 
ATOM     76  F   UNL A   1      37.274  31.746  38.146  1.00  0.00    -0.200 F 
ATOM     77  C   UNL A   1      38.664  33.552  37.529  1.00  0.00     0.200 A 
ATOM     78  F   UNL A   1      40.062  35.333  36.860  1.00  0.00    -0.200 F 
ATOM     79  F   UNL A   1      38.218  34.272  38.568  1.00  0.00    -0.200 F 
ENDBRANCH  45  69
BRANCH  57  80
ATOM     80  C   UNL A   1      44.685  27.346  34.494  1.00  0.00     0.064 A 
ATOM     81  C   UNL A   1      45.922  27.992  34.617  1.00  0.00     0.173 A 
ATOM     82  C   UNL A   1      44.434  26.231  35.306  1.00  0.00     0.173 A 
ATOM     83  F   UNL A   1      46.209  29.055  33.851  1.00  0.00    -0.203 F 
ATOM     84  C   UNL A   1      46.886  27.518  35.502  1.00  0.00     0.198 A 
ATOM     85  C   UNL A   1      45.386  25.781  36.213  1.00  0.00     0.198 A 
ATOM     86  F   UNL A   1      43.258  25.589  35.231  1.00  0.00    -0.203 F 
ATOM     87  F   UNL A   1      48.082  28.117  35.569  1.00  0.00    -0.200 F 
ATOM     88  C   UNL A   1      46.614  26.419  36.304  1.00  0.00     0.200 A 
ATOM     89  F   UNL A   1      45.116  24.730  37.000  1.00  0.00    -0.200 F 
ATOM     90  F   UNL A   1      47.540  25.971  37.161  1.00  0.00    -0.200 F 
ENDBRANCH  57  80
ENDBRANCH  31  32
ENDBRANCH  24  26
ENDBRANCH  23  24
ENDBRANCH  22  23
ENDBRANCH   1  22
TORSDOF 16
ENDMDL
