MODEL 1
REMARK VINA RESULT:     -12.8      0.000      0.000
REMARK SMILES CCc1cc(C(=O)c2[nH]c3cc(Cl)ccc3c2CC(=O)OCCOC(=O)c2ccc(-c3c4nc(c(-c5c(F)c(F)c(F)c(F)c5F)c5ccc([nH]5)c(-c5c(F)c(F)c(F)c(F)c5F)c5nc(c(-c6c(F)c(F)c(F)c(F)c6F)c6ccc3[nH]6)C=C5)C=C4)cc2)ncc1Cl
REMARK SMILES IDX 22 1 21 2 19 3 20 4 18 5 17 6 8 7 9 8 10 9 16 11 11 12 15 13
REMARK SMILES IDX 12 14 14 15 13 16 6 17 7 18 5 19 3 20 4 21 92 22 91 23 93 24
REMARK SMILES IDX 90 25 2 26 1 27 23 28 24 29 25 30 26 31 27 32 28 33 89 34
REMARK SMILES IDX 29 35 88 36 30 37 31 38 32 39 82 40 33 41 87 42 81 43 83 44
REMARK SMILES IDX 34 45 86 46 80 47 79 48 35 50 67 51 47 52 66 53 48 54 51 55
REMARK SMILES IDX 65 56 84 57 49 58 50 59 64 61 85 62 52 63 36 64 37 65 45 66
REMARK SMILES IDX 38 67 39 68 43 69 46 70 40 71 41 72 44 73 42 74 68 75 69 76
REMARK SMILES IDX 77 77 70 78 71 79 75 80 78 81 72 82 73 83 76 84 74 85 53 86
REMARK SMILES IDX 54 87 62 88 55 89 56 90 60 91 63 92 57 93 58 94 61 95 59 96
REMARK H PARENT 9 10 83 49 51 60
REMARK Flexibility Score: inf
ROOT
ATOM      1  C   UNL A   1      32.055  28.410  27.132  1.00  0.00     0.274 C 
ENDROOT
BRANCH   1   2
ATOM      2  O   UNL A   1      30.825  27.687  26.903  1.00  0.00    -0.462 OA
BRANCH   2   3
ATOM      3  C   UNL A   1      30.943  26.474  26.310  1.00  0.00     0.310 C 
ATOM      4  O   UNL A   1      31.397  25.476  26.869  1.00  0.00    -0.252 OA
BRANCH   3   5
ATOM      5  C   UNL A   1      30.315  26.371  24.937  1.00  0.00     0.161 C 
BRANCH   5   6
ATOM      6  C   UNL A   1      30.689  27.374  23.890  1.00  0.00     0.000 A 
ATOM      7  C   UNL A   1      31.964  27.765  23.480  1.00  0.00     0.093 A 
ATOM      8  N   UNL A   1      31.800  28.726  22.512  1.00  0.00    -0.351 N 
ATOM      9  C   UNL A   1      30.484  29.083  22.392  1.00  0.00     0.048 A 
ATOM     10  H   UNL A   1      32.531  29.107  21.975  1.00  0.00     0.167 HD
ATOM     11  C   UNL A   1      29.751  28.209  23.190  1.00  0.00     0.004 A 
ATOM     12  C   UNL A   1      29.900  30.098  21.628  1.00  0.00     0.047 A 
ATOM     13  C   UNL A   1      28.344  28.325  23.187  1.00  0.00     0.012 A 
ATOM     14  C   UNL A   1      28.509  30.207  21.666  1.00  0.00     0.043 A 
ATOM     15  C   UNL A   1      27.735  29.329  22.419  1.00  0.00     0.021 A 
ATOM     16  Cl  UNL A   1      27.742  31.456  20.762  1.00  0.00    -0.084 Cl
BRANCH   7  17
ATOM     17  C   UNL A   1      33.308  27.319  23.815  1.00  0.00     0.227 C 
ATOM     18  O   UNL A   1      34.165  28.136  24.150  1.00  0.00    -0.285 OA
BRANCH  17  19
ATOM     19  C   UNL A   1      33.578  25.848  24.039  1.00  0.00     0.113 A 
ATOM     20  C   UNL A   1      34.883  24.077  25.071  1.00  0.00    -0.026 A 
ATOM     21  C   UNL A   1      34.413  25.408  25.071  1.00  0.00     0.037 A 
ATOM     22  C   UNL A   1      34.460  23.230  24.040  1.00  0.00     0.062 A 
ATOM     23  C   UNL A   1      33.594  23.736  23.082  1.00  0.00     0.132 A 
ATOM     24  Cl  UNL A   1      34.999  21.602  23.887  1.00  0.00    -0.082 Cl
ATOM     25  N   UNL A   1      33.152  25.013  23.054  1.00  0.00    -0.251 NA
BRANCH  20  26
ATOM     26  C   UNL A   1      35.870  23.641  26.130  1.00  0.00     0.034 C 
ATOM     27  C   UNL A   1      37.316  23.706  25.651  1.00  0.00     0.009 C 
ENDBRANCH  20  26
ENDBRANCH  17  19
ENDBRANCH   7  17
ENDBRANCH   5   6
ENDBRANCH   3   5
ENDBRANCH   2   3
ENDBRANCH   1   2
BRANCH   1  28
ATOM     28  C   UNL A   1      31.888  29.912  26.853  1.00  0.00     0.275 C 
BRANCH  28  29
ATOM     29  O   UNL A   1      33.093  30.522  26.338  1.00  0.00    -0.458 OA
BRANCH  29  30
ATOM     30  C   UNL A   1      33.640  31.422  27.179  1.00  0.00     0.338 C 
ATOM     31  O   UNL A   1      33.113  32.429  27.624  1.00  0.00    -0.246 OA
BRANCH  30  32
ATOM     32  C   UNL A   1      34.965  31.041  27.654  1.00  0.00     0.060 A 
ATOM     33  C   UNL A   1      35.153  29.711  28.036  1.00  0.00     0.016 A 
ATOM     34  C   UNL A   1      35.895  32.024  27.993  1.00  0.00     0.016 A 
ATOM     35  C   UNL A   1      36.240  29.369  28.826  1.00  0.00     0.010 A 
ATOM     36  C   UNL A   1      37.025  31.665  28.732  1.00  0.00     0.010 A 
ATOM     37  C   UNL A   1      37.187  30.342  29.180  1.00  0.00    -0.014 A 
BRANCH  37  38
ATOM     38  C   UNL A   1      38.358  29.946  29.994  1.00  0.00     0.031 A 
ATOM     39  C   UNL A   1      39.388  28.992  29.465  1.00  0.00     0.074 A 
ATOM     40  C   UNL A   1      38.500  30.487  31.216  1.00  0.00     0.049 A 
ATOM     41  N   UNL A   1      40.474  28.548  30.046  1.00  0.00    -0.248 NA
ATOM     42  C   UNL A   1      39.171  28.466  28.111  1.00  0.00     0.031 C 
ATOM     43  C   UNL A   1      37.572  31.440  31.826  1.00  0.00     0.029 A 
ATOM     44  N   UNL A   1      39.474  30.311  32.163  1.00  0.00    -0.354 N 
ATOM     45  C   UNL A   1      41.082  27.710  29.122  1.00  0.00     0.074 A 
ATOM     46  C   UNL A   1      40.216  27.660  27.966  1.00  0.00     0.031 C 
ATOM     47  C   UNL A   1      38.023  31.769  33.044  1.00  0.00     0.029 A 
ATOM     48  C   UNL A   1      39.240  31.012  33.318  1.00  0.00     0.049 A 
ATOM     49  H   UNL A   1      40.264  29.739  32.027  1.00  0.00     0.167 HD
ATOM     50  C   UNL A   1      42.262  27.054  29.223  1.00  0.00     0.037 A 
ATOM     51  C   UNL A   1      39.912  31.017  34.483  1.00  0.00     0.037 A 
ATOM     52  C   UNL A   1      43.099  27.064  30.392  1.00  0.00     0.049 A 
ATOM     53  C   UNL A   1      41.145  30.175  34.620  1.00  0.00     0.074 A 
ATOM     54  C   UNL A   1      44.312  26.429  30.596  1.00  0.00     0.029 A 
ATOM     55  N   UNL A   1      42.792  27.729  31.569  1.00  0.00    -0.354 N 
ATOM     56  N   UNL A   1      41.730  29.418  33.725  1.00  0.00    -0.248 NA
ATOM     57  C   UNL A   1      41.802  30.179  35.932  1.00  0.00     0.031 C 
ATOM     58  C   UNL A   1      44.717  26.676  31.913  1.00  0.00     0.029 A 
ATOM     59  C   UNL A   1      43.773  27.491  32.517  1.00  0.00     0.049 A 
ATOM     60  H   UNL A   1      41.994  28.289  31.710  1.00  0.00     0.167 HD
ATOM     61  C   UNL A   1      42.832  28.865  34.358  1.00  0.00     0.074 A 
ATOM     62  C   UNL A   1      42.839  29.381  35.712  1.00  0.00     0.031 C 
ATOM     63  C   UNL A   1      43.755  28.005  33.861  1.00  0.00     0.037 A 
BRANCH  50  64
ATOM     64  C   UNL A   1      42.714  26.261  28.035  1.00  0.00     0.064 A 
ATOM     65  C   UNL A   1      42.298  24.934  27.847  1.00  0.00     0.173 A 
ATOM     66  C   UNL A   1      43.533  26.840  27.058  1.00  0.00     0.173 A 
ATOM     67  F   UNL A   1      41.515  24.337  28.759  1.00  0.00    -0.203 F 
ATOM     68  C   UNL A   1      42.696  24.212  26.726  1.00  0.00     0.198 A 
ATOM     69  C   UNL A   1      43.920  26.119  25.930  1.00  0.00     0.198 A 
ATOM     70  F   UNL A   1      43.955  28.106  27.193  1.00  0.00    -0.203 F 
ATOM     71  F   UNL A   1      42.303  22.940  26.573  1.00  0.00    -0.200 F 
ATOM     72  C   UNL A   1      43.503  24.806  25.766  1.00  0.00     0.200 A 
ATOM     73  F   UNL A   1      44.694  26.697  25.001  1.00  0.00    -0.200 F 
ATOM     74  F   UNL A   1      43.882  24.112  24.684  1.00  0.00    -0.200 F 
ENDBRANCH  50  64
BRANCH  51  75
ATOM     75  C   UNL A   1      39.394  31.830  35.608  1.00  0.00     0.064 A 
ATOM     76  C   UNL A   1      38.446  31.311  36.496  1.00  0.00     0.173 A 
ATOM     77  C   UNL A   1      39.881  33.124  35.845  1.00  0.00     0.173 A 
ATOM     78  F   UNL A   1      37.941  30.084  36.297  1.00  0.00    -0.203 F 
ATOM     79  C   UNL A   1      38.003  32.058  37.585  1.00  0.00     0.198 A 
ATOM     80  C   UNL A   1      39.456  33.860  36.946  1.00  0.00     0.198 A 
ATOM     81  F   UNL A   1      40.795  33.659  35.022  1.00  0.00    -0.203 F 
ATOM     82  F   UNL A   1      37.081  31.549  38.413  1.00  0.00    -0.200 F 
ATOM     83  C   UNL A   1      38.515  33.327  37.815  1.00  0.00     0.200 A 
ATOM     84  F   UNL A   1      39.965  35.078  37.172  1.00  0.00    -0.200 F 
ATOM     85  F   UNL A   1      38.100  34.038  38.872  1.00  0.00    -0.200 F 
ENDBRANCH  51  75
BRANCH  63  86
ATOM     86  C   UNL A   1      44.850  27.578  34.789  1.00  0.00     0.064 A 
ATOM     87  C   UNL A   1      44.732  26.417  35.565  1.00  0.00     0.173 A 
ATOM     88  C   UNL A   1      46.033  28.323  34.884  1.00  0.00     0.173 A 
ATOM     89  F   UNL A   1      43.609  25.685  35.518  1.00  0.00    -0.203 F 
ATOM     90  C   UNL A   1      45.758  26.025  36.421  1.00  0.00     0.198 A 
ATOM     91  C   UNL A   1      47.065  27.916  35.725  1.00  0.00     0.198 A 
ATOM     92  F   UNL A   1      46.190  29.439  34.158  1.00  0.00    -0.203 F 
ATOM     93  F   UNL A   1      45.612  24.933  37.183  1.00  0.00    -0.200 F 
ATOM     94  C   UNL A   1      46.925  26.772  36.495  1.00  0.00     0.200 A 
ATOM     95  F   UNL A   1      48.194  28.635  35.792  1.00  0.00    -0.200 F 
ATOM     96  F   UNL A   1      47.911  26.393  37.319  1.00  0.00    -0.200 F 
ENDBRANCH  63  86
ENDBRANCH  37  38
ENDBRANCH  30  32
ENDBRANCH  29  30
ENDBRANCH  28  29
ENDBRANCH   1  28
TORSDOF 15
ENDMDL
MODEL 2
REMARK VINA RESULT:     -12.8      0.911      4.011
REMARK SMILES CCc1cc(C(=O)c2[nH]c3cc(Cl)ccc3c2CC(=O)OCCOC(=O)c2ccc(-c3c4nc(c(-c5c(F)c(F)c(F)c(F)c5F)c5ccc([nH]5)c(-c5c(F)c(F)c(F)c(F)c5F)c5nc(c(-c6c(F)c(F)c(F)c(F)c6F)c6ccc3[nH]6)C=C5)C=C4)cc2)ncc1Cl
REMARK SMILES IDX 22 1 21 2 19 3 20 4 18 5 17 6 8 7 9 8 10 9 16 11 11 12 15 13
REMARK SMILES IDX 12 14 14 15 13 16 6 17 7 18 5 19 3 20 4 21 92 22 91 23 93 24
REMARK SMILES IDX 90 25 2 26 1 27 23 28 24 29 25 30 26 31 27 32 28 33 89 34
REMARK SMILES IDX 29 35 88 36 30 37 31 38 32 39 82 40 33 41 87 42 81 43 83 44
REMARK SMILES IDX 34 45 86 46 80 47 79 48 35 50 67 51 47 52 66 53 48 54 51 55
REMARK SMILES IDX 65 56 84 57 49 58 50 59 64 61 85 62 52 63 36 64 37 65 45 66
REMARK SMILES IDX 38 67 39 68 43 69 46 70 40 71 41 72 44 73 42 74 68 75 69 76
REMARK SMILES IDX 77 77 70 78 71 79 75 80 78 81 72 82 73 83 76 84 74 85 53 86
REMARK SMILES IDX 54 87 62 88 55 89 56 90 60 91 63 92 57 93 58 94 61 95 59 96
REMARK H PARENT 9 10 83 49 51 60
REMARK Flexibility Score: inf
ROOT
ATOM      1  C   UNL A   1      31.876  29.413  25.751  1.00  0.00     0.274 C 
ENDROOT
BRANCH   1   2
ATOM      2  O   UNL A   1      31.759  28.560  26.911  1.00  0.00    -0.462 OA
BRANCH   2   3
ATOM      3  C   UNL A   1      32.036  27.247  26.722  1.00  0.00     0.310 C 
ATOM      4  O   UNL A   1      31.208  26.344  26.841  1.00  0.00    -0.252 OA
BRANCH   3   5
ATOM      5  C   UNL A   1      33.420  26.958  26.180  1.00  0.00     0.161 C 
BRANCH   5   6
ATOM      6  C   UNL A   1      33.574  25.958  25.077  1.00  0.00     0.000 A 
ATOM      7  C   UNL A   1      33.244  26.098  23.728  1.00  0.00     0.093 A 
ATOM      8  N   UNL A   1      33.546  24.907  23.114  1.00  0.00    -0.351 N 
ATOM      9  C   UNL A   1      33.906  23.957  24.031  1.00  0.00     0.048 A 
ATOM     10  H   UNL A   1      33.508  24.755  22.142  1.00  0.00     0.167 HD
ATOM     11  C   UNL A   1      34.001  24.598  25.263  1.00  0.00     0.004 A 
ATOM     12  C   UNL A   1      34.165  22.594  23.853  1.00  0.00     0.047 A 
ATOM     13  C   UNL A   1      34.428  23.842  26.377  1.00  0.00     0.012 A 
ATOM     14  C   UNL A   1      34.559  21.866  24.976  1.00  0.00     0.043 A 
ATOM     15  C   UNL A   1      34.705  22.476  26.219  1.00  0.00     0.021 A 
ATOM     16  Cl  UNL A   1      34.866  20.179  24.815  1.00  0.00    -0.084 Cl
BRANCH   7  17
ATOM     17  C   UNL A   1      32.756  27.207  22.923  1.00  0.00     0.227 C 
ATOM     18  O   UNL A   1      33.510  27.780  22.138  1.00  0.00    -0.285 OA
BRANCH  17  19
ATOM     19  C   UNL A   1      31.270  27.468  22.824  1.00  0.00     0.113 A 
ATOM     20  C   UNL A   1      29.413  29.010  22.547  1.00  0.00    -0.026 A 
ATOM     21  C   UNL A   1      30.772  28.684  22.347  1.00  0.00     0.037 A 
ATOM     22  C   UNL A   1      28.600  28.074  23.195  1.00  0.00     0.062 A 
ATOM     23  C   UNL A   1      29.166  26.872  23.596  1.00  0.00     0.132 A 
ATOM     24  Cl  UNL A   1      26.942  28.366  23.555  1.00  0.00    -0.082 Cl
ATOM     25  N   UNL A   1      30.468  26.552  23.432  1.00  0.00    -0.251 NA
BRANCH  20  26
ATOM     26  C   UNL A   1      28.910  30.372  22.123  1.00  0.00     0.034 C 
ATOM     27  C   UNL A   1      28.747  31.332  23.297  1.00  0.00     0.009 C 
ENDBRANCH  20  26
ENDBRANCH  17  19
ENDBRANCH   7  17
ENDBRANCH   5   6
ENDBRANCH   3   5
ENDBRANCH   2   3
ENDBRANCH   1   2
BRANCH   1  28
ATOM     28  C   UNL A   1      32.040  30.888  26.148  1.00  0.00     0.275 C 
BRANCH  28  29
ATOM     29  O   UNL A   1      32.658  31.052  27.444  1.00  0.00    -0.458 OA
BRANCH  29  30
ATOM     30  C   UNL A   1      33.613  32.003  27.466  1.00  0.00     0.338 C 
ATOM     31  O   UNL A   1      33.467  33.199  27.268  1.00  0.00    -0.246 OA
BRANCH  30  32
ATOM     32  C   UNL A   1      34.919  31.504  27.882  1.00  0.00     0.060 A 
ATOM     33  C   UNL A   1      34.983  30.196  28.366  1.00  0.00     0.016 A 
ATOM     34  C   UNL A   1      35.980  32.391  28.066  1.00  0.00     0.016 A 
ATOM     35  C   UNL A   1      36.082  29.790  29.108  1.00  0.00     0.010 A 
ATOM     36  C   UNL A   1      37.116  31.958  28.756  1.00  0.00     0.010 A 
ATOM     37  C   UNL A   1      37.159  30.666  29.308  1.00  0.00    -0.014 A 
BRANCH  37  38
ATOM     38  C   UNL A   1      38.337  30.198  30.071  1.00  0.00     0.031 A 
ATOM     39  C   UNL A   1      39.299  29.204  29.489  1.00  0.00     0.074 A 
ATOM     40  C   UNL A   1      38.550  30.707  31.296  1.00  0.00     0.049 A 
ATOM     41  N   UNL A   1      40.383  28.697  30.021  1.00  0.00    -0.248 NA
ATOM     42  C   UNL A   1      39.009  28.715  28.135  1.00  0.00     0.031 C 
ATOM     43  C   UNL A   1      37.692  31.693  31.956  1.00  0.00     0.029 A 
ATOM     44  N   UNL A   1      39.548  30.467  32.204  1.00  0.00    -0.354 N 
ATOM     45  C   UNL A   1      40.914  27.848  29.062  1.00  0.00     0.074 A 
ATOM     46  C   UNL A   1      40.006  27.862  27.937  1.00  0.00     0.031 C 
ATOM     47  C   UNL A   1      38.203  31.977  33.162  1.00  0.00     0.029 A 
ATOM     48  C   UNL A   1      39.390  31.156  33.378  1.00  0.00     0.049 A 
ATOM     49  H   UNL A   1      40.302  29.859  32.030  1.00  0.00     0.167 HD
ATOM     50  C   UNL A   1      42.063  27.132  29.109  1.00  0.00     0.037 A 
ATOM     51  C   UNL A   1      40.102  31.106  34.517  1.00  0.00     0.037 A 
ATOM     52  C   UNL A   1      42.940  27.080  30.246  1.00  0.00     0.049 A 
ATOM     53  C   UNL A   1      41.296  30.202  34.595  1.00  0.00     0.074 A 
ATOM     54  C   UNL A   1      44.127  26.382  30.394  1.00  0.00     0.029 A 
ATOM     55  N   UNL A   1      42.709  27.737  31.445  1.00  0.00    -0.354 N 
ATOM     56  N   UNL A   1      41.810  29.435  33.666  1.00  0.00    -0.248 NA
ATOM     57  C   UNL A   1      41.999  30.149  35.882  1.00  0.00     0.031 C 
ATOM     58  C   UNL A   1      44.590  26.584  31.700  1.00  0.00     0.029 A 
ATOM     59  C   UNL A   1      43.710  27.432  32.352  1.00  0.00     0.049 A 
ATOM     60  H   UNL A   1      41.945  28.332  31.624  1.00  0.00     0.167 HD
ATOM     61  C   UNL A   1      42.905  28.816  34.250  1.00  0.00     0.074 A 
ATOM     62  C   UNL A   1      42.987  29.306  35.611  1.00  0.00     0.031 C 
ATOM     63  C   UNL A   1      43.766  27.922  33.705  1.00  0.00     0.037 A 
BRANCH  50  64
ATOM     64  C   UNL A   1      42.433  26.341  27.892  1.00  0.00     0.064 A 
ATOM     65  C   UNL A   1      43.316  26.858  26.931  1.00  0.00     0.173 A 
ATOM     66  C   UNL A   1      41.938  25.044  27.703  1.00  0.00     0.173 A 
ATOM     67  F   UNL A   1      43.813  28.096  27.069  1.00  0.00    -0.203 F 
ATOM     68  C   UNL A   1      43.681  26.105  25.818  1.00  0.00     0.198 A 
ATOM     69  C   UNL A   1      42.316  24.289  26.595  1.00  0.00     0.198 A 
ATOM     70  F   UNL A   1      41.093  24.506  28.596  1.00  0.00    -0.203 F 
ATOM     71  F   UNL A   1      44.512  26.623  24.902  1.00  0.00    -0.200 F 
ATOM     72  C   UNL A   1      43.184  24.820  25.653  1.00  0.00     0.200 A 
ATOM     73  F   UNL A   1      41.840  23.045  26.440  1.00  0.00    -0.200 F 
ATOM     74  F   UNL A   1      43.540  24.095  24.584  1.00  0.00    -0.200 F 
ENDBRANCH  50  64
BRANCH  51  75
ATOM     75  C   UNL A   1      39.665  31.922  35.675  1.00  0.00     0.064 A 
ATOM     76  C   UNL A   1      40.213  33.187  35.913  1.00  0.00     0.173 A 
ATOM     77  C   UNL A   1      38.651  31.469  36.532  1.00  0.00     0.173 A 
ATOM     78  F   UNL A   1      41.195  33.652  35.128  1.00  0.00    -0.203 F 
ATOM     79  C   UNL A   1      39.759  33.974  36.970  1.00  0.00     0.198 A 
ATOM     80  C   UNL A   1      38.184  32.265  37.573  1.00  0.00     0.198 A 
ATOM     81  F   UNL A   1      38.096  30.265  36.337  1.00  0.00    -0.203 F 
ATOM     82  F   UNL A   1      40.310  35.175  37.191  1.00  0.00    -0.200 F 
ATOM     83  C   UNL A   1      38.739  33.516  37.792  1.00  0.00     0.200 A 
ATOM     84  F   UNL A   1      37.188  31.826  38.354  1.00  0.00    -0.200 F 
ATOM     85  F   UNL A   1      38.294  34.281  38.798  1.00  0.00    -0.200 F 
ENDBRANCH  51  75
BRANCH  63  86
ATOM     86  C   UNL A   1      44.871  27.424  34.584  1.00  0.00     0.064 A 
ATOM     87  C   UNL A   1      44.726  26.251  35.337  1.00  0.00     0.173 A 
ATOM     88  C   UNL A   1      46.089  28.113  34.655  1.00  0.00     0.173 A 
ATOM     89  F   UNL A   1      43.571  25.570  35.312  1.00  0.00    -0.203 F 
ATOM     90  C   UNL A   1      45.762  25.793  36.148  1.00  0.00     0.198 A 
ATOM     91  C   UNL A   1      47.129  27.641  35.451  1.00  0.00     0.198 A 
ATOM     92  F   UNL A   1      46.272  29.239  33.950  1.00  0.00    -0.203 F 
ATOM     93  F   UNL A   1      45.592  24.690  36.889  1.00  0.00    -0.200 F 
ATOM     94  C   UNL A   1      46.963  26.485  36.199  1.00  0.00     0.200 A 
ATOM     95  F   UNL A   1      48.291  28.307  35.496  1.00  0.00    -0.200 F 
ATOM     96  F   UNL A   1      47.958  26.043  36.980  1.00  0.00    -0.200 F 
ENDBRANCH  63  86
ENDBRANCH  37  38
ENDBRANCH  30  32
ENDBRANCH  29  30
ENDBRANCH  28  29
ENDBRANCH   1  28
TORSDOF 15
ENDMDL
MODEL 3
REMARK VINA RESULT:     -12.6      4.618      9.647
REMARK SMILES CCc1cc(C(=O)c2[nH]c3cc(Cl)ccc3c2CC(=O)OCCOC(=O)c2ccc(-c3c4nc(c(-c5c(F)c(F)c(F)c(F)c5F)c5ccc([nH]5)c(-c5c(F)c(F)c(F)c(F)c5F)c5nc(c(-c6c(F)c(F)c(F)c(F)c6F)c6ccc3[nH]6)C=C5)C=C4)cc2)ncc1Cl
REMARK SMILES IDX 22 1 21 2 19 3 20 4 18 5 17 6 8 7 9 8 10 9 16 11 11 12 15 13
REMARK SMILES IDX 12 14 14 15 13 16 6 17 7 18 5 19 3 20 4 21 92 22 91 23 93 24
REMARK SMILES IDX 90 25 2 26 1 27 23 28 24 29 25 30 26 31 27 32 28 33 89 34
REMARK SMILES IDX 29 35 88 36 30 37 31 38 32 39 82 40 33 41 87 42 81 43 83 44
REMARK SMILES IDX 34 45 86 46 80 47 79 48 35 50 67 51 47 52 66 53 48 54 51 55
REMARK SMILES IDX 65 56 84 57 49 58 50 59 64 61 85 62 52 63 36 64 37 65 45 66
REMARK SMILES IDX 38 67 39 68 43 69 46 70 40 71 41 72 44 73 42 74 68 75 69 76
REMARK SMILES IDX 77 77 70 78 71 79 75 80 78 81 72 82 73 83 76 84 74 85 53 86
REMARK SMILES IDX 54 87 62 88 55 89 56 90 60 91 63 92 57 93 58 94 61 95 59 96
REMARK H PARENT 9 10 83 49 51 60
REMARK Flexibility Score: inf
ROOT
ATOM      1  C   UNL A   1      36.466  21.163  25.006  1.00  0.00     0.274 C 
ENDROOT
BRANCH   1   2
ATOM      2  O   UNL A   1      36.742  22.093  23.934  1.00  0.00    -0.462 OA
BRANCH   2   3
ATOM      3  C   UNL A   1      35.908  23.156  23.831  1.00  0.00     0.310 C 
ATOM      4  O   UNL A   1      35.246  23.417  22.827  1.00  0.00    -0.252 OA
BRANCH   3   5
ATOM      5  C   UNL A   1      35.705  23.934  25.113  1.00  0.00     0.161 C 
BRANCH   5   6
ATOM      6  C   UNL A   1      34.314  24.310  25.522  1.00  0.00     0.000 A 
ATOM      7  C   UNL A   1      33.302  23.485  26.014  1.00  0.00     0.093 A 
ATOM      8  N   UNL A   1      32.201  24.279  26.225  1.00  0.00    -0.351 N 
ATOM      9  C   UNL A   1      32.407  25.544  25.743  1.00  0.00     0.048 A 
ATOM     10  H   UNL A   1      31.372  23.978  26.663  1.00  0.00     0.167 HD
ATOM     11  C   UNL A   1      33.742  25.619  25.358  1.00  0.00     0.004 A 
ATOM     12  C   UNL A   1      31.516  26.616  25.639  1.00  0.00     0.047 A 
ATOM     13  C   UNL A   1      34.231  26.857  24.886  1.00  0.00     0.012 A 
ATOM     14  C   UNL A   1      32.020  27.819  25.142  1.00  0.00     0.043 A 
ATOM     15  C   UNL A   1      33.358  27.950  24.783  1.00  0.00     0.021 A 
ATOM     16  Cl  UNL A   1      30.957  29.164  24.971  1.00  0.00    -0.084 Cl
BRANCH   7  17
ATOM     17  C   UNL A   1      33.242  22.078  26.380  1.00  0.00     0.227 C 
ATOM     18  O   UNL A   1      33.324  21.743  27.561  1.00  0.00    -0.285 OA
BRANCH  17  19
ATOM     19  C   UNL A   1      32.787  21.055  25.364  1.00  0.00     0.113 A 
ATOM     20  C   UNL A   1      32.842  18.792  24.481  1.00  0.00    -0.026 A 
ATOM     21  C   UNL A   1      32.998  19.687  25.561  1.00  0.00     0.037 A 
ATOM     22  C   UNL A   1      32.443  19.315  23.246  1.00  0.00     0.062 A 
ATOM     23  C   UNL A   1      32.211  20.680  23.150  1.00  0.00     0.132 A 
ATOM     24  Cl  UNL A   1      32.269  18.348  21.832  1.00  0.00    -0.082 Cl
ATOM     25  N   UNL A   1      32.377  21.553  24.168  1.00  0.00    -0.251 NA
BRANCH  20  26
ATOM     26  C   UNL A   1      33.176  17.330  24.676  1.00  0.00     0.034 C 
ATOM     27  C   UNL A   1      34.676  17.058  24.636  1.00  0.00     0.009 C 
ENDBRANCH  20  26
ENDBRANCH  17  19
ENDBRANCH   7  17
ENDBRANCH   5   6
ENDBRANCH   3   5
ENDBRANCH   2   3
ENDBRANCH   1   2
BRANCH   1  28
ATOM     28  C   UNL A   1      37.691  20.294  25.330  1.00  0.00     0.275 C 
BRANCH  28  29
ATOM     29  O   UNL A   1      38.929  21.040  25.300  1.00  0.00    -0.458 OA
BRANCH  29  30
ATOM     30  C   UNL A   1      39.638  20.946  26.442  1.00  0.00     0.338 C 
ATOM     31  O   UNL A   1      40.030  19.925  26.984  1.00  0.00    -0.246 OA
BRANCH  30  32
ATOM     32  C   UNL A   1      40.042  22.240  26.982  1.00  0.00     0.060 A 
ATOM     33  C   UNL A   1      39.561  23.383  26.339  1.00  0.00     0.016 A 
ATOM     34  C   UNL A   1      41.091  22.318  27.898  1.00  0.00     0.016 A 
ATOM     35  C   UNL A   1      40.181  24.604  26.554  1.00  0.00     0.010 A 
ATOM     36  C   UNL A   1      41.670  23.562  28.164  1.00  0.00     0.010 A 
ATOM     37  C   UNL A   1      41.240  24.706  27.470  1.00  0.00    -0.014 A 
BRANCH  37  38
ATOM     38  C   UNL A   1      41.861  26.027  27.710  1.00  0.00     0.031 A 
ATOM     39  C   UNL A   1      41.134  27.107  28.455  1.00  0.00     0.074 A 
ATOM     40  C   UNL A   1      43.114  26.234  27.271  1.00  0.00     0.049 A 
ATOM     41  N   UNL A   1      41.537  28.316  28.756  1.00  0.00    -0.248 NA
ATOM     42  C   UNL A   1      39.777  26.792  28.923  1.00  0.00     0.031 C 
ATOM     43  C   UNL A   1      43.925  25.251  26.552  1.00  0.00     0.029 A 
ATOM     44  N   UNL A   1      43.923  27.336  27.363  1.00  0.00    -0.354 N 
ATOM     45  C   UNL A   1      40.497  28.897  29.465  1.00  0.00     0.074 A 
ATOM     46  C   UNL A   1      39.421  27.932  29.501  1.00  0.00     0.031 C 
ATOM     47  C   UNL A   1      45.119  25.792  26.270  1.00  0.00     0.029 A 
ATOM     48  C   UNL A   1      45.135  27.172  26.743  1.00  0.00     0.049 A 
ATOM     49  H   UNL A   1      43.660  28.163  27.828  1.00  0.00     0.167 HD
ATOM     50  C   UNL A   1      40.448  30.119  30.047  1.00  0.00     0.037 A 
ATOM     51  C   UNL A   1      46.135  28.049  26.544  1.00  0.00     0.037 A 
ATOM     52  C   UNL A   1      41.499  31.097  29.969  1.00  0.00     0.049 A 
ATOM     53  C   UNL A   1      46.003  29.443  27.080  1.00  0.00     0.074 A 
ATOM     54  C   UNL A   1      41.545  32.366  30.521  1.00  0.00     0.029 A 
ATOM     55  N   UNL A   1      42.683  30.920  29.270  1.00  0.00    -0.354 N 
ATOM     56  N   UNL A   1      45.030  29.967  27.785  1.00  0.00    -0.248 NA
ATOM     57  C   UNL A   1      47.103  30.369  26.784  1.00  0.00     0.031 C 
ATOM     58  C   UNL A   1      42.741  32.972  30.119  1.00  0.00     0.029 A 
ATOM     59  C   UNL A   1      43.453  32.070  29.345  1.00  0.00     0.049 A 
ATOM     60  H   UNL A   1      42.939  30.098  28.792  1.00  0.00     0.167 HD
ATOM     61  C   UNL A   1      45.403  31.280  28.028  1.00  0.00     0.074 A 
ATOM     62  C   UNL A   1      46.697  31.470  27.404  1.00  0.00     0.031 C 
ATOM     63  C   UNL A   1      44.732  32.241  28.708  1.00  0.00     0.037 A 
BRANCH  50  64
ATOM     64  C   UNL A   1      39.211  30.469  30.815  1.00  0.00     0.064 A 
ATOM     65  C   UNL A   1      39.105  30.188  32.186  1.00  0.00     0.173 A 
ATOM     66  C   UNL A   1      38.142  31.126  30.191  1.00  0.00     0.173 A 
ATOM     67  F   UNL A   1      40.102  29.558  32.825  1.00  0.00    -0.203 F 
ATOM     68  C   UNL A   1      37.965  30.544  32.902  1.00  0.00     0.198 A 
ATOM     69  C   UNL A   1      37.009  31.492  30.914  1.00  0.00     0.198 A 
ATOM     70  F   UNL A   1      38.199  31.417  28.883  1.00  0.00    -0.203 F 
ATOM     71  F   UNL A   1      37.874  30.252  34.208  1.00  0.00    -0.200 F 
ATOM     72  C   UNL A   1      36.919  31.199  32.267  1.00  0.00     0.200 A 
ATOM     73  F   UNL A   1      36.003  32.131  30.300  1.00  0.00    -0.200 F 
ATOM     74  F   UNL A   1      35.825  31.546  32.958  1.00  0.00    -0.200 F 
ENDBRANCH  50  64
BRANCH  51  75
ATOM     75  C   UNL A   1      47.324  27.620  25.772  1.00  0.00     0.064 A 
ATOM     76  C   UNL A   1      47.349  27.711  24.376  1.00  0.00     0.173 A 
ATOM     77  C   UNL A   1      48.479  27.162  26.424  1.00  0.00     0.173 A 
ATOM     78  F   UNL A   1      46.262  28.128  23.712  1.00  0.00    -0.203 F 
ATOM     79  C   UNL A   1      48.490  27.359  23.658  1.00  0.00     0.198 A 
ATOM     80  C   UNL A   1      49.625  26.833  25.707  1.00  0.00     0.198 A 
ATOM     81  F   UNL A   1      48.500  27.064  27.761  1.00  0.00    -0.203 F 
ATOM     82  F   UNL A   1      48.486  27.437  22.320  1.00  0.00    -0.200 F 
ATOM     83  C   UNL A   1      49.629  26.930  24.324  1.00  0.00     0.200 A 
ATOM     84  F   UNL A   1      50.727  26.435  26.356  1.00  0.00    -0.200 F 
ATOM     85  F   UNL A   1      50.730  26.608  23.632  1.00  0.00    -0.200 F 
ENDBRANCH  51  75
BRANCH  63  86
ATOM     86  C   UNL A   1      45.393  33.580  28.814  1.00  0.00     0.064 A 
ATOM     87  C   UNL A   1      45.138  34.592  27.878  1.00  0.00     0.173 A 
ATOM     88  C   UNL A   1      46.268  33.861  29.873  1.00  0.00     0.173 A 
ATOM     89  F   UNL A   1      44.321  34.361  26.840  1.00  0.00    -0.203 F 
ATOM     90  C   UNL A   1      45.753  35.836  27.989  1.00  0.00     0.198 A 
ATOM     91  C   UNL A   1      46.865  35.112  29.991  1.00  0.00     0.198 A 
ATOM     92  F   UNL A   1      46.539  32.923  30.792  1.00  0.00    -0.203 F 
ATOM     93  F   UNL A   1      45.526  36.778  27.063  1.00  0.00    -0.200 F 
ATOM     94  C   UNL A   1      46.611  36.096  29.048  1.00  0.00     0.200 A 
ATOM     95  F   UNL A   1      47.689  35.364  31.018  1.00  0.00    -0.200 F 
ATOM     96  F   UNL A   1      47.202  37.294  29.153  1.00  0.00    -0.200 F 
ENDBRANCH  63  86
ENDBRANCH  37  38
ENDBRANCH  30  32
ENDBRANCH  29  30
ENDBRANCH  28  29
ENDBRANCH   1  28
TORSDOF 15
ENDMDL
