MODEL 1
REMARK VINA RESULT:     -13.3      0.000      0.000
REMARK SMILES Cc1ccnc(C(=O)c2[nH]c3cc(Cl)c(F)cc3c2CC(=O)OCCOC(=O)c2ccc(-c3c4nc(c(-c5c(F)c(F)c(F)c(F)c5F)c5ccc([nH]5)c(-c5c(F)c(F)c(F)c(F)c5F)c5nc(c(-c6c(F)c(F)c(F)c(F)c6F)c6ccc3[nH]6)C=C5)C=C4)cc2)c1
REMARK SMILES IDX 24 1 23 2 21 3 22 4 20 5 19 6 9 7 10 8 11 9 18 11 12 12
REMARK SMILES IDX 17 13 13 14 15 15 14 16 16 17 7 18 8 19 6 20 1 21 2 22 3 23
REMARK SMILES IDX 92 24 4 25 5 26 25 27 26 28 27 29 28 30 29 31 30 32 91 33
REMARK SMILES IDX 31 34 90 35 32 36 33 37 34 38 84 39 35 40 89 41 83 42 85 43
REMARK SMILES IDX 36 44 88 45 82 46 81 47 37 49 69 50 49 51 68 52 50 53 53 54
REMARK SMILES IDX 67 55 86 56 51 57 52 58 66 60 87 61 54 62 38 63 39 64 47 65
REMARK SMILES IDX 40 66 41 67 45 68 48 69 42 70 43 71 46 72 44 73 70 74 71 75
REMARK SMILES IDX 79 76 72 77 73 78 77 79 80 80 74 81 75 82 78 83 76 84 55 85
REMARK SMILES IDX 56 86 64 87 57 88 58 89 62 90 65 91 59 92 60 93 63 94 61 95
REMARK H PARENT 10 10 85 48 53 59
REMARK Flexibility Score: inf
ROOT
ATOM      1  C   UNL A   1      38.212  22.017  25.773  1.00  0.00     0.274 C 
ENDROOT
BRANCH   1   2
ATOM      2  O   UNL A   1      37.597  23.307  26.054  1.00  0.00    -0.462 OA
BRANCH   2   3
ATOM      3  C   UNL A   1      36.333  23.427  25.589  1.00  0.00     0.310 C 
ATOM      4  O   UNL A   1      36.055  24.087  24.586  1.00  0.00    -0.252 OA
BRANCH   3   5
ATOM      5  C   UNL A   1      35.209  22.824  26.383  1.00  0.00     0.161 C 
BRANCH   5   6
ATOM      6  C   UNL A   1      33.949  22.165  25.875  1.00  0.00     0.000 A 
ATOM      7  C   UNL A   1      32.587  22.437  26.059  1.00  0.00     0.093 A 
ATOM      8  N   UNL A   1      31.881  21.318  25.672  1.00  0.00    -0.351 N 
ATOM      9  C   UNL A   1      32.710  20.330  25.228  1.00  0.00     0.048 A 
ATOM     10  H   UNL A   1      30.901  21.241  25.711  1.00  0.00     0.167 HD
ATOM     11  C   UNL A   1      34.008  20.817  25.333  1.00  0.00     0.007 A 
ATOM     12  C   UNL A   1      32.403  19.033  24.796  1.00  0.00     0.050 A 
ATOM     13  C   UNL A   1      35.068  19.939  25.013  1.00  0.00     0.051 A 
ATOM     14  C   UNL A   1      33.470  18.195  24.469  1.00  0.00     0.078 A 
ATOM     15  C   UNL A   1      34.781  18.642  24.583  1.00  0.00     0.142 A 
ATOM     16  Cl  UNL A   1      33.139  16.591  23.936  1.00  0.00    -0.081 Cl
ATOM     17  F   UNL A   1      35.810  17.829  24.296  1.00  0.00    -0.205 F 
BRANCH   7  18
ATOM     18  C   UNL A   1      31.816  23.520  26.654  1.00  0.00     0.227 C 
ATOM     19  O   UNL A   1      31.060  23.290  27.594  1.00  0.00    -0.285 OA
BRANCH  18  20
ATOM     20  C   UNL A   1      31.836  24.871  25.987  1.00  0.00     0.113 A 
ATOM     21  C   UNL A   1      33.876  28.038  26.156  1.00  0.00     0.044 C 
ATOM     22  C   UNL A   1      32.787  27.068  25.818  1.00  0.00    -0.047 A 
ATOM     23  C   UNL A   1      31.569  27.500  25.291  1.00  0.00     0.023 A 
ATOM     24  C   UNL A   1      32.925  25.721  26.154  1.00  0.00     0.036 A 
ATOM     25  C   UNL A   1      30.571  26.562  25.062  1.00  0.00     0.112 A 
ATOM     26  N   UNL A   1      30.692  25.247  25.353  1.00  0.00    -0.253 NA
ENDBRANCH  18  20
ENDBRANCH   7  18
ENDBRANCH   5   6
ENDBRANCH   3   5
ENDBRANCH   2   3
ENDBRANCH   1   2
BRANCH   1  27
ATOM     27  C   UNL A   1      39.535  21.770  26.516  1.00  0.00     0.275 C 
BRANCH  27  28
ATOM     28  O   UNL A   1      39.823  22.804  27.460  1.00  0.00    -0.458 OA
BRANCH  28  29
ATOM     29  C   UNL A   1      41.142  22.937  27.765  1.00  0.00     0.338 C 
ATOM     30  O   UNL A   1      41.938  22.043  27.855  1.00  0.00    -0.246 OA
BRANCH  29  31
ATOM     31  C   UNL A   1      41.537  24.336  27.569  1.00  0.00     0.060 A 
ATOM     32  C   UNL A   1      42.184  24.974  28.613  1.00  0.00     0.016 A 
ATOM     33  C   UNL A   1      40.836  25.046  26.581  1.00  0.00     0.016 A 
ATOM     34  C   UNL A   1      41.829  26.276  28.858  1.00  0.00     0.010 A 
ATOM     35  C   UNL A   1      40.515  26.370  26.810  1.00  0.00     0.010 A 
ATOM     36  C   UNL A   1      40.911  26.932  28.013  1.00  0.00    -0.014 A 
BRANCH  36  37
ATOM     37  C   UNL A   1      40.674  28.324  28.326  1.00  0.00     0.031 A 
ATOM     38  C   UNL A   1      41.815  29.128  27.866  1.00  0.00     0.074 A 
ATOM     39  C   UNL A   1      39.708  28.871  29.078  1.00  0.00     0.049 A 
ATOM     40  N   UNL A   1      42.814  29.483  28.600  1.00  0.00    -0.248 NA
ATOM     41  C   UNL A   1      41.984  29.330  26.427  1.00  0.00     0.031 C 
ATOM     42  C   UNL A   1      38.397  28.382  29.487  1.00  0.00     0.029 A 
ATOM     43  N   UNL A   1      39.780  30.101  29.660  1.00  0.00    -0.354 N 
ATOM     44  C   UNL A   1      43.722  30.052  27.730  1.00  0.00     0.074 A 
ATOM     45  C   UNL A   1      43.221  29.826  26.398  1.00  0.00     0.031 C 
ATOM     46  C   UNL A   1      37.722  29.386  30.106  1.00  0.00     0.029 A 
ATOM     47  C   UNL A   1      38.624  30.514  30.289  1.00  0.00     0.049 A 
ATOM     48  H   UNL A   1      40.595  30.653  29.632  1.00  0.00     0.167 HD
ATOM     49  C   UNL A   1      44.730  30.823  28.207  1.00  0.00     0.037 A 
ATOM     50  C   UNL A   1      38.454  31.715  30.894  1.00  0.00     0.037 A 
ATOM     51  C   UNL A   1      45.016  30.527  29.591  1.00  0.00     0.049 A 
ATOM     52  C   UNL A   1      39.798  32.199  31.309  1.00  0.00     0.074 A 
ATOM     53  C   UNL A   1      45.457  29.399  30.262  1.00  0.00     0.029 A 
ATOM     54  N   UNL A   1      44.496  31.347  30.563  1.00  0.00    -0.354 N 
ATOM     55  N   UNL A   1      40.497  31.672  32.275  1.00  0.00    -0.248 NA
ATOM     56  C   UNL A   1      40.549  33.037  30.384  1.00  0.00     0.031 C 
ATOM     57  C   UNL A   1      44.762  29.402  31.509  1.00  0.00     0.029 A 
ATOM     58  C   UNL A   1      43.957  30.540  31.535  1.00  0.00     0.049 A 
ATOM     59  H   UNL A   1      44.506  32.331  30.561  1.00  0.00     0.167 HD
ATOM     60  C   UNL A   1      41.813  31.754  31.846  1.00  0.00     0.074 A 
ATOM     61  C   UNL A   1      41.791  32.690  30.729  1.00  0.00     0.031 C 
ATOM     62  C   UNL A   1      42.751  30.856  32.265  1.00  0.00     0.037 A 
BRANCH  49  63
ATOM     63  C   UNL A   1      45.171  32.073  27.505  1.00  0.00     0.064 A 
ATOM     64  C   UNL A   1      46.449  32.113  26.922  1.00  0.00     0.173 A 
ATOM     65  C   UNL A   1      44.516  33.319  27.638  1.00  0.00     0.173 A 
ATOM     66  F   UNL A   1      47.166  30.991  26.768  1.00  0.00    -0.203 F 
ATOM     67  C   UNL A   1      47.055  33.321  26.574  1.00  0.00     0.198 A 
ATOM     68  C   UNL A   1      45.101  34.514  27.239  1.00  0.00     0.198 A 
ATOM     69  F   UNL A   1      43.338  33.452  28.258  1.00  0.00    -0.203 F 
ATOM     70  F   UNL A   1      48.323  33.325  26.144  1.00  0.00    -0.200 F 
ATOM     71  C   UNL A   1      46.385  34.520  26.741  1.00  0.00     0.200 A 
ATOM     72  F   UNL A   1      44.440  35.665  27.427  1.00  0.00    -0.200 F 
ATOM     73  F   UNL A   1      46.991  35.683  26.471  1.00  0.00    -0.200 F 
ENDBRANCH  49  63
BRANCH  50  74
ATOM     74  C   UNL A   1      37.284  32.618  30.821  1.00  0.00     0.064 A 
ATOM     75  C   UNL A   1      36.973  33.287  29.625  1.00  0.00     0.173 A 
ATOM     76  C   UNL A   1      36.279  32.591  31.805  1.00  0.00     0.173 A 
ATOM     77  F   UNL A   1      37.864  33.326  28.622  1.00  0.00    -0.203 F 
ATOM     78  C   UNL A   1      35.713  33.850  29.406  1.00  0.00     0.198 A 
ATOM     79  C   UNL A   1      35.023  33.158  31.588  1.00  0.00     0.198 A 
ATOM     80  F   UNL A   1      36.459  31.924  32.955  1.00  0.00    -0.203 F 
ATOM     81  F   UNL A   1      35.428  34.410  28.222  1.00  0.00    -0.200 F 
ATOM     82  C   UNL A   1      34.734  33.771  30.382  1.00  0.00     0.200 A 
ATOM     83  F   UNL A   1      34.071  33.045  32.525  1.00  0.00    -0.200 F 
ATOM     84  F   UNL A   1      33.503  34.245  30.145  1.00  0.00    -0.200 F 
ENDBRANCH  50  74
BRANCH  62  85
ATOM     85  C   UNL A   1      42.391  29.961  33.420  1.00  0.00     0.064 A 
ATOM     86  C   UNL A   1      41.772  28.707  33.277  1.00  0.00     0.173 A 
ATOM     87  C   UNL A   1      42.801  30.336  34.707  1.00  0.00     0.173 A 
ATOM     88  F   UNL A   1      41.438  28.235  32.068  1.00  0.00    -0.203 F 
ATOM     89  C   UNL A   1      41.537  27.889  34.382  1.00  0.00     0.198 A 
ATOM     90  C   UNL A   1      42.598  29.502  35.802  1.00  0.00     0.198 A 
ATOM     91  F   UNL A   1      43.439  31.502  34.897  1.00  0.00    -0.203 F 
ATOM     92  F   UNL A   1      40.932  26.702  34.226  1.00  0.00    -0.200 F 
ATOM     93  C   UNL A   1      41.957  28.284  35.642  1.00  0.00     0.200 A 
ATOM     94  F   UNL A   1      43.045  29.868  37.012  1.00  0.00    -0.200 F 
ATOM     95  F   UNL A   1      41.770  27.479  36.698  1.00  0.00    -0.200 F 
ENDBRANCH  62  85
ENDBRANCH  36  37
ENDBRANCH  29  31
ENDBRANCH  28  29
ENDBRANCH  27  28
ENDBRANCH   1  27
TORSDOF 14
ENDMDL
MODEL 2
REMARK VINA RESULT:     -13.1      1.936      3.387
REMARK SMILES Cc1ccnc(C(=O)c2[nH]c3cc(Cl)c(F)cc3c2CC(=O)OCCOC(=O)c2ccc(-c3c4nc(c(-c5c(F)c(F)c(F)c(F)c5F)c5ccc([nH]5)c(-c5c(F)c(F)c(F)c(F)c5F)c5nc(c(-c6c(F)c(F)c(F)c(F)c6F)c6ccc3[nH]6)C=C5)C=C4)cc2)c1
REMARK SMILES IDX 24 1 23 2 21 3 22 4 20 5 19 6 9 7 10 8 11 9 18 11 12 12
REMARK SMILES IDX 17 13 13 14 15 15 14 16 16 17 7 18 8 19 6 20 1 21 2 22 3 23
REMARK SMILES IDX 92 24 4 25 5 26 25 27 26 28 27 29 28 30 29 31 30 32 91 33
REMARK SMILES IDX 31 34 90 35 32 36 33 37 34 38 84 39 35 40 89 41 83 42 85 43
REMARK SMILES IDX 36 44 88 45 82 46 81 47 37 49 69 50 49 51 68 52 50 53 53 54
REMARK SMILES IDX 67 55 86 56 51 57 52 58 66 60 87 61 54 62 38 63 39 64 47 65
REMARK SMILES IDX 40 66 41 67 45 68 48 69 42 70 43 71 46 72 44 73 70 74 71 75
REMARK SMILES IDX 79 76 72 77 73 78 77 79 80 80 74 81 75 82 78 83 76 84 55 85
REMARK SMILES IDX 56 86 64 87 57 88 58 89 62 90 65 91 59 92 60 93 63 94 61 95
REMARK H PARENT 10 10 85 48 53 59
REMARK Flexibility Score: inf
ROOT
ATOM      1  C   UNL A   1      37.634  21.822  25.700  1.00  0.00     0.274 C 
ENDROOT
BRANCH   1   2
ATOM      2  O   UNL A   1      37.366  21.867  24.269  1.00  0.00    -0.462 OA
BRANCH   2   3
ATOM      3  C   UNL A   1      36.440  22.784  23.910  1.00  0.00     0.310 C 
ATOM      4  O   UNL A   1      36.118  22.978  22.736  1.00  0.00    -0.252 OA
BRANCH   3   5
ATOM      5  C   UNL A   1      35.857  23.676  24.969  1.00  0.00     0.161 C 
BRANCH   5   6
ATOM      6  C   UNL A   1      34.413  23.825  25.380  1.00  0.00     0.000 A 
ATOM      7  C   UNL A   1      33.454  22.918  25.852  1.00  0.00     0.093 A 
ATOM      8  N   UNL A   1      32.218  23.513  25.723  1.00  0.00    -0.351 N 
ATOM      9  C   UNL A   1      32.316  24.772  25.206  1.00  0.00     0.048 A 
ATOM     10  H   UNL A   1      31.368  23.083  25.973  1.00  0.00     0.167 HD
ATOM     11  C   UNL A   1      33.668  25.009  24.982  1.00  0.00     0.007 A 
ATOM     12  C   UNL A   1      31.306  25.685  24.876  1.00  0.00     0.050 A 
ATOM     13  C   UNL A   1      34.028  26.226  24.360  1.00  0.00     0.051 A 
ATOM     14  C   UNL A   1      31.694  26.886  24.281  1.00  0.00     0.078 A 
ATOM     15  C   UNL A   1      33.034  27.146  24.022  1.00  0.00     0.142 A 
ATOM     16  Cl  UNL A   1      30.484  28.035  23.856  1.00  0.00    -0.081 Cl
ATOM     17  F   UNL A   1      33.407  28.288  23.424  1.00  0.00    -0.205 F 
BRANCH   7  18
ATOM     18  C   UNL A   1      33.467  21.530  26.292  1.00  0.00     0.227 C 
ATOM     19  O   UNL A   1      34.035  21.224  27.337  1.00  0.00    -0.285 OA
BRANCH  18  20
ATOM     20  C   UNL A   1      32.927  20.474  25.364  1.00  0.00     0.113 A 
ATOM     21  C   UNL A   1      32.909  16.710  25.127  1.00  0.00     0.044 C 
ATOM     22  C   UNL A   1      32.738  18.155  24.775  1.00  0.00    -0.047 A 
ATOM     23  C   UNL A   1      32.529  18.559  23.455  1.00  0.00     0.023 A 
ATOM     24  C   UNL A   1      32.922  19.136  25.749  1.00  0.00     0.036 A 
ATOM     25  C   UNL A   1      32.447  19.917  23.179  1.00  0.00     0.112 A 
ATOM     26  N   UNL A   1      32.593  20.887  24.110  1.00  0.00    -0.253 NA
ENDBRANCH  18  20
ENDBRANCH   7  18
ENDBRANCH   5   6
ENDBRANCH   3   5
ENDBRANCH   2   3
ENDBRANCH   1   2
BRANCH   1  27
ATOM     27  C   UNL A   1      39.115  21.626  26.063  1.00  0.00     0.275 C 
BRANCH  27  28
ATOM     28  O   UNL A   1      39.872  22.827  25.901  1.00  0.00    -0.458 OA
BRANCH  28  29
ATOM     29  C   UNL A   1      40.925  22.949  26.753  1.00  0.00     0.338 C 
ATOM     30  O   UNL A   1      42.040  22.549  26.556  1.00  0.00    -0.246 OA
BRANCH  29  31
ATOM     31  C   UNL A   1      40.615  23.981  27.748  1.00  0.00     0.060 A 
ATOM     32  C   UNL A   1      39.380  24.601  27.669  1.00  0.00     0.016 A 
ATOM     33  C   UNL A   1      41.714  24.587  28.378  1.00  0.00     0.016 A 
ATOM     34  C   UNL A   1      39.350  25.953  27.899  1.00  0.00     0.010 A 
ATOM     35  C   UNL A   1      41.667  25.941  28.648  1.00  0.00     0.010 A 
ATOM     36  C   UNL A   1      40.523  26.632  28.285  1.00  0.00    -0.014 A 
BRANCH  36  37
ATOM     37  C   UNL A   1      40.351  28.039  28.573  1.00  0.00     0.031 A 
ATOM     38  C   UNL A   1      41.491  28.790  28.033  1.00  0.00     0.074 A 
ATOM     39  C   UNL A   1      39.445  28.638  29.360  1.00  0.00     0.049 A 
ATOM     40  N   UNL A   1      42.540  29.128  28.703  1.00  0.00    -0.248 NA
ATOM     41  C   UNL A   1      41.590  28.951  26.582  1.00  0.00     0.031 C 
ATOM     42  C   UNL A   1      38.142  28.206  29.850  1.00  0.00     0.029 A 
ATOM     43  N   UNL A   1      39.590  29.879  29.904  1.00  0.00    -0.354 N 
ATOM     44  C   UNL A   1      43.419  29.643  27.772  1.00  0.00     0.074 A 
ATOM     45  C   UNL A   1      42.839  29.402  26.475  1.00  0.00     0.031 C 
ATOM     46  C   UNL A   1      37.535  29.248  30.477  1.00  0.00     0.029 A 
ATOM     47  C   UNL A   1      38.484  30.348  30.583  1.00  0.00     0.049 A 
ATOM     48  H   UNL A   1      40.420  30.400  29.820  1.00  0.00     0.167 HD
ATOM     49  C   UNL A   1      44.476  30.389  28.175  1.00  0.00     0.037 A 
ATOM     50  C   UNL A   1      38.387  31.568  31.164  1.00  0.00     0.037 A 
ATOM     51  C   UNL A   1      44.826  30.117  29.549  1.00  0.00     0.049 A 
ATOM     52  C   UNL A   1      39.767  32.015  31.495  1.00  0.00     0.074 A 
ATOM     53  C   UNL A   1      45.263  28.991  30.226  1.00  0.00     0.029 A 
ATOM     54  N   UNL A   1      44.386  30.979  30.525  1.00  0.00    -0.354 N 
ATOM     55  N   UNL A   1      40.498  31.488  32.436  1.00  0.00    -0.248 NA
ATOM     56  C   UNL A   1      40.496  32.803  30.509  1.00  0.00     0.031 C 
ATOM     57  C   UNL A   1      44.637  29.050  31.507  1.00  0.00     0.029 A 
ATOM     58  C   UNL A   1      43.873  30.216  31.546  1.00  0.00     0.049 A 
ATOM     59  H   UNL A   1      44.430  31.962  30.497  1.00  0.00     0.167 HD
ATOM     60  C   UNL A   1      41.791  31.512  31.936  1.00  0.00     0.074 A 
ATOM     61  C   UNL A   1      41.742  32.421  30.797  1.00  0.00     0.031 C 
ATOM     62  C   UNL A   1      42.720  30.592  32.329  1.00  0.00     0.037 A 
BRANCH  49  63
ATOM     63  C   UNL A   1      44.922  31.605  27.418  1.00  0.00     0.064 A 
ATOM     64  C   UNL A   1      46.225  31.644  26.895  1.00  0.00     0.173 A 
ATOM     65  C   UNL A   1      44.231  32.839  27.441  1.00  0.00     0.173 A 
ATOM     66  F   UNL A   1      46.976  30.534  26.846  1.00  0.00    -0.203 F 
ATOM     67  C   UNL A   1      46.819  32.844  26.502  1.00  0.00     0.198 A 
ATOM     68  C   UNL A   1      44.807  34.023  26.996  1.00  0.00     0.198 A 
ATOM     69  F   UNL A   1      43.021  32.978  27.995  1.00  0.00    -0.203 F 
ATOM     70  F   UNL A   1      48.106  32.856  26.133  1.00  0.00    -0.200 F 
ATOM     71  C   UNL A   1      46.113  34.032  26.560  1.00  0.00     0.200 A 
ATOM     72  F   UNL A   1      44.110  35.165  27.080  1.00  0.00    -0.200 F 
ATOM     73  F   UNL A   1      46.704  35.192  26.248  1.00  0.00    -0.200 F 
ENDBRANCH  49  63
BRANCH  50  74
ATOM     74  C   UNL A   1      37.246  32.510  31.129  1.00  0.00     0.064 A 
ATOM     75  C   UNL A   1      36.949  33.227  29.957  1.00  0.00     0.173 A 
ATOM     76  C   UNL A   1      36.247  32.483  32.119  1.00  0.00     0.173 A 
ATOM     77  F   UNL A   1      37.834  33.270  28.949  1.00  0.00    -0.203 F 
ATOM     78  C   UNL A   1      35.707  33.837  29.765  1.00  0.00     0.198 A 
ATOM     79  C   UNL A   1      35.009  33.098  31.929  1.00  0.00     0.198 A 
ATOM     80  F   UNL A   1      36.414  31.775  33.245  1.00  0.00    -0.203 F 
ATOM     81  F   UNL A   1      35.431  34.443  28.602  1.00  0.00    -0.200 F 
ATOM     82  C   UNL A   1      34.732  33.757  30.746  1.00  0.00     0.200 A 
ATOM     83  F   UNL A   1      34.060  32.984  32.870  1.00  0.00    -0.200 F 
ATOM     84  F   UNL A   1      33.515  34.278  30.534  1.00  0.00    -0.200 F 
ENDBRANCH  50  74
BRANCH  62  85
ATOM     85  C   UNL A   1      42.392  29.739  33.524  1.00  0.00     0.064 A 
ATOM     86  C   UNL A   1      41.713  28.510  33.449  1.00  0.00     0.173 A 
ATOM     87  C   UNL A   1      42.892  30.125  34.776  1.00  0.00     0.173 A 
ATOM     88  F   UNL A   1      41.288  28.027  32.274  1.00  0.00    -0.203 F 
ATOM     89  C   UNL A   1      41.510  27.728  34.586  1.00  0.00     0.198 A 
ATOM     90  C   UNL A   1      42.720  29.324  35.901  1.00  0.00     0.198 A 
ATOM     91  F   UNL A   1      43.589  31.266  34.900  1.00  0.00    -0.203 F 
ATOM     92  F   UNL A   1      40.848  26.565  34.494  1.00  0.00    -0.200 F 
ATOM     93  C   UNL A   1      42.021  28.131  35.809  1.00  0.00     0.200 A 
ATOM     94  F   UNL A   1      43.254  29.697  37.073  1.00  0.00    -0.200 F 
ATOM     95  F   UNL A   1      41.863  27.359  36.893  1.00  0.00    -0.200 F 
ENDBRANCH  62  85
ENDBRANCH  36  37
ENDBRANCH  29  31
ENDBRANCH  28  29
ENDBRANCH  27  28
ENDBRANCH   1  27
TORSDOF 14
ENDMDL
MODEL 3
REMARK VINA RESULT:     -13.1      4.469      6.913
REMARK SMILES Cc1ccnc(C(=O)c2[nH]c3cc(Cl)c(F)cc3c2CC(=O)OCCOC(=O)c2ccc(-c3c4nc(c(-c5c(F)c(F)c(F)c(F)c5F)c5ccc([nH]5)c(-c5c(F)c(F)c(F)c(F)c5F)c5nc(c(-c6c(F)c(F)c(F)c(F)c6F)c6ccc3[nH]6)C=C5)C=C4)cc2)c1
REMARK SMILES IDX 24 1 23 2 21 3 22 4 20 5 19 6 9 7 10 8 11 9 18 11 12 12
REMARK SMILES IDX 17 13 13 14 15 15 14 16 16 17 7 18 8 19 6 20 1 21 2 22 3 23
REMARK SMILES IDX 92 24 4 25 5 26 25 27 26 28 27 29 28 30 29 31 30 32 91 33
REMARK SMILES IDX 31 34 90 35 32 36 33 37 34 38 84 39 35 40 89 41 83 42 85 43
REMARK SMILES IDX 36 44 88 45 82 46 81 47 37 49 69 50 49 51 68 52 50 53 53 54
REMARK SMILES IDX 67 55 86 56 51 57 52 58 66 60 87 61 54 62 38 63 39 64 47 65
REMARK SMILES IDX 40 66 41 67 45 68 48 69 42 70 43 71 46 72 44 73 70 74 71 75
REMARK SMILES IDX 79 76 72 77 73 78 77 79 80 80 74 81 75 82 78 83 76 84 55 85
REMARK SMILES IDX 56 86 64 87 57 88 58 89 62 90 65 91 59 92 60 93 63 94 61 95
REMARK H PARENT 10 10 85 48 53 59
REMARK Flexibility Score: inf
ROOT
ATOM      1  C   UNL A   1      43.701  25.587  24.813  1.00  0.00     0.274 C 
ENDROOT
BRANCH   1   2
ATOM      2  O   UNL A   1      43.903  26.572  25.866  1.00  0.00    -0.462 OA
BRANCH   2   3
ATOM      3  C   UNL A   1      45.189  26.963  26.015  1.00  0.00     0.310 C 
ATOM      4  O   UNL A   1      45.612  28.033  25.574  1.00  0.00    -0.252 OA
BRANCH   3   5
ATOM      5  C   UNL A   1      46.166  26.012  26.646  1.00  0.00     0.161 C 
BRANCH   5   6
ATOM      6  C   UNL A   1      45.898  24.657  27.254  1.00  0.00     0.000 A 
ATOM      7  C   UNL A   1      45.741  23.377  26.706  1.00  0.00     0.093 A 
ATOM      8  N   UNL A   1      45.160  22.579  27.668  1.00  0.00    -0.351 N 
ATOM      9  C   UNL A   1      44.942  23.266  28.826  1.00  0.00     0.048 A 
ATOM     10  H   UNL A   1      44.931  21.631  27.536  1.00  0.00     0.167 HD
ATOM     11  C   UNL A   1      45.392  24.564  28.614  1.00  0.00     0.007 A 
ATOM     12  C   UNL A   1      44.335  22.842  30.016  1.00  0.00     0.050 A 
ATOM     13  C   UNL A   1      45.193  25.506  29.648  1.00  0.00     0.051 A 
ATOM     14  C   UNL A   1      44.169  23.791  31.026  1.00  0.00     0.078 A 
ATOM     15  C   UNL A   1      44.587  25.103  30.840  1.00  0.00     0.142 A 
ATOM     16  Cl  UNL A   1      43.425  23.314  32.504  1.00  0.00    -0.081 Cl
ATOM     17  F   UNL A   1      44.404  26.023  31.799  1.00  0.00    -0.205 F 
BRANCH   7  18
ATOM     18  C   UNL A   1      45.923  22.782  25.389  1.00  0.00     0.227 C 
ATOM     19  O   UNL A   1      46.275  23.482  24.443  1.00  0.00    -0.285 OA
BRANCH  18  20
ATOM     20  C   UNL A   1      45.506  21.349  25.181  1.00  0.00     0.113 A 
ATOM     21  C   UNL A   1      42.451  19.216  25.766  1.00  0.00     0.044 C 
ATOM     22  C   UNL A   1      43.855  19.628  25.444  1.00  0.00    -0.047 A 
ATOM     23  C   UNL A   1      44.893  18.696  25.407  1.00  0.00     0.023 A 
ATOM     24  C   UNL A   1      44.171  20.980  25.309  1.00  0.00     0.036 A 
ATOM     25  C   UNL A   1      46.185  19.147  25.172  1.00  0.00     0.112 A 
ATOM     26  N   UNL A   1      46.512  20.448  25.009  1.00  0.00    -0.253 NA
ENDBRANCH  18  20
ENDBRANCH   7  18
ENDBRANCH   5   6
ENDBRANCH   3   5
ENDBRANCH   2   3
ENDBRANCH   1   2
BRANCH   1  27
ATOM     27  C   UNL A   1      42.459  24.701  25.002  1.00  0.00     0.275 C 
BRANCH  27  28
ATOM     28  O   UNL A   1      42.587  23.831  26.128  1.00  0.00    -0.458 OA
BRANCH  28  29
ATOM     29  C   UNL A   1      41.408  23.342  26.599  1.00  0.00     0.338 C 
ATOM     30  O   UNL A   1      41.057  22.194  26.563  1.00  0.00    -0.246 OA
BRANCH  29  31
ATOM     31  C   UNL A   1      40.814  24.326  27.511  1.00  0.00     0.060 A 
ATOM     32  C   UNL A   1      39.693  25.011  27.076  1.00  0.00     0.016 A 
ATOM     33  C   UNL A   1      41.659  24.837  28.509  1.00  0.00     0.016 A 
ATOM     34  C   UNL A   1      39.626  26.346  27.382  1.00  0.00     0.010 A 
ATOM     35  C   UNL A   1      41.563  26.172  28.848  1.00  0.00     0.010 A 
ATOM     36  C   UNL A   1      40.623  26.941  28.181  1.00  0.00    -0.014 A 
BRANCH  36  37
ATOM     37  C   UNL A   1      40.404  28.334  28.499  1.00  0.00     0.031 A 
ATOM     38  C   UNL A   1      41.531  29.132  27.998  1.00  0.00     0.074 A 
ATOM     39  C   UNL A   1      39.467  28.888  29.283  1.00  0.00     0.049 A 
ATOM     40  N   UNL A   1      42.557  29.484  28.695  1.00  0.00    -0.248 NA
ATOM     41  C   UNL A   1      41.651  29.331  26.553  1.00  0.00     0.031 C 
ATOM     42  C   UNL A   1      38.169  28.406  29.739  1.00  0.00     0.029 A 
ATOM     43  N   UNL A   1      39.566  30.119  29.859  1.00  0.00    -0.354 N 
ATOM     44  C   UNL A   1      43.437  30.047  27.793  1.00  0.00     0.074 A 
ATOM     45  C   UNL A   1      42.888  29.820  26.480  1.00  0.00     0.031 C 
ATOM     46  C   UNL A   1      37.521  29.414  30.379  1.00  0.00     0.029 A 
ATOM     47  C   UNL A   1      38.434  30.539  30.529  1.00  0.00     0.049 A 
ATOM     48  H   UNL A   1      40.382  30.666  29.802  1.00  0.00     0.167 HD
ATOM     49  C   UNL A   1      44.464  30.814  28.232  1.00  0.00     0.037 A 
ATOM     50  C   UNL A   1      38.292  31.741  31.136  1.00  0.00     0.037 A 
ATOM     51  C   UNL A   1      44.798  30.519  29.606  1.00  0.00     0.049 A 
ATOM     52  C   UNL A   1      39.651  32.220  31.503  1.00  0.00     0.074 A 
ATOM     53  C   UNL A   1      45.256  29.390  30.264  1.00  0.00     0.029 A 
ATOM     54  N   UNL A   1      44.316  31.344  30.594  1.00  0.00    -0.354 N 
ATOM     55  N   UNL A   1      40.381  31.692  32.445  1.00  0.00    -0.248 NA
ATOM     56  C   UNL A   1      40.373  33.052  30.550  1.00  0.00     0.031 C 
ATOM     57  C   UNL A   1      44.606  29.400  31.535  1.00  0.00     0.029 A 
ATOM     58  C   UNL A   1      43.808  30.542  31.587  1.00  0.00     0.049 A 
ATOM     59  H   UNL A   1      44.331  32.328  30.590  1.00  0.00     0.167 HD
ATOM     60  C   UNL A   1      41.681  31.766  31.969  1.00  0.00     0.074 A 
ATOM     61  C   UNL A   1      41.626  32.700  30.852  1.00  0.00     0.031 C 
ATOM     62  C   UNL A   1      42.630  30.864  32.358  1.00  0.00     0.037 A 
BRANCH  49  63
ATOM     63  C   UNL A   1      44.887  32.061  27.513  1.00  0.00     0.064 A 
ATOM     64  C   UNL A   1      46.157  32.105  26.914  1.00  0.00     0.173 A 
ATOM     65  C   UNL A   1      44.223  33.302  27.641  1.00  0.00     0.173 A 
ATOM     66  F   UNL A   1      46.882  30.987  26.762  1.00  0.00    -0.203 F 
ATOM     67  C   UNL A   1      46.749  33.315  26.547  1.00  0.00     0.198 A 
ATOM     68  C   UNL A   1      44.794  34.498  27.223  1.00  0.00     0.198 A 
ATOM     69  F   UNL A   1      43.052  33.432  28.275  1.00  0.00    -0.203 F 
ATOM     70  F   UNL A   1      48.012  33.325  26.100  1.00  0.00    -0.200 F 
ATOM     71  C   UNL A   1      46.071  34.509  26.709  1.00  0.00     0.200 A 
ATOM     72  F   UNL A   1      44.125  35.646  27.409  1.00  0.00    -0.200 F 
ATOM     73  F   UNL A   1      46.664  35.674  26.421  1.00  0.00    -0.200 F 
ENDBRANCH  49  63
BRANCH  50  74
ATOM     74  C   UNL A   1      37.124  32.650  31.102  1.00  0.00     0.064 A 
ATOM     75  C   UNL A   1      36.781  33.326  29.919  1.00  0.00     0.173 A 
ATOM     76  C   UNL A   1      36.148  32.622  32.115  1.00  0.00     0.173 A 
ATOM     77  F   UNL A   1      37.641  33.366  28.890  1.00  0.00    -0.203 F 
ATOM     78  C   UNL A   1      35.517  33.896  29.740  1.00  0.00     0.198 A 
ATOM     79  C   UNL A   1      34.890  33.197  31.939  1.00  0.00     0.198 A 
ATOM     80  F   UNL A   1      36.360  31.950  33.257  1.00  0.00    -0.203 F 
ATOM     81  F   UNL A   1      35.199  34.463  28.568  1.00  0.00    -0.200 F 
ATOM     82  C   UNL A   1      34.567  33.816  30.745  1.00  0.00     0.200 A 
ATOM     83  F   UNL A   1      33.965  33.083  32.903  1.00  0.00    -0.200 F 
ATOM     84  F   UNL A   1      33.332  34.297  30.547  1.00  0.00    -0.200 F 
ENDBRANCH  50  74
BRANCH  62  85
ATOM     85  C   UNL A   1      42.306  29.974  33.526  1.00  0.00     0.064 A 
ATOM     86  C   UNL A   1      41.711  28.706  33.405  1.00  0.00     0.173 A 
ATOM     87  C   UNL A   1      42.728  30.370  34.803  1.00  0.00     0.173 A 
ATOM     88  F   UNL A   1      41.367  28.216  32.206  1.00  0.00    -0.203 F 
ATOM     89  C   UNL A   1      41.510  27.894  34.521  1.00  0.00     0.198 A 
ATOM     90  C   UNL A   1      42.559  29.542  35.909  1.00  0.00     0.198 A 
ATOM     91  F   UNL A   1      43.345  31.550  34.972  1.00  0.00    -0.203 F 
ATOM     92  F   UNL A   1      40.927  26.694  34.386  1.00  0.00    -0.200 F 
ATOM     93  C   UNL A   1      41.942  28.310  35.771  1.00  0.00     0.200 A 
ATOM     94  F   UNL A   1      43.019  29.929  37.108  1.00  0.00    -0.200 F 
ATOM     95  F   UNL A   1      41.788  27.512  36.837  1.00  0.00    -0.200 F 
ENDBRANCH  62  85
ENDBRANCH  36  37
ENDBRANCH  29  31
ENDBRANCH  28  29
ENDBRANCH  27  28
ENDBRANCH   1  27
TORSDOF 14
ENDMDL
