MODEL 1
REMARK VINA RESULT:     -11.8      0.000      0.000
REMARK SMILES COc1nc(-c2ccccc2)nc(C)c1CC(=O)OCCOC(=O)c1ccc(-c2c3nc(c(-c4c(F)c(F)c(F)c(F)c4F)c4ccc([nH]4)c(-c4c(F)c(F)c(F)c(F)c4F)c4nc(c(-c5c(F)c(F)c(F)c(F)c5F)c5ccc2[nH]5)C=C4)C=C3)cc1
REMARK SMILES IDX 20 1 19 2 17 3 18 4 16 5 15 6 3 7 4 8 5 9 13 10 12 11 14 12
REMARK SMILES IDX 2 13 1 14 6 15 7 16 11 17 8 18 10 19 9 20 21 21 22 22 23 23
REMARK SMILES IDX 24 24 25 25 26 26 87 27 27 28 86 29 28 30 29 31 30 32 80 33
REMARK SMILES IDX 31 34 85 35 79 36 81 37 32 38 84 39 78 40 77 41 33 43 65 44
REMARK SMILES IDX 45 45 64 46 46 47 49 48 63 49 82 50 47 51 48 52 62 54 83 55
REMARK SMILES IDX 50 56 34 57 35 58 43 59 36 60 37 61 41 62 44 63 38 64 39 65
REMARK SMILES IDX 42 66 40 67 66 68 67 69 75 70 68 71 69 72 73 73 76 74 70 75
REMARK SMILES IDX 71 76 74 77 72 78 51 79 52 80 60 81 53 82 54 83 58 84 61 85
REMARK SMILES IDX 55 86 56 87 59 88 57 89
REMARK H PARENT 81 42 49 53
REMARK Flexibility Score: inf
ROOT
ATOM      1  C   UNL A   1      31.112  29.982  24.499  1.00  0.00     0.274 C 
ENDROOT
BRANCH   1   2
ATOM      2  O   UNL A   1      30.807  28.592  24.265  1.00  0.00    -0.462 OA
BRANCH   2   3
ATOM      3  C   UNL A   1      31.148  28.117  23.039  1.00  0.00     0.310 C 
ATOM      4  O   UNL A   1      30.348  27.861  22.143  1.00  0.00    -0.252 OA
BRANCH   3   5
ATOM      5  C   UNL A   1      32.632  27.951  22.829  1.00  0.00     0.165 C 
BRANCH   5   6
ATOM      6  C   UNL A   1      33.232  26.626  23.194  1.00  0.00     0.047 A 
ATOM      7  C   UNL A   1      33.734  26.374  24.462  1.00  0.00     0.220 A 
ATOM      8  N   UNL A   1      34.329  25.227  24.821  1.00  0.00    -0.193 NA
ATOM      9  C   UNL A   1      34.446  24.301  23.861  1.00  0.00     0.163 A 
ATOM     10  C   UNL A   1      33.337  25.571  22.297  1.00  0.00     0.049 A 
ATOM     11  N   UNL A   1      33.973  24.424  22.609  1.00  0.00    -0.233 NA
ATOM     12  C   UNL A   1      32.804  25.653  20.896  1.00  0.00     0.067 C 
BRANCH   7  13
ATOM     13  O   UNL A   1      33.645  27.393  25.393  1.00  0.00    -0.481 OA
ATOM     14  C   UNL A   1      32.905  27.027  26.557  1.00  0.00     0.280 C 
ENDBRANCH   7  13
BRANCH   9  15
ATOM     15  C   UNL A   1      35.177  23.079  24.194  1.00  0.00     0.019 A 
ATOM     16  C   UNL A   1      34.533  22.004  24.831  1.00  0.00     0.012 A 
ATOM     17  C   UNL A   1      36.537  22.942  23.873  1.00  0.00     0.012 A 
ATOM     18  C   UNL A   1      35.224  20.829  25.131  1.00  0.00     0.001 A 
ATOM     19  C   UNL A   1      37.235  21.774  24.190  1.00  0.00     0.001 A 
ATOM     20  C   UNL A   1      36.576  20.717  24.814  1.00  0.00     0.000 A 
ENDBRANCH   9  15
ENDBRANCH   5   6
ENDBRANCH   3   5
ENDBRANCH   2   3
ENDBRANCH   1   2
BRANCH   1  21
ATOM     21  C   UNL A   1      31.499  30.214  25.957  1.00  0.00     0.275 C 
BRANCH  21  22
ATOM     22  O   UNL A   1      32.906  30.501  26.052  1.00  0.00    -0.458 OA
BRANCH  22  23
ATOM     23  C   UNL A   1      33.248  31.445  26.953  1.00  0.00     0.338 C 
ATOM     24  O   UNL A   1      32.638  32.478  27.213  1.00  0.00    -0.246 OA
BRANCH  23  25
ATOM     25  C   UNL A   1      34.521  31.099  27.611  1.00  0.00     0.060 A 
ATOM     26  C   UNL A   1      34.803  29.788  28.005  1.00  0.00     0.016 A 
ATOM     27  C   UNL A   1      35.406  32.129  27.933  1.00  0.00     0.016 A 
ATOM     28  C   UNL A   1      35.938  29.517  28.772  1.00  0.00     0.010 A 
ATOM     29  C   UNL A   1      36.580  31.845  28.633  1.00  0.00     0.010 A 
ATOM     30  C   UNL A   1      36.847  30.541  29.078  1.00  0.00    -0.014 A 
BRANCH  30  31
ATOM     31  C   UNL A   1      38.096  30.255  29.831  1.00  0.00     0.031 A 
ATOM     32  C   UNL A   1      39.142  29.337  29.264  1.00  0.00     0.074 A 
ATOM     33  C   UNL A   1      38.266  30.788  31.056  1.00  0.00     0.049 A 
ATOM     34  N   UNL A   1      40.210  28.844  29.841  1.00  0.00    -0.248 NA
ATOM     35  C   UNL A   1      38.962  28.908  27.870  1.00  0.00     0.031 C 
ATOM     36  C   UNL A   1      37.334  31.702  31.716  1.00  0.00     0.029 A 
ATOM     37  N   UNL A   1      39.277  30.625  31.971  1.00  0.00    -0.354 N 
ATOM     38  C   UNL A   1      40.810  28.025  28.893  1.00  0.00     0.074 A 
ATOM     39  C   UNL A   1      39.985  28.080  27.705  1.00  0.00     0.031 C 
ATOM     40  C   UNL A   1      37.820  32.029  32.923  1.00  0.00     0.029 A 
ATOM     41  C   UNL A   1      39.063  31.298  33.147  1.00  0.00     0.049 A 
ATOM     42  H   UNL A   1      40.079  30.079  31.798  1.00  0.00     0.167 HD
ATOM     43  C   UNL A   1      41.947  27.295  29.008  1.00  0.00     0.037 A 
ATOM     44  C   UNL A   1      39.764  31.299  34.295  1.00  0.00     0.037 A 
ATOM     45  C   UNL A   1      42.784  27.264  30.181  1.00  0.00     0.049 A 
ATOM     46  C   UNL A   1      41.002  30.458  34.406  1.00  0.00     0.074 A 
ATOM     47  C   UNL A   1      43.973  26.579  30.375  1.00  0.00     0.029 A 
ATOM     48  N   UNL A   1      42.523  27.950  31.356  1.00  0.00    -0.354 N 
ATOM     49  N   UNL A   1      41.551  29.676  33.511  1.00  0.00    -0.248 NA
ATOM     50  C   UNL A   1      41.712  30.494  35.692  1.00  0.00     0.031 C 
ATOM     51  C   UNL A   1      44.414  26.827  31.680  1.00  0.00     0.029 A 
ATOM     52  C   UNL A   1      43.519  27.693  32.286  1.00  0.00     0.049 A 
ATOM     53  H   UNL A   1      41.746  28.534  31.509  1.00  0.00     0.167 HD
ATOM     54  C   UNL A   1      42.672  29.131  34.118  1.00  0.00     0.074 A 
ATOM     55  C   UNL A   1      42.736  29.687  35.455  1.00  0.00     0.031 C 
ATOM     56  C   UNL A   1      43.566  28.246  33.614  1.00  0.00     0.037 A 
BRANCH  43  57
ATOM     57  C   UNL A   1      42.353  26.448  27.840  1.00  0.00     0.064 A 
ATOM     58  C   UNL A   1      41.769  25.196  27.600  1.00  0.00     0.173 A 
ATOM     59  C   UNL A   1      43.288  26.929  26.910  1.00  0.00     0.173 A 
ATOM     60  F   UNL A   1      40.879  24.690  28.464  1.00  0.00    -0.203 F 
ATOM     61  C   UNL A   1      42.115  24.452  26.474  1.00  0.00     0.198 A 
ATOM     62  C   UNL A   1      43.615  26.190  25.775  1.00  0.00     0.198 A 
ATOM     63  F   UNL A   1      43.870  28.123  27.093  1.00  0.00    -0.203 F 
ATOM     64  F   UNL A   1      41.562  23.247  26.275  1.00  0.00    -0.200 F 
ATOM     65  C   UNL A   1      43.029  24.953  25.559  1.00  0.00     0.200 A 
ATOM     66  F   UNL A   1      44.491  26.681  24.887  1.00  0.00    -0.200 F 
ATOM     67  F   UNL A   1      43.348  24.240  24.469  1.00  0.00    -0.200 F 
ENDBRANCH  43  57
BRANCH  44  68
ATOM     68  C   UNL A   1      39.287  32.115  35.439  1.00  0.00     0.064 A 
ATOM     69  C   UNL A   1      38.470  31.555  36.429  1.00  0.00     0.173 A 
ATOM     70  C   UNL A   1      39.666  33.458  35.581  1.00  0.00     0.173 A 
ATOM     71  F   UNL A   1      38.066  30.282  36.320  1.00  0.00    -0.203 F 
ATOM     72  C   UNL A   1      38.049  32.310  37.520  1.00  0.00     0.198 A 
ATOM     73  C   UNL A   1      39.264  34.204  36.686  1.00  0.00     0.198 A 
ATOM     74  F   UNL A   1      40.449  34.036  34.657  1.00  0.00    -0.203 F 
ATOM     75  F   UNL A   1      37.247  31.760  38.442  1.00  0.00    -0.200 F 
ATOM     76  C   UNL A   1      38.453  33.631  37.653  1.00  0.00     0.200 A 
ATOM     77  F   UNL A   1      39.668  35.475  36.816  1.00  0.00    -0.200 F 
ATOM     78  F   UNL A   1      38.059  34.350  38.711  1.00  0.00    -0.200 F 
ENDBRANCH  44  68
BRANCH  56  79
ATOM     79  C   UNL A   1      44.696  27.840  34.509  1.00  0.00     0.064 A 
ATOM     80  C   UNL A   1      45.894  28.570  34.550  1.00  0.00     0.173 A 
ATOM     81  C   UNL A   1      44.578  26.718  35.342  1.00  0.00     0.173 A 
ATOM     82  F   UNL A   1      46.058  29.640  33.758  1.00  0.00    -0.203 F 
ATOM     83  C   UNL A   1      46.942  28.175  35.376  1.00  0.00     0.198 A 
ATOM     84  C   UNL A   1      45.621  26.340  36.182  1.00  0.00     0.198 A 
ATOM     85  F   UNL A   1      43.452  25.990  35.339  1.00  0.00    -0.203 F 
ATOM     86  F   UNL A   1      48.094  28.860  35.367  1.00  0.00    -0.200 F 
ATOM     87  C   UNL A   1      46.804  27.063  36.194  1.00  0.00     0.200 A 
ATOM     88  F   UNL A   1      45.484  25.268  36.976  1.00  0.00    -0.200 F 
ATOM     89  F   UNL A   1      47.816  26.682  36.986  1.00  0.00    -0.200 F 
ENDBRANCH  56  79
ENDBRANCH  30  31
ENDBRANCH  23  25
ENDBRANCH  22  23
ENDBRANCH  21  22
ENDBRANCH   1  21
TORSDOF 14
ENDMDL
MODEL 2
REMARK VINA RESULT:     -11.7      1.583      2.413
REMARK SMILES COc1nc(-c2ccccc2)nc(C)c1CC(=O)OCCOC(=O)c1ccc(-c2c3nc(c(-c4c(F)c(F)c(F)c(F)c4F)c4ccc([nH]4)c(-c4c(F)c(F)c(F)c(F)c4F)c4nc(c(-c5c(F)c(F)c(F)c(F)c5F)c5ccc2[nH]5)C=C4)C=C3)cc1
REMARK SMILES IDX 20 1 19 2 17 3 18 4 16 5 15 6 3 7 4 8 5 9 13 10 12 11 14 12
REMARK SMILES IDX 2 13 1 14 6 15 7 16 11 17 8 18 10 19 9 20 21 21 22 22 23 23
REMARK SMILES IDX 24 24 25 25 26 26 87 27 27 28 86 29 28 30 29 31 30 32 80 33
REMARK SMILES IDX 31 34 85 35 79 36 81 37 32 38 84 39 78 40 77 41 33 43 65 44
REMARK SMILES IDX 45 45 64 46 46 47 49 48 63 49 82 50 47 51 48 52 62 54 83 55
REMARK SMILES IDX 50 56 34 57 35 58 43 59 36 60 37 61 41 62 44 63 38 64 39 65
REMARK SMILES IDX 42 66 40 67 66 68 67 69 75 70 68 71 69 72 73 73 76 74 70 75
REMARK SMILES IDX 71 76 74 77 72 78 51 79 52 80 60 81 53 82 54 83 58 84 61 85
REMARK SMILES IDX 55 86 56 87 59 88 57 89
REMARK H PARENT 81 42 49 53
REMARK Flexibility Score: inf
ROOT
ATOM      1  C   UNL A   1      31.739  28.207  26.267  1.00  0.00     0.274 C 
ENDROOT
BRANCH   1   2
ATOM      2  O   UNL A   1      31.884  27.145  25.302  1.00  0.00    -0.462 OA
BRANCH   2   3
ATOM      3  C   UNL A   1      32.353  25.968  25.795  1.00  0.00     0.310 C 
ATOM      4  O   UNL A   1      33.521  25.761  26.110  1.00  0.00    -0.252 OA
BRANCH   3   5
ATOM      5  C   UNL A   1      31.297  24.904  25.969  1.00  0.00     0.165 C 
BRANCH   5   6
ATOM      6  C   UNL A   1      31.622  23.529  25.468  1.00  0.00     0.047 A 
ATOM      7  C   UNL A   1      32.165  22.557  26.294  1.00  0.00     0.220 A 
ATOM      8  N   UNL A   1      32.523  21.332  25.881  1.00  0.00    -0.193 NA
ATOM      9  C   UNL A   1      32.352  21.080  24.578  1.00  0.00     0.163 A 
ATOM     10  C   UNL A   1      31.417  23.137  24.152  1.00  0.00     0.049 A 
ATOM     11  N   UNL A   1      31.812  21.933  23.691  1.00  0.00    -0.233 NA
ATOM     12  C   UNL A   1      30.796  24.046  23.131  1.00  0.00     0.067 C 
BRANCH   7  13
ATOM     13  O   UNL A   1      32.381  22.898  27.617  1.00  0.00    -0.481 OA
ATOM     14  C   UNL A   1      33.695  22.576  28.073  1.00  0.00     0.280 C 
ENDBRANCH   7  13
BRANCH   9  15
ATOM     15  C   UNL A   1      32.824  19.789  24.077  1.00  0.00     0.019 A 
ATOM     16  C   UNL A   1      33.953  19.167  24.637  1.00  0.00     0.012 A 
ATOM     17  C   UNL A   1      32.152  19.131  23.034  1.00  0.00     0.012 A 
ATOM     18  C   UNL A   1      34.393  17.926  24.174  1.00  0.00     0.001 A 
ATOM     19  C   UNL A   1      32.601  17.897  22.557  1.00  0.00     0.001 A 
ATOM     20  C   UNL A   1      33.719  17.294  23.131  1.00  0.00     0.000 A 
ENDBRANCH   9  15
ENDBRANCH   5   6
ENDBRANCH   3   5
ENDBRANCH   2   3
ENDBRANCH   1   2
BRANCH   1  21
ATOM     21  C   UNL A   1      31.874  29.571  25.594  1.00  0.00     0.275 C 
BRANCH  21  22
ATOM     22  O   UNL A   1      33.184  30.111  25.840  1.00  0.00    -0.458 OA
BRANCH  22  23
ATOM     23  C   UNL A   1      33.255  31.052  26.804  1.00  0.00     0.338 C 
ATOM     24  O   UNL A   1      32.473  31.980  26.994  1.00  0.00    -0.246 OA
BRANCH  23  25
ATOM     25  C   UNL A   1      34.455  30.855  27.638  1.00  0.00     0.060 A 
ATOM     26  C   UNL A   1      35.330  31.908  27.915  1.00  0.00     0.016 A 
ATOM     27  C   UNL A   1      34.764  29.562  28.064  1.00  0.00     0.016 A 
ATOM     28  C   UNL A   1      36.540  31.659  28.564  1.00  0.00     0.010 A 
ATOM     29  C   UNL A   1      35.938  29.326  28.781  1.00  0.00     0.010 A 
ATOM     30  C   UNL A   1      36.848  30.368  29.019  1.00  0.00    -0.014 A 
BRANCH  30  31
ATOM     31  C   UNL A   1      38.099  30.101  29.776  1.00  0.00     0.031 A 
ATOM     32  C   UNL A   1      39.134  29.152  29.240  1.00  0.00     0.074 A 
ATOM     33  C   UNL A   1      38.280  30.679  30.978  1.00  0.00     0.049 A 
ATOM     34  N   UNL A   1      40.201  28.672  29.829  1.00  0.00    -0.248 NA
ATOM     35  C   UNL A   1      38.941  28.670  27.864  1.00  0.00     0.031 C 
ATOM     36  C   UNL A   1      37.360  31.627  31.607  1.00  0.00     0.029 A 
ATOM     37  N   UNL A   1      39.296  30.544  31.893  1.00  0.00    -0.354 N 
ATOM     38  C   UNL A   1      40.788  27.811  28.912  1.00  0.00     0.074 A 
ATOM     39  C   UNL A   1      39.956  27.826  27.726  1.00  0.00     0.031 C 
ATOM     40  C   UNL A   1      37.856  31.997  32.797  1.00  0.00     0.029 A 
ATOM     41  C   UNL A   1      39.094  31.264  33.043  1.00  0.00     0.049 A 
ATOM     42  H   UNL A   1      40.091  29.984  31.737  1.00  0.00     0.167 HD
ATOM     43  C   UNL A   1      41.919  27.076  29.049  1.00  0.00     0.037 A 
ATOM     44  C   UNL A   1      39.802  31.304  34.186  1.00  0.00     0.037 A 
ATOM     45  C   UNL A   1      42.762  27.083  30.218  1.00  0.00     0.049 A 
ATOM     46  C   UNL A   1      41.033  30.457  34.323  1.00  0.00     0.074 A 
ATOM     47  C   UNL A   1      43.946  26.396  30.432  1.00  0.00     0.029 A 
ATOM     48  N   UNL A   1      42.515  27.818  31.367  1.00  0.00    -0.354 N 
ATOM     49  N   UNL A   1      41.570  29.635  33.457  1.00  0.00    -0.248 NA
ATOM     50  C   UNL A   1      41.750  30.537  35.603  1.00  0.00     0.031 C 
ATOM     51  C   UNL A   1      44.397  26.691  31.724  1.00  0.00     0.029 A 
ATOM     52  C   UNL A   1      43.514  27.588  32.301  1.00  0.00     0.049 A 
ATOM     53  H   UNL A   1      41.743  28.414  31.501  1.00  0.00     0.167 HD
ATOM     54  C   UNL A   1      42.690  29.105  34.079  1.00  0.00     0.074 A 
ATOM     55  C   UNL A   1      42.766  29.712  35.392  1.00  0.00     0.031 C 
ATOM     56  C   UNL A   1      43.573  28.193  33.605  1.00  0.00     0.037 A 
BRANCH  43  57
ATOM     57  C   UNL A   1      42.311  26.180  27.913  1.00  0.00     0.064 A 
ATOM     58  C   UNL A   1      41.733  24.915  27.740  1.00  0.00     0.173 A 
ATOM     59  C   UNL A   1      43.226  26.625  26.946  1.00  0.00     0.173 A 
ATOM     60  F   UNL A   1      40.861  24.442  28.642  1.00  0.00    -0.203 F 
ATOM     61  C   UNL A   1      42.064  24.123  26.642  1.00  0.00     0.198 A 
ATOM     62  C   UNL A   1      43.538  25.839  25.839  1.00  0.00     0.198 A 
ATOM     63  F   UNL A   1      43.802  27.831  27.065  1.00  0.00    -0.203 F 
ATOM     64  F   UNL A   1      41.517  22.906  26.507  1.00  0.00    -0.200 F 
ATOM     65  C   UNL A   1      42.958  24.588  25.690  1.00  0.00     0.200 A 
ATOM     66  F   UNL A   1      44.395  26.294  24.915  1.00  0.00    -0.200 F 
ATOM     67  F   UNL A   1      43.264  23.830  24.627  1.00  0.00    -0.200 F 
ENDBRANCH  43  57
BRANCH  44  68
ATOM     68  C   UNL A   1      39.339  32.169  35.299  1.00  0.00     0.064 A 
ATOM     69  C   UNL A   1      38.524  31.654  36.316  1.00  0.00     0.173 A 
ATOM     70  C   UNL A   1      39.729  33.513  35.386  1.00  0.00     0.173 A 
ATOM     71  F   UNL A   1      38.108  30.381  36.261  1.00  0.00    -0.203 F 
ATOM     72  C   UNL A   1      38.115  32.455  37.379  1.00  0.00     0.198 A 
ATOM     73  C   UNL A   1      39.340  34.306  36.462  1.00  0.00     0.198 A 
ATOM     74  F   UNL A   1      40.510  34.048  34.435  1.00  0.00    -0.203 F 
ATOM     75  F   UNL A   1      37.315  31.949  38.327  1.00  0.00    -0.200 F 
ATOM     76  C   UNL A   1      38.530  33.777  37.457  1.00  0.00     0.200 A 
ATOM     77  F   UNL A   1      39.754  35.577  36.540  1.00  0.00    -0.200 F 
ATOM     78  F   UNL A   1      38.149  34.541  38.488  1.00  0.00    -0.200 F 
ENDBRANCH  44  68
BRANCH  56  79
ATOM     79  C   UNL A   1      44.705  27.812  34.510  1.00  0.00     0.064 A 
ATOM     80  C   UNL A   1      44.607  26.717  35.381  1.00  0.00     0.173 A 
ATOM     81  C   UNL A   1      45.902  28.542  34.498  1.00  0.00     0.173 A 
ATOM     82  F   UNL A   1      43.474  26.000  35.439  1.00  0.00    -0.203 F 
ATOM     83  C   UNL A   1      45.661  26.380  36.226  1.00  0.00     0.198 A 
ATOM     84  C   UNL A   1      46.961  28.189  35.329  1.00  0.00     0.198 A 
ATOM     85  F   UNL A   1      46.044  29.596  33.681  1.00  0.00    -0.203 F 
ATOM     86  F   UNL A   1      45.530  25.358  37.082  1.00  0.00    -0.200 F 
ATOM     87  C   UNL A   1      46.837  27.114  36.197  1.00  0.00     0.200 A 
ATOM     88  F   UNL A   1      48.100  28.895  35.297  1.00  0.00    -0.200 F 
ATOM     89  F   UNL A   1      47.849  26.791  37.014  1.00  0.00    -0.200 F 
ENDBRANCH  56  79
ENDBRANCH  30  31
ENDBRANCH  23  25
ENDBRANCH  22  23
ENDBRANCH  21  22
ENDBRANCH   1  21
TORSDOF 14
ENDMDL
MODEL 3
REMARK VINA RESULT:     -11.7      0.949      1.993
REMARK SMILES COc1nc(-c2ccccc2)nc(C)c1CC(=O)OCCOC(=O)c1ccc(-c2c3nc(c(-c4c(F)c(F)c(F)c(F)c4F)c4ccc([nH]4)c(-c4c(F)c(F)c(F)c(F)c4F)c4nc(c(-c5c(F)c(F)c(F)c(F)c5F)c5ccc2[nH]5)C=C4)C=C3)cc1
REMARK SMILES IDX 20 1 19 2 17 3 18 4 16 5 15 6 3 7 4 8 5 9 13 10 12 11 14 12
REMARK SMILES IDX 2 13 1 14 6 15 7 16 11 17 8 18 10 19 9 20 21 21 22 22 23 23
REMARK SMILES IDX 24 24 25 25 26 26 87 27 27 28 86 29 28 30 29 31 30 32 80 33
REMARK SMILES IDX 31 34 85 35 79 36 81 37 32 38 84 39 78 40 77 41 33 43 65 44
REMARK SMILES IDX 45 45 64 46 46 47 49 48 63 49 82 50 47 51 48 52 62 54 83 55
REMARK SMILES IDX 50 56 34 57 35 58 43 59 36 60 37 61 41 62 44 63 38 64 39 65
REMARK SMILES IDX 42 66 40 67 66 68 67 69 75 70 68 71 69 72 73 73 76 74 70 75
REMARK SMILES IDX 71 76 74 77 72 78 51 79 52 80 60 81 53 82 54 83 58 84 61 85
REMARK SMILES IDX 55 86 56 87 59 88 57 89
REMARK H PARENT 81 42 49 53
REMARK Flexibility Score: inf
ROOT
ATOM      1  C   UNL A   1      31.850  28.824  24.250  1.00  0.00     0.274 C 
ENDROOT
BRANCH   1   2
ATOM      2  O   UNL A   1      30.813  27.822  24.260  1.00  0.00    -0.462 OA
BRANCH   2   3
ATOM      3  C   UNL A   1      30.502  27.291  23.048  1.00  0.00     0.310 C 
ATOM      4  O   UNL A   1      30.283  27.948  22.034  1.00  0.00    -0.252 OA
BRANCH   3   5
ATOM      5  C   UNL A   1      30.477  25.783  23.020  1.00  0.00     0.165 C 
BRANCH   5   6
ATOM      6  C   UNL A   1      31.745  25.070  23.386  1.00  0.00     0.047 A 
ATOM      7  C   UNL A   1      31.916  24.466  24.622  1.00  0.00     0.220 A 
ATOM      8  N   UNL A   1      33.048  23.865  25.017  1.00  0.00    -0.193 NA
ATOM      9  C   UNL A   1      34.061  23.892  24.142  1.00  0.00     0.163 A 
ATOM     10  C   UNL A   1      32.832  24.973  22.527  1.00  0.00     0.049 A 
ATOM     11  N   UNL A   1      34.002  24.422  22.908  1.00  0.00    -0.233 NA
ATOM     12  C   UNL A   1      32.805  25.529  21.133  1.00  0.00     0.067 C 
BRANCH   7  13
ATOM     13  O   UNL A   1      30.857  24.530  25.510  1.00  0.00    -0.481 OA
ATOM     14  C   UNL A   1      30.654  23.314  26.230  1.00  0.00     0.280 C 
ENDBRANCH   7  13
BRANCH   9  15
ATOM     15  C   UNL A   1      35.339  23.332  24.580  1.00  0.00     0.019 A 
ATOM     16  C   UNL A   1      36.217  24.080  25.382  1.00  0.00     0.012 A 
ATOM     17  C   UNL A   1      35.716  22.028  24.220  1.00  0.00     0.012 A 
ATOM     18  C   UNL A   1      37.429  23.540  25.818  1.00  0.00     0.001 A 
ATOM     19  C   UNL A   1      36.936  21.492  24.639  1.00  0.00     0.001 A 
ATOM     20  C   UNL A   1      37.789  22.247  25.442  1.00  0.00     0.000 A 
ENDBRANCH   9  15
ENDBRANCH   5   6
ENDBRANCH   3   5
ENDBRANCH   2   3
ENDBRANCH   1   2
BRANCH   1  21
ATOM     21  C   UNL A   1      31.791  29.677  25.515  1.00  0.00     0.275 C 
BRANCH  21  22
ATOM     22  O   UNL A   1      33.084  30.250  25.780  1.00  0.00    -0.458 OA
BRANCH  22  23
ATOM     23  C   UNL A   1      33.131  31.132  26.801  1.00  0.00     0.338 C 
ATOM     24  O   UNL A   1      32.330  32.030  27.043  1.00  0.00    -0.246 OA
BRANCH  23  25
ATOM     25  C   UNL A   1      34.332  30.907  27.626  1.00  0.00     0.060 A 
ATOM     26  C   UNL A   1      35.207  31.951  27.937  1.00  0.00     0.016 A 
ATOM     27  C   UNL A   1      34.642  29.601  28.010  1.00  0.00     0.016 A 
ATOM     28  C   UNL A   1      36.418  31.682  28.577  1.00  0.00     0.010 A 
ATOM     29  C   UNL A   1      35.816  29.343  28.719  1.00  0.00     0.010 A 
ATOM     30  C   UNL A   1      36.726  30.377  28.990  1.00  0.00    -0.014 A 
BRANCH  30  31
ATOM     31  C   UNL A   1      37.978  30.086  29.737  1.00  0.00     0.031 A 
ATOM     32  C   UNL A   1      39.018  29.165  29.164  1.00  0.00     0.074 A 
ATOM     33  C   UNL A   1      38.155  30.616  30.962  1.00  0.00     0.049 A 
ATOM     34  N   UNL A   1      40.087  28.667  29.735  1.00  0.00    -0.248 NA
ATOM     35  C   UNL A   1      38.830  28.738  27.770  1.00  0.00     0.031 C 
ATOM     36  C   UNL A   1      37.229  31.533  31.627  1.00  0.00     0.029 A 
ATOM     37  N   UNL A   1      39.170  30.449  31.871  1.00  0.00    -0.354 N 
ATOM     38  C   UNL A   1      40.680  27.847  28.784  1.00  0.00     0.074 A 
ATOM     39  C   UNL A   1      39.850  27.906  27.599  1.00  0.00     0.031 C 
ATOM     40  C   UNL A   1      37.722  31.857  32.832  1.00  0.00     0.029 A 
ATOM     41  C   UNL A   1      38.964  31.121  33.049  1.00  0.00     0.049 A 
ATOM     42  H   UNL A   1      39.969  29.900  31.694  1.00  0.00     0.167 HD
ATOM     43  C   UNL A   1      41.815  27.113  28.893  1.00  0.00     0.037 A 
ATOM     44  C   UNL A   1      39.670  31.118  34.194  1.00  0.00     0.037 A 
ATOM     45  C   UNL A   1      42.657  27.077  30.061  1.00  0.00     0.049 A 
ATOM     46  C   UNL A   1      40.906  30.273  34.298  1.00  0.00     0.074 A 
ATOM     47  C   UNL A   1      43.844  26.388  30.249  1.00  0.00     0.029 A 
ATOM     48  N   UNL A   1      42.404  27.763  31.239  1.00  0.00    -0.354 N 
ATOM     49  N   UNL A   1      41.447  29.489  33.400  1.00  0.00    -0.248 NA
ATOM     50  C   UNL A   1      41.621  30.304  35.581  1.00  0.00     0.031 C 
ATOM     51  C   UNL A   1      44.292  26.632  31.553  1.00  0.00     0.029 A 
ATOM     52  C   UNL A   1      43.403  27.502  32.164  1.00  0.00     0.049 A 
ATOM     53  H   UNL A   1      41.630  28.350  31.396  1.00  0.00     0.167 HD
ATOM     54  C   UNL A   1      42.570  28.940  34.002  1.00  0.00     0.074 A 
ATOM     55  C   UNL A   1      42.641  29.494  35.338  1.00  0.00     0.031 C 
ATOM     56  C   UNL A   1      43.458  28.053  33.492  1.00  0.00     0.037 A 
BRANCH  43  57
ATOM     57  C   UNL A   1      42.213  26.266  27.722  1.00  0.00     0.064 A 
ATOM     58  C   UNL A   1      43.215  26.670  26.828  1.00  0.00     0.173 A 
ATOM     59  C   UNL A   1      41.634  25.001  27.535  1.00  0.00     0.173 A 
ATOM     60  F   UNL A   1      43.791  27.874  26.960  1.00  0.00    -0.203 F 
ATOM     61  C   UNL A   1      43.616  25.842  25.782  1.00  0.00     0.198 A 
ATOM     62  C   UNL A   1      42.053  24.167  26.501  1.00  0.00     0.198 A 
ATOM     63  F   UNL A   1      40.676  24.567  28.367  1.00  0.00    -0.203 F 
ATOM     64  F   UNL A   1      44.559  26.257  24.925  1.00  0.00    -0.200 F 
ATOM     65  C   UNL A   1      43.042  24.588  25.625  1.00  0.00     0.200 A 
ATOM     66  F   UNL A   1      41.504  22.953  26.356  1.00  0.00    -0.200 F 
ATOM     67  F   UNL A   1      43.440  23.788  24.626  1.00  0.00    -0.200 F 
ENDBRANCH  43  57
BRANCH  44  68
ATOM     68  C   UNL A   1      39.201  31.935  35.341  1.00  0.00     0.064 A 
ATOM     69  C   UNL A   1      39.516  33.297  35.428  1.00  0.00     0.173 A 
ATOM     70  C   UNL A   1      38.403  31.378  36.351  1.00  0.00     0.173 A 
ATOM     71  F   UNL A   1      40.295  33.864  34.496  1.00  0.00    -0.203 F 
ATOM     72  C   UNL A   1      39.049  34.073  36.486  1.00  0.00     0.198 A 
ATOM     73  C   UNL A   1      37.917  32.161  37.395  1.00  0.00     0.198 A 
ATOM     74  F   UNL A   1      38.076  30.078  36.308  1.00  0.00    -0.203 F 
ATOM     75  F   UNL A   1      39.384  35.368  36.562  1.00  0.00    -0.200 F 
ATOM     76  C   UNL A   1      38.243  33.507  37.463  1.00  0.00     0.200 A 
ATOM     77  F   UNL A   1      37.128  31.613  38.328  1.00  0.00    -0.200 F 
ATOM     78  F   UNL A   1      37.782  34.259  38.471  1.00  0.00    -0.200 F 
ENDBRANCH  44  68
BRANCH  56  79
ATOM     79  C   UNL A   1      44.591  27.641  34.382  1.00  0.00     0.064 A 
ATOM     80  C   UNL A   1      45.789  28.370  34.422  1.00  0.00     0.173 A 
ATOM     81  C   UNL A   1      44.474  26.515  35.210  1.00  0.00     0.173 A 
ATOM     82  F   UNL A   1      45.952  29.444  33.634  1.00  0.00    -0.203 F 
ATOM     83  C   UNL A   1      46.840  27.971  35.243  1.00  0.00     0.198 A 
ATOM     84  C   UNL A   1      45.519  26.132  36.045  1.00  0.00     0.198 A 
ATOM     85  F   UNL A   1      43.347  25.788  35.207  1.00  0.00    -0.203 F 
ATOM     86  F   UNL A   1      47.992  28.655  35.234  1.00  0.00    -0.200 F 
ATOM     87  C   UNL A   1      46.703  26.855  36.056  1.00  0.00     0.200 A 
ATOM     88  F   UNL A   1      45.384  25.057  36.834  1.00  0.00    -0.200 F 
ATOM     89  F   UNL A   1      47.718  26.470  36.843  1.00  0.00    -0.200 F 
ENDBRANCH  56  79
ENDBRANCH  30  31
ENDBRANCH  23  25
ENDBRANCH  22  23
ENDBRANCH  21  22
ENDBRANCH   1  21
TORSDOF 14
ENDMDL
