MODEL 1
REMARK VINA RESULT:     -14.5      0.000      0.000
REMARK SMILES Cc1ccc([C@H]2CC(c3cccs3)=NN2C(=O)CCC(=O)OCCOC(=O)c2ccc(-c3c4nc(c(-c5c(F)c(F)c(F)c(F)c5F)c5ccc([nH]5)c(-c5c(F)c(F)c(F)c(F)c5F)c5nc(c(-c6c(F)c(F)c(F)c(F)c6F)c6ccc3[nH]6)C=C5)C=C4)cc2)o1
REMARK SMILES IDX 23 1 22 2 20 3 21 4 19 5 18 6 16 7 17 8 15 9 6 10 7 11 8 12
REMARK SMILES IDX 14 13 5 14 1 15 2 16 3 17 91 18 4 19 9 20 10 21 13 22 11 23
REMARK SMILES IDX 12 24 24 25 25 26 26 27 27 28 28 29 29 30 90 31 30 32 89 33
REMARK SMILES IDX 31 34 32 35 33 36 83 37 34 38 88 39 82 40 84 41 35 42 87 43
REMARK SMILES IDX 81 44 80 45 36 47 68 48 48 49 67 50 49 51 52 52 66 53 85 54
REMARK SMILES IDX 50 55 51 56 65 58 86 59 53 60 37 61 38 62 46 63 39 64 40 65
REMARK SMILES IDX 44 66 47 67 41 68 42 69 45 70 43 71 69 72 70 73 78 74 71 75
REMARK SMILES IDX 72 76 76 77 79 78 73 79 74 80 77 81 75 82 54 83 55 84 63 85
REMARK SMILES IDX 56 86 57 87 61 88 64 89 58 90 59 91 62 92 60 93
REMARK H PARENT 84 46 52 57
REMARK Flexibility Score: inf
ROOT
ATOM      1  C   UNL A   1      41.063  20.580  26.494  1.00  0.00     0.274 C 
ENDROOT
BRANCH   1   2
ATOM      2  O   UNL A   1      39.638  20.894  25.859  1.00  0.00    -0.462 OA
BRANCH   2   3
ATOM      3  C   UNL A   1      38.688  21.942  25.901  1.00  0.00     0.306 C 
ATOM      4  O   UNL A   1      38.947  22.996  26.481  1.00  0.00    -0.252 OA
BRANCH   3   5
ATOM      5  C   UNL A   1      37.383  21.923  24.784  1.00  0.00     0.132 C 
BRANCH   5   6
ATOM      6  C   UNL A   1      36.815  23.026  23.835  1.00  0.00     0.114 C 
BRANCH   6   7
ATOM      7  C   UNL A   1      35.857  23.804  24.619  1.00  0.00     0.243 C 
ATOM      8  O   UNL A   1      35.989  24.023  25.824  1.00  0.00    -0.273 OA
BRANCH   7   9
ATOM      9  N   UNL A   1      34.740  23.982  23.870  1.00  0.00    -0.222 N 
ATOM     10  C   UNL A   1      33.949  22.942  23.092  1.00  0.00     0.183 C 
ATOM     11  C   UNL A   1      33.047  24.028  22.340  1.00  0.00     0.095 C 
ATOM     12  C   UNL A   1      33.126  25.268  23.212  1.00  0.00     0.081 C 
ATOM     13  N   UNL A   1      34.183  25.260  23.948  1.00  0.00    -0.173 NA
BRANCH  10  14
ATOM     14  C   UNL A   1      33.379  21.402  23.914  1.00  0.00     0.129 A 
ATOM     15  C   UNL A   1      34.774  18.103  24.577  1.00  0.00     0.087 C 
ATOM     16  C   UNL A   1      33.866  19.265  24.590  1.00  0.00     0.101 A 
ATOM     17  C   UNL A   1      32.518  19.278  24.550  1.00  0.00     0.045 A 
ATOM     18  O   UNL A   1      34.345  20.549  24.440  1.00  0.00    -0.464 OA
ATOM     19  C   UNL A   1      32.219  20.592  24.153  1.00  0.00     0.048 A 
ENDBRANCH  10  14
BRANCH  12  20
ATOM     20  C   UNL A   1      32.140  26.342  23.305  1.00  0.00     0.050 A 
ATOM     21  C   UNL A   1      30.764  26.258  23.495  1.00  0.00     0.022 A 
ATOM     22  S   UNL A   1      32.643  27.979  23.385  1.00  0.00    -0.142 S 
ATOM     23  C   UNL A   1      30.127  27.529  23.656  1.00  0.00     0.012 A 
ATOM     24  C   UNL A   1      31.045  28.554  23.648  1.00  0.00     0.065 A 
ENDBRANCH  12  20
ENDBRANCH   7   9
ENDBRANCH   6   7
ENDBRANCH   5   6
ENDBRANCH   3   5
ENDBRANCH   2   3
ENDBRANCH   1   2
BRANCH   1  25
ATOM     25  C   UNL A   1      42.616  21.158  25.821  1.00  0.00     0.275 C 
BRANCH  25  26
ATOM     26  O   UNL A   1      42.904  22.312  24.833  1.00  0.00    -0.458 OA
BRANCH  26  27
ATOM     27  C   UNL A   1      43.562  23.548  24.885  1.00  0.00     0.338 C 
ATOM     28  O   UNL A   1      44.571  23.813  24.251  1.00  0.00    -0.246 OA
BRANCH  27  29
ATOM     29  C   UNL A   1      42.831  24.672  25.719  1.00  0.00     0.060 A 
ATOM     30  C   UNL A   1      41.765  24.413  26.628  1.00  0.00     0.016 A 
ATOM     31  C   UNL A   1      43.283  25.990  25.700  1.00  0.00     0.016 A 
ATOM     32  C   UNL A   1      41.419  25.313  27.683  1.00  0.00     0.010 A 
ATOM     33  C   UNL A   1      42.860  26.929  26.691  1.00  0.00     0.010 A 
ATOM     34  C   UNL A   1      41.996  26.584  27.757  1.00  0.00    -0.014 A 
BRANCH  34  35
ATOM     35  C   UNL A   1      41.600  27.614  28.794  1.00  0.00     0.031 A 
ATOM     36  C   UNL A   1      42.351  27.595  30.101  1.00  0.00     0.074 A 
ATOM     37  C   UNL A   1      40.588  28.511  28.674  1.00  0.00     0.049 A 
ATOM     38  N   UNL A   1      42.100  28.207  31.232  1.00  0.00    -0.248 NA
ATOM     39  C   UNL A   1      43.556  26.754  30.125  1.00  0.00     0.031 C 
ATOM     40  C   UNL A   1      39.810  28.788  27.471  1.00  0.00     0.029 A 
ATOM     41  N   UNL A   1      40.015  29.358  29.614  1.00  0.00    -0.354 N 
ATOM     42  C   UNL A   1      43.104  27.809  32.105  1.00  0.00     0.074 A 
ATOM     43  C   UNL A   1      43.950  26.884  31.381  1.00  0.00     0.031 C 
ATOM     44  C   UNL A   1      38.826  29.662  27.754  1.00  0.00     0.029 A 
ATOM     45  C   UNL A   1      38.889  30.024  29.168  1.00  0.00     0.049 A 
ATOM     46  H   UNL A   1      40.378  29.473  30.521  1.00  0.00     0.167 HD
ATOM     47  C   UNL A   1      43.315  28.175  33.393  1.00  0.00     0.037 A 
ATOM     48  C   UNL A   1      38.001  30.819  29.809  1.00  0.00     0.037 A 
ATOM     49  C   UNL A   1      42.486  29.083  34.140  1.00  0.00     0.049 A 
ATOM     50  C   UNL A   1      38.189  31.131  31.278  1.00  0.00     0.074 A 
ATOM     51  C   UNL A   1      42.635  29.505  35.450  1.00  0.00     0.029 A 
ATOM     52  N   UNL A   1      41.348  29.704  33.648  1.00  0.00    -0.354 N 
ATOM     53  N   UNL A   1      39.145  30.751  32.088  1.00  0.00    -0.248 NA
ATOM     54  C   UNL A   1      37.178  31.990  31.921  1.00  0.00     0.031 C 
ATOM     55  C   UNL A   1      41.554  30.332  35.772  1.00  0.00     0.029 A 
ATOM     56  C   UNL A   1      40.770  30.481  34.640  1.00  0.00     0.049 A 
ATOM     57  H   UNL A   1      41.002  29.606  32.733  1.00  0.00     0.167 HD
ATOM     58  C   UNL A   1      38.878  31.354  33.313  1.00  0.00     0.074 A 
ATOM     59  C   UNL A   1      37.671  32.133  33.143  1.00  0.00     0.031 C 
ATOM     60  C   UNL A   1      39.577  31.271  34.471  1.00  0.00     0.037 A 
BRANCH  47  61
ATOM     61  C   UNL A   1      44.485  27.547  34.094  1.00  0.00     0.064 A 
ATOM     62  C   UNL A   1      44.371  26.318  34.763  1.00  0.00     0.173 A 
ATOM     63  C   UNL A   1      45.736  28.182  34.094  1.00  0.00     0.173 A 
ATOM     64  F   UNL A   1      43.191  25.681  34.809  1.00  0.00    -0.203 F 
ATOM     65  C   UNL A   1      45.458  25.768  35.438  1.00  0.00     0.198 A 
ATOM     66  C   UNL A   1      46.828  27.610  34.738  1.00  0.00     0.198 A 
ATOM     67  F   UNL A   1      45.898  29.357  33.467  1.00  0.00    -0.203 F 
ATOM     68  F   UNL A   1      45.310  24.627  36.124  1.00  0.00    -0.200 F 
ATOM     69  C   UNL A   1      46.686  26.411  35.418  1.00  0.00     0.200 A 
ATOM     70  F   UNL A   1      48.018  28.226  34.707  1.00  0.00    -0.200 F 
ATOM     71  F   UNL A   1      47.732  25.879  36.066  1.00  0.00    -0.200 F 
ENDBRANCH  47  61
BRANCH  48  72
ATOM     72  C   UNL A   1      36.815  31.385  29.090  1.00  0.00     0.064 A 
ATOM     73  C   UNL A   1      36.734  32.751  28.776  1.00  0.00     0.173 A 
ATOM     74  C   UNL A   1      35.706  30.587  28.769  1.00  0.00     0.173 A 
ATOM     75  F   UNL A   1      37.743  33.573  29.100  1.00  0.00    -0.203 F 
ATOM     76  C   UNL A   1      35.591  33.296  28.186  1.00  0.00     0.198 A 
ATOM     77  C   UNL A   1      34.576  31.127  28.152  1.00  0.00     0.198 A 
ATOM     78  F   UNL A   1      35.712  29.278  29.063  1.00  0.00    -0.203 F 
ATOM     79  F   UNL A   1      35.522  34.614  27.955  1.00  0.00    -0.200 F 
ATOM     80  C   UNL A   1      34.515  32.482  27.869  1.00  0.00     0.200 A 
ATOM     81  F   UNL A   1      33.538  30.335  27.845  1.00  0.00    -0.200 F 
ATOM     82  F   UNL A   1      33.417  33.005  27.305  1.00  0.00    -0.200 F 
ENDBRANCH  48  72
BRANCH  60  83
ATOM     83  C   UNL A   1      39.098  32.080  35.645  1.00  0.00     0.064 A 
ATOM     84  C   UNL A   1      38.298  31.527  36.656  1.00  0.00     0.173 A 
ATOM     85  C   UNL A   1      39.497  33.420  35.790  1.00  0.00     0.173 A 
ATOM     86  F   UNL A   1      37.878  30.256  36.563  1.00  0.00    -0.203 F 
ATOM     87  C   UNL A   1      37.895  32.288  37.752  1.00  0.00     0.198 A 
ATOM     88  C   UNL A   1      39.121  34.167  36.903  1.00  0.00     0.198 A 
ATOM     89  F   UNL A   1      40.270  34.000  34.860  1.00  0.00    -0.203 F 
ATOM     90  F   UNL A   1      37.093  31.750  38.680  1.00  0.00    -0.200 F 
ATOM     91  C   UNL A   1      38.314  33.603  37.879  1.00  0.00     0.200 A 
ATOM     92  F   UNL A   1      39.542  35.433  37.033  1.00  0.00    -0.200 F 
ATOM     93  F   UNL A   1      37.937  34.330  38.941  1.00  0.00    -0.200 F 
ENDBRANCH  60  83
ENDBRANCH  34  35
ENDBRANCH  27  29
ENDBRANCH  26  27
ENDBRANCH  25  26
ENDBRANCH   1  25
TORSDOF 16
ENDMDL
MODEL 2
REMARK VINA RESULT:     -14.5      1.615      3.020
REMARK SMILES Cc1ccc([C@H]2CC(c3cccs3)=NN2C(=O)CCC(=O)OCCOC(=O)c2ccc(-c3c4nc(c(-c5c(F)c(F)c(F)c(F)c5F)c5ccc([nH]5)c(-c5c(F)c(F)c(F)c(F)c5F)c5nc(c(-c6c(F)c(F)c(F)c(F)c6F)c6ccc3[nH]6)C=C5)C=C4)cc2)o1
REMARK SMILES IDX 23 1 22 2 20 3 21 4 19 5 18 6 16 7 17 8 15 9 6 10 7 11 8 12
REMARK SMILES IDX 14 13 5 14 1 15 2 16 3 17 91 18 4 19 9 20 10 21 13 22 11 23
REMARK SMILES IDX 12 24 24 25 25 26 26 27 27 28 28 29 29 30 90 31 30 32 89 33
REMARK SMILES IDX 31 34 32 35 33 36 83 37 34 38 88 39 82 40 84 41 35 42 87 43
REMARK SMILES IDX 81 44 80 45 36 47 68 48 48 49 67 50 49 51 52 52 66 53 85 54
REMARK SMILES IDX 50 55 51 56 65 58 86 59 53 60 37 61 38 62 46 63 39 64 40 65
REMARK SMILES IDX 44 66 47 67 41 68 42 69 45 70 43 71 69 72 70 73 78 74 71 75
REMARK SMILES IDX 72 76 76 77 79 78 73 79 74 80 77 81 75 82 54 83 55 84 63 85
REMARK SMILES IDX 56 86 57 87 61 88 64 89 58 90 59 91 62 92 60 93
REMARK H PARENT 84 46 52 57
REMARK Flexibility Score: inf
ROOT
ATOM      1  C   UNL A   1      40.953  20.259  26.915  1.00  0.00     0.274 C 
ENDROOT
BRANCH   1   2
ATOM      2  O   UNL A   1      39.681  21.205  26.779  1.00  0.00    -0.462 OA
BRANCH   2   3
ATOM      3  C   UNL A   1      38.722  21.525  25.790  1.00  0.00     0.306 C 
ATOM      4  O   UNL A   1      38.139  20.632  25.175  1.00  0.00    -0.252 OA
BRANCH   3   5
ATOM      5  C   UNL A   1      38.051  23.106  25.764  1.00  0.00     0.132 C 
BRANCH   5   6
ATOM      6  C   UNL A   1      36.633  23.636  26.147  1.00  0.00     0.114 C 
BRANCH   6   7
ATOM      7  C   UNL A   1      35.765  23.386  24.998  1.00  0.00     0.243 C 
ATOM      8  O   UNL A   1      35.756  24.093  23.990  1.00  0.00    -0.273 OA
BRANCH   7   9
ATOM      9  N   UNL A   1      34.843  22.458  25.358  1.00  0.00    -0.222 N 
ATOM     10  C   UNL A   1      33.648  22.621  26.284  1.00  0.00     0.183 C 
ATOM     11  C   UNL A   1      33.335  21.054  26.341  1.00  0.00     0.095 C 
ATOM     12  C   UNL A   1      33.992  20.482  25.099  1.00  0.00     0.081 C 
ATOM     13  N   UNL A   1      34.939  21.245  24.672  1.00  0.00    -0.173 NA
BRANCH  10  14
ATOM     14  C   UNL A   1      32.446  23.984  26.018  1.00  0.00     0.129 A 
ATOM     15  C   UNL A   1      32.384  27.583  26.575  1.00  0.00     0.087 C 
ATOM     16  C   UNL A   1      31.998  26.230  26.132  1.00  0.00     0.101 A 
ATOM     17  C   UNL A   1      30.772  25.671  26.115  1.00  0.00     0.045 A 
ATOM     18  O   UNL A   1      32.948  25.272  25.851  1.00  0.00    -0.464 OA
ATOM     19  C   UNL A   1      31.045  24.295  26.027  1.00  0.00     0.048 A 
ENDBRANCH  10  14
BRANCH  12  20
ATOM     20  C   UNL A   1      33.615  19.265  24.384  1.00  0.00     0.050 A 
ATOM     21  C   UNL A   1      32.561  19.055  23.500  1.00  0.00     0.022 A 
ATOM     22  S   UNL A   1      34.633  17.886  24.418  1.00  0.00    -0.142 S 
ATOM     23  C   UNL A   1      32.567  17.758  22.896  1.00  0.00     0.012 A 
ATOM     24  C   UNL A   1      33.665  17.028  23.287  1.00  0.00     0.065 A 
ENDBRANCH  12  20
ENDBRANCH   7   9
ENDBRANCH   6   7
ENDBRANCH   5   6
ENDBRANCH   3   5
ENDBRANCH   2   3
ENDBRANCH   1   2
BRANCH   1  25
ATOM     25  C   UNL A   1      42.523  20.561  26.113  1.00  0.00     0.275 C 
BRANCH  25  26
ATOM     26  O   UNL A   1      43.318  21.876  25.944  1.00  0.00    -0.458 OA
BRANCH  26  27
ATOM     27  C   UNL A   1      43.170  23.062  25.215  1.00  0.00     0.338 C 
ATOM     28  O   UNL A   1      43.409  23.166  24.022  1.00  0.00    -0.246 OA
BRANCH  27  29
ATOM     29  C   UNL A   1      42.519  24.267  26.001  1.00  0.00     0.060 A 
ATOM     30  C   UNL A   1      41.390  24.131  26.861  1.00  0.00     0.016 A 
ATOM     31  C   UNL A   1      43.103  25.533  25.991  1.00  0.00     0.016 A 
ATOM     32  C   UNL A   1      41.088  25.077  27.888  1.00  0.00     0.010 A 
ATOM     33  C   UNL A   1      42.731  26.524  26.951  1.00  0.00     0.010 A 
ATOM     34  C   UNL A   1      41.788  26.283  27.977  1.00  0.00    -0.014 A 
BRANCH  34  35
ATOM     35  C   UNL A   1      41.449  27.364  28.984  1.00  0.00     0.031 A 
ATOM     36  C   UNL A   1      42.214  27.355  30.283  1.00  0.00     0.074 A 
ATOM     37  C   UNL A   1      40.476  28.300  28.845  1.00  0.00     0.049 A 
ATOM     38  N   UNL A   1      42.005  28.014  31.395  1.00  0.00    -0.248 NA
ATOM     39  C   UNL A   1      43.382  26.463  30.321  1.00  0.00     0.031 C 
ATOM     40  C   UNL A   1      39.697  28.572  27.642  1.00  0.00     0.029 A 
ATOM     41  N   UNL A   1      39.952  29.202  29.762  1.00  0.00    -0.354 N 
ATOM     42  C   UNL A   1      43.001  27.602  32.270  1.00  0.00     0.074 A 
ATOM     43  C   UNL A   1      43.796  26.617  31.568  1.00  0.00     0.031 C 
ATOM     44  C   UNL A   1      38.755  29.497  27.906  1.00  0.00     0.029 A 
ATOM     45  C   UNL A   1      38.852  29.903  29.306  1.00  0.00     0.049 A 
ATOM     46  H   UNL A   1      40.331  29.331  30.661  1.00  0.00     0.167 HD
ATOM     47  C   UNL A   1      43.243  28.000  33.542  1.00  0.00     0.037 A 
ATOM     48  C   UNL A   1      38.006  30.757  29.930  1.00  0.00     0.037 A 
ATOM     49  C   UNL A   1      42.464  28.968  34.267  1.00  0.00     0.049 A 
ATOM     50  C   UNL A   1      38.226  31.108  31.385  1.00  0.00     0.074 A 
ATOM     51  C   UNL A   1      42.647  29.426  35.561  1.00  0.00     0.029 A 
ATOM     52  N   UNL A   1      41.349  29.622  33.768  1.00  0.00    -0.354 N 
ATOM     53  N   UNL A   1      39.175  30.713  32.197  1.00  0.00    -0.248 NA
ATOM     54  C   UNL A   1      37.262  32.032  32.009  1.00  0.00     0.031 C 
ATOM     55  C   UNL A   1      41.608  30.310  35.867  1.00  0.00     0.029 A 
ATOM     56  C   UNL A   1      40.817  30.456  34.739  1.00  0.00     0.049 A 
ATOM     57  H   UNL A   1      40.987  29.509  32.860  1.00  0.00     0.167 HD
ATOM     58  C   UNL A   1      38.949  31.368  33.403  1.00  0.00     0.074 A 
ATOM     59  C   UNL A   1      37.776  32.193  33.221  1.00  0.00     0.031 C 
ATOM     60  C   UNL A   1      39.657  31.292  34.557  1.00  0.00     0.037 A 
BRANCH  47  61
ATOM     61  C   UNL A   1      44.393  27.344  34.251  1.00  0.00     0.064 A 
ATOM     62  C   UNL A   1      44.264  26.085  34.858  1.00  0.00     0.173 A 
ATOM     63  C   UNL A   1      45.639  27.984  34.323  1.00  0.00     0.173 A 
ATOM     64  F   UNL A   1      43.088  25.442  34.835  1.00  0.00    -0.203 F 
ATOM     65  C   UNL A   1      45.331  25.508  35.541  1.00  0.00     0.198 A 
ATOM     66  C   UNL A   1      46.714  27.387  34.975  1.00  0.00     0.198 A 
ATOM     67  F   UNL A   1      45.815  29.188  33.758  1.00  0.00    -0.203 F 
ATOM     68  F   UNL A   1      45.168  24.336  36.168  1.00  0.00    -0.200 F 
ATOM     69  C   UNL A   1      46.557  26.156  35.592  1.00  0.00     0.200 A 
ATOM     70  F   UNL A   1      47.901  28.009  35.012  1.00  0.00    -0.200 F 
ATOM     71  F   UNL A   1      47.583  25.599  36.249  1.00  0.00    -0.200 F 
ENDBRANCH  47  61
BRANCH  48  72
ATOM     72  C   UNL A   1      36.838  31.350  29.205  1.00  0.00     0.064 A 
ATOM     73  C   UNL A   1      36.805  32.711  28.861  1.00  0.00     0.173 A 
ATOM     74  C   UNL A   1      35.698  30.587  28.908  1.00  0.00     0.173 A 
ATOM     75  F   UNL A   1      37.846  33.502  29.161  1.00  0.00    -0.203 F 
ATOM     76  C   UNL A   1      35.679  33.285  28.266  1.00  0.00     0.198 A 
ATOM     77  C   UNL A   1      34.584  31.155  28.286  1.00  0.00     0.198 A 
ATOM     78  F   UNL A   1      35.658  29.285  29.230  1.00  0.00    -0.203 F 
ATOM     79  F   UNL A   1      35.658  34.599  28.006  1.00  0.00    -0.200 F 
ATOM     80  C   UNL A   1      34.572  32.505  27.973  1.00  0.00     0.200 A 
ATOM     81  F   UNL A   1      33.517  30.396  28.002  1.00  0.00    -0.200 F 
ATOM     82  F   UNL A   1      33.491  33.056  27.403  1.00  0.00    -0.200 F 
ENDBRANCH  48  72
BRANCH  60  83
ATOM     83  C   UNL A   1      39.229  32.160  35.708  1.00  0.00     0.064 A 
ATOM     84  C   UNL A   1      38.356  31.699  36.704  1.00  0.00     0.173 A 
ATOM     85  C   UNL A   1      39.749  33.458  35.847  1.00  0.00     0.173 A 
ATOM     86  F   UNL A   1      37.820  30.473  36.617  1.00  0.00    -0.203 F 
ATOM     87  C   UNL A   1      38.000  32.511  37.780  1.00  0.00     0.198 A 
ATOM     88  C   UNL A   1      39.419  34.254  36.941  1.00  0.00     0.198 A 
ATOM     89  F   UNL A   1      40.597  33.949  34.930  1.00  0.00    -0.203 F 
ATOM     90  F   UNL A   1      37.128  32.064  38.694  1.00  0.00    -0.200 F 
ATOM     91  C   UNL A   1      38.539  33.783  37.902  1.00  0.00     0.200 A 
ATOM     92  F   UNL A   1      39.955  35.476  37.066  1.00  0.00    -0.200 F 
ATOM     93  F   UNL A   1      38.206  34.557  38.945  1.00  0.00    -0.200 F 
ENDBRANCH  60  83
ENDBRANCH  34  35
ENDBRANCH  27  29
ENDBRANCH  26  27
ENDBRANCH  25  26
ENDBRANCH   1  25
TORSDOF 16
ENDMDL
MODEL 3
REMARK VINA RESULT:     -14.1      2.875      7.992
REMARK SMILES Cc1ccc([C@H]2CC(c3cccs3)=NN2C(=O)CCC(=O)OCCOC(=O)c2ccc(-c3c4nc(c(-c5c(F)c(F)c(F)c(F)c5F)c5ccc([nH]5)c(-c5c(F)c(F)c(F)c(F)c5F)c5nc(c(-c6c(F)c(F)c(F)c(F)c6F)c6ccc3[nH]6)C=C5)C=C4)cc2)o1
REMARK SMILES IDX 23 1 22 2 20 3 21 4 19 5 18 6 16 7 17 8 15 9 6 10 7 11 8 12
REMARK SMILES IDX 14 13 5 14 1 15 2 16 3 17 91 18 4 19 9 20 10 21 13 22 11 23
REMARK SMILES IDX 12 24 24 25 25 26 26 27 27 28 28 29 29 30 90 31 30 32 89 33
REMARK SMILES IDX 31 34 32 35 33 36 83 37 34 38 88 39 82 40 84 41 35 42 87 43
REMARK SMILES IDX 81 44 80 45 36 47 68 48 48 49 67 50 49 51 52 52 66 53 85 54
REMARK SMILES IDX 50 55 51 56 65 58 86 59 53 60 37 61 38 62 46 63 39 64 40 65
REMARK SMILES IDX 44 66 47 67 41 68 42 69 45 70 43 71 69 72 70 73 78 74 71 75
REMARK SMILES IDX 72 76 76 77 79 78 73 79 74 80 77 81 75 82 54 83 55 84 63 85
REMARK SMILES IDX 56 86 57 87 61 88 64 89 58 90 59 91 62 92 60 93
REMARK H PARENT 84 46 52 57
REMARK Flexibility Score: inf
ROOT
ATOM      1  C   UNL A   1      32.527  28.940  23.326  1.00  0.00     0.274 C 
ENDROOT
BRANCH   1   2
ATOM      2  O   UNL A   1      33.623  27.825  23.031  1.00  0.00    -0.462 OA
BRANCH   2   3
ATOM      3  C   UNL A   1      33.647  26.469  22.628  1.00  0.00     0.306 C 
ATOM      4  O   UNL A   1      33.569  26.172  21.436  1.00  0.00    -0.252 OA
BRANCH   3   5
ATOM      5  C   UNL A   1      34.228  25.286  23.729  1.00  0.00     0.132 C 
BRANCH   5   6
ATOM      6  C   UNL A   1      34.782  23.843  23.503  1.00  0.00     0.114 C 
BRANCH   6   7
ATOM      7  C   UNL A   1      35.406  23.430  24.759  1.00  0.00     0.243 C 
ATOM      8  O   UNL A   1      36.504  23.841  25.136  1.00  0.00    -0.273 OA
BRANCH   7   9
ATOM      9  N   UNL A   1      34.713  22.370  25.248  1.00  0.00    -0.222 N 
ATOM     10  C   UNL A   1      33.584  22.367  26.266  1.00  0.00     0.183 C 
ATOM     11  C   UNL A   1      33.589  20.777  26.433  1.00  0.00     0.095 C 
ATOM     12  C   UNL A   1      34.247  20.256  25.170  1.00  0.00     0.081 C 
ATOM     13  N   UNL A   1      34.992  21.154  24.622  1.00  0.00    -0.173 NA
BRANCH  10  14
ATOM     14  C   UNL A   1      32.123  23.455  26.035  1.00  0.00     0.129 A 
ATOM     15  C   UNL A   1      30.295  24.841  23.205  1.00  0.00     0.087 C 
ATOM     16  C   UNL A   1      30.667  24.474  24.584  1.00  0.00     0.101 A 
ATOM     17  C   UNL A   1      30.544  25.205  25.710  1.00  0.00     0.045 A 
ATOM     18  O   UNL A   1      31.405  23.340  24.848  1.00  0.00    -0.464 OA
ATOM     19  C   UNL A   1      31.423  24.571  26.605  1.00  0.00     0.048 A 
ENDBRANCH  10  14
BRANCH  12  20
ATOM     20  C   UNL A   1      34.062  18.942  24.558  1.00  0.00     0.050 A 
ATOM     21  C   UNL A   1      34.927  17.853  24.535  1.00  0.00     0.022 A 
ATOM     22  S   UNL A   1      32.542  18.496  23.900  1.00  0.00    -0.142 S 
ATOM     23  C   UNL A   1      34.361  16.681  23.939  1.00  0.00     0.012 A 
ATOM     24  C   UNL A   1      33.050  16.886  23.578  1.00  0.00     0.065 A 
ENDBRANCH  12  20
ENDBRANCH   7   9
ENDBRANCH   6   7
ENDBRANCH   5   6
ENDBRANCH   3   5
ENDBRANCH   2   3
ENDBRANCH   1   2
BRANCH   1  25
ATOM     25  C   UNL A   1      31.642  29.099  24.872  1.00  0.00     0.275 C 
BRANCH  25  26
ATOM     26  O   UNL A   1      32.131  29.598  26.252  1.00  0.00    -0.458 OA
BRANCH  26  27
ATOM     27  C   UNL A   1      32.680  30.780  26.764  1.00  0.00     0.338 C 
ATOM     28  O   UNL A   1      32.056  31.821  26.901  1.00  0.00    -0.246 OA
BRANCH  27  29
ATOM     29  C   UNL A   1      34.157  30.662  27.310  1.00  0.00     0.060 A 
ATOM     30  C   UNL A   1      34.974  31.786  27.626  1.00  0.00     0.016 A 
ATOM     31  C   UNL A   1      34.707  29.423  27.635  1.00  0.00     0.016 A 
ATOM     32  C   UNL A   1      36.091  31.699  28.513  1.00  0.00     0.010 A 
ATOM     33  C   UNL A   1      35.887  29.328  28.436  1.00  0.00     0.010 A 
ATOM     34  C   UNL A   1      36.546  30.459  28.971  1.00  0.00    -0.014 A 
BRANCH  34  35
ATOM     35  C   UNL A   1      37.779  30.298  29.835  1.00  0.00     0.031 A 
ATOM     36  C   UNL A   1      38.861  29.382  29.322  1.00  0.00     0.074 A 
ATOM     37  C   UNL A   1      37.969  30.858  31.058  1.00  0.00     0.049 A 
ATOM     38  N   UNL A   1      39.917  28.896  29.926  1.00  0.00    -0.248 NA
ATOM     39  C   UNL A   1      38.715  28.954  27.924  1.00  0.00     0.031 C 
ATOM     40  C   UNL A   1      37.122  31.859  31.696  1.00  0.00     0.029 A 
ATOM     41  N   UNL A   1      38.953  30.632  32.012  1.00  0.00    -0.354 N 
ATOM     42  C   UNL A   1      40.549  28.090  28.988  1.00  0.00     0.074 A 
ATOM     43  C   UNL A   1      39.743  28.133  27.786  1.00  0.00     0.031 C 
ATOM     44  C   UNL A   1      37.563  32.102  32.945  1.00  0.00     0.029 A 
ATOM     45  C   UNL A   1      38.737  31.276  33.215  1.00  0.00     0.049 A 
ATOM     46  H   UNL A   1      39.737  30.061  31.845  1.00  0.00     0.167 HD
ATOM     47  C   UNL A   1      41.696  27.378  29.103  1.00  0.00     0.037 A 
ATOM     48  C   UNL A   1      39.386  31.207  34.401  1.00  0.00     0.037 A 
ATOM     49  C   UNL A   1      42.510  27.309  30.287  1.00  0.00     0.049 A 
ATOM     50  C   UNL A   1      40.603  30.321  34.546  1.00  0.00     0.074 A 
ATOM     51  C   UNL A   1      43.688  26.609  30.481  1.00  0.00     0.029 A 
ATOM     52  N   UNL A   1      42.229  27.956  31.480  1.00  0.00    -0.354 N 
ATOM     53  N   UNL A   1      41.190  29.568  33.649  1.00  0.00    -0.248 NA
ATOM     54  C   UNL A   1      41.255  30.279  35.868  1.00  0.00     0.031 C 
ATOM     55  C   UNL A   1      44.088  26.781  31.810  1.00  0.00     0.029 A 
ATOM     56  C   UNL A   1      43.197  27.646  32.423  1.00  0.00     0.049 A 
ATOM     57  H   UNL A   1      41.457  28.546  31.635  1.00  0.00     0.167 HD
ATOM     58  C   UNL A   1      42.295  29.005  34.279  1.00  0.00     0.074 A 
ATOM     59  C   UNL A   1      42.304  29.503  35.637  1.00  0.00     0.031 C 
ATOM     60  C   UNL A   1      43.220  28.153  33.772  1.00  0.00     0.037 A 
BRANCH  47  61
ATOM     61  C   UNL A   1      42.116  26.571  27.908  1.00  0.00     0.064 A 
ATOM     62  C   UNL A   1      41.634  25.271  27.689  1.00  0.00     0.173 A 
ATOM     63  C   UNL A   1      43.011  27.107  26.971  1.00  0.00     0.173 A 
ATOM     64  F   UNL A   1      40.792  24.706  28.567  1.00  0.00    -0.203 F 
ATOM     65  C   UNL A   1      42.062  24.525  26.594  1.00  0.00     0.198 A 
ATOM     66  C   UNL A   1      43.408  26.372  25.858  1.00  0.00     0.198 A 
ATOM     67  F   UNL A   1      43.499  28.346  27.133  1.00  0.00    -0.203 F 
ATOM     68  F   UNL A   1      41.640  23.263  26.439  1.00  0.00    -0.200 F 
ATOM     69  C   UNL A   1      42.943  25.079  25.676  1.00  0.00     0.200 A 
ATOM     70  F   UNL A   1      44.249  26.913  24.966  1.00  0.00    -0.200 F 
ATOM     71  F   UNL A   1      43.352  24.360  24.622  1.00  0.00    -0.200 F 
ENDBRANCH  47  61
BRANCH  48  72
ATOM     72  C   UNL A   1      38.905  31.985  35.588  1.00  0.00     0.064 A 
ATOM     73  C   UNL A   1      39.251  33.335  35.766  1.00  0.00     0.173 A 
ATOM     74  C   UNL A   1      38.154  31.376  36.605  1.00  0.00     0.173 A 
ATOM     75  F   UNL A   1      40.006  33.958  34.850  1.00  0.00    -0.203 F 
ATOM     76  C   UNL A   1      38.879  34.036  36.915  1.00  0.00     0.198 A 
ATOM     77  C   UNL A   1      37.757  32.087  37.740  1.00  0.00     0.198 A 
ATOM     78  F   UNL A   1      37.811  30.084  36.505  1.00  0.00    -0.203 F 
ATOM     79  F   UNL A   1      39.276  35.305  37.082  1.00  0.00    -0.200 F 
ATOM     80  C   UNL A   1      38.127  33.413  37.898  1.00  0.00     0.200 A 
ATOM     81  F   UNL A   1      37.028  31.481  38.687  1.00  0.00    -0.200 F 
ATOM     82  F   UNL A   1      37.771  34.085  39.002  1.00  0.00    -0.200 F 
ENDBRANCH  48  72
BRANCH  60  83
ATOM     83  C   UNL A   1      44.360  27.737  34.660  1.00  0.00     0.064 A 
ATOM     84  C   UNL A   1      44.275  26.624  35.510  1.00  0.00     0.173 A 
ATOM     85  C   UNL A   1      45.581  28.431  34.615  1.00  0.00     0.173 A 
ATOM     86  F   UNL A   1      43.131  25.931  35.602  1.00  0.00    -0.203 F 
ATOM     87  C   UNL A   1      45.358  26.238  36.298  1.00  0.00     0.198 A 
ATOM     88  C   UNL A   1      46.671  28.022  35.378  1.00  0.00     0.198 A 
ATOM     89  F   UNL A   1      45.723  29.497  33.813  1.00  0.00    -0.203 F 
ATOM     90  F   UNL A   1      45.237  25.200  37.136  1.00  0.00    -0.200 F 
ATOM     91  C   UNL A   1      46.557  26.931  36.224  1.00  0.00     0.200 A 
ATOM     92  F   UNL A   1      47.834  28.682  35.291  1.00  0.00    -0.200 F 
ATOM     93  F   UNL A   1      47.601  26.550  36.974  1.00  0.00    -0.200 F 
ENDBRANCH  60  83
ENDBRANCH  34  35
ENDBRANCH  27  29
ENDBRANCH  26  27
ENDBRANCH  25  26
ENDBRANCH   1  25
TORSDOF 16
ENDMDL
