MODEL 1
REMARK VINA RESULT:     -11.1      0.000      0.000
REMARK SMILES O=C(Cn1ccc2ccc(CO)cc21)OCCOC(=O)c1ccc(-c2c3nc(c(-c4c(F)c(F)c(F)c(F)c4F)c4ccc([nH]4)c(-c4c(F)c(F)c(F)c(F)c4F)c4nc(c(-c5c(F)c(F)c(F)c(F)c5F)c5ccc2[nH]5)C=C4)C=C3)cc1
REMARK SMILES IDX 16 1 15 2 2 3 1 4 3 5 4 6 5 7 14 8 6 9 7 10 13 11 8 12 10 13
REMARK SMILES IDX 9 14 11 15 12 16 17 18 18 19 19 20 20 21 21 22 22 23 83 24
REMARK SMILES IDX 23 25 82 26 24 27 25 28 26 29 76 30 27 31 81 32 75 33 77 34
REMARK SMILES IDX 28 35 80 36 74 37 73 38 29 40 61 41 41 42 60 43 42 44 45 45
REMARK SMILES IDX 59 46 78 47 43 48 44 49 58 51 79 52 46 53 30 54 31 55 39 56
REMARK SMILES IDX 32 57 33 58 37 59 40 60 34 61 35 62 38 63 36 64 62 65 63 66
REMARK SMILES IDX 71 67 64 68 65 69 69 70 72 71 66 72 67 73 70 74 68 75 47 76
REMARK SMILES IDX 48 77 56 78 49 79 50 80 54 81 57 82 51 83 52 84 55 85 53 86
REMARK H PARENT 12 17 77 39 45 50
REMARK Flexibility Score: inf
ROOT
ATOM      1  C   UNL A   1      44.198  19.004  25.017  1.00  0.00     0.274 C 
ENDROOT
BRANCH   1   2
ATOM      2  O   UNL A   1      42.762  19.081  25.169  1.00  0.00    -0.461 OA
BRANCH   2   3
ATOM      3  C   UNL A   1      42.114  19.065  26.362  1.00  0.00     0.326 C 
ATOM      4  O   UNL A   1      42.598  18.450  27.313  1.00  0.00    -0.250 OA
BRANCH   3   5
ATOM      5  C   UNL A   1      40.744  19.658  26.445  1.00  0.00     0.244 C 
BRANCH   5   6
ATOM      6  N   UNL A   1      40.602  21.082  26.673  1.00  0.00    -0.336 N 
ATOM      7  C   UNL A   1      41.284  21.753  27.652  1.00  0.00     0.087 A 
ATOM      8  C   UNL A   1      39.531  21.845  26.223  1.00  0.00     0.049 A 
ATOM      9  C   UNL A   1      40.692  22.982  27.812  1.00  0.00     0.028 A 
ATOM     10  C   UNL A   1      39.582  23.050  26.930  1.00  0.00    -0.000 A 
ATOM     11  C   UNL A   1      38.495  21.578  25.301  1.00  0.00     0.033 A 
ATOM     12  C   UNL A   1      38.589  24.020  26.698  1.00  0.00     0.011 A 
ATOM     13  C   UNL A   1      37.499  22.551  25.090  1.00  0.00    -0.021 A 
ATOM     14  C   UNL A   1      37.559  23.762  25.784  1.00  0.00     0.007 A 
BRANCH  13  15
ATOM     15  C   UNL A   1      36.348  22.274  24.153  1.00  0.00     0.191 C 
BRANCH  15  16
ATOM     16  O   UNL A   1      36.440  23.095  22.997  1.00  0.00    -0.392 OA
ATOM     17  H   UNL A   1      37.318  22.995  22.598  1.00  0.00     0.211 HD
ENDBRANCH  15  16
ENDBRANCH  13  15
ENDBRANCH   5   6
ENDBRANCH   3   5
ENDBRANCH   2   3
ENDBRANCH   1   2
BRANCH   1  18
ATOM     18  C   UNL A   1      44.774  20.270  24.363  1.00  0.00     0.275 C 
BRANCH  18  19
ATOM     19  O   UNL A   1      43.939  21.399  24.681  1.00  0.00    -0.458 OA
BRANCH  19  20
ATOM     20  C   UNL A   1      44.486  22.635  24.538  1.00  0.00     0.338 C 
ATOM     21  O   UNL A   1      45.173  23.032  23.615  1.00  0.00    -0.246 OA
BRANCH  20  22
ATOM     22  C   UNL A   1      43.804  23.519  25.517  1.00  0.00     0.060 A 
ATOM     23  C   UNL A   1      42.759  24.365  25.135  1.00  0.00     0.016 A 
ATOM     24  C   UNL A   1      44.431  23.688  26.760  1.00  0.00     0.016 A 
ATOM     25  C   UNL A   1      42.472  25.476  25.926  1.00  0.00     0.010 A 
ATOM     26  C   UNL A   1      44.127  24.791  27.559  1.00  0.00     0.010 A 
ATOM     27  C   UNL A   1      43.201  25.732  27.111  1.00  0.00    -0.014 A 
BRANCH  27  28
ATOM     28  C   UNL A   1      42.857  26.945  27.876  1.00  0.00     0.031 A 
ATOM     29  C   UNL A   1      43.851  28.037  27.680  1.00  0.00     0.074 A 
ATOM     30  C   UNL A   1      41.749  27.187  28.614  1.00  0.00     0.049 A 
ATOM     31  N   UNL A   1      44.601  28.609  28.564  1.00  0.00    -0.248 NA
ATOM     32  C   UNL A   1      44.138  28.431  26.291  1.00  0.00     0.031 C 
ATOM     33  C   UNL A   1      40.535  26.378  28.730  1.00  0.00     0.029 A 
ATOM     34  N   UNL A   1      41.445  28.293  29.375  1.00  0.00    -0.354 N 
ATOM     35  C   UNL A   1      45.359  29.542  27.864  1.00  0.00     0.074 A 
ATOM     36  C   UNL A   1      45.137  29.293  26.465  1.00  0.00     0.031 C 
ATOM     37  C   UNL A   1      39.559  27.109  29.322  1.00  0.00     0.029 A 
ATOM     38  C   UNL A   1      40.106  28.387  29.750  1.00  0.00     0.049 A 
ATOM     39  H   UNL A   1      42.119  28.964  29.633  1.00  0.00     0.167 HD
ATOM     40  C   UNL A   1      45.955  30.592  28.487  1.00  0.00     0.037 A 
ATOM     41  C   UNL A   1      39.487  29.452  30.325  1.00  0.00     0.037 A 
ATOM     42  C   UNL A   1      46.092  30.366  29.899  1.00  0.00     0.049 A 
ATOM     43  C   UNL A   1      40.527  30.301  30.945  1.00  0.00     0.074 A 
ATOM     44  C   UNL A   1      46.805  29.493  30.693  1.00  0.00     0.029 A 
ATOM     45  N   UNL A   1      45.153  30.946  30.709  1.00  0.00    -0.354 N 
ATOM     46  N   UNL A   1      41.193  29.992  32.018  1.00  0.00    -0.248 NA
ATOM     47  C   UNL A   1      41.046  31.429  30.186  1.00  0.00     0.031 C 
ATOM     48  C   UNL A   1      46.009  29.300  31.860  1.00  0.00     0.029 A 
ATOM     49  C   UNL A   1      44.862  30.083  31.731  1.00  0.00     0.049 A 
ATOM     50  H   UNL A   1      44.753  31.835  30.577  1.00  0.00     0.167 HD
ATOM     51  C   UNL A   1      42.431  30.577  31.831  1.00  0.00     0.074 A 
ATOM     52  C   UNL A   1      42.229  31.570  30.786  1.00  0.00     0.031 C 
ATOM     53  C   UNL A   1      43.552  29.987  32.332  1.00  0.00     0.037 A 
BRANCH  40  54
ATOM     54  C   UNL A   1      46.058  31.970  27.878  1.00  0.00     0.064 A 
ATOM     55  C   UNL A   1      44.883  32.698  27.608  1.00  0.00     0.173 A 
ATOM     56  C   UNL A   1      47.234  32.473  27.278  1.00  0.00     0.173 A 
ATOM     57  F   UNL A   1      43.700  32.290  28.093  1.00  0.00    -0.203 F 
ATOM     58  C   UNL A   1      44.879  33.807  26.758  1.00  0.00     0.198 A 
ATOM     59  C   UNL A   1      47.237  33.614  26.477  1.00  0.00     0.198 A 
ATOM     60  F   UNL A   1      48.403  31.824  27.343  1.00  0.00    -0.203 F 
ATOM     61  F   UNL A   1      43.718  34.392  26.432  1.00  0.00    -0.200 F 
ATOM     62  C   UNL A   1      46.056  34.263  26.192  1.00  0.00     0.200 A 
ATOM     63  F   UNL A   1      48.385  34.023  25.920  1.00  0.00    -0.200 F 
ATOM     64  F   UNL A   1      46.047  35.292  25.335  1.00  0.00    -0.200 F 
ENDBRANCH  40  54
BRANCH  41  65
ATOM     65  C   UNL A   1      38.092  29.957  30.195  1.00  0.00     0.064 A 
ATOM     66  C   UNL A   1      37.320  30.256  31.337  1.00  0.00     0.173 A 
ATOM     67  C   UNL A   1      37.615  30.466  28.975  1.00  0.00     0.173 A 
ATOM     68  F   UNL A   1      37.713  29.841  32.550  1.00  0.00    -0.203 F 
ATOM     69  C   UNL A   1      36.181  31.067  31.268  1.00  0.00     0.198 A 
ATOM     70  C   UNL A   1      36.472  31.268  28.906  1.00  0.00     0.198 A 
ATOM     71  F   UNL A   1      38.306  30.289  27.841  1.00  0.00    -0.203 F 
ATOM     72  F   UNL A   1      35.528  31.402  32.390  1.00  0.00    -0.200 F 
ATOM     73  C   UNL A   1      35.768  31.586  30.054  1.00  0.00     0.200 A 
ATOM     74  F   UNL A   1      36.101  31.794  27.731  1.00  0.00    -0.200 F 
ATOM     75  F   UNL A   1      34.726  32.427  29.996  1.00  0.00    -0.200 F 
ENDBRANCH  41  65
BRANCH  53  76
ATOM     76  C   UNL A   1      43.376  28.983  33.434  1.00  0.00     0.064 A 
ATOM     77  C   UNL A   1      43.197  27.604  33.236  1.00  0.00     0.173 A 
ATOM     78  C   UNL A   1      43.511  29.436  34.754  1.00  0.00     0.173 A 
ATOM     79  F   UNL A   1      43.143  27.082  32.002  1.00  0.00    -0.203 F 
ATOM     80  C   UNL A   1      43.120  26.728  34.317  1.00  0.00     0.198 A 
ATOM     81  C   UNL A   1      43.482  28.554  35.828  1.00  0.00     0.198 A 
ATOM     82  F   UNL A   1      43.720  30.740  35.000  1.00  0.00    -0.203 F 
ATOM     83  F   UNL A   1      42.922  25.418  34.111  1.00  0.00    -0.200 F 
ATOM     84  C   UNL A   1      43.278  27.202  35.610  1.00  0.00     0.200 A 
ATOM     85  F   UNL A   1      43.676  29.011  37.073  1.00  0.00    -0.200 F 
ATOM     86  F   UNL A   1      43.260  26.351  36.646  1.00  0.00    -0.200 F 
ENDBRANCH  53  76
ENDBRANCH  27  28
ENDBRANCH  20  22
ENDBRANCH  19  20
ENDBRANCH  18  19
ENDBRANCH   1  18
TORSDOF 14
ENDMDL
MODEL 2
REMARK VINA RESULT:     -11.0      1.784      4.129
REMARK SMILES O=C(Cn1ccc2ccc(CO)cc21)OCCOC(=O)c1ccc(-c2c3nc(c(-c4c(F)c(F)c(F)c(F)c4F)c4ccc([nH]4)c(-c4c(F)c(F)c(F)c(F)c4F)c4nc(c(-c5c(F)c(F)c(F)c(F)c5F)c5ccc2[nH]5)C=C4)C=C3)cc1
REMARK SMILES IDX 16 1 15 2 2 3 1 4 3 5 4 6 5 7 14 8 6 9 7 10 13 11 8 12 10 13
REMARK SMILES IDX 9 14 11 15 12 16 17 18 18 19 19 20 20 21 21 22 22 23 83 24
REMARK SMILES IDX 23 25 82 26 24 27 25 28 26 29 76 30 27 31 81 32 75 33 77 34
REMARK SMILES IDX 28 35 80 36 74 37 73 38 29 40 61 41 41 42 60 43 42 44 45 45
REMARK SMILES IDX 59 46 78 47 43 48 44 49 58 51 79 52 46 53 30 54 31 55 39 56
REMARK SMILES IDX 32 57 33 58 37 59 40 60 34 61 35 62 38 63 36 64 62 65 63 66
REMARK SMILES IDX 71 67 64 68 65 69 69 70 72 71 66 72 67 73 70 74 68 75 47 76
REMARK SMILES IDX 48 77 56 78 49 79 50 80 54 81 57 82 51 83 52 84 55 85 53 86
REMARK H PARENT 12 17 77 39 45 50
REMARK Flexibility Score: inf
ROOT
ATOM      1  C   UNL A   1      42.378  20.068  26.449  1.00  0.00     0.274 C 
ENDROOT
BRANCH   1   2
ATOM      2  O   UNL A   1      42.722  20.974  25.375  1.00  0.00    -0.461 OA
BRANCH   2   3
ATOM      3  C   UNL A   1      43.908  21.628  25.275  1.00  0.00     0.326 C 
ATOM      4  O   UNL A   1      44.950  20.989  25.128  1.00  0.00    -0.250 OA
BRANCH   3   5
ATOM      5  C   UNL A   1      43.936  23.105  25.511  1.00  0.00     0.244 C 
BRANCH   5   6
ATOM      6  N   UNL A   1      44.900  23.654  26.445  1.00  0.00    -0.336 N 
ATOM      7  C   UNL A   1      44.961  23.279  27.760  1.00  0.00     0.087 A 
ATOM      8  C   UNL A   1      45.589  24.845  26.250  1.00  0.00     0.049 A 
ATOM      9  C   UNL A   1      45.735  24.199  28.424  1.00  0.00     0.028 A 
ATOM     10  C   UNL A   1      46.127  25.195  27.492  1.00  0.00    -0.000 A 
ATOM     11  C   UNL A   1      45.752  25.674  25.118  1.00  0.00     0.033 A 
ATOM     12  C   UNL A   1      46.863  26.389  27.604  1.00  0.00     0.011 A 
ATOM     13  C   UNL A   1      46.478  26.874  25.249  1.00  0.00    -0.021 A 
ATOM     14  C   UNL A   1      47.031  27.215  26.486  1.00  0.00     0.007 A 
BRANCH  13  15
ATOM     15  C   UNL A   1      46.624  27.809  24.073  1.00  0.00     0.191 C 
BRANCH  15  16
ATOM     16  O   UNL A   1      46.647  29.160  24.513  1.00  0.00    -0.392 OA
ATOM     17  H   UNL A   1      45.886  29.326  25.090  1.00  0.00     0.211 HD
ENDBRANCH  15  16
ENDBRANCH  13  15
ENDBRANCH   5   6
ENDBRANCH   3   5
ENDBRANCH   2   3
ENDBRANCH   1   2
BRANCH   1  18
ATOM     18  C   UNL A   1      40.860  20.006  26.682  1.00  0.00     0.275 C 
BRANCH  18  19
ATOM     19  O   UNL A   1      40.431  21.192  27.377  1.00  0.00    -0.458 OA
BRANCH  19  20
ATOM     20  C   UNL A   1      39.676  22.082  26.680  1.00  0.00     0.338 C 
ATOM     21  O   UNL A   1      38.585  21.882  26.177  1.00  0.00    -0.246 OA
BRANCH  20  22
ATOM     22  C   UNL A   1      40.243  23.427  26.950  1.00  0.00     0.060 A 
ATOM     23  C   UNL A   1      41.286  23.612  27.863  1.00  0.00     0.016 A 
ATOM     24  C   UNL A   1      39.509  24.527  26.485  1.00  0.00     0.016 A 
ATOM     25  C   UNL A   1      41.467  24.872  28.428  1.00  0.00     0.010 A 
ATOM     26  C   UNL A   1      39.708  25.792  27.040  1.00  0.00     0.010 A 
ATOM     27  C   UNL A   1      40.633  25.957  28.068  1.00  0.00    -0.014 A 
BRANCH  27  28
ATOM     28  C   UNL A   1      40.871  27.251  28.735  1.00  0.00     0.031 A 
ATOM     29  C   UNL A   1      42.132  27.897  28.279  1.00  0.00     0.074 A 
ATOM     30  C   UNL A   1      40.062  27.915  29.594  1.00  0.00     0.049 A 
ATOM     31  N   UNL A   1      43.176  28.205  28.978  1.00  0.00    -0.248 NA
ATOM     32  C   UNL A   1      42.292  28.088  26.829  1.00  0.00     0.031 C 
ATOM     33  C   UNL A   1      38.682  27.605  29.972  1.00  0.00     0.029 A 
ATOM     34  N   UNL A   1      40.299  29.094  30.263  1.00  0.00    -0.354 N 
ATOM     35  C   UNL A   1      44.077  28.764  28.078  1.00  0.00     0.074 A 
ATOM     36  C   UNL A   1      43.543  28.539  26.760  1.00  0.00     0.031 C 
ATOM     37  C   UNL A   1      38.140  28.670  30.612  1.00  0.00     0.029 A 
ATOM     38  C   UNL A   1      39.163  29.684  30.813  1.00  0.00     0.049 A 
ATOM     39  H   UNL A   1      41.197  29.488  30.345  1.00  0.00     0.167 HD
ATOM     40  C   UNL A   1      45.100  29.559  28.489  1.00  0.00     0.037 A 
ATOM     41  C   UNL A   1      39.062  30.929  31.350  1.00  0.00     0.037 A 
ATOM     42  C   UNL A   1      45.392  29.372  29.882  1.00  0.00     0.049 A 
ATOM     43  C   UNL A   1      40.423  31.376  31.716  1.00  0.00     0.074 A 
ATOM     44  C   UNL A   1      45.883  28.343  30.658  1.00  0.00     0.029 A 
ATOM     45  N   UNL A   1      44.869  30.293  30.749  1.00  0.00    -0.354 N 
ATOM     46  N   UNL A   1      41.116  30.904  32.710  1.00  0.00    -0.248 NA
ATOM     47  C   UNL A   1      41.162  32.199  30.770  1.00  0.00     0.031 C 
ATOM     48  C   UNL A   1      45.285  28.512  31.941  1.00  0.00     0.029 A 
ATOM     49  C   UNL A   1      44.478  29.649  31.891  1.00  0.00     0.049 A 
ATOM     50  H   UNL A   1      44.788  31.259  30.579  1.00  0.00     0.167 HD
ATOM     51  C   UNL A   1      42.428  30.991  32.284  1.00  0.00     0.074 A 
ATOM     52  C   UNL A   1      42.406  31.935  31.175  1.00  0.00     0.031 C 
ATOM     53  C   UNL A   1      43.342  30.064  32.681  1.00  0.00     0.037 A 
BRANCH  40  54
ATOM     54  C   UNL A   1      45.569  30.772  27.722  1.00  0.00     0.064 A 
ATOM     55  C   UNL A   1      46.943  30.936  27.458  1.00  0.00     0.173 A 
ATOM     56  C   UNL A   1      44.769  31.916  27.503  1.00  0.00     0.173 A 
ATOM     57  F   UNL A   1      47.804  29.929  27.669  1.00  0.00    -0.203 F 
ATOM     58  C   UNL A   1      47.478  32.165  27.063  1.00  0.00     0.198 A 
ATOM     59  C   UNL A   1      45.297  33.124  27.053  1.00  0.00     0.198 A 
ATOM     60  F   UNL A   1      43.470  31.950  27.823  1.00  0.00    -0.203 F 
ATOM     61  F   UNL A   1      48.805  32.306  26.944  1.00  0.00    -0.200 F 
ATOM     62  C   UNL A   1      46.654  33.258  26.861  1.00  0.00     0.200 A 
ATOM     63  F   UNL A   1      44.484  34.176  26.888  1.00  0.00    -0.200 F 
ATOM     64  F   UNL A   1      47.171  34.450  26.535  1.00  0.00    -0.200 F 
ENDBRANCH  40  54
BRANCH  41  65
ATOM     65  C   UNL A   1      37.930  31.896  31.366  1.00  0.00     0.064 A 
ATOM     66  C   UNL A   1      37.496  32.523  30.179  1.00  0.00     0.173 A 
ATOM     67  C   UNL A   1      37.051  31.968  32.459  1.00  0.00     0.173 A 
ATOM     68  F   UNL A   1      38.252  32.479  29.071  1.00  0.00    -0.203 F 
ATOM     69  C   UNL A   1      36.237  33.125  30.078  1.00  0.00     0.198 A 
ATOM     70  C   UNL A   1      35.797  32.578  32.360  1.00  0.00     0.198 A 
ATOM     71  F   UNL A   1      37.342  31.354  33.614  1.00  0.00    -0.203 F 
ATOM     72  F   UNL A   1      35.826  33.630  28.905  1.00  0.00    -0.200 F 
ATOM     73  C   UNL A   1      35.381  33.137  31.166  1.00  0.00     0.200 A 
ATOM     74  F   UNL A   1      34.963  32.553  33.409  1.00  0.00    -0.200 F 
ATOM     75  F   UNL A   1      34.145  33.641  31.050  1.00  0.00    -0.200 F 
ENDBRANCH  41  65
BRANCH  53  76
ATOM     76  C   UNL A   1      43.022  29.250  33.901  1.00  0.00     0.064 A 
ATOM     77  C   UNL A   1      42.241  28.082  33.899  1.00  0.00     0.173 A 
ATOM     78  C   UNL A   1      43.636  29.618  35.108  1.00  0.00     0.173 A 
ATOM     79  F   UNL A   1      41.691  27.618  32.769  1.00  0.00    -0.203 F 
ATOM     80  C   UNL A   1      42.058  27.341  35.065  1.00  0.00     0.198 A 
ATOM     81  C   UNL A   1      43.489  28.850  36.257  1.00  0.00     0.198 A 
ATOM     82  F   UNL A   1      44.422  30.705  35.158  1.00  0.00    -0.203 F 
ATOM     83  F   UNL A   1      41.288  26.243  35.051  1.00  0.00    -0.200 F 
ATOM     84  C   UNL A   1      42.694  27.717  36.238  1.00  0.00     0.200 A 
ATOM     85  F   UNL A   1      44.139  29.194  37.377  1.00  0.00    -0.200 F 
ATOM     86  F   UNL A   1      42.561  26.971  37.345  1.00  0.00    -0.200 F 
ENDBRANCH  53  76
ENDBRANCH  27  28
ENDBRANCH  20  22
ENDBRANCH  19  20
ENDBRANCH  18  19
ENDBRANCH   1  18
TORSDOF 14
ENDMDL
MODEL 3
REMARK VINA RESULT:     -10.8      1.475      2.219
REMARK SMILES O=C(Cn1ccc2ccc(CO)cc21)OCCOC(=O)c1ccc(-c2c3nc(c(-c4c(F)c(F)c(F)c(F)c4F)c4ccc([nH]4)c(-c4c(F)c(F)c(F)c(F)c4F)c4nc(c(-c5c(F)c(F)c(F)c(F)c5F)c5ccc2[nH]5)C=C4)C=C3)cc1
REMARK SMILES IDX 16 1 15 2 2 3 1 4 3 5 4 6 5 7 14 8 6 9 7 10 13 11 8 12 10 13
REMARK SMILES IDX 9 14 11 15 12 16 17 18 18 19 19 20 20 21 21 22 22 23 83 24
REMARK SMILES IDX 23 25 82 26 24 27 25 28 26 29 76 30 27 31 81 32 75 33 77 34
REMARK SMILES IDX 28 35 80 36 74 37 73 38 29 40 61 41 41 42 60 43 42 44 45 45
REMARK SMILES IDX 59 46 78 47 43 48 44 49 58 51 79 52 46 53 30 54 31 55 39 56
REMARK SMILES IDX 32 57 33 58 37 59 40 60 34 61 35 62 38 63 36 64 62 65 63 66
REMARK SMILES IDX 71 67 64 68 65 69 69 70 72 71 66 72 67 73 70 74 68 75 47 76
REMARK SMILES IDX 48 77 56 78 49 79 50 80 54 81 57 82 51 83 52 84 55 85 53 86
REMARK H PARENT 12 17 77 39 45 50
REMARK Flexibility Score: inf
ROOT
ATOM      1  C   UNL A   1      41.995  18.823  26.113  1.00  0.00     0.274 C 
ENDROOT
BRANCH   1   2
ATOM      2  O   UNL A   1      41.739  19.722  27.216  1.00  0.00    -0.461 OA
BRANCH   2   3
ATOM      3  C   UNL A   1      40.802  20.705  27.203  1.00  0.00     0.326 C 
ATOM      4  O   UNL A   1      40.739  21.504  28.137  1.00  0.00    -0.250 OA
BRANCH   3   5
ATOM      5  C   UNL A   1      39.759  20.689  26.131  1.00  0.00     0.244 C 
BRANCH   5   6
ATOM      6  N   UNL A   1      38.963  21.878  25.901  1.00  0.00    -0.336 N 
ATOM      7  C   UNL A   1      39.360  23.129  26.291  1.00  0.00     0.087 A 
ATOM      8  C   UNL A   1      37.600  21.869  25.629  1.00  0.00     0.049 A 
ATOM      9  C   UNL A   1      38.266  23.957  26.226  1.00  0.00     0.028 A 
ATOM     10  C   UNL A   1      37.151  23.177  25.823  1.00  0.00    -0.000 A 
ATOM     11  C   UNL A   1      36.709  20.830  25.278  1.00  0.00     0.033 A 
ATOM     12  C   UNL A   1      35.784  23.464  25.644  1.00  0.00     0.011 A 
ATOM     13  C   UNL A   1      35.341  21.128  25.117  1.00  0.00    -0.021 A 
ATOM     14  C   UNL A   1      34.895  22.440  25.295  1.00  0.00     0.007 A 
BRANCH  13  15
ATOM     15  C   UNL A   1      34.354  20.032  24.797  1.00  0.00     0.191 C 
BRANCH  15  16
ATOM     16  O   UNL A   1      34.995  18.764  24.821  1.00  0.00    -0.392 OA
ATOM     17  H   UNL A   1      35.925  18.875  25.072  1.00  0.00     0.211 HD
ENDBRANCH  15  16
ENDBRANCH  13  15
ENDBRANCH   5   6
ENDBRANCH   3   5
ENDBRANCH   2   3
ENDBRANCH   1   2
BRANCH   1  18
ATOM     18  C   UNL A   1      43.433  18.956  25.587  1.00  0.00     0.275 C 
BRANCH  18  19
ATOM     19  O   UNL A   1      43.611  20.256  24.995  1.00  0.00    -0.458 OA
BRANCH  19  20
ATOM     20  C   UNL A   1      44.878  20.747  24.945  1.00  0.00     0.338 C 
ATOM     21  O   UNL A   1      45.849  20.221  24.432  1.00  0.00    -0.246 OA
BRANCH  20  22
ATOM     22  C   UNL A   1      44.792  22.185  25.301  1.00  0.00     0.060 A 
ATOM     23  C   UNL A   1      45.584  22.739  26.311  1.00  0.00     0.016 A 
ATOM     24  C   UNL A   1      43.692  22.896  24.797  1.00  0.00     0.016 A 
ATOM     25  C   UNL A   1      45.165  23.918  26.923  1.00  0.00     0.010 A 
ATOM     26  C   UNL A   1      43.288  24.088  25.400  1.00  0.00     0.010 A 
ATOM     27  C   UNL A   1      43.975  24.565  26.514  1.00  0.00    -0.014 A 
BRANCH  27  28
ATOM     28  C   UNL A   1      43.585  25.792  27.233  1.00  0.00     0.031 A 
ATOM     29  C   UNL A   1      44.522  26.920  26.974  1.00  0.00     0.074 A 
ATOM     30  C   UNL A   1      42.478  26.013  27.981  1.00  0.00     0.049 A 
ATOM     31  N   UNL A   1      45.257  27.564  27.821  1.00  0.00    -0.248 NA
ATOM     32  C   UNL A   1      44.768  27.268  25.566  1.00  0.00     0.031 C 
ATOM     33  C   UNL A   1      41.306  25.152  28.152  1.00  0.00     0.029 A 
ATOM     34  N   UNL A   1      42.133  27.135  28.699  1.00  0.00    -0.354 N 
ATOM     35  C   UNL A   1      45.958  28.502  27.069  1.00  0.00     0.074 A 
ATOM     36  C   UNL A   1      45.727  28.183  25.685  1.00  0.00     0.031 C 
ATOM     37  C   UNL A   1      40.305  25.861  28.729  1.00  0.00     0.029 A 
ATOM     38  C   UNL A   1      40.797  27.180  29.093  1.00  0.00     0.049 A 
ATOM     39  H   UNL A   1      42.777  27.847  28.917  1.00  0.00     0.167 HD
ATOM     40  C   UNL A   1      46.513  29.605  27.637  1.00  0.00     0.037 A 
ATOM     41  C   UNL A   1      40.136  28.238  29.634  1.00  0.00     0.037 A 
ATOM     42  C   UNL A   1      46.682  29.446  29.055  1.00  0.00     0.049 A 
ATOM     43  C   UNL A   1      41.143  29.161  30.199  1.00  0.00     0.074 A 
ATOM     44  C   UNL A   1      47.448  28.643  29.872  1.00  0.00     0.029 A 
ATOM     45  N   UNL A   1      45.729  30.015  29.855  1.00  0.00    -0.354 N 
ATOM     46  N   UNL A   1      41.840  28.931  31.272  1.00  0.00    -0.248 NA
ATOM     47  C   UNL A   1      41.595  30.279  29.384  1.00  0.00     0.031 C 
ATOM     48  C   UNL A   1      46.680  28.462  31.060  1.00  0.00     0.029 A 
ATOM     49  C   UNL A   1      45.495  29.184  30.918  1.00  0.00     0.049 A 
ATOM     50  H   UNL A   1      45.285  30.878  29.694  1.00  0.00     0.167 HD
ATOM     51  C   UNL A   1      43.045  29.565  31.039  1.00  0.00     0.074 A 
ATOM     52  C   UNL A   1      42.780  30.503  29.958  1.00  0.00     0.031 C 
ATOM     53  C   UNL A   1      44.201  29.051  31.545  1.00  0.00     0.037 A 
BRANCH  40  54
ATOM     54  C   UNL A   1      46.540  30.959  26.969  1.00  0.00     0.064 A 
ATOM     55  C   UNL A   1      47.749  31.681  26.917  1.00  0.00     0.173 A 
ATOM     56  C   UNL A   1      45.379  31.698  26.651  1.00  0.00     0.173 A 
ATOM     57  F   UNL A   1      48.911  31.091  27.238  1.00  0.00    -0.203 F 
ATOM     58  C   UNL A   1      47.781  33.047  26.626  1.00  0.00     0.198 A 
ATOM     59  C   UNL A   1      45.422  33.047  26.304  1.00  0.00     0.198 A 
ATOM     60  F   UNL A   1      44.150  31.183  26.773  1.00  0.00    -0.203 F 
ATOM     61  F   UNL A   1      48.939  33.718  26.709  1.00  0.00    -0.200 F 
ATOM     62  C   UNL A   1      46.618  33.729  26.320  1.00  0.00     0.200 A 
ATOM     63  F   UNL A   1      44.279  33.693  26.036  1.00  0.00    -0.200 F 
ATOM     64  F   UNL A   1      46.640  35.049  26.094  1.00  0.00    -0.200 F 
ENDBRANCH  40  54
BRANCH  41  65
ATOM     65  C   UNL A   1      38.717  28.670  29.507  1.00  0.00     0.064 A 
ATOM     66  C   UNL A   1      37.914  28.866  30.650  1.00  0.00     0.173 A 
ATOM     67  C   UNL A   1      38.228  29.216  28.308  1.00  0.00     0.173 A 
ATOM     68  F   UNL A   1      38.313  28.409  31.847  1.00  0.00    -0.203 F 
ATOM     69  C   UNL A   1      36.731  29.614  30.604  1.00  0.00     0.198 A 
ATOM     70  C   UNL A   1      37.042  29.955  28.262  1.00  0.00     0.198 A 
ATOM     71  F   UNL A   1      38.943  29.139  27.178  1.00  0.00    -0.203 F 
ATOM     72  F   UNL A   1      36.045  29.852  31.731  1.00  0.00    -0.200 F 
ATOM     73  C   UNL A   1      36.306  30.172  29.412  1.00  0.00     0.200 A 
ATOM     74  F   UNL A   1      36.658  30.521  27.109  1.00  0.00    -0.200 F 
ATOM     75  F   UNL A   1      35.219  30.955  29.381  1.00  0.00    -0.200 F 
ENDBRANCH  41  65
BRANCH  53  76
ATOM     76  C   UNL A   1      44.091  28.088  32.691  1.00  0.00     0.064 A 
ATOM     77  C   UNL A   1      43.928  26.699  32.554  1.00  0.00     0.173 A 
ATOM     78  C   UNL A   1      44.275  28.595  33.986  1.00  0.00     0.173 A 
ATOM     79  F   UNL A   1      43.830  26.130  31.344  1.00  0.00    -0.203 F 
ATOM     80  C   UNL A   1      43.914  25.865  33.670  1.00  0.00     0.198 A 
ATOM     81  C   UNL A   1      44.307  27.754  35.093  1.00  0.00     0.198 A 
ATOM     82  F   UNL A   1      44.471  29.910  34.173  1.00  0.00    -0.203 F 
ATOM     83  F   UNL A   1      43.730  24.546  33.522  1.00  0.00    -0.200 F 
ATOM     84  C   UNL A   1      44.119  26.392  34.936  1.00  0.00     0.200 A 
ATOM     85  F   UNL A   1      44.547  28.262  36.310  1.00  0.00    -0.200 F 
ATOM     86  F   UNL A   1      44.160  25.581  36.004  1.00  0.00    -0.200 F 
ENDBRANCH  53  76
ENDBRANCH  27  28
ENDBRANCH  20  22
ENDBRANCH  19  20
ENDBRANCH  18  19
ENDBRANCH   1  18
TORSDOF 14
ENDMDL
