MODEL 1
REMARK VINA RESULT:     -11.7      0.000      0.000
REMARK SMILES Cc1cc(C[NH+]2C[C@@H](C)[C@H](C)C2)oc1C(=O)OCCOC(=O)c1ccc(-c2c3nc(c(-c4c(F)c(F)c(F)c(F)c4F)c4ccc([nH]4)c(-c4c(F)c(F)c(F)c(F)c4F)c4nc(c(-c5c(F)c(F)c(F)c(F)c5F)c5ccc2[nH]5)C=C4)C=C3)cc1
REMARK SMILES IDX 18 1 17 2 15 3 16 4 14 5 1 6 2 7 3 8 4 9 13 10 5 11 6 12
REMARK SMILES IDX 7 13 12 14 8 16 10 17 9 18 11 19 19 20 20 21 21 22 22 23
REMARK SMILES IDX 23 24 24 25 85 26 25 27 84 28 26 29 27 30 28 31 78 32 29 33
REMARK SMILES IDX 83 34 77 35 79 36 30 37 82 38 76 39 75 40 31 42 63 43 43 44
REMARK SMILES IDX 62 45 44 46 47 47 61 48 80 49 45 50 46 51 60 53 81 54 48 55
REMARK SMILES IDX 32 56 33 57 41 58 34 59 35 60 39 61 42 62 36 63 37 64 40 65
REMARK SMILES IDX 38 66 64 67 65 68 73 69 66 70 67 71 71 72 74 73 68 74 69 75
REMARK SMILES IDX 72 76 70 77 49 78 50 79 58 80 51 81 52 82 56 83 59 84 53 85
REMARK SMILES IDX 54 86 57 87 55 88
REMARK H PARENT 6 15 79 41 47 52
REMARK Flexibility Score: inf
ROOT
ATOM      1  C   UNL A   1      31.962  28.487  27.090  1.00  0.00     0.275 C 
ENDROOT
BRANCH   1   2
ATOM      2  O   UNL A   1      32.865  27.874  26.150  1.00  0.00    -0.456 OA
BRANCH   2   3
ATOM      3  C   UNL A   1      32.303  27.011  25.254  1.00  0.00     0.374 C 
ATOM      4  O   UNL A   1      32.239  25.801  25.417  1.00  0.00    -0.242 OA
BRANCH   3   5
ATOM      5  C   UNL A   1      31.708  27.738  24.149  1.00  0.00     0.215 A 
ATOM      6  C   UNL A   1      33.581  28.952  22.817  1.00  0.00     0.049 C 
ATOM      7  C   UNL A   1      32.184  28.573  23.145  1.00  0.00     0.003 A 
ATOM      8  C   UNL A   1      31.030  29.036  22.440  1.00  0.00     0.056 A 
ATOM      9  C   UNL A   1      29.928  28.487  23.056  1.00  0.00     0.159 A 
ATOM     10  O   UNL A   1      30.342  27.650  24.045  1.00  0.00    -0.448 OA
BRANCH   9  11
ATOM     11  C   UNL A   1      28.446  28.616  22.895  1.00  0.00     0.338 C 
BRANCH  11  12
ATOM     12  N   UNL A   1      27.942  29.968  22.653  1.00  0.00    -0.328 N 
ATOM     13  C   UNL A   1      28.504  31.023  23.500  1.00  0.00     0.266 C 
ATOM     14  C   UNL A   1      27.935  30.407  21.257  1.00  0.00     0.266 C 
ATOM     15  H   UNL A   1      26.970  29.840  22.936  1.00  0.00     0.348 HD
ATOM     16  C   UNL A   1      28.273  32.294  22.682  1.00  0.00     0.049 C 
ATOM     17  C   UNL A   1      28.565  31.800  21.265  1.00  0.00     0.049 C 
ATOM     18  C   UNL A   1      29.153  33.452  23.126  1.00  0.00     0.014 C 
ATOM     19  C   UNL A   1      28.028  32.696  20.159  1.00  0.00     0.014 C 
ENDBRANCH  11  12
ENDBRANCH   9  11
ENDBRANCH   3   5
ENDBRANCH   2   3
ENDBRANCH   1   2
BRANCH   1  20
ATOM     20  C   UNL A   1      31.870  30.002  26.874  1.00  0.00     0.275 C 
BRANCH  20  21
ATOM     21  O   UNL A   1      33.137  30.565  26.482  1.00  0.00    -0.458 OA
BRANCH  21  22
ATOM     22  C   UNL A   1      33.586  31.585  27.251  1.00  0.00     0.338 C 
ATOM     23  O   UNL A   1      33.007  32.632  27.491  1.00  0.00    -0.246 OA
BRANCH  22  24
ATOM     24  C   UNL A   1      34.854  31.200  27.897  1.00  0.00     0.060 A 
ATOM     25  C   UNL A   1      34.974  29.888  28.363  1.00  0.00     0.016 A 
ATOM     26  C   UNL A   1      35.898  32.110  28.084  1.00  0.00     0.016 A 
ATOM     27  C   UNL A   1      36.138  29.470  29.001  1.00  0.00     0.010 A 
ATOM     28  C   UNL A   1      37.064  31.695  28.739  1.00  0.00     0.010 A 
ATOM     29  C   UNL A   1      37.187  30.373  29.203  1.00  0.00    -0.014 A 
BRANCH  29  30
ATOM     30  C   UNL A   1      38.390  29.935  29.948  1.00  0.00     0.031 A 
ATOM     31  C   UNL A   1      38.615  30.420  31.350  1.00  0.00     0.074 A 
ATOM     32  C   UNL A   1      39.250  29.068  29.385  1.00  0.00     0.049 A 
ATOM     33  N   UNL A   1      39.609  30.170  32.163  1.00  0.00    -0.248 NA
ATOM     34  C   UNL A   1      37.581  31.303  31.911  1.00  0.00     0.031 C 
ATOM     35  C   UNL A   1      39.111  28.493  28.048  1.00  0.00     0.029 A 
ATOM     36  N   UNL A   1      40.410  28.519  29.870  1.00  0.00    -0.354 N 
ATOM     37  C   UNL A   1      39.327  30.870  33.328  1.00  0.00     0.074 A 
ATOM     38  C   UNL A   1      38.076  31.568  33.111  1.00  0.00     0.031 C 
ATOM     39  C   UNL A   1      40.145  27.666  27.820  1.00  0.00     0.029 A 
ATOM     40  C   UNL A   1      41.034  27.680  28.981  1.00  0.00     0.049 A 
ATOM     41  H   UNL A   1      40.762  28.709  30.770  1.00  0.00     0.167 HD
ATOM     42  C   UNL A   1      40.045  30.920  34.475  1.00  0.00     0.037 A 
ATOM     43  C   UNL A   1      42.197  27.011  29.088  1.00  0.00     0.037 A 
ATOM     44  C   UNL A   1      41.280  30.216  34.694  1.00  0.00     0.049 A 
ATOM     45  C   UNL A   1      43.002  27.126  30.355  1.00  0.00     0.074 A 
ATOM     46  C   UNL A   1      42.075  30.196  35.827  1.00  0.00     0.029 A 
ATOM     47  N   UNL A   1      41.903  29.405  33.756  1.00  0.00    -0.354 N 
ATOM     48  N   UNL A   1      42.727  27.789  31.452  1.00  0.00    -0.248 NA
ATOM     49  C   UNL A   1      44.282  26.405  30.394  1.00  0.00     0.031 C 
ATOM     50  C   UNL A   1      43.196  29.402  35.562  1.00  0.00     0.029 A 
ATOM     51  C   UNL A   1      43.081  28.897  34.277  1.00  0.00     0.049 A 
ATOM     52  H   UNL A   1      41.557  29.219  32.852  1.00  0.00     0.167 HD
ATOM     53  C   UNL A   1      43.785  27.551  32.316  1.00  0.00     0.074 A 
ATOM     54  C   UNL A   1      44.704  26.672  31.623  1.00  0.00     0.031 C 
ATOM     55  C   UNL A   1      43.981  28.021  33.573  1.00  0.00     0.037 A 
BRANCH  42  56
ATOM     56  C   UNL A   1      39.521  31.788  35.577  1.00  0.00     0.064 A 
ATOM     57  C   UNL A   1      38.574  31.318  36.498  1.00  0.00     0.173 A 
ATOM     58  C   UNL A   1      39.997  33.099  35.732  1.00  0.00     0.173 A 
ATOM     59  F   UNL A   1      38.078  30.077  36.381  1.00  0.00    -0.203 F 
ATOM     60  C   UNL A   1      38.109  32.135  37.524  1.00  0.00     0.198 A 
ATOM     61  C   UNL A   1      39.546  33.906  36.772  1.00  0.00     0.198 A 
ATOM     62  F   UNL A   1      40.905  33.594  34.877  1.00  0.00    -0.203 F 
ATOM     63  F   UNL A   1      37.178  31.678  38.374  1.00  0.00    -0.200 F 
ATOM     64  C   UNL A   1      38.599  33.425  37.665  1.00  0.00     0.200 A 
ATOM     65  F   UNL A   1      40.025  35.149  36.910  1.00  0.00    -0.200 F 
ATOM     66  F   UNL A   1      38.153  34.209  38.656  1.00  0.00    -0.200 F 
ENDBRANCH  42  56
BRANCH  43  67
ATOM     67  C   UNL A   1      42.678  26.178  27.957  1.00  0.00     0.064 A 
ATOM     68  C   UNL A   1      42.289  24.838  27.831  1.00  0.00     0.173 A 
ATOM     69  C   UNL A   1      43.543  26.703  26.987  1.00  0.00     0.173 A 
ATOM     70  F   UNL A   1      41.486  24.284  28.751  1.00  0.00    -0.203 F 
ATOM     71  C   UNL A   1      42.758  24.050  26.781  1.00  0.00     0.198 A 
ATOM     72  C   UNL A   1      43.993  25.921  25.925  1.00  0.00     0.198 A 
ATOM     73  F   UNL A   1      43.950  27.978  27.069  1.00  0.00    -0.203 F 
ATOM     74  F   UNL A   1      42.403  22.760  26.705  1.00  0.00    -0.200 F 
ATOM     75  C   UNL A   1      43.604  24.594  25.827  1.00  0.00     0.200 A 
ATOM     76  F   UNL A   1      44.806  26.452  25.001  1.00  0.00    -0.200 F 
ATOM     77  F   UNL A   1      44.054  23.836  24.816  1.00  0.00    -0.200 F 
ENDBRANCH  43  67
BRANCH  55  78
ATOM     78  C   UNL A   1      45.223  27.578  34.285  1.00  0.00     0.064 A 
ATOM     79  C   UNL A   1      46.403  28.334  34.234  1.00  0.00     0.173 A 
ATOM     80  C   UNL A   1      45.222  26.406  35.056  1.00  0.00     0.173 A 
ATOM     81  F   UNL A   1      46.456  29.453  33.496  1.00  0.00    -0.203 F 
ATOM     82  C   UNL A   1      47.544  27.923  34.917  1.00  0.00     0.198 A 
ATOM     83  C   UNL A   1      46.358  26.011  35.756  1.00  0.00     0.198 A 
ATOM     84  F   UNL A   1      44.115  25.652  35.139  1.00  0.00    -0.203 F 
ATOM     85  F   UNL A   1      48.672  28.640  34.827  1.00  0.00    -0.200 F 
ATOM     86  C   UNL A   1      47.519  26.766  35.682  1.00  0.00     0.200 A 
ATOM     87  F   UNL A   1      46.330  24.897  36.502  1.00  0.00    -0.200 F 
ATOM     88  F   UNL A   1      48.617  26.375  36.343  1.00  0.00    -0.200 F 
ENDBRANCH  55  78
ENDBRANCH  29  30
ENDBRANCH  22  24
ENDBRANCH  21  22
ENDBRANCH  20  21
ENDBRANCH   1  20
TORSDOF 13
ENDMDL
MODEL 2
REMARK VINA RESULT:     -11.6      5.841     11.633
REMARK SMILES Cc1cc(C[NH+]2C[C@@H](C)[C@H](C)C2)oc1C(=O)OCCOC(=O)c1ccc(-c2c3nc(c(-c4c(F)c(F)c(F)c(F)c4F)c4ccc([nH]4)c(-c4c(F)c(F)c(F)c(F)c4F)c4nc(c(-c5c(F)c(F)c(F)c(F)c5F)c5ccc2[nH]5)C=C4)C=C3)cc1
REMARK SMILES IDX 18 1 17 2 15 3 16 4 14 5 1 6 2 7 3 8 4 9 13 10 5 11 6 12
REMARK SMILES IDX 7 13 12 14 8 16 10 17 9 18 11 19 19 20 20 21 21 22 22 23
REMARK SMILES IDX 23 24 24 25 85 26 25 27 84 28 26 29 27 30 28 31 78 32 29 33
REMARK SMILES IDX 83 34 77 35 79 36 30 37 82 38 76 39 75 40 31 42 63 43 43 44
REMARK SMILES IDX 62 45 44 46 47 47 61 48 80 49 45 50 46 51 60 53 81 54 48 55
REMARK SMILES IDX 32 56 33 57 41 58 34 59 35 60 39 61 42 62 36 63 37 64 40 65
REMARK SMILES IDX 38 66 64 67 65 68 73 69 66 70 67 71 71 72 74 73 68 74 69 75
REMARK SMILES IDX 72 76 70 77 49 78 50 79 58 80 51 81 52 82 56 83 59 84 53 85
REMARK SMILES IDX 54 86 57 87 55 88
REMARK H PARENT 6 15 79 41 47 52
REMARK Flexibility Score: inf
ROOT
ATOM      1  C   UNL A   1      41.146  19.966  26.485  1.00  0.00     0.275 C 
ENDROOT
BRANCH   1   2
ATOM      2  O   UNL A   1      41.905  19.435  25.382  1.00  0.00    -0.456 OA
BRANCH   2   3
ATOM      3  C   UNL A   1      43.068  18.796  25.705  1.00  0.00     0.374 C 
ATOM      4  O   UNL A   1      43.118  17.697  26.238  1.00  0.00    -0.242 OA
BRANCH   3   5
ATOM      5  C   UNL A   1      44.212  19.551  25.233  1.00  0.00     0.215 A 
ATOM      6  C   UNL A   1      46.383  18.208  25.727  1.00  0.00     0.049 C 
ATOM      7  C   UNL A   1      45.591  19.368  25.248  1.00  0.00     0.003 A 
ATOM      8  C   UNL A   1      46.150  20.561  24.694  1.00  0.00     0.056 A 
ATOM      9  C   UNL A   1      45.102  21.404  24.397  1.00  0.00     0.159 A 
ATOM     10  O   UNL A   1      43.931  20.765  24.659  1.00  0.00    -0.448 OA
BRANCH   9  11
ATOM     11  C   UNL A   1      44.977  22.805  23.888  1.00  0.00     0.338 C 
BRANCH  11  12
ATOM     12  N   UNL A   1      45.182  23.866  24.874  1.00  0.00    -0.328 N 
ATOM     13  C   UNL A   1      44.602  23.632  26.199  1.00  0.00     0.266 C 
ATOM     14  C   UNL A   1      46.556  24.350  25.016  1.00  0.00     0.266 C 
ATOM     15  H   UNL A   1      44.641  24.612  24.436  1.00  0.00     0.348 HD
ATOM     16  C   UNL A   1      45.428  24.539  27.112  1.00  0.00     0.049 C 
ATOM     17  C   UNL A   1      46.827  24.373  26.520  1.00  0.00     0.049 C 
ATOM     18  C   UNL A   1      45.328  24.151  28.579  1.00  0.00     0.014 C 
ATOM     19  C   UNL A   1      47.817  25.455  26.923  1.00  0.00     0.014 C 
ENDBRANCH  11  12
ENDBRANCH   9  11
ENDBRANCH   3   5
ENDBRANCH   2   3
ENDBRANCH   1   2
BRANCH   1  20
ATOM     20  C   UNL A   1      41.013  21.491  26.393  1.00  0.00     0.275 C 
BRANCH  20  21
ATOM     21  O   UNL A   1      39.840  21.968  27.079  1.00  0.00    -0.458 OA
BRANCH  21  22
ATOM     22  C   UNL A   1      39.152  22.947  26.446  1.00  0.00     0.338 C 
ATOM     23  O   UNL A   1      38.301  22.804  25.582  1.00  0.00    -0.246 OA
BRANCH  22  24
ATOM     24  C   UNL A   1      39.476  24.253  27.049  1.00  0.00     0.060 A 
ATOM     25  C   UNL A   1      40.105  25.203  26.240  1.00  0.00     0.016 A 
ATOM     26  C   UNL A   1      39.209  24.537  28.390  1.00  0.00     0.016 A 
ATOM     27  C   UNL A   1      40.456  26.447  26.757  1.00  0.00     0.010 A 
ATOM     28  C   UNL A   1      39.575  25.783  28.916  1.00  0.00     0.010 A 
ATOM     29  C   UNL A   1      40.203  26.742  28.101  1.00  0.00    -0.014 A 
BRANCH  29  30
ATOM     30  C   UNL A   1      40.649  28.041  28.656  1.00  0.00     0.031 A 
ATOM     31  C   UNL A   1      42.108  28.281  28.909  1.00  0.00     0.074 A 
ATOM     32  C   UNL A   1      39.752  29.015  28.888  1.00  0.00     0.049 A 
ATOM     33  N   UNL A   1      42.700  29.337  29.405  1.00  0.00    -0.248 NA
ATOM     34  C   UNL A   1      43.023  27.186  28.552  1.00  0.00     0.031 C 
ATOM     35  C   UNL A   1      38.315  28.914  28.637  1.00  0.00     0.029 A 
ATOM     36  N   UNL A   1      39.920  30.284  29.383  1.00  0.00    -0.354 N 
ATOM     37  C   UNL A   1      44.054  29.033  29.429  1.00  0.00     0.074 A 
ATOM     38  C   UNL A   1      44.195  27.687  28.913  1.00  0.00     0.031 C 
ATOM     39  C   UNL A   1      37.731  30.076  28.977  1.00  0.00     0.029 A 
ATOM     40  C   UNL A   1      38.747  30.988  29.497  1.00  0.00     0.049 A 
ATOM     41  H   UNL A   1      40.797  30.654  29.633  1.00  0.00     0.167 HD
ATOM     42  C   UNL A   1      45.084  29.809  29.841  1.00  0.00     0.037 A 
ATOM     43  C   UNL A   1      38.521  32.224  29.981  1.00  0.00     0.037 A 
ATOM     44  C   UNL A   1      44.943  31.150  30.342  1.00  0.00     0.049 A 
ATOM     45  C   UNL A   1      39.678  33.045  30.481  1.00  0.00     0.074 A 
ATOM     46  C   UNL A   1      45.930  32.020  30.774  1.00  0.00     0.029 A 
ATOM     47  N   UNL A   1      43.735  31.817  30.481  1.00  0.00    -0.354 N 
ATOM     48  N   UNL A   1      40.955  32.750  30.499  1.00  0.00    -0.248 NA
ATOM     49  C   UNL A   1      39.360  34.370  31.035  1.00  0.00     0.031 C 
ATOM     50  C   UNL A   1      45.315  33.200  31.205  1.00  0.00     0.029 A 
ATOM     51  C   UNL A   1      43.949  33.080  31.010  1.00  0.00     0.049 A 
ATOM     52  H   UNL A   1      42.855  31.447  30.238  1.00  0.00     0.167 HD
ATOM     53  C   UNL A   1      41.593  33.855  31.045  1.00  0.00     0.074 A 
ATOM     54  C   UNL A   1      40.566  34.833  31.335  1.00  0.00     0.031 C 
ATOM     55  C   UNL A   1      42.914  34.041  31.288  1.00  0.00     0.037 A 
BRANCH  42  56
ATOM     56  C   UNL A   1      46.457  29.214  29.789  1.00  0.00     0.064 A 
ATOM     57  C   UNL A   1      46.976  28.468  30.857  1.00  0.00     0.173 A 
ATOM     58  C   UNL A   1      47.253  29.366  28.643  1.00  0.00     0.173 A 
ATOM     59  F   UNL A   1      46.259  28.307  31.979  1.00  0.00    -0.203 F 
ATOM     60  C   UNL A   1      48.250  27.910  30.785  1.00  0.00     0.198 A 
ATOM     61  C   UNL A   1      48.517  28.790  28.567  1.00  0.00     0.198 A 
ATOM     62  F   UNL A   1      46.799  30.071  27.595  1.00  0.00    -0.203 F 
ATOM     63  F   UNL A   1      48.741  27.228  31.830  1.00  0.00    -0.200 F 
ATOM     64  C   UNL A   1      49.016  28.065  29.639  1.00  0.00     0.200 A 
ATOM     65  F   UNL A   1      49.252  28.936  27.457  1.00  0.00    -0.200 F 
ATOM     66  F   UNL A   1      50.240  27.525  29.571  1.00  0.00    -0.200 F 
ENDBRANCH  42  56
BRANCH  43  67
ATOM     67  C   UNL A   1      37.136  32.758  30.025  1.00  0.00     0.064 A 
ATOM     68  C   UNL A   1      36.300  32.506  31.120  1.00  0.00     0.173 A 
ATOM     69  C   UNL A   1      36.620  33.522  28.969  1.00  0.00     0.173 A 
ATOM     70  F   UNL A   1      36.740  31.756  32.140  1.00  0.00    -0.203 F 
ATOM     71  C   UNL A   1      34.992  32.990  31.152  1.00  0.00     0.198 A 
ATOM     72  C   UNL A   1      35.321  34.024  29.012  1.00  0.00     0.198 A 
ATOM     73  F   UNL A   1      37.380  33.783  27.895  1.00  0.00    -0.203 F 
ATOM     74  F   UNL A   1      34.199  32.702  32.192  1.00  0.00    -0.200 F 
ATOM     75  C   UNL A   1      34.507  33.753  30.101  1.00  0.00     0.200 A 
ATOM     76  F   UNL A   1      34.858  34.767  27.996  1.00  0.00    -0.200 F 
ATOM     77  F   UNL A   1      33.251  34.219  30.132  1.00  0.00    -0.200 F 
ENDBRANCH  43  67
BRANCH  55  78
ATOM     78  C   UNL A   1      43.324  35.357  31.876  1.00  0.00     0.064 A 
ATOM     79  C   UNL A   1      43.736  36.423  31.064  1.00  0.00     0.173 A 
ATOM     80  C   UNL A   1      43.268  35.565  33.262  1.00  0.00     0.173 A 
ATOM     81  F   UNL A   1      43.820  36.265  29.735  1.00  0.00    -0.203 F 
ATOM     82  C   UNL A   1      44.094  37.648  31.621  1.00  0.00     0.198 A 
ATOM     83  C   UNL A   1      43.606  36.798  33.813  1.00  0.00     0.198 A 
ATOM     84  F   UNL A   1      42.876  34.576  34.079  1.00  0.00    -0.203 F 
ATOM     85  F   UNL A   1      44.519  38.643  30.831  1.00  0.00    -0.200 F 
ATOM     86  C   UNL A   1      44.023  37.836  32.993  1.00  0.00     0.200 A 
ATOM     87  F   UNL A   1      43.528  36.982  35.139  1.00  0.00    -0.200 F 
ATOM     88  F   UNL A   1      44.363  39.017  33.527  1.00  0.00    -0.200 F 
ENDBRANCH  55  78
ENDBRANCH  29  30
ENDBRANCH  22  24
ENDBRANCH  21  22
ENDBRANCH  20  21
ENDBRANCH   1  20
TORSDOF 13
ENDMDL
MODEL 3
REMARK VINA RESULT:     -11.6      4.530      9.251
REMARK SMILES Cc1cc(C[NH+]2C[C@@H](C)[C@H](C)C2)oc1C(=O)OCCOC(=O)c1ccc(-c2c3nc(c(-c4c(F)c(F)c(F)c(F)c4F)c4ccc([nH]4)c(-c4c(F)c(F)c(F)c(F)c4F)c4nc(c(-c5c(F)c(F)c(F)c(F)c5F)c5ccc2[nH]5)C=C4)C=C3)cc1
REMARK SMILES IDX 18 1 17 2 15 3 16 4 14 5 1 6 2 7 3 8 4 9 13 10 5 11 6 12
REMARK SMILES IDX 7 13 12 14 8 16 10 17 9 18 11 19 19 20 20 21 21 22 22 23
REMARK SMILES IDX 23 24 24 25 85 26 25 27 84 28 26 29 27 30 28 31 78 32 29 33
REMARK SMILES IDX 83 34 77 35 79 36 30 37 82 38 76 39 75 40 31 42 63 43 43 44
REMARK SMILES IDX 62 45 44 46 47 47 61 48 80 49 45 50 46 51 60 53 81 54 48 55
REMARK SMILES IDX 32 56 33 57 41 58 34 59 35 60 39 61 42 62 36 63 37 64 40 65
REMARK SMILES IDX 38 66 64 67 65 68 73 69 66 70 67 71 71 72 74 73 68 74 69 75
REMARK SMILES IDX 72 76 70 77 49 78 50 79 58 80 51 81 52 82 56 83 59 84 53 85
REMARK SMILES IDX 54 86 57 87 55 88
REMARK H PARENT 6 15 79 41 47 52
REMARK Flexibility Score: inf
ROOT
ATOM      1  C   UNL A   1      42.609  21.044  26.124  1.00  0.00     0.275 C 
ENDROOT
BRANCH   1   2
ATOM      2  O   UNL A   1      41.220  21.241  25.798  1.00  0.00    -0.456 OA
BRANCH   2   3
ATOM      3  C   UNL A   1      40.419  21.670  26.817  1.00  0.00     0.374 C 
ATOM      4  O   UNL A   1      40.685  21.528  28.001  1.00  0.00    -0.242 OA
BRANCH   3   5
ATOM      5  C   UNL A   1      39.280  22.402  26.297  1.00  0.00     0.215 A 
ATOM      6  C   UNL A   1      39.247  24.784  27.338  1.00  0.00     0.049 C 
ATOM      7  C   UNL A   1      38.739  23.666  26.504  1.00  0.00     0.003 A 
ATOM      8  C   UNL A   1      37.536  23.708  25.734  1.00  0.00     0.056 A 
ATOM      9  C   UNL A   1      37.396  22.480  25.127  1.00  0.00     0.159 A 
ATOM     10  O   UNL A   1      38.484  21.717  25.414  1.00  0.00    -0.448 OA
BRANCH   9  11
ATOM     11  C   UNL A   1      36.353  21.828  24.276  1.00  0.00     0.338 C 
BRANCH  11  12
ATOM     12  N   UNL A   1      34.971  21.963  24.739  1.00  0.00    -0.328 N 
ATOM     13  C   UNL A   1      34.692  21.452  26.083  1.00  0.00     0.266 C 
ATOM     14  C   UNL A   1      34.370  23.288  24.580  1.00  0.00     0.266 C 
ATOM     15  H   UNL A   1      34.509  21.339  24.077  1.00  0.00     0.348 HD
ATOM     16  C   UNL A   1      33.434  22.217  26.498  1.00  0.00     0.049 C 
ATOM     17  C   UNL A   1      33.720  23.606  25.926  1.00  0.00     0.049 C 
ATOM     18  C   UNL A   1      33.201  22.203  28.001  1.00  0.00     0.014 C 
ATOM     19  C   UNL A   1      32.497  24.500  25.794  1.00  0.00     0.014 C 
ENDBRANCH  11  12
ENDBRANCH   9  11
ENDBRANCH   3   5
ENDBRANCH   2   3
ENDBRANCH   1   2
BRANCH   1  20
ATOM     20  C   UNL A   1      43.522  21.882  25.223  1.00  0.00     0.275 C 
BRANCH  20  21
ATOM     21  O   UNL A   1      43.059  23.241  25.106  1.00  0.00    -0.458 OA
BRANCH  21  22
ATOM     22  C   UNL A   1      43.999  24.197  25.302  1.00  0.00     0.338 C 
ATOM     23  O   UNL A   1      44.981  24.411  24.611  1.00  0.00    -0.246 OA
BRANCH  22  24
ATOM     24  C   UNL A   1      43.598  25.066  26.424  1.00  0.00     0.060 A 
ATOM     25  C   UNL A   1      42.850  24.491  27.455  1.00  0.00     0.016 A 
ATOM     26  C   UNL A   1      43.910  26.427  26.455  1.00  0.00     0.016 A 
ATOM     27  C   UNL A   1      42.424  25.264  28.531  1.00  0.00     0.010 A 
ATOM     28  C   UNL A   1      43.468  27.210  27.530  1.00  0.00     0.010 A 
ATOM     29  C   UNL A   1      42.721  26.631  28.571  1.00  0.00    -0.014 A 
BRANCH  29  30
ATOM     30  C   UNL A   1      42.197  27.455  29.685  1.00  0.00     0.031 A 
ATOM     31  C   UNL A   1      42.903  27.455  31.008  1.00  0.00     0.074 A 
ATOM     32  C   UNL A   1      41.117  28.235  29.493  1.00  0.00     0.049 A 
ATOM     33  N   UNL A   1      42.597  28.090  32.111  1.00  0.00    -0.248 NA
ATOM     34  C   UNL A   1      44.119  26.633  31.100  1.00  0.00     0.031 C 
ATOM     35  C   UNL A   1      40.376  28.352  28.239  1.00  0.00     0.029 A 
ATOM     36  N   UNL A   1      40.461  29.077  30.354  1.00  0.00    -0.354 N 
ATOM     37  C   UNL A   1      43.575  27.738  33.030  1.00  0.00     0.074 A 
ATOM     38  C   UNL A   1      44.476  26.821  32.362  1.00  0.00     0.031 C 
ATOM     39  C   UNL A   1      39.366  29.222  28.409  1.00  0.00     0.029 A 
ATOM     40  C   UNL A   1      39.372  29.696  29.792  1.00  0.00     0.049 A 
ATOM     41  H   UNL A   1      40.743  29.225  31.286  1.00  0.00     0.167 HD
ATOM     42  C   UNL A   1      43.710  28.148  34.314  1.00  0.00     0.037 A 
ATOM     43  C   UNL A   1      38.475  30.539  30.338  1.00  0.00     0.037 A 
ATOM     44  C   UNL A   1      42.821  29.068  34.973  1.00  0.00     0.049 A 
ATOM     45  C   UNL A   1      38.619  30.937  31.782  1.00  0.00     0.074 A 
ATOM     46  C   UNL A   1      42.882  29.551  36.268  1.00  0.00     0.029 A 
ATOM     47  N   UNL A   1      41.706  29.645  34.384  1.00  0.00    -0.354 N 
ATOM     48  N   UNL A   1      39.547  30.600  32.644  1.00  0.00    -0.248 NA
ATOM     49  C   UNL A   1      37.584  31.827  32.330  1.00  0.00     0.031 C 
ATOM     50  C   UNL A   1      41.784  30.393  36.474  1.00  0.00     0.029 A 
ATOM     51  C   UNL A   1      41.059  30.463  35.296  1.00  0.00     0.049 A 
ATOM     52  H   UNL A   1      41.417  29.495  33.454  1.00  0.00     0.167 HD
ATOM     53  C   UNL A   1      39.222  31.249  33.827  1.00  0.00     0.074 A 
ATOM     54  C   UNL A   1      38.016  32.011  33.570  1.00  0.00     0.031 C 
ATOM     55  C   UNL A   1      39.863  31.216  35.020  1.00  0.00     0.037 A 
BRANCH  42  56
ATOM     56  C   UNL A   1      44.851  27.581  35.101  1.00  0.00     0.064 A 
ATOM     57  C   UNL A   1      44.722  26.391  35.830  1.00  0.00     0.173 A 
ATOM     58  C   UNL A   1      46.100  28.221  35.099  1.00  0.00     0.173 A 
ATOM     59  F   UNL A   1      43.544  25.751  35.874  1.00  0.00    -0.203 F 
ATOM     60  C   UNL A   1      45.798  25.870  36.545  1.00  0.00     0.198 A 
ATOM     61  C   UNL A   1      47.179  27.687  35.797  1.00  0.00     0.198 A 
ATOM     62  F   UNL A   1      46.273  29.362  34.414  1.00  0.00    -0.203 F 
ATOM     63  F   UNL A   1      45.644  24.749  37.264  1.00  0.00    -0.200 F 
ATOM     64  C   UNL A   1      47.026  26.515  36.522  1.00  0.00     0.200 A 
ATOM     65  F   UNL A   1      48.366  28.307  35.769  1.00  0.00    -0.200 F 
ATOM     66  F   UNL A   1      48.061  26.011  37.208  1.00  0.00    -0.200 F 
ENDBRANCH  42  56
BRANCH  43  67
ATOM     67  C   UNL A   1      37.353  31.058  29.516  1.00  0.00     0.064 A 
ATOM     68  C   UNL A   1      37.330  32.389  29.082  1.00  0.00     0.173 A 
ATOM     69  C   UNL A   1      36.276  30.234  29.158  1.00  0.00     0.173 A 
ATOM     70  F   UNL A   1      38.324  33.222  29.425  1.00  0.00    -0.203 F 
ATOM     71  C   UNL A   1      36.266  32.882  28.329  1.00  0.00     0.198 A 
ATOM     72  C   UNL A   1      35.224  30.720  28.385  1.00  0.00     0.198 A 
ATOM     73  F   UNL A   1      36.249  28.953  29.556  1.00  0.00    -0.203 F 
ATOM     74  F   UNL A   1      36.249  34.169  27.960  1.00  0.00    -0.200 F 
ATOM     75  C   UNL A   1      35.217  32.045  27.976  1.00  0.00     0.200 A 
ATOM     76  F   UNL A   1      34.215  29.907  28.041  1.00  0.00    -0.200 F 
ATOM     77  F   UNL A   1      34.194  32.518  27.250  1.00  0.00    -0.200 F 
ENDBRANCH  43  67
BRANCH  55  78
ATOM     78  C   UNL A   1      39.287  32.040  36.132  1.00  0.00     0.064 A 
ATOM     79  C   UNL A   1      38.283  31.535  36.971  1.00  0.00     0.173 A 
ATOM     80  C   UNL A   1      39.770  33.333  36.383  1.00  0.00     0.173 A 
ATOM     81  F   UNL A   1      37.779  30.310  36.758  1.00  0.00    -0.203 F 
ATOM     82  C   UNL A   1      37.771  32.303  38.013  1.00  0.00     0.198 A 
ATOM     83  C   UNL A   1      39.270  34.089  37.441  1.00  0.00     0.198 A 
ATOM     84  F   UNL A   1      40.732  33.857  35.610  1.00  0.00    -0.203 F 
ATOM     85  F   UNL A   1      36.787  31.816  38.781  1.00  0.00    -0.200 F 
ATOM     86  C   UNL A   1      38.269  33.575  38.250  1.00  0.00     0.200 A 
ATOM     87  F   UNL A   1      39.758  35.315  37.674  1.00  0.00    -0.200 F 
ATOM     88  F   UNL A   1      37.778  34.311  39.257  1.00  0.00    -0.200 F 
ENDBRANCH  55  78
ENDBRANCH  29  30
ENDBRANCH  22  24
ENDBRANCH  21  22
ENDBRANCH  20  21
ENDBRANCH   1  20
TORSDOF 13
ENDMDL
