MODEL 1
REMARK VINA RESULT:     -12.1      0.000      0.000
REMARK SMILES COc1ccc2c(c1)[C@H]([NH2+][C@H]1CCC[C@H](C(=O)OCCOC(=O)c3ccc(-c4c5nc(c(-c6c(F)c(F)c(F)c(F)c6F)c6ccc([nH]6)c(-c6c(F)c(F)c(F)c(F)c6F)c6nc(c(-c7c(F)c(F)c(F)c(F)c7F)c7ccc4[nH]7)C=C6)C=C5)cc3)C1)CC2
REMARK SMILES IDX 19 1 18 2 16 3 17 4 15 5 11 6 12 7 87 8 13 9 14 10 10 11
REMARK SMILES IDX 9 14 3 15 4 16 8 17 5 18 7 19 6 20 89 21 88 22 2 23 1 24
REMARK SMILES IDX 20 25 21 26 22 27 23 28 24 29 25 30 86 31 26 32 85 33 27 34
REMARK SMILES IDX 28 35 29 36 79 37 30 38 84 39 78 40 80 41 31 42 83 43 77 44
REMARK SMILES IDX 76 45 32 47 64 48 44 49 63 50 45 51 48 52 62 53 81 54 46 55
REMARK SMILES IDX 47 56 61 58 82 59 49 60 33 61 34 62 42 63 35 64 36 65 40 66
REMARK SMILES IDX 43 67 37 68 38 69 41 70 39 71 65 72 66 73 74 74 67 75 68 76
REMARK SMILES IDX 72 77 75 78 69 79 70 80 73 81 71 82 50 83 51 84 59 85 52 86
REMARK SMILES IDX 53 87 57 88 60 89 54 90 55 91 58 92 56 93
REMARK H PARENT 10 12 10 13 80 46 48 57
REMARK Flexibility Score: inf
ROOT
ATOM      1  C   UNL A   1      42.289  19.269  26.834  1.00  0.00     0.274 C 
ENDROOT
BRANCH   1   2
ATOM      2  O   UNL A   1      41.576  20.303  26.136  1.00  0.00    -0.462 OA
BRANCH   2   3
ATOM      3  C   UNL A   1      40.241  20.128  25.951  1.00  0.00     0.309 C 
ATOM      4  O   UNL A   1      39.727  19.103  25.521  1.00  0.00    -0.252 OA
BRANCH   3   5
ATOM      5  C   UNL A   1      39.434  21.317  26.459  1.00  0.00     0.105 C 
ATOM      6  C   UNL A   1      37.609  23.033  25.700  1.00  0.00     0.183 C 
ATOM      7  C   UNL A   1      38.573  24.127  26.182  1.00  0.00     0.065 C 
ATOM      8  C   UNL A   1      38.381  21.726  25.414  1.00  0.00     0.080 C 
ATOM      9  C   UNL A   1      39.479  23.685  27.325  1.00  0.00     0.007 C 
ATOM     10  C   UNL A   1      40.312  22.486  26.914  1.00  0.00     0.016 C 
BRANCH   6  11
ATOM     11  N   UNL A   1      36.339  22.902  26.436  1.00  0.00    -0.338 N 
ATOM     12  H   UNL A   1      36.386  22.019  26.945  1.00  0.00     0.347 HD
ATOM     13  H   UNL A   1      36.302  23.765  26.980  1.00  0.00     0.347 HD
BRANCH  11  14
ATOM     14  C   UNL A   1      35.072  22.909  25.734  1.00  0.00     0.214 C 
ATOM     15  C   UNL A   1      34.065  19.367  24.675  1.00  0.00     0.119 A 
ATOM     16  C   UNL A   1      32.688  19.578  24.563  1.00  0.00     0.047 A 
ATOM     17  C   UNL A   1      34.908  20.344  25.195  1.00  0.00     0.056 A 
ATOM     18  C   UNL A   1      32.138  20.796  24.967  1.00  0.00     0.008 A 
ATOM     19  C   UNL A   1      34.383  21.588  25.489  1.00  0.00     0.016 A 
ATOM     20  C   UNL A   1      32.993  21.786  25.432  1.00  0.00    -0.038 A 
ATOM     21  C   UNL A   1      32.640  23.175  25.871  1.00  0.00     0.042 C 
ATOM     22  C   UNL A   1      33.957  23.611  26.542  1.00  0.00     0.075 C 
BRANCH  15  23
ATOM     23  O   UNL A   1      34.624  18.194  24.243  1.00  0.00    -0.497 OA
ATOM     24  C   UNL A   1      33.652  17.438  23.512  1.00  0.00     0.278 C 
ENDBRANCH  15  23
ENDBRANCH  11  14
ENDBRANCH   6  11
ENDBRANCH   3   5
ENDBRANCH   2   3
ENDBRANCH   1   2
BRANCH   1  25
ATOM     25  C   UNL A   1      43.178  18.492  25.859  1.00  0.00     0.275 C 
BRANCH  25  26
ATOM     26  O   UNL A   1      43.383  19.219  24.632  1.00  0.00    -0.458 OA
BRANCH  26  27
ATOM     27  C   UNL A   1      44.670  19.522  24.341  1.00  0.00     0.338 C 
ATOM     28  O   UNL A   1      45.505  18.807  23.819  1.00  0.00    -0.246 OA
BRANCH  27  29
ATOM     29  C   UNL A   1      44.921  20.935  24.663  1.00  0.00     0.060 A 
ATOM     30  C   UNL A   1      45.465  21.250  25.912  1.00  0.00     0.016 A 
ATOM     31  C   UNL A   1      44.548  21.944  23.776  1.00  0.00     0.016 A 
ATOM     32  C   UNL A   1      45.617  22.579  26.292  1.00  0.00     0.010 A 
ATOM     33  C   UNL A   1      44.724  23.278  24.148  1.00  0.00     0.010 A 
ATOM     34  C   UNL A   1      45.249  23.605  25.412  1.00  0.00    -0.014 A 
BRANCH  34  35
ATOM     35  C   UNL A   1      45.390  25.023  25.817  1.00  0.00     0.031 A 
ATOM     36  C   UNL A   1      46.726  25.700  25.713  1.00  0.00     0.074 A 
ATOM     37  C   UNL A   1      44.324  25.692  26.296  1.00  0.00     0.049 A 
ATOM     38  N   UNL A   1      47.099  26.869  26.163  1.00  0.00    -0.248 NA
ATOM     39  C   UNL A   1      47.785  24.957  25.011  1.00  0.00     0.031 C 
ATOM     40  C   UNL A   1      42.966  25.157  26.396  1.00  0.00     0.029 A 
ATOM     41  N   UNL A   1      44.221  26.964  26.798  1.00  0.00    -0.354 N 
ATOM     42  C   UNL A   1      48.444  26.986  25.840  1.00  0.00     0.074 A 
ATOM     43  C   UNL A   1      48.822  25.771  25.151  1.00  0.00     0.031 C 
ATOM     44  C   UNL A   1      42.166  26.093  26.931  1.00  0.00     0.029 A 
ATOM     45  C   UNL A   1      42.966  27.267  27.267  1.00  0.00     0.049 A 
ATOM     46  H   UNL A   1      44.974  27.598  26.823  1.00  0.00     0.167 HD
ATOM     47  C   UNL A   1      49.282  28.017  26.103  1.00  0.00     0.037 A 
ATOM     48  C   UNL A   1      42.523  28.352  27.928  1.00  0.00     0.037 A 
ATOM     49  C   UNL A   1      48.886  29.238  26.752  1.00  0.00     0.049 A 
ATOM     50  C   UNL A   1      43.490  29.459  28.249  1.00  0.00     0.074 A 
ATOM     51  C   UNL A   1      49.652  30.357  27.026  1.00  0.00     0.029 A 
ATOM     52  N   UNL A   1      47.609  29.501  27.226  1.00  0.00    -0.354 N 
ATOM     53  N   UNL A   1      44.761  29.562  27.946  1.00  0.00    -0.248 NA
ATOM     54  C   UNL A   1      42.962  30.596  29.017  1.00  0.00     0.031 C 
ATOM     55  C   UNL A   1      48.849  31.282  27.702  1.00  0.00     0.029 A 
ATOM     56  C   UNL A   1      47.573  30.756  27.810  1.00  0.00     0.049 A 
ATOM     57  H   UNL A   1      46.843  28.887  27.158  1.00  0.00     0.167 HD
ATOM     58  C   UNL A   1      45.178  30.782  28.458  1.00  0.00     0.074 A 
ATOM     59  C   UNL A   1      44.022  31.389  29.086  1.00  0.00     0.031 C 
ATOM     60  C   UNL A   1      46.407  31.351  28.412  1.00  0.00     0.037 A 
BRANCH  47  61
ATOM     61  C   UNL A   1      50.723  27.861  25.719  1.00  0.00     0.064 A 
ATOM     62  C   UNL A   1      51.705  27.506  26.653  1.00  0.00     0.173 A 
ATOM     63  C   UNL A   1      51.112  28.012  24.379  1.00  0.00     0.173 A 
ATOM     64  F   UNL A   1      51.386  27.363  27.948  1.00  0.00    -0.203 F 
ATOM     65  C   UNL A   1      53.029  27.319  26.262  1.00  0.00     0.198 A 
ATOM     66  C   UNL A   1      52.431  27.802  23.987  1.00  0.00     0.198 A 
ATOM     67  F   UNL A   1      50.207  28.349  23.446  1.00  0.00    -0.203 F 
ATOM     68  F   UNL A   1      53.959  27.008  27.175  1.00  0.00    -0.200 F 
ATOM     69  C   UNL A   1      53.389  27.458  24.929  1.00  0.00     0.200 A 
ATOM     70  F   UNL A   1      52.774  27.927  22.697  1.00  0.00    -0.200 F 
ATOM     71  F   UNL A   1      54.661  27.266  24.552  1.00  0.00    -0.200 F 
ENDBRANCH  47  61
BRANCH  48  72
ATOM     72  C   UNL A   1      41.105  28.433  28.362  1.00  0.00     0.064 A 
ATOM     73  C   UNL A   1      40.122  28.962  27.515  1.00  0.00     0.173 A 
ATOM     74  C   UNL A   1      40.707  28.006  29.637  1.00  0.00     0.173 A 
ATOM     75  F   UNL A   1      40.461  29.410  26.296  1.00  0.00    -0.203 F 
ATOM     76  C   UNL A   1      38.798  29.077  27.932  1.00  0.00     0.198 A 
ATOM     77  C   UNL A   1      39.377  28.095  30.044  1.00  0.00     0.198 A 
ATOM     78  F   UNL A   1      41.610  27.496  30.488  1.00  0.00    -0.203 F 
ATOM     79  F   UNL A   1      37.888  29.632  27.121  1.00  0.00    -0.200 F 
ATOM     80  C   UNL A   1      38.426  28.638  29.194  1.00  0.00     0.200 A 
ATOM     81  F   UNL A   1      39.020  27.662  31.260  1.00  0.00    -0.200 F 
ATOM     82  F   UNL A   1      37.153  28.751  29.596  1.00  0.00    -0.200 F 
ENDBRANCH  48  72
BRANCH  60  83
ATOM     83  C   UNL A   1      46.555  32.716  29.012  1.00  0.00     0.064 A 
ATOM     84  C   UNL A   1      46.948  32.894  30.346  1.00  0.00     0.173 A 
ATOM     85  C   UNL A   1      46.346  33.859  28.227  1.00  0.00     0.173 A 
ATOM     86  F   UNL A   1      47.143  31.829  31.140  1.00  0.00    -0.203 F 
ATOM     87  C   UNL A   1      47.108  34.169  30.879  1.00  0.00     0.198 A 
ATOM     88  C   UNL A   1      46.532  35.134  28.755  1.00  0.00     0.198 A 
ATOM     89  F   UNL A   1      45.975  33.740  26.944  1.00  0.00    -0.203 F 
ATOM     90  F   UNL A   1      47.447  34.318  32.167  1.00  0.00    -0.200 F 
ATOM     91  C   UNL A   1      46.908  35.287  30.082  1.00  0.00     0.200 A 
ATOM     92  F   UNL A   1      46.349  36.212  27.981  1.00  0.00    -0.200 F 
ATOM     93  F   UNL A   1      47.071  36.515  30.593  1.00  0.00    -0.200 F 
ENDBRANCH  60  83
ENDBRANCH  34  35
ENDBRANCH  27  29
ENDBRANCH  26  27
ENDBRANCH  25  26
ENDBRANCH   1  25
TORSDOF 14
ENDMDL
MODEL 2
REMARK VINA RESULT:     -11.9      3.980      9.264
REMARK SMILES COc1ccc2c(c1)[C@H]([NH2+][C@H]1CCC[C@H](C(=O)OCCOC(=O)c3ccc(-c4c5nc(c(-c6c(F)c(F)c(F)c(F)c6F)c6ccc([nH]6)c(-c6c(F)c(F)c(F)c(F)c6F)c6nc(c(-c7c(F)c(F)c(F)c(F)c7F)c7ccc4[nH]7)C=C6)C=C5)cc3)C1)CC2
REMARK SMILES IDX 19 1 18 2 16 3 17 4 15 5 11 6 12 7 87 8 13 9 14 10 10 11
REMARK SMILES IDX 9 14 3 15 4 16 8 17 5 18 7 19 6 20 89 21 88 22 2 23 1 24
REMARK SMILES IDX 20 25 21 26 22 27 23 28 24 29 25 30 86 31 26 32 85 33 27 34
REMARK SMILES IDX 28 35 29 36 79 37 30 38 84 39 78 40 80 41 31 42 83 43 77 44
REMARK SMILES IDX 76 45 32 47 64 48 44 49 63 50 45 51 48 52 62 53 81 54 46 55
REMARK SMILES IDX 47 56 61 58 82 59 49 60 33 61 34 62 42 63 35 64 36 65 40 66
REMARK SMILES IDX 43 67 37 68 38 69 41 70 39 71 65 72 66 73 74 74 67 75 68 76
REMARK SMILES IDX 72 77 75 78 69 79 70 80 73 81 71 82 50 83 51 84 59 85 52 86
REMARK SMILES IDX 53 87 57 88 60 89 54 90 55 91 58 92 56 93
REMARK H PARENT 10 12 10 13 80 46 48 57
REMARK Flexibility Score: inf
ROOT
ATOM      1  C   UNL A   1      36.424  22.788  23.740  1.00  0.00     0.274 C 
ENDROOT
BRANCH   1   2
ATOM      2  O   UNL A   1      35.311  23.512  24.290  1.00  0.00    -0.462 OA
BRANCH   2   3
ATOM      3  C   UNL A   1      34.224  23.686  23.495  1.00  0.00     0.309 C 
ATOM      4  O   UNL A   1      33.728  22.812  22.793  1.00  0.00    -0.252 OA
BRANCH   3   5
ATOM      5  C   UNL A   1      33.606  25.070  23.665  1.00  0.00     0.105 C 
ATOM      6  C   UNL A   1      33.504  27.425  22.529  1.00  0.00     0.183 C 
ATOM      7  C   UNL A   1      33.918  27.995  23.894  1.00  0.00     0.065 C 
ATOM      8  C   UNL A   1      33.901  25.935  22.428  1.00  0.00     0.080 C 
ATOM      9  C   UNL A   1      33.454  27.154  25.076  1.00  0.00     0.007 C 
ATOM     10  C   UNL A   1      34.008  25.745  24.979  1.00  0.00     0.016 C 
BRANCH   6  11
ATOM     11  N   UNL A   1      32.159  27.784  22.045  1.00  0.00    -0.338 N 
ATOM     12  H   UNL A   1      32.240  28.704  21.612  1.00  0.00     0.347 HD
ATOM     13  H   UNL A   1      31.915  26.995  21.447  1.00  0.00     0.347 HD
BRANCH  11  14
ATOM     14  C   UNL A   1      31.038  27.855  22.960  1.00  0.00     0.214 C 
ATOM     15  C   UNL A   1      28.671  30.718  22.020  1.00  0.00     0.119 A 
ATOM     16  C   UNL A   1      27.516  30.231  22.636  1.00  0.00     0.047 A 
ATOM     17  C   UNL A   1      29.829  29.950  21.938  1.00  0.00     0.056 A 
ATOM     18  C   UNL A   1      27.515  28.951  23.196  1.00  0.00     0.008 A 
ATOM     19  C   UNL A   1      29.866  28.731  22.588  1.00  0.00     0.016 A 
ATOM     20  C   UNL A   1      28.692  28.213  23.159  1.00  0.00    -0.038 A 
ATOM     21  C   UNL A   1      28.941  26.850  23.732  1.00  0.00     0.042 C 
ATOM     22  C   UNL A   1      30.294  26.506  23.081  1.00  0.00     0.075 C 
BRANCH  15  23
ATOM     23  O   UNL A   1      28.700  31.987  21.505  1.00  0.00    -0.497 OA
ATOM     24  C   UNL A   1      28.732  32.939  22.575  1.00  0.00     0.278 C 
ENDBRANCH  15  23
ENDBRANCH  11  14
ENDBRANCH   6  11
ENDBRANCH   3   5
ENDBRANCH   2   3
ENDBRANCH   1   2
BRANCH   1  25
ATOM     25  C   UNL A   1      36.726  21.556  24.597  1.00  0.00     0.275 C 
BRANCH  25  26
ATOM     26  O   UNL A   1      37.289  21.921  25.873  1.00  0.00    -0.458 OA
BRANCH  26  27
ATOM     27  C   UNL A   1      38.597  21.613  26.043  1.00  0.00     0.338 C 
ATOM     28  O   UNL A   1      39.163  20.576  25.753  1.00  0.00    -0.246 OA
BRANCH  27  29
ATOM     29  C   UNL A   1      39.309  22.789  26.566  1.00  0.00     0.060 A 
ATOM     30  C   UNL A   1      38.907  24.059  26.140  1.00  0.00     0.016 A 
ATOM     31  C   UNL A   1      40.414  22.637  27.402  1.00  0.00     0.016 A 
ATOM     32  C   UNL A   1      39.625  25.185  26.529  1.00  0.00     0.010 A 
ATOM     33  C   UNL A   1      41.119  23.771  27.812  1.00  0.00     0.010 A 
ATOM     34  C   UNL A   1      40.736  25.051  27.370  1.00  0.00    -0.014 A 
BRANCH  34  35
ATOM     35  C   UNL A   1      41.517  26.244  27.774  1.00  0.00     0.031 A 
ATOM     36  C   UNL A   1      40.868  27.315  28.600  1.00  0.00     0.074 A 
ATOM     37  C   UNL A   1      42.798  26.370  27.380  1.00  0.00     0.049 A 
ATOM     38  N   UNL A   1      41.317  28.502  28.917  1.00  0.00    -0.248 NA
ATOM     39  C   UNL A   1      39.533  27.012  29.139  1.00  0.00     0.031 C 
ATOM     40  C   UNL A   1      43.551  25.372  26.619  1.00  0.00     0.029 A 
ATOM     41  N   UNL A   1      43.689  27.398  27.557  1.00  0.00    -0.354 N 
ATOM     42  C   UNL A   1      40.305  29.103  29.653  1.00  0.00     0.074 A 
ATOM     43  C   UNL A   1      39.220  28.151  29.741  1.00  0.00     0.031 C 
ATOM     44  C   UNL A   1      44.789  25.839  26.390  1.00  0.00     0.029 A 
ATOM     45  C   UNL A   1      44.896  27.189  26.935  1.00  0.00     0.049 A 
ATOM     46  H   UNL A   1      43.483  28.208  28.078  1.00  0.00     0.167 HD
ATOM     47  C   UNL A   1      40.289  30.343  30.198  1.00  0.00     0.037 A 
ATOM     48  C   UNL A   1      45.950  28.011  26.786  1.00  0.00     0.037 A 
ATOM     49  C   UNL A   1      41.390  31.268  30.141  1.00  0.00     0.049 A 
ATOM     50  C   UNL A   1      45.884  29.399  27.362  1.00  0.00     0.074 A 
ATOM     51  C   UNL A   1      41.486  32.531  30.698  1.00  0.00     0.029 A 
ATOM     52  N   UNL A   1      42.590  31.026  29.487  1.00  0.00    -0.354 N 
ATOM     53  N   UNL A   1      44.923  29.964  28.051  1.00  0.00    -0.248 NA
ATOM     54  C   UNL A   1      47.045  30.270  27.124  1.00  0.00     0.031 C 
ATOM     55  C   UNL A   1      42.729  33.069  30.349  1.00  0.00     0.029 A 
ATOM     56  C   UNL A   1      43.423  32.126  29.610  1.00  0.00     0.049 A 
ATOM     57  H   UNL A   1      42.815  30.197  29.008  1.00  0.00     0.167 HD
ATOM     58  C   UNL A   1      45.373  31.242  28.355  1.00  0.00     0.074 A 
ATOM     59  C   UNL A   1      46.696  31.367  27.781  1.00  0.00     0.031 C 
ATOM     60  C   UNL A   1      44.746  32.223  29.048  1.00  0.00     0.037 A 
BRANCH  47  61
ATOM     61  C   UNL A   1      39.032  30.791  30.881  1.00  0.00     0.064 A 
ATOM     62  C   UNL A   1      37.941  31.302  30.164  1.00  0.00     0.173 A 
ATOM     63  C   UNL A   1      38.898  30.646  32.270  1.00  0.00     0.173 A 
ATOM     64  F   UNL A   1      38.025  31.471  28.837  1.00  0.00    -0.203 F 
ATOM     65  C   UNL A   1      36.765  31.664  30.816  1.00  0.00     0.198 A 
ATOM     66  C   UNL A   1      37.713  30.987  32.916  1.00  0.00     0.198 A 
ATOM     67  F   UNL A   1      39.913  30.158  33.000  1.00  0.00    -0.203 F 
ATOM     68  F   UNL A   1      35.744  32.179  30.117  1.00  0.00    -0.200 F 
ATOM     69  C   UNL A   1      36.649  31.498  32.189  1.00  0.00     0.200 A 
ATOM     70  F   UNL A   1      37.600  30.817  34.241  1.00  0.00    -0.200 F 
ATOM     71  F   UNL A   1      35.512  31.837  32.813  1.00  0.00    -0.200 F 
ENDBRANCH  47  61
BRANCH  48  72
ATOM     72  C   UNL A   1      47.149  27.558  26.034  1.00  0.00     0.064 A 
ATOM     73  C   UNL A   1      48.263  27.034  26.703  1.00  0.00     0.173 A 
ATOM     74  C   UNL A   1      47.214  27.659  24.636  1.00  0.00     0.173 A 
ATOM     75  F   UNL A   1      48.258  26.944  28.042  1.00  0.00    -0.203 F 
ATOM     76  C   UNL A   1      49.404  26.645  26.005  1.00  0.00     0.198 A 
ATOM     77  C   UNL A   1      48.344  27.243  23.937  1.00  0.00     0.198 A 
ATOM     78  F   UNL A   1      46.175  28.158  23.949  1.00  0.00    -0.203 F 
ATOM     79  F   UNL A   1      50.474  26.194  26.673  1.00  0.00    -0.200 F 
ATOM     80  C   UNL A   1      49.441  26.745  24.622  1.00  0.00     0.200 A 
ATOM     81  F   UNL A   1      48.373  27.333  22.600  1.00  0.00    -0.200 F 
ATOM     82  F   UNL A   1      50.539  26.371  23.952  1.00  0.00    -0.200 F 
ENDBRANCH  48  72
BRANCH  60  83
ATOM     83  C   UNL A   1      45.502  33.498  29.270  1.00  0.00     0.064 A 
ATOM     84  C   UNL A   1      45.394  34.579  28.382  1.00  0.00     0.173 A 
ATOM     85  C   UNL A   1      46.307  33.655  30.407  1.00  0.00     0.173 A 
ATOM     86  F   UNL A   1      44.648  34.469  27.272  1.00  0.00    -0.203 F 
ATOM     87  C   UNL A   1      46.080  35.767  28.618  1.00  0.00     0.198 A 
ATOM     88  C   UNL A   1      46.972  34.853  30.653  1.00  0.00     0.198 A 
ATOM     89  F   UNL A   1      46.436  32.652  31.287  1.00  0.00    -0.203 F 
ATOM     90  F   UNL A   1      45.995  36.774  27.738  1.00  0.00    -0.200 F 
ATOM     91  C   UNL A   1      46.862  35.905  29.756  1.00  0.00     0.200 A 
ATOM     92  F   UNL A   1      47.717  34.989  31.758  1.00  0.00    -0.200 F 
ATOM     93  F   UNL A   1      47.516  37.052  29.986  1.00  0.00    -0.200 F 
ENDBRANCH  60  83
ENDBRANCH  34  35
ENDBRANCH  27  29
ENDBRANCH  26  27
ENDBRANCH  25  26
ENDBRANCH   1  25
TORSDOF 14
ENDMDL
MODEL 3
REMARK VINA RESULT:     -11.8      5.555      9.374
REMARK SMILES COc1ccc2c(c1)[C@H]([NH2+][C@H]1CCC[C@H](C(=O)OCCOC(=O)c3ccc(-c4c5nc(c(-c6c(F)c(F)c(F)c(F)c6F)c6ccc([nH]6)c(-c6c(F)c(F)c(F)c(F)c6F)c6nc(c(-c7c(F)c(F)c(F)c(F)c7F)c7ccc4[nH]7)C=C6)C=C5)cc3)C1)CC2
REMARK SMILES IDX 19 1 18 2 16 3 17 4 15 5 11 6 12 7 87 8 13 9 14 10 10 11
REMARK SMILES IDX 9 14 3 15 4 16 8 17 5 18 7 19 6 20 89 21 88 22 2 23 1 24
REMARK SMILES IDX 20 25 21 26 22 27 23 28 24 29 25 30 86 31 26 32 85 33 27 34
REMARK SMILES IDX 28 35 29 36 79 37 30 38 84 39 78 40 80 41 31 42 83 43 77 44
REMARK SMILES IDX 76 45 32 47 64 48 44 49 63 50 45 51 48 52 62 53 81 54 46 55
REMARK SMILES IDX 47 56 61 58 82 59 49 60 33 61 34 62 42 63 35 64 36 65 40 66
REMARK SMILES IDX 43 67 37 68 38 69 41 70 39 71 65 72 66 73 74 74 67 75 68 76
REMARK SMILES IDX 72 77 75 78 69 79 70 80 73 81 71 82 50 83 51 84 59 85 52 86
REMARK SMILES IDX 53 87 57 88 60 89 54 90 55 91 58 92 56 93
REMARK H PARENT 10 12 10 13 80 46 48 57
REMARK Flexibility Score: inf
ROOT
ATOM      1  C   UNL A   1      31.666  28.794  24.583  1.00  0.00     0.274 C 
ENDROOT
BRANCH   1   2
ATOM      2  O   UNL A   1      30.929  27.676  25.103  1.00  0.00    -0.462 OA
BRANCH   2   3
ATOM      3  C   UNL A   1      31.495  26.970  26.116  1.00  0.00     0.309 C 
ATOM      4  O   UNL A   1      31.406  27.262  27.303  1.00  0.00    -0.252 OA
BRANCH   3   5
ATOM      5  C   UNL A   1      32.158  25.690  25.619  1.00  0.00     0.105 C 
ATOM      6  C   UNL A   1      32.957  23.339  26.446  1.00  0.00     0.183 C 
ATOM      7  C   UNL A   1      34.315  23.687  25.820  1.00  0.00     0.065 C 
ATOM      8  C   UNL A   1      32.153  24.627  26.731  1.00  0.00     0.080 C 
ATOM      9  C   UNL A   1      34.218  24.627  24.626  1.00  0.00     0.007 C 
ATOM     10  C   UNL A   1      33.548  25.929  25.025  1.00  0.00     0.016 C 
BRANCH   6  11
ATOM     11  N   UNL A   1      32.217  22.220  25.835  1.00  0.00    -0.338 N 
ATOM     12  H   UNL A   1      32.189  21.474  26.529  1.00  0.00     0.347 HD
ATOM     13  H   UNL A   1      31.333  22.653  25.564  1.00  0.00     0.347 HD
BRANCH  11  14
ATOM     14  C   UNL A   1      32.673  21.619  24.598  1.00  0.00     0.214 C 
ATOM     15  C   UNL A   1      32.906  17.808  24.923  1.00  0.00     0.119 A 
ATOM     16  C   UNL A   1      32.807  17.487  23.567  1.00  0.00     0.047 A 
ATOM     17  C   UNL A   1      32.722  19.111  25.376  1.00  0.00     0.056 A 
ATOM     18  C   UNL A   1      32.528  18.489  22.636  1.00  0.00     0.008 A 
ATOM     19  C   UNL A   1      32.559  20.121  24.446  1.00  0.00     0.016 A 
ATOM     20  C   UNL A   1      32.401  19.796  23.089  1.00  0.00    -0.038 A 
ATOM     21  C   UNL A   1      32.154  21.032  22.277  1.00  0.00     0.042 C 
ATOM     22  C   UNL A   1      31.813  22.044  23.386  1.00  0.00     0.075 C 
BRANCH  15  23
ATOM     23  O   UNL A   1      33.221  16.843  25.843  1.00  0.00    -0.497 OA
ATOM     24  C   UNL A   1      32.768  15.568  25.376  1.00  0.00     0.278 C 
ENDBRANCH  15  23
ENDBRANCH  11  14
ENDBRANCH   6  11
ENDBRANCH   3   5
ENDBRANCH   2   3
ENDBRANCH   1   2
BRANCH   1  25
ATOM     25  C   UNL A   1      31.763  29.899  25.639  1.00  0.00     0.275 C 
BRANCH  25  26
ATOM     26  O   UNL A   1      33.133  30.246  25.922  1.00  0.00    -0.458 OA
BRANCH  26  27
ATOM     27  C   UNL A   1      33.313  31.164  26.900  1.00  0.00     0.338 C 
ATOM     28  O   UNL A   1      32.542  32.036  27.256  1.00  0.00    -0.246 OA
BRANCH  27  29
ATOM     29  C   UNL A   1      34.589  30.904  27.583  1.00  0.00     0.060 A 
ATOM     30  C   UNL A   1      34.885  29.595  27.972  1.00  0.00     0.016 A 
ATOM     31  C   UNL A   1      35.448  31.953  27.909  1.00  0.00     0.016 A 
ATOM     32  C   UNL A   1      36.032  29.329  28.713  1.00  0.00     0.010 A 
ATOM     33  C   UNL A   1      36.612  31.682  28.631  1.00  0.00     0.010 A 
ATOM     34  C   UNL A   1      36.906  30.371  29.047  1.00  0.00    -0.014 A 
BRANCH  34  35
ATOM     35  C   UNL A   1      38.120  30.099  29.853  1.00  0.00     0.031 A 
ATOM     36  C   UNL A   1      39.190  29.199  29.308  1.00  0.00     0.074 A 
ATOM     37  C   UNL A   1      38.248  30.644  31.077  1.00  0.00     0.049 A 
ATOM     38  N   UNL A   1      40.241  28.704  29.910  1.00  0.00    -0.248 NA
ATOM     39  C   UNL A   1      39.057  28.798  27.898  1.00  0.00     0.031 C 
ATOM     40  C   UNL A   1      37.298  31.573  31.691  1.00  0.00     0.029 A 
ATOM     41  N   UNL A   1      39.223  30.484  32.028  1.00  0.00    -0.354 N 
ATOM     42  C   UNL A   1      40.870  27.901  28.969  1.00  0.00     0.074 A 
ATOM     43  C   UNL A   1      40.087  27.976  27.754  1.00  0.00     0.031 C 
ATOM     44  C   UNL A   1      37.737  31.898  32.918  1.00  0.00     0.029 A 
ATOM     45  C   UNL A   1      38.961  31.155  33.198  1.00  0.00     0.049 A 
ATOM     46  H   UNL A   1      40.031  29.940  31.887  1.00  0.00     0.167 HD
ATOM     47  C   UNL A   1      41.998  27.164  29.115  1.00  0.00     0.037 A 
ATOM     48  C   UNL A   1      39.613  31.136  34.375  1.00  0.00     0.037 A 
ATOM     49  C   UNL A   1      42.792  27.129  30.314  1.00  0.00     0.049 A 
ATOM     50  C   UNL A   1      40.835  30.271  34.522  1.00  0.00     0.074 A 
ATOM     51  C   UNL A   1      43.973  26.446  30.547  1.00  0.00     0.029 A 
ATOM     52  N   UNL A   1      42.485  27.809  31.484  1.00  0.00    -0.354 N 
ATOM     53  N   UNL A   1      41.422  29.510  33.631  1.00  0.00    -0.248 NA
ATOM     54  C   UNL A   1      41.477  30.252  35.844  1.00  0.00     0.031 C 
ATOM     55  C   UNL A   1      44.361  26.682  31.870  1.00  0.00     0.029 A 
ATOM     56  C   UNL A   1      43.444  27.544  32.448  1.00  0.00     0.049 A 
ATOM     57  H   UNL A   1      41.703  28.393  31.610  1.00  0.00     0.167 HD
ATOM     58  C   UNL A   1      42.515  28.945  34.273  1.00  0.00     0.074 A 
ATOM     59  C   UNL A   1      42.515  29.457  35.628  1.00  0.00     0.031 C 
ATOM     60  C   UNL A   1      43.437  28.081  33.784  1.00  0.00     0.037 A 
BRANCH  47  61
ATOM     61  C   UNL A   1      42.429  26.309  27.962  1.00  0.00     0.064 A 
ATOM     62  C   UNL A   1      41.902  25.026  27.753  1.00  0.00     0.173 A 
ATOM     63  C   UNL A   1      43.338  26.810  27.018  1.00  0.00     0.173 A 
ATOM     64  F   UNL A   1      41.040  24.498  28.633  1.00  0.00    -0.203 F 
ATOM     65  C   UNL A   1      42.282  24.271  26.646  1.00  0.00     0.198 A 
ATOM     66  C   UNL A   1      43.698  26.061  25.901  1.00  0.00     0.198 A 
ATOM     67  F   UNL A   1      43.868  28.033  27.173  1.00  0.00    -0.203 F 
ATOM     68  F   UNL A   1      41.790  23.035  26.480  1.00  0.00    -0.200 F 
ATOM     69  C   UNL A   1      43.172  24.792  25.717  1.00  0.00     0.200 A 
ATOM     70  F   UNL A   1      44.550  26.570  25.000  1.00  0.00    -0.200 F 
ATOM     71  F   UNL A   1      43.526  24.067  24.646  1.00  0.00    -0.200 F 
ENDBRANCH  47  61
BRANCH  48  72
ATOM     72  C   UNL A   1      39.109  31.938  35.519  1.00  0.00     0.064 A 
ATOM     73  C   UNL A   1      39.457  33.287  35.662  1.00  0.00     0.173 A 
ATOM     74  C   UNL A   1      38.288  31.367  36.503  1.00  0.00     0.173 A 
ATOM     75  F   UNL A   1      40.263  33.869  34.760  1.00  0.00    -0.203 F 
ATOM     76  C   UNL A   1      39.019  34.032  36.755  1.00  0.00     0.198 A 
ATOM     77  C   UNL A   1      37.827  32.120  37.581  1.00  0.00     0.198 A 
ATOM     78  F   UNL A   1      37.930  30.078  36.416  1.00  0.00    -0.203 F 
ATOM     79  F   UNL A   1      39.406  35.307  36.893  1.00  0.00    -0.200 F 
ATOM     80  C   UNL A   1      38.200  33.449  37.710  1.00  0.00     0.200 A 
ATOM     81  F   UNL A   1      37.029  31.556  38.498  1.00  0.00    -0.200 F 
ATOM     82  F   UNL A   1      37.780  34.166  38.761  1.00  0.00    -0.200 F 
ENDBRANCH  48  72
BRANCH  60  83
ATOM     83  C   UNL A   1      44.551  27.674  34.701  1.00  0.00     0.064 A 
ATOM     84  C   UNL A   1      44.462  26.523  35.499  1.00  0.00     0.173 A 
ATOM     85  C   UNL A   1      45.737  28.419  34.746  1.00  0.00     0.173 A 
ATOM     86  F   UNL A   1      43.339  25.789  35.502  1.00  0.00    -0.203 F 
ATOM     87  C   UNL A   1      45.517  26.144  36.324  1.00  0.00     0.198 A 
ATOM     88  C   UNL A   1      46.801  28.023  35.553  1.00  0.00     0.198 A 
ATOM     89  F   UNL A   1      45.872  29.523  33.997  1.00  0.00    -0.203 F 
ATOM     90  F   UNL A   1      45.398  25.064  37.107  1.00  0.00    -0.200 F 
ATOM     91  C   UNL A   1      46.688  26.889  36.344  1.00  0.00     0.200 A 
ATOM     92  F   UNL A   1      47.935  28.736  35.562  1.00  0.00    -0.200 F 
ATOM     93  F   UNL A   1      47.706  26.518  37.132  1.00  0.00    -0.200 F 
ENDBRANCH  60  83
ENDBRANCH  34  35
ENDBRANCH  27  29
ENDBRANCH  26  27
ENDBRANCH  25  26
ENDBRANCH   1  25
TORSDOF 14
ENDMDL
