MODEL 1
REMARK VINA RESULT:     -12.0      0.000      0.000
REMARK SMILES CCC1(C)CC[NH+]([C@@H]2CC[C@]([NH2+]C3CC3)(C(=O)OCCOC(=O)c3ccc(-c4c5nc(c(-c6c(F)c(F)c(F)c(F)c6F)c6ccc([nH]6)c(-c6c(F)c(F)c(F)c(F)c6F)c6nc(c(-c7c(F)c(F)c(F)c(F)c7F)c7ccc4[nH]7)C=C6)C=C5)cc3)C2)CC1
REMARK SMILES IDX 19 1 18 2 16 3 17 4 11 5 8 6 9 7 87 8 10 9 7 10 3 11 4 12
REMARK SMILES IDX 5 13 89 14 6 15 88 16 2 18 1 19 12 20 13 23 14 24 15 25
REMARK SMILES IDX 20 26 21 27 22 28 23 29 24 30 25 31 86 32 26 33 85 34 27 35
REMARK SMILES IDX 28 36 29 37 79 38 30 39 84 40 78 41 80 42 31 43 83 44 77 45
REMARK SMILES IDX 76 46 32 48 64 49 44 50 63 51 45 52 48 53 62 54 81 55 46 56
REMARK SMILES IDX 47 57 61 59 82 60 49 61 33 62 34 63 42 64 35 65 36 66 40 67
REMARK SMILES IDX 43 68 37 69 38 70 41 71 39 72 65 73 66 74 74 75 67 76 68 77
REMARK SMILES IDX 72 78 75 79 69 80 70 81 73 82 71 83 50 84 51 85 59 86 52 87
REMARK SMILES IDX 53 88 57 89 60 90 54 91 55 92 58 93 56 94
REMARK H PARENT 7 17 12 21 12 22 80 47 48 58
REMARK Flexibility Score: inf
ROOT
ATOM      1  C   UNL A   1      35.302  21.259  25.538  1.00  0.00     0.274 C 
ENDROOT
BRANCH   1   2
ATOM      2  O   UNL A   1      34.431  21.635  24.453  1.00  0.00    -0.457 OA
BRANCH   2   3
ATOM      3  C   UNL A   1      34.544  22.906  23.971  1.00  0.00     0.368 C 
ATOM      4  O   UNL A   1      35.365  23.247  23.124  1.00  0.00    -0.245 OA
BRANCH   3   5
ATOM      5  C   UNL A   1      33.505  23.882  24.602  1.00  0.00     0.200 C 
ATOM      6  C   UNL A   1      32.986  26.275  24.360  1.00  0.00     0.191 C 
ATOM      7  C   UNL A   1      33.997  26.132  25.503  1.00  0.00     0.072 C 
ATOM      8  C   UNL A   1      33.186  24.978  23.559  1.00  0.00     0.146 C 
ATOM      9  C   UNL A   1      34.177  24.636  25.771  1.00  0.00     0.087 C 
BRANCH   6  10
ATOM     10  N   UNL A   1      32.928  27.533  23.598  1.00  0.00    -0.332 N 
ATOM     11  C   UNL A   1      30.150  28.474  22.951  1.00  0.00    -0.022 C 
ATOM     12  C   UNL A   1      30.117  29.797  22.156  1.00  0.00     0.012 C 
ATOM     13  C   UNL A   1      30.896  27.400  22.107  1.00  0.00     0.068 C 
ATOM     14  C   UNL A   1      30.849  28.720  24.310  1.00  0.00     0.068 C 
ATOM     15  C   UNL A   1      32.425  27.419  22.227  1.00  0.00     0.263 C 
ATOM     16  C   UNL A   1      32.373  28.724  24.227  1.00  0.00     0.263 C 
ATOM     17  H   UNL A   1      33.934  27.703  23.577  1.00  0.00     0.348 HD
BRANCH  11  18
ATOM     18  C   UNL A   1      28.695  27.965  23.181  1.00  0.00     0.004 C 
ATOM     19  C   UNL A   1      27.585  28.991  22.986  1.00  0.00     0.004 C 
ENDBRANCH  11  18
ENDBRANCH   6  10
BRANCH   5  20
ATOM     20  N   UNL A   1      32.326  23.111  25.072  1.00  0.00    -0.329 N 
ATOM     21  H   UNL A   1      32.612  22.135  25.150  1.00  0.00     0.347 HD
ATOM     22  H   UNL A   1      31.601  23.302  24.381  1.00  0.00     0.347 HD
BRANCH  20  23
ATOM     23  C   UNL A   1      31.729  23.493  26.349  1.00  0.00     0.183 C 
ATOM     24  C   UNL A   1      30.502  24.359  26.334  1.00  0.00     0.071 C 
ATOM     25  C   UNL A   1      30.393  22.914  26.718  1.00  0.00     0.071 C 
ENDBRANCH  20  23
ENDBRANCH   5  20
ENDBRANCH   3   5
ENDBRANCH   2   3
ENDBRANCH   1   2
BRANCH   1  26
ATOM     26  C   UNL A   1      36.548  20.562  24.998  1.00  0.00     0.275 C 
BRANCH  26  27
ATOM     27  O   UNL A   1      37.639  21.499  24.998  1.00  0.00    -0.458 OA
BRANCH  27  28
ATOM     28  C   UNL A   1      38.709  21.176  25.759  1.00  0.00     0.338 C 
ATOM     29  O   UNL A   1      39.180  20.065  25.931  1.00  0.00    -0.246 OA
BRANCH  28  30
ATOM     30  C   UNL A   1      39.263  22.398  26.386  1.00  0.00     0.060 A 
ATOM     31  C   UNL A   1      38.725  23.654  26.115  1.00  0.00     0.016 A 
ATOM     32  C   UNL A   1      40.403  22.302  27.187  1.00  0.00     0.016 A 
ATOM     33  C   UNL A   1      39.384  24.803  26.549  1.00  0.00     0.010 A 
ATOM     34  C   UNL A   1      41.010  23.462  27.692  1.00  0.00     0.010 A 
ATOM     35  C   UNL A   1      40.549  24.739  27.330  1.00  0.00    -0.014 A 
BRANCH  35  36
ATOM     36  C   UNL A   1      41.324  25.975  27.683  1.00  0.00     0.031 A 
ATOM     37  C   UNL A   1      40.723  27.019  28.600  1.00  0.00     0.074 A 
ATOM     38  C   UNL A   1      42.584  26.181  27.243  1.00  0.00     0.049 A 
ATOM     39  N   UNL A   1      41.106  28.254  28.822  1.00  0.00    -0.248 NA
ATOM     40  C   UNL A   1      39.519  26.630  29.353  1.00  0.00     0.031 C 
ATOM     41  C   UNL A   1      43.358  25.267  26.404  1.00  0.00     0.029 A 
ATOM     42  N   UNL A   1      43.450  27.228  27.465  1.00  0.00    -0.354 N 
ATOM     43  C   UNL A   1      40.137  28.814  29.646  1.00  0.00     0.074 A 
ATOM     44  C   UNL A   1      39.162  27.778  29.912  1.00  0.00     0.031 C 
ATOM     45  C   UNL A   1      44.600  25.748  26.251  1.00  0.00     0.029 A 
ATOM     46  C   UNL A   1      44.680  27.064  26.875  1.00  0.00     0.049 A 
ATOM     47  H   UNL A   1      43.209  28.022  27.996  1.00  0.00     0.167 HD
ATOM     48  C   UNL A   1      40.061  30.079  30.130  1.00  0.00     0.037 A 
ATOM     49  C   UNL A   1      45.741  27.890  26.794  1.00  0.00     0.037 A 
ATOM     50  C   UNL A   1      41.085  31.081  29.973  1.00  0.00     0.049 A 
ATOM     51  C   UNL A   1      45.655  29.276  27.369  1.00  0.00     0.074 A 
ATOM     52  C   UNL A   1      41.095  32.388  30.433  1.00  0.00     0.029 A 
ATOM     53  N   UNL A   1      42.304  30.871  29.349  1.00  0.00    -0.354 N 
ATOM     54  N   UNL A   1      44.670  29.843  28.017  1.00  0.00    -0.248 NA
ATOM     55  C   UNL A   1      46.821  30.150  27.162  1.00  0.00     0.031 C 
ATOM     56  C   UNL A   1      42.314  32.973  30.076  1.00  0.00     0.029 A 
ATOM     57  C   UNL A   1      43.077  32.020  29.423  1.00  0.00     0.049 A 
ATOM     58  H   UNL A   1      42.580  30.031  28.917  1.00  0.00     0.167 HD
ATOM     59  C   UNL A   1      45.090  31.138  28.290  1.00  0.00     0.074 A 
ATOM     60  C   UNL A   1      46.434  31.264  27.767  1.00  0.00     0.031 C 
ATOM     61  C   UNL A   1      44.413  32.138  28.904  1.00  0.00     0.037 A 
BRANCH  48  62
ATOM     62  C   UNL A   1      38.807  30.480  30.851  1.00  0.00     0.064 A 
ATOM     63  C   UNL A   1      38.696  30.430  32.246  1.00  0.00     0.173 A 
ATOM     64  C   UNL A   1      37.716  30.984  30.122  1.00  0.00     0.173 A 
ATOM     65  F   UNL A   1      39.705  29.947  32.986  1.00  0.00    -0.203 F 
ATOM     66  C   UNL A   1      37.533  30.854  32.887  1.00  0.00     0.198 A 
ATOM     67  C   UNL A   1      36.567  31.432  30.767  1.00  0.00     0.198 A 
ATOM     68  F   UNL A   1      37.775  31.063  28.785  1.00  0.00    -0.203 F 
ATOM     69  F   UNL A   1      37.436  30.766  34.220  1.00  0.00    -0.200 F 
ATOM     70  C   UNL A   1      36.474  31.362  32.149  1.00  0.00     0.200 A 
ATOM     71  F   UNL A   1      35.552  31.938  30.052  1.00  0.00    -0.200 F 
ATOM     72  F   UNL A   1      35.363  31.782  32.768  1.00  0.00    -0.200 F 
ENDBRANCH  48  62
BRANCH  49  73
ATOM     73  C   UNL A   1      46.972  27.442  26.091  1.00  0.00     0.064 A 
ATOM     74  C   UNL A   1      47.110  27.614  24.707  1.00  0.00     0.173 A 
ATOM     75  C   UNL A   1      48.033  26.842  26.785  1.00  0.00     0.173 A 
ATOM     76  F   UNL A   1      46.108  28.152  23.996  1.00  0.00    -0.203 F 
ATOM     77  C   UNL A   1      48.262  27.200  24.043  1.00  0.00     0.198 A 
ATOM     78  C   UNL A   1      49.198  26.459  26.126  1.00  0.00     0.198 A 
ATOM     79  F   UNL A   1      47.946  26.651  28.110  1.00  0.00    -0.203 F 
ATOM     80  F   UNL A   1      48.355  27.339  22.714  1.00  0.00    -0.200 F 
ATOM     81  C   UNL A   1      49.310  26.633  24.755  1.00  0.00     0.200 A 
ATOM     82  F   UNL A   1      50.212  25.924  26.820  1.00  0.00    -0.200 F 
ATOM     83  F   UNL A   1      50.424  26.248  24.118  1.00  0.00    -0.200 F 
ENDBRANCH  49  73
BRANCH  61  84
ATOM     84  C   UNL A   1      45.122  33.449  29.063  1.00  0.00     0.064 A 
ATOM     85  C   UNL A   1      45.897  33.728  30.197  1.00  0.00     0.173 A 
ATOM     86  C   UNL A   1      45.041  34.428  28.061  1.00  0.00     0.173 A 
ATOM     87  F   UNL A   1      45.991  32.829  31.188  1.00  0.00    -0.203 F 
ATOM     88  C   UNL A   1      46.546  34.952  30.336  1.00  0.00     0.198 A 
ATOM     89  C   UNL A   1      45.708  35.643  28.195  1.00  0.00     0.198 A 
ATOM     90  F   UNL A   1      44.314  34.207  26.956  1.00  0.00    -0.203 F 
ATOM     91  F   UNL A   1      47.246  35.216  31.448  1.00  0.00    -0.200 F 
ATOM     92  C   UNL A   1      46.453  35.907  29.334  1.00  0.00     0.200 A 
ATOM     93  F   UNL A   1      45.624  36.562  27.223  1.00  0.00    -0.200 F 
ATOM     94  F   UNL A   1      47.077  37.085  29.470  1.00  0.00    -0.200 F 
ENDBRANCH  61  84
ENDBRANCH  35  36
ENDBRANCH  28  30
ENDBRANCH  27  28
ENDBRANCH  26  27
ENDBRANCH   1  26
TORSDOF 15
ENDMDL
MODEL 2
REMARK VINA RESULT:     -11.9      4.302      9.667
REMARK SMILES CCC1(C)CC[NH+]([C@@H]2CC[C@]([NH2+]C3CC3)(C(=O)OCCOC(=O)c3ccc(-c4c5nc(c(-c6c(F)c(F)c(F)c(F)c6F)c6ccc([nH]6)c(-c6c(F)c(F)c(F)c(F)c6F)c6nc(c(-c7c(F)c(F)c(F)c(F)c7F)c7ccc4[nH]7)C=C6)C=C5)cc3)C2)CC1
REMARK SMILES IDX 19 1 18 2 16 3 17 4 11 5 8 6 9 7 87 8 10 9 7 10 3 11 4 12
REMARK SMILES IDX 5 13 89 14 6 15 88 16 2 18 1 19 12 20 13 23 14 24 15 25
REMARK SMILES IDX 20 26 21 27 22 28 23 29 24 30 25 31 86 32 26 33 85 34 27 35
REMARK SMILES IDX 28 36 29 37 79 38 30 39 84 40 78 41 80 42 31 43 83 44 77 45
REMARK SMILES IDX 76 46 32 48 64 49 44 50 63 51 45 52 48 53 62 54 81 55 46 56
REMARK SMILES IDX 47 57 61 59 82 60 49 61 33 62 34 63 42 64 35 65 36 66 40 67
REMARK SMILES IDX 43 68 37 69 38 70 41 71 39 72 65 73 66 74 74 75 67 76 68 77
REMARK SMILES IDX 72 78 75 79 69 80 70 81 73 82 71 83 50 84 51 85 59 86 52 87
REMARK SMILES IDX 53 88 57 89 60 90 54 91 55 92 58 93 56 94
REMARK H PARENT 7 17 12 21 12 22 80 47 48 58
REMARK Flexibility Score: inf
ROOT
ATOM      1  C   UNL A   1      31.016  29.148  24.849  1.00  0.00     0.274 C 
ENDROOT
BRANCH   1   2
ATOM      2  O   UNL A   1      31.971  28.157  25.277  1.00  0.00    -0.457 OA
BRANCH   2   3
ATOM      3  C   UNL A   1      31.548  27.231  26.186  1.00  0.00     0.368 C 
ATOM      4  O   UNL A   1      31.053  27.514  27.273  1.00  0.00    -0.245 OA
BRANCH   3   5
ATOM      5  C   UNL A   1      31.747  25.767  25.688  1.00  0.00     0.200 C 
ATOM      6  C   UNL A   1      33.686  24.380  25.076  1.00  0.00     0.191 C 
ATOM      7  C   UNL A   1      33.183  25.066  23.799  1.00  0.00     0.072 C 
ATOM      8  C   UNL A   1      33.125  25.276  26.192  1.00  0.00     0.146 C 
ATOM      9  C   UNL A   1      31.874  25.778  24.149  1.00  0.00     0.087 C 
BRANCH   6  10
ATOM     10  N   UNL A   1      35.101  23.987  25.177  1.00  0.00    -0.332 N 
ATOM     11  C   UNL A   1      35.596  21.034  24.946  1.00  0.00    -0.022 C 
ATOM     12  C   UNL A   1      37.087  20.649  25.051  1.00  0.00     0.012 C 
ATOM     13  C   UNL A   1      35.159  21.716  26.275  1.00  0.00     0.068 C 
ATOM     14  C   UNL A   1      35.402  21.974  23.731  1.00  0.00     0.068 C 
ATOM     15  C   UNL A   1      35.459  23.217  26.370  1.00  0.00     0.263 C 
ATOM     16  C   UNL A   1      35.771  23.428  24.011  1.00  0.00     0.263 C 
ATOM     17  H   UNL A   1      35.478  24.932  25.256  1.00  0.00     0.348 HD
BRANCH  11  18
ATOM     18  C   UNL A   1      34.734  19.748  24.772  1.00  0.00     0.004 C 
ATOM     19  C   UNL A   1      33.278  19.962  24.378  1.00  0.00     0.004 C 
ENDBRANCH  11  18
ENDBRANCH   6  10
BRANCH   5  20
ATOM     20  N   UNL A   1      30.595  24.937  26.123  1.00  0.00    -0.329 N 
ATOM     21  H   UNL A   1      30.050  24.714  25.290  1.00  0.00     0.347 HD
ATOM     22  H   UNL A   1      30.118  25.505  26.822  1.00  0.00     0.347 HD
BRANCH  20  23
ATOM     23  C   UNL A   1      30.885  23.678  26.804  1.00  0.00     0.183 C 
ATOM     24  C   UNL A   1      29.739  22.768  27.141  1.00  0.00     0.071 C 
ATOM     25  C   UNL A   1      30.694  22.393  26.048  1.00  0.00     0.071 C 
ENDBRANCH  20  23
ENDBRANCH   5  20
ENDBRANCH   3   5
ENDBRANCH   2   3
ENDBRANCH   1   2
BRANCH   1  26
ATOM     26  C   UNL A   1      31.383  30.515  25.419  1.00  0.00     0.275 C 
BRANCH  26  27
ATOM     27  O   UNL A   1      32.735  30.466  25.905  1.00  0.00    -0.458 OA
BRANCH  27  28
ATOM     28  C   UNL A   1      33.034  31.290  26.934  1.00  0.00     0.338 C 
ATOM     29  O   UNL A   1      32.332  32.171  27.399  1.00  0.00    -0.246 OA
BRANCH  28  30
ATOM     30  C   UNL A   1      34.386  30.974  27.451  1.00  0.00     0.060 A 
ATOM     31  C   UNL A   1      34.773  29.658  27.696  1.00  0.00     0.016 A 
ATOM     32  C   UNL A   1      35.254  32.015  27.787  1.00  0.00     0.016 A 
ATOM     33  C   UNL A   1      35.965  29.396  28.370  1.00  0.00     0.010 A 
ATOM     34  C   UNL A   1      36.491  31.736  28.388  1.00  0.00     0.010 A 
ATOM     35  C   UNL A   1      36.843  30.424  28.749  1.00  0.00    -0.014 A 
BRANCH  35  36
ATOM     36  C   UNL A   1      38.057  30.148  29.588  1.00  0.00     0.031 A 
ATOM     37  C   UNL A   1      39.218  29.361  29.016  1.00  0.00     0.074 A 
ATOM     38  C   UNL A   1      38.182  30.621  30.846  1.00  0.00     0.049 A 
ATOM     39  N   UNL A   1      40.229  28.799  29.635  1.00  0.00    -0.248 NA
ATOM     40  C   UNL A   1      39.234  29.162  27.558  1.00  0.00     0.031 C 
ATOM     41  C   UNL A   1      37.204  31.449  31.550  1.00  0.00     0.029 A 
ATOM     42  N   UNL A   1      39.208  30.487  31.755  1.00  0.00    -0.354 N 
ATOM     43  C   UNL A   1      40.931  28.096  28.663  1.00  0.00     0.074 A 
ATOM     44  C   UNL A   1      40.252  28.325  27.406  1.00  0.00     0.031 C 
ATOM     45  C   UNL A   1      37.706  31.816  32.738  1.00  0.00     0.029 A 
ATOM     46  C   UNL A   1      38.989  31.152  32.938  1.00  0.00     0.049 A 
ATOM     47  H   UNL A   1      40.022  29.963  31.574  1.00  0.00     0.167 HD
ATOM     48  C   UNL A   1      42.037  27.323  28.806  1.00  0.00     0.037 A 
ATOM     49  C   UNL A   1      39.705  31.189  34.078  1.00  0.00     0.037 A 
ATOM     50  C   UNL A   1      42.791  27.187  30.026  1.00  0.00     0.049 A 
ATOM     51  C   UNL A   1      40.949  30.356  34.208  1.00  0.00     0.074 A 
ATOM     52  C   UNL A   1      43.926  26.428  30.261  1.00  0.00     0.029 A 
ATOM     53  N   UNL A   1      42.516  27.865  31.203  1.00  0.00    -0.354 N 
ATOM     54  N   UNL A   1      41.518  29.577  33.325  1.00  0.00    -0.248 NA
ATOM     55  C   UNL A   1      41.627  30.379  35.514  1.00  0.00     0.031 C 
ATOM     56  C   UNL A   1      44.331  26.636  31.584  1.00  0.00     0.029 A 
ATOM     57  C   UNL A   1      43.467  27.550  32.162  1.00  0.00     0.049 A 
ATOM     58  H   UNL A   1      41.759  28.478  31.337  1.00  0.00     0.167 HD
ATOM     59  C   UNL A   1      42.614  29.013  33.964  1.00  0.00     0.074 A 
ATOM     60  C   UNL A   1      42.650  29.564  35.302  1.00  0.00     0.031 C 
ATOM     61  C   UNL A   1      43.500  28.104  33.489  1.00  0.00     0.037 A 
BRANCH  48  62
ATOM     62  C   UNL A   1      42.490  26.523  27.620  1.00  0.00     0.064 A 
ATOM     63  C   UNL A   1      43.490  26.975  26.748  1.00  0.00     0.173 A 
ATOM     64  C   UNL A   1      41.950  25.245  27.394  1.00  0.00     0.173 A 
ATOM     65  F   UNL A   1      44.029  28.191  26.914  1.00  0.00    -0.203 F 
ATOM     66  C   UNL A   1      43.919  26.186  25.683  1.00  0.00     0.198 A 
ATOM     67  C   UNL A   1      42.401  24.449  26.346  1.00  0.00     0.198 A 
ATOM     68  F   UNL A   1      40.998  24.761  28.206  1.00  0.00    -0.203 F 
ATOM     69  F   UNL A   1      44.852  26.651  24.841  1.00  0.00    -0.200 F 
ATOM     70  C   UNL A   1      43.382  24.922  25.488  1.00  0.00     0.200 A 
ATOM     71  F   UNL A   1      41.892  23.221  26.170  1.00  0.00    -0.200 F 
ATOM     72  F   UNL A   1      43.808  24.159  24.471  1.00  0.00    -0.200 F 
ENDBRANCH  48  62
BRANCH  49  73
ATOM     73  C   UNL A   1      39.230  32.014  35.220  1.00  0.00     0.064 A 
ATOM     74  C   UNL A   1      38.476  31.443  36.254  1.00  0.00     0.173 A 
ATOM     75  C   UNL A   1      39.524  33.383  35.304  1.00  0.00     0.173 A 
ATOM     76  F   UNL A   1      38.142  30.145  36.200  1.00  0.00    -0.203 F 
ATOM     77  C   UNL A   1      38.032  32.211  37.328  1.00  0.00     0.198 A 
ATOM     78  C   UNL A   1      39.108  34.143  36.394  1.00  0.00     0.198 A 
ATOM     79  F   UNL A   1      40.238  33.977  34.336  1.00  0.00    -0.203 F 
ATOM     80  F   UNL A   1      37.280  31.650  38.284  1.00  0.00    -0.200 F 
ATOM     81  C   UNL A   1      38.358  33.557  37.403  1.00  0.00     0.200 A 
ATOM     82  F   UNL A   1      39.437  35.440  36.468  1.00  0.00    -0.200 F 
ATOM     83  F   UNL A   1      37.942  34.292  38.443  1.00  0.00    -0.200 F 
ENDBRANCH  49  73
BRANCH  61  84
ATOM     84  C   UNL A   1      44.595  27.666  34.414  1.00  0.00     0.064 A 
ATOM     85  C   UNL A   1      45.808  28.364  34.492  1.00  0.00     0.173 A 
ATOM     86  C   UNL A   1      44.421  26.548  35.243  1.00  0.00     0.173 A 
ATOM     87  F   UNL A   1      46.025  29.430  33.707  1.00  0.00    -0.203 F 
ATOM     88  C   UNL A   1      46.820  27.944  35.350  1.00  0.00     0.198 A 
ATOM     89  C   UNL A   1      45.429  26.143  36.115  1.00  0.00     0.198 A 
ATOM     90  F   UNL A   1      43.277  25.849  35.206  1.00  0.00    -0.203 F 
ATOM     91  F   UNL A   1      47.988  28.599  35.378  1.00  0.00    -0.200 F 
ATOM     92  C   UNL A   1      46.628  26.836  36.163  1.00  0.00     0.200 A 
ATOM     93  F   UNL A   1      45.240  25.076  36.904  1.00  0.00    -0.200 F 
ATOM     94  F   UNL A   1      47.605  26.432  36.987  1.00  0.00    -0.200 F 
ENDBRANCH  61  84
ENDBRANCH  35  36
ENDBRANCH  28  30
ENDBRANCH  27  28
ENDBRANCH  26  27
ENDBRANCH   1  26
TORSDOF 15
ENDMDL
MODEL 3
REMARK VINA RESULT:     -11.7      4.289      9.628
REMARK SMILES CCC1(C)CC[NH+]([C@@H]2CC[C@]([NH2+]C3CC3)(C(=O)OCCOC(=O)c3ccc(-c4c5nc(c(-c6c(F)c(F)c(F)c(F)c6F)c6ccc([nH]6)c(-c6c(F)c(F)c(F)c(F)c6F)c6nc(c(-c7c(F)c(F)c(F)c(F)c7F)c7ccc4[nH]7)C=C6)C=C5)cc3)C2)CC1
REMARK SMILES IDX 19 1 18 2 16 3 17 4 11 5 8 6 9 7 87 8 10 9 7 10 3 11 4 12
REMARK SMILES IDX 5 13 89 14 6 15 88 16 2 18 1 19 12 20 13 23 14 24 15 25
REMARK SMILES IDX 20 26 21 27 22 28 23 29 24 30 25 31 86 32 26 33 85 34 27 35
REMARK SMILES IDX 28 36 29 37 79 38 30 39 84 40 78 41 80 42 31 43 83 44 77 45
REMARK SMILES IDX 76 46 32 48 64 49 44 50 63 51 45 52 48 53 62 54 81 55 46 56
REMARK SMILES IDX 47 57 61 59 82 60 49 61 33 62 34 63 42 64 35 65 36 66 40 67
REMARK SMILES IDX 43 68 37 69 38 70 41 71 39 72 65 73 66 74 74 75 67 76 68 77
REMARK SMILES IDX 72 78 75 79 69 80 70 81 73 82 71 83 50 84 51 85 59 86 52 87
REMARK SMILES IDX 53 88 57 89 60 90 54 91 55 92 58 93 56 94
REMARK H PARENT 7 17 12 21 12 22 80 47 48 58
REMARK Flexibility Score: inf
ROOT
ATOM      1  C   UNL A   1      31.800  28.308  27.277  1.00  0.00     0.274 C 
ENDROOT
BRANCH   1   2
ATOM      2  O   UNL A   1      32.251  27.338  26.311  1.00  0.00    -0.457 OA
BRANCH   2   3
ATOM      3  C   UNL A   1      31.316  26.491  25.791  1.00  0.00     0.368 C 
ATOM      4  O   UNL A   1      30.430  25.958  26.454  1.00  0.00    -0.245 OA
BRANCH   3   5
ATOM      5  C   UNL A   1      31.484  26.281  24.255  1.00  0.00     0.200 C 
ATOM      6  C   UNL A   1      32.721  24.698  22.835  1.00  0.00     0.191 C 
ATOM      7  C   UNL A   1      33.625  25.914  23.073  1.00  0.00     0.072 C 
ATOM      8  C   UNL A   1      31.726  24.774  24.004  1.00  0.00     0.146 C 
ATOM      9  C   UNL A   1      32.789  26.970  23.800  1.00  0.00     0.087 C 
BRANCH   6  10
ATOM     10  N   UNL A   1      33.330  23.388  22.555  1.00  0.00    -0.332 N 
ATOM     11  C   UNL A   1      33.639  21.615  24.960  1.00  0.00    -0.022 C 
ATOM     12  C   UNL A   1      34.275  20.246  24.639  1.00  0.00     0.012 C 
ATOM     13  C   UNL A   1      34.656  22.738  24.602  1.00  0.00     0.068 C 
ATOM     14  C   UNL A   1      32.323  21.760  24.158  1.00  0.00     0.068 C 
ATOM     15  C   UNL A   1      34.660  23.173  23.131  1.00  0.00     0.263 C 
ATOM     16  C   UNL A   1      32.529  22.182  22.705  1.00  0.00     0.263 C 
ATOM     17  H   UNL A   1      33.414  23.512  21.546  1.00  0.00     0.348 HD
BRANCH  11  18
ATOM     18  C   UNL A   1      33.349  21.712  26.488  1.00  0.00     0.004 C 
ATOM     19  C   UNL A   1      34.105  22.794  27.248  1.00  0.00     0.004 C 
ENDBRANCH  11  18
ENDBRANCH   6  10
BRANCH   5  20
ATOM     20  N   UNL A   1      30.306  26.847  23.549  1.00  0.00    -0.329 N 
ATOM     21  H   UNL A   1      29.474  26.429  23.963  1.00  0.00     0.347 HD
ATOM     22  H   UNL A   1      30.466  26.626  22.566  1.00  0.00     0.347 HD
BRANCH  20  23
ATOM     23  C   UNL A   1      30.128  28.295  23.578  1.00  0.00     0.183 C 
ATOM     24  C   UNL A   1      30.431  29.079  22.333  1.00  0.00     0.071 C 
ATOM     25  C   UNL A   1      29.010  28.897  22.775  1.00  0.00     0.071 C 
ENDBRANCH  20  23
ENDBRANCH   5  20
ENDBRANCH   3   5
ENDBRANCH   2   3
ENDBRANCH   1   2
BRANCH   1  26
ATOM     26  C   UNL A   1      31.527  29.646  26.595  1.00  0.00     0.275 C 
BRANCH  26  27
ATOM     27  O   UNL A   1      32.782  30.242  26.228  1.00  0.00    -0.458 OA
BRANCH  27  28
ATOM     28  C   UNL A   1      33.208  31.269  26.997  1.00  0.00     0.338 C 
ATOM     29  O   UNL A   1      32.608  32.300  27.245  1.00  0.00    -0.246 OA
BRANCH  28  30
ATOM     30  C   UNL A   1      34.559  30.969  27.526  1.00  0.00     0.060 A 
ATOM     31  C   UNL A   1      35.008  29.657  27.653  1.00  0.00     0.016 A 
ATOM     32  C   UNL A   1      35.360  32.013  27.995  1.00  0.00     0.016 A 
ATOM     33  C   UNL A   1      36.192  29.388  28.339  1.00  0.00     0.010 A 
ATOM     34  C   UNL A   1      36.591  31.738  28.607  1.00  0.00     0.010 A 
ATOM     35  C   UNL A   1      37.002  30.415  28.849  1.00  0.00    -0.014 A 
BRANCH  35  36
ATOM     36  C   UNL A   1      38.204  30.117  29.698  1.00  0.00     0.031 A 
ATOM     37  C   UNL A   1      39.361  29.321  29.132  1.00  0.00     0.074 A 
ATOM     38  C   UNL A   1      38.320  30.577  30.962  1.00  0.00     0.049 A 
ATOM     39  N   UNL A   1      40.358  28.741  29.756  1.00  0.00    -0.248 NA
ATOM     40  C   UNL A   1      39.390  29.134  27.672  1.00  0.00     0.031 C 
ATOM     41  C   UNL A   1      37.345  31.411  31.662  1.00  0.00     0.029 A 
ATOM     42  N   UNL A   1      39.335  30.423  31.880  1.00  0.00    -0.354 N 
ATOM     43  C   UNL A   1      41.063  28.038  28.785  1.00  0.00     0.074 A 
ATOM     44  C   UNL A   1      40.399  28.287  27.524  1.00  0.00     0.031 C 
ATOM     45  C   UNL A   1      37.839  31.761  32.859  1.00  0.00     0.029 A 
ATOM     46  C   UNL A   1      39.111  31.079  33.067  1.00  0.00     0.049 A 
ATOM     47  H   UNL A   1      40.144  29.891  31.703  1.00  0.00     0.167 HD
ATOM     48  C   UNL A   1      42.157  27.250  28.933  1.00  0.00     0.037 A 
ATOM     49  C   UNL A   1      39.815  31.098  34.215  1.00  0.00     0.037 A 
ATOM     50  C   UNL A   1      42.897  27.094  30.160  1.00  0.00     0.049 A 
ATOM     51  C   UNL A   1      41.048  30.249  34.350  1.00  0.00     0.074 A 
ATOM     52  C   UNL A   1      44.020  26.319  30.400  1.00  0.00     0.029 A 
ATOM     53  N   UNL A   1      42.618  27.765  31.340  1.00  0.00    -0.354 N 
ATOM     54  N   UNL A   1      41.617  29.470  33.466  1.00  0.00    -0.248 NA
ATOM     55  C   UNL A   1      41.712  30.252  35.664  1.00  0.00     0.031 C 
ATOM     56  C   UNL A   1      44.413  26.511  31.729  1.00  0.00     0.029 A 
ATOM     57  C   UNL A   1      43.554  27.430  32.306  1.00  0.00     0.049 A 
ATOM     58  H   UNL A   1      41.866  28.386  31.472  1.00  0.00     0.167 HD
ATOM     59  C   UNL A   1      42.699  28.887  34.112  1.00  0.00     0.074 A 
ATOM     60  C   UNL A   1      42.728  29.426  35.455  1.00  0.00     0.031 C 
ATOM     61  C   UNL A   1      43.579  27.972  33.638  1.00  0.00     0.037 A 
BRANCH  48  62
ATOM     62  C   UNL A   1      42.613  26.456  27.745  1.00  0.00     0.064 A 
ATOM     63  C   UNL A   1      43.611  26.913  26.874  1.00  0.00     0.173 A 
ATOM     64  C   UNL A   1      42.078  25.176  27.516  1.00  0.00     0.173 A 
ATOM     65  F   UNL A   1      44.146  28.132  27.044  1.00  0.00    -0.203 F 
ATOM     66  C   UNL A   1      44.044  26.129  25.807  1.00  0.00     0.198 A 
ATOM     67  C   UNL A   1      42.532  24.384  26.465  1.00  0.00     0.198 A 
ATOM     68  F   UNL A   1      41.128  24.686  28.326  1.00  0.00    -0.203 F 
ATOM     69  F   UNL A   1      44.975  26.600  24.966  1.00  0.00    -0.200 F 
ATOM     70  C   UNL A   1      43.512  24.864  25.608  1.00  0.00     0.200 A 
ATOM     71  F   UNL A   1      42.028  23.155  26.286  1.00  0.00    -0.200 F 
ATOM     72  F   UNL A   1      43.941  24.105  24.589  1.00  0.00    -0.200 F 
ENDBRANCH  48  62
BRANCH  49  73
ATOM     73  C   UNL A   1      39.339  31.919  35.358  1.00  0.00     0.064 A 
ATOM     74  C   UNL A   1      39.693  33.270  35.468  1.00  0.00     0.173 A 
ATOM     75  C   UNL A   1      38.519  31.374  36.358  1.00  0.00     0.173 A 
ATOM     76  F   UNL A   1      40.502  33.826  34.555  1.00  0.00    -0.203 F 
ATOM     77  C   UNL A   1      39.247  34.045  36.536  1.00  0.00     0.198 A 
ATOM     78  C   UNL A   1      38.046  32.158  37.407  1.00  0.00     0.198 A 
ATOM     79  F   UNL A   1      38.158  30.084  36.300  1.00  0.00    -0.203 F 
ATOM     80  F   UNL A   1      39.630  35.325  36.639  1.00  0.00    -0.200 F 
ATOM     81  C   UNL A   1      38.415  33.492  37.498  1.00  0.00     0.200 A 
ATOM     82  F   UNL A   1      37.232  31.622  38.326  1.00  0.00    -0.200 F 
ATOM     83  F   UNL A   1      37.973  34.241  38.518  1.00  0.00    -0.200 F 
ENDBRANCH  49  73
BRANCH  61  84
ATOM     84  C   UNL A   1      44.659  27.512  34.570  1.00  0.00     0.064 A 
ATOM     85  C   UNL A   1      45.877  28.198  34.672  1.00  0.00     0.173 A 
ATOM     86  C   UNL A   1      44.465  26.386  35.384  1.00  0.00     0.173 A 
ATOM     87  F   UNL A   1      46.114  29.271  33.903  1.00  0.00    -0.203 F 
ATOM     88  C   UNL A   1      46.875  27.758  35.537  1.00  0.00     0.198 A 
ATOM     89  C   UNL A   1      45.458  25.961  36.263  1.00  0.00     0.198 A 
ATOM     90  F   UNL A   1      43.315  25.698  35.325  1.00  0.00    -0.203 F 
ATOM     91  F   UNL A   1      48.049  28.402  35.587  1.00  0.00    -0.200 F 
ATOM     92  C   UNL A   1      46.663  26.642  36.334  1.00  0.00     0.200 A 
ATOM     93  F   UNL A   1      45.250  24.887  37.037  1.00  0.00    -0.200 F 
ATOM     94  F   UNL A   1      47.626  26.219  37.165  1.00  0.00    -0.200 F 
ENDBRANCH  61  84
ENDBRANCH  35  36
ENDBRANCH  28  30
ENDBRANCH  27  28
ENDBRANCH  26  27
ENDBRANCH   1  26
TORSDOF 15
ENDMDL
