MODEL 1
REMARK VINA RESULT:     -12.1      0.000      0.000
REMARK SMILES [NH3+]C1CC[NH+](CC(=O)Nc2cc(Cl)ccc2C(=O)OCCOC(=O)c2ccc(-c3c4nc(c(-c5c(F)c(F)c(F)c(F)c5F)c5ccc([nH]5)c(-c5c(F)c(F)c(F)c(F)c5F)c5nc(c(-c6c(F)c(F)c(F)c(F)c6F)c6ccc3[nH]6)C=C5)C=C4)cc2)CC1
REMARK SMILES IDX 20 1 19 2 17 3 18 4 16 5 10 6 11 7 12 8 15 9 13 10 14 11
REMARK SMILES IDX 9 12 7 13 8 14 6 16 5 17 2 18 3 19 89 20 4 21 88 22 1 24
REMARK SMILES IDX 21 28 22 29 23 30 24 31 25 32 26 33 87 34 27 35 86 36 28 37
REMARK SMILES IDX 29 38 30 39 80 40 31 41 85 42 79 43 81 44 32 45 84 46 78 47
REMARK SMILES IDX 77 48 33 50 65 51 45 52 64 53 46 54 49 55 63 56 82 57 47 58
REMARK SMILES IDX 48 59 62 61 83 62 50 63 34 64 35 65 43 66 36 67 37 68 41 69
REMARK SMILES IDX 44 70 38 71 39 72 42 73 40 74 66 75 67 76 75 77 68 78 69 79
REMARK SMILES IDX 73 80 76 81 70 82 71 83 74 84 72 85 51 86 52 87 60 88 53 89
REMARK SMILES IDX 54 90 58 91 61 92 55 93 56 94 59 95 57 96
REMARK H PARENT 9 15 5 23 1 25 1 26 1 27 81 49 49 60
REMARK Flexibility Score: inf
ROOT
ATOM      1  C   UNL A   1      31.763  28.853  27.206  1.00  0.00     0.275 C 
ENDROOT
BRANCH   1   2
ATOM      2  O   UNL A   1      31.743  27.627  26.444  1.00  0.00    -0.458 OA
BRANCH   2   3
ATOM      3  C   UNL A   1      32.923  27.193  25.932  1.00  0.00     0.340 C 
ATOM      4  O   UNL A   1      33.970  27.076  26.537  1.00  0.00    -0.246 OA
BRANCH   3   5
ATOM      5  C   UNL A   1      32.720  26.688  24.537  1.00  0.00     0.083 A 
ATOM      6  C   UNL A   1      31.883  25.598  24.190  1.00  0.00     0.057 A 
ATOM      7  C   UNL A   1      31.922  25.151  22.868  1.00  0.00     0.047 A 
ATOM      8  C   UNL A   1      32.670  25.826  21.893  1.00  0.00     0.043 A 
ATOM      9  C   UNL A   1      33.442  27.376  23.539  1.00  0.00     0.019 A 
ATOM     10  Cl  UNL A   1      32.630  25.284  20.259  1.00  0.00    -0.084 Cl
ATOM     11  C   UNL A   1      33.418  26.946  22.218  1.00  0.00     0.021 A 
BRANCH   6  12
ATOM     12  N   UNL A   1      31.011  25.083  25.177  1.00  0.00    -0.320 N 
ATOM     13  C   UNL A   1      31.079  24.198  26.211  1.00  0.00     0.279 C 
ATOM     14  O   UNL A   1      29.991  23.918  26.738  1.00  0.00    -0.268 OA
ATOM     15  H   UNL A   1      30.110  25.469  25.094  1.00  0.00     0.170 HD
BRANCH  13  16
ATOM     16  C   UNL A   1      32.351  23.544  26.729  1.00  0.00     0.363 C 
BRANCH  16  17
ATOM     17  N   UNL A   1      32.495  22.100  26.512  1.00  0.00    -0.327 N 
ATOM     18  C   UNL A   1      34.534  20.776  24.792  1.00  0.00     0.192 C 
ATOM     19  C   UNL A   1      33.247  21.369  24.199  1.00  0.00     0.126 C 
ATOM     20  C   UNL A   1      34.862  21.449  26.122  1.00  0.00     0.126 C 
ATOM     21  C   UNL A   1      32.107  21.563  25.209  1.00  0.00     0.268 C 
ATOM     22  C   UNL A   1      33.658  21.428  27.062  1.00  0.00     0.268 C 
ATOM     23  H   UNL A   1      31.737  21.832  27.141  1.00  0.00     0.348 HD
BRANCH  18  24
ATOM     24  N   UNL A   1      34.449  19.325  24.986  1.00  0.00    -0.355 N 
ATOM     25  H   UNL A   1      34.846  19.080  25.893  1.00  0.00     0.344 HD
ATOM     26  H   UNL A   1      34.970  18.853  24.247  1.00  0.00     0.344 HD
ATOM     27  H   UNL A   1      33.472  19.034  24.952  1.00  0.00     0.344 HD
ENDBRANCH  18  24
ENDBRANCH  16  17
ENDBRANCH  13  16
ENDBRANCH   6  12
ENDBRANCH   3   5
ENDBRANCH   2   3
ENDBRANCH   1   2
BRANCH   1  28
ATOM     28  C   UNL A   1      31.801  30.037  26.241  1.00  0.00     0.275 C 
BRANCH  28  29
ATOM     29  O   UNL A   1      33.148  30.545  26.188  1.00  0.00    -0.458 OA
BRANCH  29  30
ATOM     30  C   UNL A   1      33.451  31.528  27.068  1.00  0.00     0.338 C 
ATOM     31  O   UNL A   1      32.752  32.461  27.420  1.00  0.00    -0.246 OA
BRANCH  30  32
ATOM     32  C   UNL A   1      34.774  31.256  27.654  1.00  0.00     0.060 A 
ATOM     33  C   UNL A   1      35.075  29.952  28.030  1.00  0.00     0.016 A 
ATOM     34  C   UNL A   1      35.655  32.288  27.969  1.00  0.00     0.016 A 
ATOM     35  C   UNL A   1      36.190  29.683  28.816  1.00  0.00     0.010 A 
ATOM     36  C   UNL A   1      36.852  31.991  28.638  1.00  0.00     0.010 A 
ATOM     37  C   UNL A   1      37.123  30.687  29.101  1.00  0.00    -0.014 A 
BRANCH  37  38
ATOM     38  C   UNL A   1      38.355  30.376  29.891  1.00  0.00     0.031 A 
ATOM     39  C   UNL A   1      39.431  29.496  29.305  1.00  0.00     0.074 A 
ATOM     40  C   UNL A   1      38.532  30.882  31.130  1.00  0.00     0.049 A 
ATOM     41  N   UNL A   1      40.436  28.904  29.901  1.00  0.00    -0.248 NA
ATOM     42  C   UNL A   1      39.358  29.232  27.859  1.00  0.00     0.031 C 
ATOM     43  C   UNL A   1      37.618  31.796  31.817  1.00  0.00     0.029 A 
ATOM     44  N   UNL A   1      39.551  30.702  32.039  1.00  0.00    -0.354 N 
ATOM     45  C   UNL A   1      41.061  28.137  28.925  1.00  0.00     0.074 A 
ATOM     46  C   UNL A   1      40.333  28.349  27.693  1.00  0.00     0.031 C 
ATOM     47  C   UNL A   1      38.135  32.135  33.007  1.00  0.00     0.029 A 
ATOM     48  C   UNL A   1      39.349  31.362  33.229  1.00  0.00     0.049 A 
ATOM     49  H   UNL A   1      40.348  30.154  31.854  1.00  0.00     0.167 HD
ATOM     50  C   UNL A   1      42.138  27.323  29.053  1.00  0.00     0.037 A 
ATOM     51  C   UNL A   1      40.014  31.301  34.399  1.00  0.00     0.037 A 
ATOM     52  C   UNL A   1      42.907  27.180  30.263  1.00  0.00     0.049 A 
ATOM     53  C   UNL A   1      41.184  30.367  34.527  1.00  0.00     0.074 A 
ATOM     54  C   UNL A   1      44.033  26.405  30.482  1.00  0.00     0.029 A 
ATOM     55  N   UNL A   1      42.643  27.845  31.451  1.00  0.00    -0.354 N 
ATOM     56  N   UNL A   1      41.720  29.586  33.621  1.00  0.00    -0.248 NA
ATOM     57  C   UNL A   1      41.823  30.281  35.848  1.00  0.00     0.031 C 
ATOM     58  C   UNL A   1      44.424  26.566  31.815  1.00  0.00     0.029 A 
ATOM     59  C   UNL A   1      43.572  27.481  32.413  1.00  0.00     0.049 A 
ATOM     60  H   UNL A   1      41.904  28.480  31.591  1.00  0.00     0.167 HD
ATOM     61  C   UNL A   1      42.760  28.923  34.258  1.00  0.00     0.074 A 
ATOM     62  C   UNL A   1      42.798  29.413  35.619  1.00  0.00     0.031 C 
ATOM     63  C   UNL A   1      43.600  27.983  33.762  1.00  0.00     0.037 A 
BRANCH  50  64
ATOM     64  C   UNL A   1      42.530  26.482  27.872  1.00  0.00     0.064 A 
ATOM     65  C   UNL A   1      41.956  25.229  27.619  1.00  0.00     0.173 A 
ATOM     66  C   UNL A   1      43.460  26.976  26.942  1.00  0.00     0.173 A 
ATOM     67  F   UNL A   1      41.071  24.706  28.481  1.00  0.00    -0.203 F 
ATOM     68  C   UNL A   1      42.313  24.492  26.492  1.00  0.00     0.198 A 
ATOM     69  C   UNL A   1      43.792  26.251  25.801  1.00  0.00     0.198 A 
ATOM     70  F   UNL A   1      44.034  28.174  27.131  1.00  0.00    -0.203 F 
ATOM     71  F   UNL A   1      41.781  23.279  26.289  1.00  0.00    -0.200 F 
ATOM     72  C   UNL A   1      43.224  25.007  25.579  1.00  0.00     0.200 A 
ATOM     73  F   UNL A   1      44.660  26.758  24.915  1.00  0.00    -0.200 F 
ATOM     74  F   UNL A   1      43.555  24.302  24.489  1.00  0.00    -0.200 F 
ENDBRANCH  50  64
BRANCH  51  75
ATOM     75  C   UNL A   1      39.532  32.082  35.572  1.00  0.00     0.064 A 
ATOM     76  C   UNL A   1      39.995  33.382  35.819  1.00  0.00     0.173 A 
ATOM     77  C   UNL A   1      38.600  31.541  36.473  1.00  0.00     0.173 A 
ATOM     78  F   UNL A   1      40.908  33.933  35.006  1.00  0.00    -0.203 F 
ATOM     79  C   UNL A   1      39.554  34.104  36.927  1.00  0.00     0.198 A 
ATOM     80  C   UNL A   1      38.132  32.279  37.556  1.00  0.00     0.198 A 
ATOM     81  F   UNL A   1      38.127  30.300  36.287  1.00  0.00    -0.203 F 
ATOM     82  F   UNL A   1      40.050  35.325  37.167  1.00  0.00    -0.200 F 
ATOM     83  C   UNL A   1      38.616  33.556  37.788  1.00  0.00     0.200 A 
ATOM     84  F   UNL A   1      37.210  31.751  38.374  1.00  0.00    -0.200 F 
ATOM     85  F   UNL A   1      38.184  34.257  38.846  1.00  0.00    -0.200 F 
ENDBRANCH  51  75
BRANCH  63  86
ATOM     86  C   UNL A   1      44.651  27.448  34.688  1.00  0.00     0.064 A 
ATOM     87  C   UNL A   1      44.439  26.288  35.448  1.00  0.00     0.173 A 
ATOM     88  C   UNL A   1      45.897  28.085  34.791  1.00  0.00     0.173 A 
ATOM     89  F   UNL A   1      43.257  25.656  35.397  1.00  0.00    -0.203 F 
ATOM     90  C   UNL A   1      45.429  25.798  36.294  1.00  0.00     0.198 A 
ATOM     91  C   UNL A   1      46.894  27.576  35.616  1.00  0.00     0.198 A 
ATOM     92  F   UNL A   1      46.149  29.195  34.081  1.00  0.00    -0.203 F 
ATOM     93  F   UNL A   1      45.189  24.716  37.047  1.00  0.00    -0.200 F 
ATOM     94  C   UNL A   1      46.658  26.437  36.372  1.00  0.00     0.200 A 
ATOM     95  F   UNL A   1      48.085  28.188  35.682  1.00  0.00    -0.200 F 
ATOM     96  F   UNL A   1      47.612  25.961  37.183  1.00  0.00    -0.200 F 
ENDBRANCH  63  86
ENDBRANCH  37  38
ENDBRANCH  30  32
ENDBRANCH  29  30
ENDBRANCH  28  29
ENDBRANCH   1  28
TORSDOF 15
ENDMDL
MODEL 2
REMARK VINA RESULT:     -12.1      1.711      2.662
REMARK SMILES [NH3+]C1CC[NH+](CC(=O)Nc2cc(Cl)ccc2C(=O)OCCOC(=O)c2ccc(-c3c4nc(c(-c5c(F)c(F)c(F)c(F)c5F)c5ccc([nH]5)c(-c5c(F)c(F)c(F)c(F)c5F)c5nc(c(-c6c(F)c(F)c(F)c(F)c6F)c6ccc3[nH]6)C=C5)C=C4)cc2)CC1
REMARK SMILES IDX 20 1 19 2 17 3 18 4 16 5 10 6 11 7 12 8 15 9 13 10 14 11
REMARK SMILES IDX 9 12 7 13 8 14 6 16 5 17 2 18 3 19 89 20 4 21 88 22 1 24
REMARK SMILES IDX 21 28 22 29 23 30 24 31 25 32 26 33 87 34 27 35 86 36 28 37
REMARK SMILES IDX 29 38 30 39 80 40 31 41 85 42 79 43 81 44 32 45 84 46 78 47
REMARK SMILES IDX 77 48 33 50 65 51 45 52 64 53 46 54 49 55 63 56 82 57 47 58
REMARK SMILES IDX 48 59 62 61 83 62 50 63 34 64 35 65 43 66 36 67 37 68 41 69
REMARK SMILES IDX 44 70 38 71 39 72 42 73 40 74 66 75 67 76 75 77 68 78 69 79
REMARK SMILES IDX 73 80 76 81 70 82 71 83 74 84 72 85 51 86 52 87 60 88 53 89
REMARK SMILES IDX 54 90 58 91 61 92 55 93 56 94 59 95 57 96
REMARK H PARENT 9 15 5 23 1 25 1 26 1 27 81 49 49 60
REMARK Flexibility Score: inf
ROOT
ATOM      1  C   UNL A   1      32.357  29.271  24.485  1.00  0.00     0.275 C 
ENDROOT
BRANCH   1   2
ATOM      2  O   UNL A   1      31.404  28.299  24.004  1.00  0.00    -0.458 OA
BRANCH   2   3
ATOM      3  C   UNL A   1      31.898  27.151  23.475  1.00  0.00     0.340 C 
ATOM      4  O   UNL A   1      32.690  27.064  22.558  1.00  0.00    -0.246 OA
BRANCH   3   5
ATOM      5  C   UNL A   1      31.475  25.980  24.307  1.00  0.00     0.083 A 
ATOM      6  C   UNL A   1      31.448  24.639  23.852  1.00  0.00     0.057 A 
ATOM      7  C   UNL A   1      30.881  23.683  24.698  1.00  0.00     0.047 A 
ATOM      8  C   UNL A   1      30.461  24.014  25.994  1.00  0.00     0.043 A 
ATOM      9  C   UNL A   1      31.078  26.294  25.624  1.00  0.00     0.019 A 
ATOM     10  Cl  UNL A   1      29.836  22.789  27.029  1.00  0.00    -0.084 Cl
ATOM     11  C   UNL A   1      30.571  25.313  26.468  1.00  0.00     0.021 A 
BRANCH   6  12
ATOM     12  N   UNL A   1      32.060  24.339  22.613  1.00  0.00    -0.320 N 
ATOM     13  C   UNL A   1      33.185  23.707  22.179  1.00  0.00     0.279 C 
ATOM     14  O   UNL A   1      33.417  23.818  20.965  1.00  0.00    -0.268 OA
ATOM     15  H   UNL A   1      31.526  24.681  21.860  1.00  0.00     0.170 HD
BRANCH  13  16
ATOM     16  C   UNL A   1      34.147  22.918  23.055  1.00  0.00     0.363 C 
BRANCH  16  17
ATOM     17  N   UNL A   1      35.360  23.611  23.505  1.00  0.00    -0.327 N 
ATOM     18  C   UNL A   1      37.187  22.719  25.681  1.00  0.00     0.192 C 
ATOM     19  C   UNL A   1      35.887  23.478  25.986  1.00  0.00     0.126 C 
ATOM     20  C   UNL A   1      37.087  22.024  24.326  1.00  0.00     0.126 C 
ATOM     21  C   UNL A   1      35.321  24.280  24.805  1.00  0.00     0.268 C 
ATOM     22  C   UNL A   1      36.649  23.000  23.237  1.00  0.00     0.268 C 
ATOM     23  H   UNL A   1      35.299  24.366  22.821  1.00  0.00     0.348 HD
BRANCH  18  24
ATOM     24  N   UNL A   1      38.366  23.589  25.698  1.00  0.00    -0.355 N 
ATOM     25  H   UNL A   1      38.129  24.474  26.147  1.00  0.00     0.344 HD
ATOM     26  H   UNL A   1      38.673  23.764  24.742  1.00  0.00     0.344 HD
ATOM     27  H   UNL A   1      39.117  23.135  26.218  1.00  0.00     0.344 HD
ENDBRANCH  18  24
ENDBRANCH  16  17
ENDBRANCH  13  16
ENDBRANCH   6  12
ENDBRANCH   3   5
ENDBRANCH   2   3
ENDBRANCH   1   2
BRANCH   1  28
ATOM     28  C   UNL A   1      31.689  30.132  25.557  1.00  0.00     0.275 C 
BRANCH  28  29
ATOM     29  O   UNL A   1      32.516  30.123  26.736  1.00  0.00    -0.458 OA
BRANCH  29  30
ATOM     30  C   UNL A   1      33.054  31.310  27.100  1.00  0.00     0.338 C 
ATOM     31  O   UNL A   1      32.529  32.410  27.079  1.00  0.00    -0.246 OA
BRANCH  30  32
ATOM     32  C   UNL A   1      34.399  31.079  27.650  1.00  0.00     0.060 A 
ATOM     33  C   UNL A   1      34.756  29.782  28.001  1.00  0.00     0.016 A 
ATOM     34  C   UNL A   1      35.251  32.138  27.956  1.00  0.00     0.016 A 
ATOM     35  C   UNL A   1      35.900  29.544  28.756  1.00  0.00     0.010 A 
ATOM     36  C   UNL A   1      36.474  31.876  28.591  1.00  0.00     0.010 A 
ATOM     37  C   UNL A   1      36.803  30.577  29.030  1.00  0.00    -0.014 A 
BRANCH  37  38
ATOM     38  C   UNL A   1      38.065  30.302  29.785  1.00  0.00     0.031 A 
ATOM     39  C   UNL A   1      39.139  29.433  29.179  1.00  0.00     0.074 A 
ATOM     40  C   UNL A   1      38.271  30.829  31.012  1.00  0.00     0.049 A 
ATOM     41  N   UNL A   1      40.173  28.869  29.751  1.00  0.00    -0.248 NA
ATOM     42  C   UNL A   1      39.026  29.148  27.739  1.00  0.00     0.031 C 
ATOM     43  C   UNL A   1      37.361  31.735  31.714  1.00  0.00     0.029 A 
ATOM     44  N   UNL A   1      39.321  30.681  31.891  1.00  0.00    -0.354 N 
ATOM     45  C   UNL A   1      40.783  28.100  28.767  1.00  0.00     0.074 A 
ATOM     46  C   UNL A   1      40.013  28.281  27.555  1.00  0.00     0.031 C 
ATOM     47  C   UNL A   1      37.908  32.101  32.882  1.00  0.00     0.029 A 
ATOM     48  C   UNL A   1      39.143  31.354  33.077  1.00  0.00     0.049 A 
ATOM     49  H   UNL A   1      40.122  30.146  31.688  1.00  0.00     0.167 HD
ATOM     50  C   UNL A   1      41.878  27.310  28.871  1.00  0.00     0.037 A 
ATOM     51  C   UNL A   1      39.845  31.323  34.226  1.00  0.00     0.037 A 
ATOM     52  C   UNL A   1      42.688  27.199  30.059  1.00  0.00     0.049 A 
ATOM     53  C   UNL A   1      41.037  30.413  34.330  1.00  0.00     0.074 A 
ATOM     54  C   UNL A   1      43.835  26.448  30.253  1.00  0.00     0.029 A 
ATOM     55  N   UNL A   1      42.448  27.875  31.246  1.00  0.00    -0.354 N 
ATOM     56  N   UNL A   1      41.559  29.630  33.419  1.00  0.00    -0.248 NA
ATOM     57  C   UNL A   1      41.718  30.359  35.631  1.00  0.00     0.031 C 
ATOM     58  C   UNL A   1      44.263  26.636  31.571  1.00  0.00     0.029 A 
ATOM     59  C   UNL A   1      43.414  27.543  32.183  1.00  0.00     0.049 A 
ATOM     60  H   UNL A   1      41.701  28.498  31.399  1.00  0.00     0.167 HD
ATOM     61  C   UNL A   1      42.631  28.996  34.032  1.00  0.00     0.074 A 
ATOM     62  C   UNL A   1      42.701  29.506  35.384  1.00  0.00     0.031 C 
ATOM     63  C   UNL A   1      43.473  28.065  33.523  1.00  0.00     0.037 A 
BRANCH  50  64
ATOM     64  C   UNL A   1      42.250  26.459  27.691  1.00  0.00     0.064 A 
ATOM     65  C   UNL A   1      43.221  26.851  26.760  1.00  0.00     0.173 A 
ATOM     66  C   UNL A   1      41.658  25.195  27.528  1.00  0.00     0.173 A 
ATOM     67  F   UNL A   1      43.809  28.053  26.862  1.00  0.00    -0.203 F 
ATOM     68  C   UNL A   1      43.572  26.019  25.698  1.00  0.00     0.198 A 
ATOM     69  C   UNL A   1      42.033  24.355  26.484  1.00  0.00     0.198 A 
ATOM     70  F   UNL A   1      40.729  24.767  28.395  1.00  0.00    -0.203 F 
ATOM     71  F   UNL A   1      44.475  26.430  24.797  1.00  0.00    -0.200 F 
ATOM     72  C   UNL A   1      42.984  24.769  25.565  1.00  0.00     0.200 A 
ATOM     73  F   UNL A   1      41.474  23.142  26.368  1.00  0.00    -0.200 F 
ATOM     74  F   UNL A   1      43.333  23.965  24.552  1.00  0.00    -0.200 F 
ENDBRANCH  50  64
BRANCH  51  75
ATOM     75  C   UNL A   1      39.385  32.112  35.403  1.00  0.00     0.064 A 
ATOM     76  C   UNL A   1      39.802  33.435  35.599  1.00  0.00     0.173 A 
ATOM     77  C   UNL A   1      38.520  31.554  36.359  1.00  0.00     0.173 A 
ATOM     78  F   UNL A   1      40.652  34.004  34.731  1.00  0.00    -0.203 F 
ATOM     79  C   UNL A   1      39.382  34.165  36.710  1.00  0.00     0.198 A 
ATOM     80  C   UNL A   1      38.070  32.298  37.446  1.00  0.00     0.198 A 
ATOM     81  F   UNL A   1      38.092  30.290  36.223  1.00  0.00    -0.203 F 
ATOM     82  F   UNL A   1      39.835  35.411  36.898  1.00  0.00    -0.200 F 
ATOM     83  C   UNL A   1      38.509  33.600  37.626  1.00  0.00     0.200 A 
ATOM     84  F   UNL A   1      37.211  31.752  38.318  1.00  0.00    -0.200 F 
ATOM     85  F   UNL A   1      38.097  34.307  38.687  1.00  0.00    -0.200 F 
ENDBRANCH  51  75
BRANCH  63  86
ATOM     86  C   UNL A   1      44.563  27.564  34.423  1.00  0.00     0.064 A 
ATOM     87  C   UNL A   1      45.794  28.228  34.525  1.00  0.00     0.173 A 
ATOM     88  C   UNL A   1      44.359  26.426  35.218  1.00  0.00     0.173 A 
ATOM     89  F   UNL A   1      46.041  29.309  33.770  1.00  0.00    -0.203 F 
ATOM     90  C   UNL A   1      46.791  27.757  35.374  1.00  0.00     0.198 A 
ATOM     91  C   UNL A   1      45.348  25.974  36.086  1.00  0.00     0.198 A 
ATOM     92  F   UNL A   1      43.197  25.759  35.159  1.00  0.00    -0.203 F 
ATOM     93  F   UNL A   1      47.978  28.378  35.420  1.00  0.00    -0.200 F 
ATOM     94  C   UNL A   1      46.566  26.635  36.159  1.00  0.00     0.200 A 
ATOM     95  F   UNL A   1      45.125  24.898  36.853  1.00  0.00    -0.200 F 
ATOM     96  F   UNL A   1      47.525  26.187  36.980  1.00  0.00    -0.200 F 
ENDBRANCH  63  86
ENDBRANCH  37  38
ENDBRANCH  30  32
ENDBRANCH  29  30
ENDBRANCH  28  29
ENDBRANCH   1  28
TORSDOF 15
ENDMDL
MODEL 3
REMARK VINA RESULT:     -12.1      4.298      9.469
REMARK SMILES [NH3+]C1CC[NH+](CC(=O)Nc2cc(Cl)ccc2C(=O)OCCOC(=O)c2ccc(-c3c4nc(c(-c5c(F)c(F)c(F)c(F)c5F)c5ccc([nH]5)c(-c5c(F)c(F)c(F)c(F)c5F)c5nc(c(-c6c(F)c(F)c(F)c(F)c6F)c6ccc3[nH]6)C=C5)C=C4)cc2)CC1
REMARK SMILES IDX 20 1 19 2 17 3 18 4 16 5 10 6 11 7 12 8 15 9 13 10 14 11
REMARK SMILES IDX 9 12 7 13 8 14 6 16 5 17 2 18 3 19 89 20 4 21 88 22 1 24
REMARK SMILES IDX 21 28 22 29 23 30 24 31 25 32 26 33 87 34 27 35 86 36 28 37
REMARK SMILES IDX 29 38 30 39 80 40 31 41 85 42 79 43 81 44 32 45 84 46 78 47
REMARK SMILES IDX 77 48 33 50 65 51 45 52 64 53 46 54 49 55 63 56 82 57 47 58
REMARK SMILES IDX 48 59 62 61 83 62 50 63 34 64 35 65 43 66 36 67 37 68 41 69
REMARK SMILES IDX 44 70 38 71 39 72 42 73 40 74 66 75 67 76 75 77 68 78 69 79
REMARK SMILES IDX 73 80 76 81 70 82 71 83 74 84 72 85 51 86 52 87 60 88 53 89
REMARK SMILES IDX 54 90 58 91 61 92 55 93 56 94 59 95 57 96
REMARK H PARENT 9 15 5 23 1 25 1 26 1 27 81 49 49 60
REMARK Flexibility Score: inf
ROOT
ATOM      1  C   UNL A   1      34.759  21.034  25.594  1.00  0.00     0.275 C 
ENDROOT
BRANCH   1   2
ATOM      2  O   UNL A   1      33.868  20.702  24.507  1.00  0.00    -0.458 OA
BRANCH   2   3
ATOM      3  C   UNL A   1      32.595  21.165  24.582  1.00  0.00     0.340 C 
ATOM      4  O   UNL A   1      31.711  20.726  25.291  1.00  0.00    -0.246 OA
BRANCH   3   5
ATOM      5  C   UNL A   1      32.464  22.434  23.799  1.00  0.00     0.083 A 
ATOM      6  C   UNL A   1      31.523  23.457  24.075  1.00  0.00     0.057 A 
ATOM      7  C   UNL A   1      31.424  24.506  23.159  1.00  0.00     0.047 A 
ATOM      8  C   UNL A   1      32.299  24.606  22.069  1.00  0.00     0.043 A 
ATOM      9  C   UNL A   1      33.360  22.564  22.716  1.00  0.00     0.019 A 
ATOM     10  Cl  UNL A   1      32.188  25.955  21.006  1.00  0.00    -0.084 Cl
ATOM     11  C   UNL A   1      33.278  23.649  21.851  1.00  0.00     0.021 A 
BRANCH   6  12
ATOM     12  N   UNL A   1      30.803  23.393  25.290  1.00  0.00    -0.320 N 
ATOM     13  C   UNL A   1      30.359  24.264  26.239  1.00  0.00     0.279 C 
ATOM     14  O   UNL A   1      29.887  23.738  27.259  1.00  0.00    -0.268 OA
ATOM     15  H   UNL A   1      30.556  22.466  25.510  1.00  0.00     0.170 HD
BRANCH  13  16
ATOM     16  C   UNL A   1      30.417  25.781  26.138  1.00  0.00     0.363 C 
BRANCH  16  17
ATOM     17  N   UNL A   1      31.609  26.440  26.687  1.00  0.00    -0.327 N 
ATOM     18  C   UNL A   1      33.240  28.530  25.330  1.00  0.00     0.192 C 
ATOM     19  C   UNL A   1      33.438  27.037  25.030  1.00  0.00     0.126 C 
ATOM     20  C   UNL A   1      31.835  28.777  25.872  1.00  0.00     0.126 C 
ATOM     21  C   UNL A   1      32.908  26.089  26.114  1.00  0.00     0.268 C 
ATOM     22  C   UNL A   1      31.523  27.846  27.041  1.00  0.00     0.268 C 
ATOM     23  H   UNL A   1      31.581  25.958  27.586  1.00  0.00     0.348 HD
BRANCH  18  24
ATOM     24  N   UNL A   1      34.229  29.051  26.279  1.00  0.00    -0.355 N 
ATOM     25  H   UNL A   1      34.638  29.908  25.907  1.00  0.00     0.344 HD
ATOM     26  H   UNL A   1      34.962  28.357  26.421  1.00  0.00     0.344 HD
ATOM     27  H   UNL A   1      33.773  29.251  27.169  1.00  0.00     0.344 HD
ENDBRANCH  18  24
ENDBRANCH  16  17
ENDBRANCH  13  16
ENDBRANCH   6  12
ENDBRANCH   3   5
ENDBRANCH   2   3
ENDBRANCH   1   2
BRANCH   1  28
ATOM     28  C   UNL A   1      36.202  20.822  25.135  1.00  0.00     0.275 C 
BRANCH  28  29
ATOM     29  O   UNL A   1      37.030  21.833  25.742  1.00  0.00    -0.458 OA
BRANCH  29  30
ATOM     30  C   UNL A   1      38.344  21.532  25.869  1.00  0.00     0.338 C 
ATOM     31  O   UNL A   1      38.928  20.538  25.475  1.00  0.00    -0.246 OA
BRANCH  30  32
ATOM     32  C   UNL A   1      39.039  22.671  26.491  1.00  0.00     0.060 A 
ATOM     33  C   UNL A   1      38.610  23.957  26.180  1.00  0.00     0.016 A 
ATOM     34  C   UNL A   1      40.188  22.491  27.256  1.00  0.00     0.016 A 
ATOM     35  C   UNL A   1      39.381  25.061  26.526  1.00  0.00     0.010 A 
ATOM     36  C   UNL A   1      40.885  23.615  27.727  1.00  0.00     0.010 A 
ATOM     37  C   UNL A   1      40.510  24.918  27.342  1.00  0.00    -0.014 A 
BRANCH  37  38
ATOM     38  C   UNL A   1      41.296  26.118  27.767  1.00  0.00     0.031 A 
ATOM     39  C   UNL A   1      40.655  27.182  28.622  1.00  0.00     0.074 A 
ATOM     40  C   UNL A   1      42.589  26.266  27.405  1.00  0.00     0.049 A 
ATOM     41  N   UNL A   1      41.067  28.398  28.882  1.00  0.00    -0.248 NA
ATOM     42  C   UNL A   1      39.372  26.840  29.257  1.00  0.00     0.031 C 
ATOM     43  C   UNL A   1      43.373  25.301  26.631  1.00  0.00     0.029 A 
ATOM     44  N   UNL A   1      43.480  27.288  27.644  1.00  0.00    -0.354 N 
ATOM     45  C   UNL A   1      40.060  28.989  29.636  1.00  0.00     0.074 A 
ATOM     46  C   UNL A   1      39.023  27.995  29.807  1.00  0.00     0.031 C 
ATOM     47  C   UNL A   1      44.631  25.749  26.504  1.00  0.00     0.029 A 
ATOM     48  C   UNL A   1      44.712  27.090  27.067  1.00  0.00     0.049 A 
ATOM     49  H   UNL A   1      43.256  28.084  28.178  1.00  0.00     0.167 HD
ATOM     50  C   UNL A   1      40.006  30.250  30.131  1.00  0.00     0.037 A 
ATOM     51  C   UNL A   1      45.769  27.914  26.931  1.00  0.00     0.037 A 
ATOM     52  C   UNL A   1      41.077  31.209  30.027  1.00  0.00     0.049 A 
ATOM     53  C   UNL A   1      45.673  29.318  27.457  1.00  0.00     0.074 A 
ATOM     54  C   UNL A   1      41.129  32.500  30.522  1.00  0.00     0.029 A 
ATOM     55  N   UNL A   1      42.293  30.971  29.404  1.00  0.00    -0.354 N 
ATOM     56  N   UNL A   1      44.687  29.893  28.100  1.00  0.00    -0.248 NA
ATOM     57  C   UNL A   1      46.825  30.198  27.212  1.00  0.00     0.031 C 
ATOM     58  C   UNL A   1      42.359  33.059  30.161  1.00  0.00     0.029 A 
ATOM     59  C   UNL A   1      43.094  32.099  29.484  1.00  0.00     0.049 A 
ATOM     60  H   UNL A   1      42.549  30.126  28.968  1.00  0.00     0.167 HD
ATOM     61  C   UNL A   1      45.099  31.196  28.341  1.00  0.00     0.074 A 
ATOM     62  C   UNL A   1      46.436  31.320  27.801  1.00  0.00     0.031 C 
ATOM     63  C   UNL A   1      44.425  32.204  28.946  1.00  0.00     0.037 A 
BRANCH  50  64
ATOM     64  C   UNL A   1      38.732  30.695  30.790  1.00  0.00     0.064 A 
ATOM     65  C   UNL A   1      38.553  30.657  32.179  1.00  0.00     0.173 A 
ATOM     66  C   UNL A   1      37.692  31.227  30.010  1.00  0.00     0.173 A 
ATOM     67  F   UNL A   1      39.510  30.148  32.970  1.00  0.00    -0.203 F 
ATOM     68  C   UNL A   1      37.373  31.116  32.762  1.00  0.00     0.198 A 
ATOM     69  C   UNL A   1      36.527  31.713  30.598  1.00  0.00     0.198 A 
ATOM     70  F   UNL A   1      37.813  31.294  28.676  1.00  0.00    -0.203 F 
ATOM     71  F   UNL A   1      37.208  31.035  34.090  1.00  0.00    -0.200 F 
ATOM     72  C   UNL A   1      36.365  31.651  31.973  1.00  0.00     0.200 A 
ATOM     73  F   UNL A   1      35.562  32.243  29.833  1.00  0.00    -0.200 F 
ATOM     74  F   UNL A   1      35.238  32.105  32.537  1.00  0.00    -0.200 F 
ENDBRANCH  50  64
BRANCH  51  75
ATOM     75  C   UNL A   1      46.977  27.461  26.186  1.00  0.00     0.064 A 
ATOM     76  C   UNL A   1      47.075  27.617  24.797  1.00  0.00     0.173 A 
ATOM     77  C   UNL A   1      48.057  26.857  26.850  1.00  0.00     0.173 A 
ATOM     78  F   UNL A   1      46.058  28.160  24.111  1.00  0.00    -0.203 F 
ATOM     79  C   UNL A   1      48.200  27.177  24.101  1.00  0.00     0.198 A 
ATOM     80  C   UNL A   1      49.196  26.454  26.159  1.00  0.00     0.198 A 
ATOM     81  F   UNL A   1      48.015  26.679  28.179  1.00  0.00    -0.203 F 
ATOM     82  F   UNL A   1      48.246  27.293  22.767  1.00  0.00    -0.200 F 
ATOM     83  C   UNL A   1      49.263  26.606  24.783  1.00  0.00     0.200 A 
ATOM     84  F   UNL A   1      50.228  25.921  26.826  1.00  0.00    -0.200 F 
ATOM     85  F   UNL A   1      50.348  26.194  24.114  1.00  0.00    -0.200 F 
ENDBRANCH  51  75
BRANCH  63  86
ATOM     86  C   UNL A   1      45.136  33.517  29.083  1.00  0.00     0.064 A 
ATOM     87  C   UNL A   1      45.968  33.790  30.179  1.00  0.00     0.173 A 
ATOM     88  C   UNL A   1      45.010  34.499  28.089  1.00  0.00     0.173 A 
ATOM     89  F   UNL A   1      46.103  32.889  31.163  1.00  0.00    -0.203 F 
ATOM     90  C   UNL A   1      46.630  35.009  30.286  1.00  0.00     0.198 A 
ATOM     91  C   UNL A   1      45.697  35.706  28.186  1.00  0.00     0.198 A 
ATOM     92  F   UNL A   1      44.230  34.283  27.020  1.00  0.00    -0.203 F 
ATOM     93  F   UNL A   1      47.382  35.269  31.364  1.00  0.00    -0.200 F 
ATOM     94  C   UNL A   1      46.500  35.963  29.287  1.00  0.00     0.200 A 
ATOM     95  F   UNL A   1      45.580  36.621  27.214  1.00  0.00    -0.200 F 
ATOM     96  F   UNL A   1      47.144  37.134  29.388  1.00  0.00    -0.200 F 
ENDBRANCH  63  86
ENDBRANCH  37  38
ENDBRANCH  30  32
ENDBRANCH  29  30
ENDBRANCH  28  29
ENDBRANCH   1  28
TORSDOF 15
ENDMDL
