MODEL 1
REMARK VINA RESULT:     -11.9      0.000      0.000
REMARK SMILES CC[NH2+][C@@]1(C(=O)OCCOC(=O)c2ccc(-c3c4nc(c(-c5c(F)c(F)c(F)c(F)c5F)c5ccc([nH]5)c(-c5c(F)c(F)c(F)c(F)c5F)c5nc(c(-c6c(F)c(F)c(F)c(F)c6F)c6ccc3[nH]6)C=C5)C=C4)cc2)CC[C@H]([NH+]2CCC(C(C)(C)C)CC2)C1
REMARK SMILES IDX 8 1 7 2 5 3 6 4 4 5 76 6 89 7 77 8 78 9 3 10 2 13 1 14 79 15
REMARK SMILES IDX 80 16 88 17 81 19 87 20 82 21 83 22 84 23 85 24 86 25 9 26
REMARK SMILES IDX 10 27 11 28 12 29 13 30 14 31 75 32 15 33 74 34 16 35 17 36
REMARK SMILES IDX 18 37 68 38 19 39 73 40 67 41 69 42 20 43 72 44 66 45 65 46
REMARK SMILES IDX 21 48 53 49 33 50 52 51 34 52 37 53 51 54 70 55 35 56 36 57
REMARK SMILES IDX 50 59 71 60 38 61 22 62 23 63 31 64 24 65 25 66 29 67 32 68
REMARK SMILES IDX 26 69 27 70 30 71 28 72 54 73 55 74 63 75 56 76 57 77 61 78
REMARK SMILES IDX 64 79 58 80 59 81 62 82 60 83 39 84 40 85 48 86 41 87 42 88
REMARK SMILES IDX 46 89 49 90 43 91 44 92 47 93 45 94
REMARK H PARENT 3 11 3 12 79 18 69 47 37 58
REMARK Flexibility Score: inf
ROOT
ATOM      1  C   UNL A   1      31.736  28.371  27.203  1.00  0.00     0.274 C 
ENDROOT
BRANCH   1   2
ATOM      2  O   UNL A   1      32.257  27.275  26.424  1.00  0.00    -0.457 OA
BRANCH   2   3
ATOM      3  C   UNL A   1      31.359  26.391  25.900  1.00  0.00     0.368 C 
ATOM      4  O   UNL A   1      30.404  25.949  26.530  1.00  0.00    -0.245 OA
BRANCH   3   5
ATOM      5  C   UNL A   1      31.667  26.072  24.395  1.00  0.00     0.200 C 
ATOM      6  C   UNL A   1      30.546  25.341  23.640  1.00  0.00     0.087 C 
ATOM      7  C   UNL A   1      32.839  25.057  24.254  1.00  0.00     0.146 C 
ATOM      8  C   UNL A   1      30.751  23.862  23.872  1.00  0.00     0.072 C 
ATOM      9  C   UNL A   1      32.217  23.628  24.218  1.00  0.00     0.191 C 
BRANCH   5  10
ATOM     10  N   UNL A   1      31.920  27.377  23.704  1.00  0.00    -0.332 N 
ATOM     11  H   UNL A   1      31.167  27.542  23.035  1.00  0.00     0.347 HD
ATOM     12  H   UNL A   1      31.955  28.102  24.420  1.00  0.00     0.347 HD
BRANCH  10  13
ATOM     13  C   UNL A   1      33.206  27.403  22.982  1.00  0.00     0.257 C 
ATOM     14  C   UNL A   1      33.819  28.791  23.013  1.00  0.00     0.071 C 
ENDBRANCH  10  13
ENDBRANCH   5  10
BRANCH   9  15
ATOM     15  N   UNL A   1      32.469  22.658  25.303  1.00  0.00    -0.332 N 
ATOM     16  C   UNL A   1      33.167  23.169  26.492  1.00  0.00     0.262 C 
ATOM     17  C   UNL A   1      33.000  21.344  24.988  1.00  0.00     0.262 C 
ATOM     18  H   UNL A   1      31.483  22.512  25.516  1.00  0.00     0.348 HD
ATOM     19  C   UNL A   1      34.711  23.219  26.422  1.00  0.00     0.066 C 
ATOM     20  C   UNL A   1      34.480  21.371  24.638  1.00  0.00     0.066 C 
ATOM     21  C   UNL A   1      35.407  22.067  25.647  1.00  0.00     0.005 C 
BRANCH  21  22
ATOM     22  C   UNL A   1      36.809  22.453  24.986  1.00  0.00    -0.035 C 
ATOM     23  C   UNL A   1      37.798  21.287  25.153  1.00  0.00     0.011 C 
ATOM     24  C   UNL A   1      36.641  22.737  23.474  1.00  0.00     0.011 C 
ATOM     25  C   UNL A   1      37.490  23.708  25.580  1.00  0.00     0.011 C 
ENDBRANCH  21  22
ENDBRANCH   9  15
ENDBRANCH   3   5
ENDBRANCH   2   3
ENDBRANCH   1   2
BRANCH   1  26
ATOM     26  C   UNL A   1      31.817  29.662  26.377  1.00  0.00     0.275 C 
BRANCH  26  27
ATOM     27  O   UNL A   1      33.192  30.069  26.298  1.00  0.00    -0.458 OA
BRANCH  27  28
ATOM     28  C   UNL A   1      33.477  31.194  26.996  1.00  0.00     0.338 C 
ATOM     29  O   UNL A   1      32.744  32.146  27.209  1.00  0.00    -0.246 OA
BRANCH  28  30
ATOM     30  C   UNL A   1      34.745  30.959  27.703  1.00  0.00     0.060 A 
ATOM     31  C   UNL A   1      35.030  29.645  28.078  1.00  0.00     0.016 A 
ATOM     32  C   UNL A   1      35.658  31.984  27.952  1.00  0.00     0.016 A 
ATOM     33  C   UNL A   1      36.242  29.339  28.686  1.00  0.00     0.010 A 
ATOM     34  C   UNL A   1      36.864  31.683  28.588  1.00  0.00     0.010 A 
ATOM     35  C   UNL A   1      37.157  30.359  28.959  1.00  0.00    -0.014 A 
BRANCH  35  36
ATOM     36  C   UNL A   1      38.344  30.062  29.786  1.00  0.00     0.031 A 
ATOM     37  C   UNL A   1      39.385  29.147  29.219  1.00  0.00     0.074 A 
ATOM     38  C   UNL A   1      38.505  30.622  30.998  1.00  0.00     0.049 A 
ATOM     39  N   UNL A   1      40.459  28.657  29.780  1.00  0.00    -0.248 NA
ATOM     40  C   UNL A   1      39.184  28.724  27.823  1.00  0.00     0.031 C 
ATOM     41  C   UNL A   1      37.589  31.579  31.613  1.00  0.00     0.029 A 
ATOM     42  N   UNL A   1      39.503  30.465  31.927  1.00  0.00    -0.354 N 
ATOM     43  C   UNL A   1      41.054  27.860  28.812  1.00  0.00     0.074 A 
ATOM     44  C   UNL A   1      40.217  27.919  27.634  1.00  0.00     0.031 C 
ATOM     45  C   UNL A   1      38.072  31.935  32.816  1.00  0.00     0.029 A 
ATOM     46  C   UNL A   1      39.292  31.177  33.083  1.00  0.00     0.049 A 
ATOM     47  H   UNL A   1      40.294  29.899  31.779  1.00  0.00     0.167 HD
ATOM     48  C   UNL A   1      42.196  27.141  28.907  1.00  0.00     0.037 A 
ATOM     49  C   UNL A   1      39.990  31.174  34.236  1.00  0.00     0.037 A 
ATOM     50  C   UNL A   1      43.002  27.072  30.095  1.00  0.00     0.049 A 
ATOM     51  C   UNL A   1      41.200  30.278  34.349  1.00  0.00     0.074 A 
ATOM     52  C   UNL A   1      44.150  26.333  30.320  1.00  0.00     0.029 A 
ATOM     53  N   UNL A   1      42.735  27.766  31.267  1.00  0.00    -0.354 N 
ATOM     54  N   UNL A   1      41.746  29.501  33.445  1.00  0.00    -0.248 NA
ATOM     55  C   UNL A   1      41.880  30.248  35.651  1.00  0.00     0.031 C 
ATOM     56  C   UNL A   1      44.550  26.545  31.644  1.00  0.00     0.029 A 
ATOM     57  C   UNL A   1      43.688  27.462  32.225  1.00  0.00     0.049 A 
ATOM     58  H   UNL A   1      41.980  28.384  31.398  1.00  0.00     0.167 HD
ATOM     59  C   UNL A   1      42.846  28.914  34.056  1.00  0.00     0.074 A 
ATOM     60  C   UNL A   1      42.902  29.441  35.404  1.00  0.00     0.031 C 
ATOM     61  C   UNL A   1      43.731  28.017  33.554  1.00  0.00     0.037 A 
BRANCH  48  62
ATOM     62  C   UNL A   1      42.598  26.339  27.706  1.00  0.00     0.064 A 
ATOM     63  C   UNL A   1      42.038  25.080  27.437  1.00  0.00     0.173 A 
ATOM     64  C   UNL A   1      43.561  26.832  26.814  1.00  0.00     0.173 A 
ATOM     65  F   UNL A   1      41.131  24.553  28.273  1.00  0.00    -0.203 F 
ATOM     66  C   UNL A   1      42.449  24.333  26.336  1.00  0.00     0.198 A 
ATOM     67  C   UNL A   1      43.947  26.097  25.696  1.00  0.00     0.198 A 
ATOM     68  F   UNL A   1      44.131  28.028  27.026  1.00  0.00    -0.203 F 
ATOM     69  F   UNL A   1      41.942  23.110  26.130  1.00  0.00    -0.200 F 
ATOM     70  C   UNL A   1      43.397  24.845  25.463  1.00  0.00     0.200 A 
ATOM     71  F   UNL A   1      44.858  26.597  24.850  1.00  0.00    -0.200 F 
ATOM     72  F   UNL A   1      43.791  24.128  24.402  1.00  0.00    -0.200 F 
ENDBRANCH  48  62
BRANCH  49  73
ATOM     73  C   UNL A   1      39.546  31.998  35.394  1.00  0.00     0.064 A 
ATOM     74  C   UNL A   1      38.634  31.497  36.334  1.00  0.00     0.173 A 
ATOM     75  C   UNL A   1      39.977  33.324  35.555  1.00  0.00     0.173 A 
ATOM     76  F   UNL A   1      38.167  30.245  36.212  1.00  0.00    -0.203 F 
ATOM     77  C   UNL A   1      38.147  32.297  37.368  1.00  0.00     0.198 A 
ATOM     78  C   UNL A   1      39.518  34.111  36.610  1.00  0.00     0.198 A 
ATOM     79  F   UNL A   1      40.843  33.861  34.682  1.00  0.00    -0.203 F 
ATOM     80  F   UNL A   1      37.224  31.811  38.209  1.00  0.00    -0.200 F 
ATOM     81  C   UNL A   1      38.594  33.602  37.507  1.00  0.00     0.200 A 
ATOM     82  F   UNL A   1      39.960  35.369  36.745  1.00  0.00    -0.200 F 
ATOM     83  F   UNL A   1      38.120  34.373  38.495  1.00  0.00    -0.200 F 
ENDBRANCH  49  73
BRANCH  61  84
ATOM     84  C   UNL A   1      44.862  27.592  34.446  1.00  0.00     0.064 A 
ATOM     85  C   UNL A   1      44.774  26.457  35.265  1.00  0.00     0.173 A 
ATOM     86  C   UNL A   1      46.067  28.311  34.448  1.00  0.00     0.173 A 
ATOM     87  F   UNL A   1      43.638  25.743  35.311  1.00  0.00    -0.203 F 
ATOM     88  C   UNL A   1      45.840  26.076  36.077  1.00  0.00     0.198 A 
ATOM     89  C   UNL A   1      47.143  27.907  35.234  1.00  0.00     0.198 A 
ATOM     90  F   UNL A   1      46.207  29.399  33.676  1.00  0.00    -0.203 F 
ATOM     91  F   UNL A   1      45.714  25.019  36.892  1.00  0.00    -0.200 F 
ATOM     92  C   UNL A   1      47.025  26.796  36.053  1.00  0.00     0.200 A 
ATOM     93  F   UNL A   1      48.293  28.593  35.196  1.00  0.00    -0.200 F 
ATOM     94  F   UNL A   1      48.052  26.422  36.828  1.00  0.00    -0.200 F 
ENDBRANCH  61  84
ENDBRANCH  35  36
ENDBRANCH  28  30
ENDBRANCH  27  28
ENDBRANCH  26  27
ENDBRANCH   1  26
TORSDOF 15
ENDMDL
MODEL 2
REMARK VINA RESULT:     -11.5      4.196      9.593
REMARK SMILES CC[NH2+][C@@]1(C(=O)OCCOC(=O)c2ccc(-c3c4nc(c(-c5c(F)c(F)c(F)c(F)c5F)c5ccc([nH]5)c(-c5c(F)c(F)c(F)c(F)c5F)c5nc(c(-c6c(F)c(F)c(F)c(F)c6F)c6ccc3[nH]6)C=C5)C=C4)cc2)CC[C@H]([NH+]2CCC(C(C)(C)C)CC2)C1
REMARK SMILES IDX 8 1 7 2 5 3 6 4 4 5 76 6 89 7 77 8 78 9 3 10 2 13 1 14 79 15
REMARK SMILES IDX 80 16 88 17 81 19 87 20 82 21 83 22 84 23 85 24 86 25 9 26
REMARK SMILES IDX 10 27 11 28 12 29 13 30 14 31 75 32 15 33 74 34 16 35 17 36
REMARK SMILES IDX 18 37 68 38 19 39 73 40 67 41 69 42 20 43 72 44 66 45 65 46
REMARK SMILES IDX 21 48 53 49 33 50 52 51 34 52 37 53 51 54 70 55 35 56 36 57
REMARK SMILES IDX 50 59 71 60 38 61 22 62 23 63 31 64 24 65 25 66 29 67 32 68
REMARK SMILES IDX 26 69 27 70 30 71 28 72 54 73 55 74 63 75 56 76 57 77 61 78
REMARK SMILES IDX 64 79 58 80 59 81 62 82 60 83 39 84 40 85 48 86 41 87 42 88
REMARK SMILES IDX 46 89 49 90 43 91 44 92 47 93 45 94
REMARK H PARENT 3 11 3 12 79 18 69 47 37 58
REMARK Flexibility Score: inf
ROOT
ATOM      1  C   UNL A   1      35.163  21.484  24.767  1.00  0.00     0.274 C 
ENDROOT
BRANCH   1   2
ATOM      2  O   UNL A   1      34.651  22.831  24.718  1.00  0.00    -0.457 OA
BRANCH   2   3
ATOM      3  C   UNL A   1      33.605  23.080  23.877  1.00  0.00     0.368 C 
ATOM      4  O   UNL A   1      33.695  23.015  22.655  1.00  0.00    -0.245 OA
BRANCH   3   5
ATOM      5  C   UNL A   1      32.284  23.387  24.665  1.00  0.00     0.200 C 
ATOM      6  C   UNL A   1      30.997  23.328  23.829  1.00  0.00     0.087 C 
ATOM      7  C   UNL A   1      32.249  24.859  25.171  1.00  0.00     0.146 C 
ATOM      8  C   UNL A   1      30.808  24.696  23.214  1.00  0.00     0.072 C 
ATOM      9  C   UNL A   1      31.551  25.714  24.070  1.00  0.00     0.191 C 
BRANCH   5  10
ATOM     10  N   UNL A   1      32.172  22.374  25.764  1.00  0.00    -0.332 N 
ATOM     11  H   UNL A   1      31.311  21.843  25.631  1.00  0.00     0.347 HD
ATOM     12  H   UNL A   1      32.997  21.776  25.714  1.00  0.00     0.347 HD
BRANCH  10  13
ATOM     13  C   UNL A   1      32.147  22.986  27.106  1.00  0.00     0.257 C 
ATOM     14  C   UNL A   1      33.282  22.459  27.965  1.00  0.00     0.071 C 
ENDBRANCH  10  13
ENDBRANCH   5  10
BRANCH   9  15
ATOM     15  N   UNL A   1      32.292  26.753  23.327  1.00  0.00    -0.332 N 
ATOM     16  C   UNL A   1      33.653  27.052  23.795  1.00  0.00     0.262 C 
ATOM     17  C   UNL A   1      31.638  28.004  22.987  1.00  0.00     0.262 C 
ATOM     18  H   UNL A   1      32.333  26.221  22.458  1.00  0.00     0.348 HD
ATOM     19  C   UNL A   1      33.780  28.056  24.965  1.00  0.00     0.066 C 
ATOM     20  C   UNL A   1      31.486  28.936  24.180  1.00  0.00     0.066 C 
ATOM     21  C   UNL A   1      32.762  29.229  24.983  1.00  0.00     0.005 C 
BRANCH  21  22
ATOM     22  C   UNL A   1      32.423  29.801  26.436  1.00  0.00    -0.035 C 
ATOM     23  C   UNL A   1      31.431  30.969  26.314  1.00  0.00     0.011 C 
ATOM     24  C   UNL A   1      31.779  28.705  27.319  1.00  0.00     0.011 C 
ATOM     25  C   UNL A   1      33.639  30.327  27.233  1.00  0.00     0.011 C 
ENDBRANCH  21  22
ENDBRANCH   9  15
ENDBRANCH   3   5
ENDBRANCH   2   3
ENDBRANCH   1   2
BRANCH   1  26
ATOM     26  C   UNL A   1      36.689  21.517  24.607  1.00  0.00     0.275 C 
BRANCH  26  27
ATOM     27  O   UNL A   1      37.265  22.020  25.823  1.00  0.00    -0.458 OA
BRANCH  27  28
ATOM     28  C   UNL A   1      38.527  21.590  26.056  1.00  0.00     0.338 C 
ATOM     29  O   UNL A   1      39.018  20.515  25.752  1.00  0.00    -0.246 OA
BRANCH  28  30
ATOM     30  C   UNL A   1      39.310  22.753  26.501  1.00  0.00     0.060 A 
ATOM     31  C   UNL A   1      38.888  24.009  26.062  1.00  0.00     0.016 A 
ATOM     32  C   UNL A   1      40.398  22.630  27.365  1.00  0.00     0.016 A 
ATOM     33  C   UNL A   1      39.537  25.157  26.501  1.00  0.00     0.010 A 
ATOM     34  C   UNL A   1      41.069  23.780  27.784  1.00  0.00     0.010 A 
ATOM     35  C   UNL A   1      40.641  25.047  27.350  1.00  0.00    -0.014 A 
BRANCH  35  36
ATOM     36  C   UNL A   1      41.449  26.249  27.644  1.00  0.00     0.031 A 
ATOM     37  C   UNL A   1      40.813  27.344  28.442  1.00  0.00     0.074 A 
ATOM     38  C   UNL A   1      42.727  26.343  27.238  1.00  0.00     0.049 A 
ATOM     39  N   UNL A   1      41.274  28.530  28.744  1.00  0.00    -0.248 NA
ATOM     40  C   UNL A   1      39.468  27.063  28.972  1.00  0.00     0.031 C 
ATOM     41  C   UNL A   1      43.462  25.308  26.517  1.00  0.00     0.029 A 
ATOM     42  N   UNL A   1      43.633  27.364  27.379  1.00  0.00    -0.354 N 
ATOM     43  C   UNL A   1      40.273  29.139  29.487  1.00  0.00     0.074 A 
ATOM     44  C   UNL A   1      39.175  28.202  29.579  1.00  0.00     0.031 C 
ATOM     45  C   UNL A   1      44.714  25.740  26.287  1.00  0.00     0.029 A 
ATOM     46  C   UNL A   1      44.844  27.109  26.781  1.00  0.00     0.049 A 
ATOM     47  H   UNL A   1      43.436  28.198  27.862  1.00  0.00     0.167 HD
ATOM     48  C   UNL A   1      40.274  30.375  30.038  1.00  0.00     0.037 A 
ATOM     49  C   UNL A   1      45.912  27.914  26.619  1.00  0.00     0.037 A 
ATOM     50  C   UNL A   1      41.362  31.305  29.914  1.00  0.00     0.049 A 
ATOM     51  C   UNL A   1      45.843  29.325  27.151  1.00  0.00     0.074 A 
ATOM     52  C   UNL A   1      41.450  32.602  30.386  1.00  0.00     0.029 A 
ATOM     53  N   UNL A   1      42.557  31.034  29.260  1.00  0.00    -0.354 N 
ATOM     54  N   UNL A   1      44.885  29.913  27.827  1.00  0.00    -0.248 NA
ATOM     55  C   UNL A   1      46.999  30.191  26.880  1.00  0.00     0.031 C 
ATOM     56  C   UNL A   1      42.679  33.132  29.976  1.00  0.00     0.029 A 
ATOM     57  C   UNL A   1      43.382  32.145  29.301  1.00  0.00     0.049 A 
ATOM     58  H   UNL A   1      42.784  30.178  28.830  1.00  0.00     0.167 HD
ATOM     59  C   UNL A   1      45.333  31.202  28.087  1.00  0.00     0.074 A 
ATOM     60  C   UNL A   1      46.658  31.304  27.513  1.00  0.00     0.031 C 
ATOM     61  C   UNL A   1      44.707  32.214  28.737  1.00  0.00     0.037 A 
BRANCH  48  62
ATOM     62  C   UNL A   1      39.037  30.796  30.773  1.00  0.00     0.064 A 
ATOM     63  C   UNL A   1      38.911  30.630  32.161  1.00  0.00     0.173 A 
ATOM     64  C   UNL A   1      37.961  31.370  30.081  1.00  0.00     0.173 A 
ATOM     65  F   UNL A   1      39.902  30.063  32.866  1.00  0.00    -0.203 F 
ATOM     66  C   UNL A   1      37.741  30.995  32.823  1.00  0.00     0.198 A 
ATOM     67  C   UNL A   1      36.805  31.764  30.750  1.00  0.00     0.198 A 
ATOM     68  F   UNL A   1      38.029  31.549  28.753  1.00  0.00    -0.203 F 
ATOM     69  F   UNL A   1      37.620  30.775  34.139  1.00  0.00    -0.200 F 
ATOM     70  C   UNL A   1      36.693  31.568  32.118  1.00  0.00     0.200 A 
ATOM     71  F   UNL A   1      35.797  32.325  30.068  1.00  0.00    -0.200 F 
ATOM     72  F   UNL A   1      35.568  31.922  32.755  1.00  0.00    -0.200 F 
ENDBRANCH  48  62
BRANCH  49  73
ATOM     73  C   UNL A   1      47.117  27.439  25.885  1.00  0.00     0.064 A 
ATOM     74  C   UNL A   1      48.189  26.839  26.561  1.00  0.00     0.173 A 
ATOM     75  C   UNL A   1      47.251  27.628  24.501  1.00  0.00     0.173 A 
ATOM     76  F   UNL A   1      48.127  26.661  27.889  1.00  0.00    -0.203 F 
ATOM     77  C   UNL A   1      49.356  26.477  25.889  1.00  0.00     0.198 A 
ATOM     78  C   UNL A   1      48.403  27.232  23.823  1.00  0.00     0.198 A 
ATOM     79  F   UNL A   1      46.260  28.204  23.801  1.00  0.00    -0.203 F 
ATOM     80  F   UNL A   1      50.391  25.970  26.574  1.00  0.00    -0.200 F 
ATOM     81  C   UNL A   1      49.460  26.670  24.520  1.00  0.00     0.200 A 
ATOM     82  F   UNL A   1      48.493  27.412  22.498  1.00  0.00    -0.200 F 
ATOM     83  F   UNL A   1      50.584  26.329  23.875  1.00  0.00    -0.200 F 
ENDBRANCH  49  73
BRANCH  61  84
ATOM     84  C   UNL A   1      45.468  33.497  28.910  1.00  0.00     0.064 A 
ATOM     85  C   UNL A   1      45.374  34.545  27.982  1.00  0.00     0.173 A 
ATOM     86  C   UNL A   1      46.271  33.694  30.043  1.00  0.00     0.173 A 
ATOM     87  F   UNL A   1      44.631  34.401  26.874  1.00  0.00    -0.203 F 
ATOM     88  C   UNL A   1      46.081  35.730  28.168  1.00  0.00     0.198 A 
ATOM     89  C   UNL A   1      46.948  34.893  30.244  1.00  0.00     0.198 A 
ATOM     90  F   UNL A   1      46.388  32.727  30.967  1.00  0.00    -0.203 F 
ATOM     91  F   UNL A   1      46.020  36.697  27.241  1.00  0.00    -0.200 F 
ATOM     92  C   UNL A   1      46.860  35.906  29.302  1.00  0.00     0.200 A 
ATOM     93  F   UNL A   1      47.686  35.068  31.349  1.00  0.00    -0.200 F 
ATOM     94  F   UNL A   1      47.532  37.051  29.483  1.00  0.00    -0.200 F 
ENDBRANCH  61  84
ENDBRANCH  35  36
ENDBRANCH  28  30
ENDBRANCH  27  28
ENDBRANCH  26  27
ENDBRANCH   1  26
TORSDOF 15
ENDMDL
MODEL 3
REMARK VINA RESULT:     -11.5      4.210      9.537
REMARK SMILES CC[NH2+][C@@]1(C(=O)OCCOC(=O)c2ccc(-c3c4nc(c(-c5c(F)c(F)c(F)c(F)c5F)c5ccc([nH]5)c(-c5c(F)c(F)c(F)c(F)c5F)c5nc(c(-c6c(F)c(F)c(F)c(F)c6F)c6ccc3[nH]6)C=C5)C=C4)cc2)CC[C@H]([NH+]2CCC(C(C)(C)C)CC2)C1
REMARK SMILES IDX 8 1 7 2 5 3 6 4 4 5 76 6 89 7 77 8 78 9 3 10 2 13 1 14 79 15
REMARK SMILES IDX 80 16 88 17 81 19 87 20 82 21 83 22 84 23 85 24 86 25 9 26
REMARK SMILES IDX 10 27 11 28 12 29 13 30 14 31 75 32 15 33 74 34 16 35 17 36
REMARK SMILES IDX 18 37 68 38 19 39 73 40 67 41 69 42 20 43 72 44 66 45 65 46
REMARK SMILES IDX 21 48 53 49 33 50 52 51 34 52 37 53 51 54 70 55 35 56 36 57
REMARK SMILES IDX 50 59 71 60 38 61 22 62 23 63 31 64 24 65 25 66 29 67 32 68
REMARK SMILES IDX 26 69 27 70 30 71 28 72 54 73 55 74 63 75 56 76 57 77 61 78
REMARK SMILES IDX 64 79 58 80 59 81 62 82 60 83 39 84 40 85 48 86 41 87 42 88
REMARK SMILES IDX 46 89 49 90 43 91 44 92 47 93 45 94
REMARK H PARENT 3 11 3 12 79 18 69 47 37 58
REMARK Flexibility Score: inf
ROOT
ATOM      1  C   UNL A   1      36.298  22.385  23.532  1.00  0.00     0.274 C 
ENDROOT
BRANCH   1   2
ATOM      2  O   UNL A   1      35.204  22.944  24.287  1.00  0.00    -0.457 OA
BRANCH   2   3
ATOM      3  C   UNL A   1      34.144  23.443  23.588  1.00  0.00     0.368 C 
ATOM      4  O   UNL A   1      34.216  23.787  22.413  1.00  0.00    -0.245 OA
BRANCH   3   5
ATOM      5  C   UNL A   1      32.832  23.458  24.450  1.00  0.00     0.200 C 
ATOM      6  C   UNL A   1      31.538  23.176  23.672  1.00  0.00     0.087 C 
ATOM      7  C   UNL A   1      32.540  24.875  25.022  1.00  0.00     0.146 C 
ATOM      8  C   UNL A   1      31.054  24.501  23.128  1.00  0.00     0.072 C 
ATOM      9  C   UNL A   1      31.630  25.615  23.994  1.00  0.00     0.191 C 
BRANCH   5  10
ATOM     10  N   UNL A   1      32.980  22.404  25.506  1.00  0.00    -0.332 N 
ATOM     11  H   UNL A   1      32.268  21.690  25.354  1.00  0.00     0.347 HD
ATOM     12  H   UNL A   1      33.922  22.022  25.428  1.00  0.00     0.347 HD
BRANCH  10  13
ATOM     13  C   UNL A   1      32.828  22.939  26.872  1.00  0.00     0.257 C 
ATOM     14  C   UNL A   1      34.029  22.587  27.730  1.00  0.00     0.071 C 
ENDBRANCH  10  13
ENDBRANCH   5  10
BRANCH   9  15
ATOM     15  N   UNL A   1      32.114  26.805  23.264  1.00  0.00    -0.332 N 
ATOM     16  C   UNL A   1      33.503  27.213  23.520  1.00  0.00     0.262 C 
ATOM     17  C   UNL A   1      31.289  27.997  23.200  1.00  0.00     0.262 C 
ATOM     18  H   UNL A   1      32.043  26.372  22.344  1.00  0.00     0.348 HD
ATOM     19  C   UNL A   1      33.748  28.099  24.763  1.00  0.00     0.066 C 
ATOM     20  C   UNL A   1      31.273  28.778  24.506  1.00  0.00     0.066 C 
ATOM     21  C   UNL A   1      32.643  29.136  25.103  1.00  0.00     0.005 C 
BRANCH  21  22
ATOM     22  C   UNL A   1      32.529  29.513  26.650  1.00  0.00    -0.035 C 
ATOM     23  C   UNL A   1      33.934  29.590  27.269  1.00  0.00     0.011 C 
ATOM     24  C   UNL A   1      31.842  30.889  26.829  1.00  0.00     0.011 C 
ATOM     25  C   UNL A   1      31.714  28.518  27.510  1.00  0.00     0.011 C 
ENDBRANCH  21  22
ENDBRANCH   9  15
ENDBRANCH   3   5
ENDBRANCH   2   3
ENDBRANCH   1   2
BRANCH   1  26
ATOM     26  C   UNL A   1      37.064  21.388  24.413  1.00  0.00     0.275 C 
BRANCH  26  27
ATOM     27  O   UNL A   1      37.465  22.058  25.618  1.00  0.00    -0.458 OA
BRANCH  27  28
ATOM     28  C   UNL A   1      38.650  21.633  26.119  1.00  0.00     0.338 C 
ATOM     29  O   UNL A   1      39.151  20.525  26.014  1.00  0.00    -0.246 OA
BRANCH  28  30
ATOM     30  C   UNL A   1      39.378  22.823  26.584  1.00  0.00     0.060 A 
ATOM     31  C   UNL A   1      38.962  24.059  26.088  1.00  0.00     0.016 A 
ATOM     32  C   UNL A   1      40.410  22.743  27.521  1.00  0.00     0.016 A 
ATOM     33  C   UNL A   1      39.558  25.231  26.539  1.00  0.00     0.010 A 
ATOM     34  C   UNL A   1      41.029  23.917  27.953  1.00  0.00     0.010 A 
ATOM     35  C   UNL A   1      40.606  25.164  27.461  1.00  0.00    -0.014 A 
BRANCH  35  36
ATOM     36  C   UNL A   1      41.369  26.389  27.777  1.00  0.00     0.031 A 
ATOM     37  C   UNL A   1      40.681  27.461  28.565  1.00  0.00     0.074 A 
ATOM     38  C   UNL A   1      42.652  26.525  27.401  1.00  0.00     0.049 A 
ATOM     39  N   UNL A   1      41.097  28.659  28.881  1.00  0.00    -0.248 NA
ATOM     40  C   UNL A   1      39.334  27.136  29.063  1.00  0.00     0.031 C 
ATOM     41  C   UNL A   1      43.435  25.516  26.694  1.00  0.00     0.029 A 
ATOM     42  N   UNL A   1      43.522  27.573  27.566  1.00  0.00    -0.354 N 
ATOM     43  C   UNL A   1      40.061  29.234  29.603  1.00  0.00     0.074 A 
ATOM     44  C   UNL A   1      38.991  28.263  29.667  1.00  0.00     0.031 C 
ATOM     45  C   UNL A   1      44.678  25.988  26.493  1.00  0.00     0.029 A 
ATOM     46  C   UNL A   1      44.754  27.358  26.994  1.00  0.00     0.049 A 
ATOM     47  H   UNL A   1      43.288  28.399  28.047  1.00  0.00     0.167 HD
ATOM     48  C   UNL A   1      40.011  30.467  30.157  1.00  0.00     0.037 A 
ATOM     49  C   UNL A   1      45.800  28.197  26.860  1.00  0.00     0.037 A 
ATOM     50  C   UNL A   1      41.073  31.431  30.061  1.00  0.00     0.049 A 
ATOM     51  C   UNL A   1      45.674  29.603  27.394  1.00  0.00     0.074 A 
ATOM     52  C   UNL A   1      41.110  32.729  30.539  1.00  0.00     0.029 A 
ATOM     53  N   UNL A   1      42.290  31.200  29.434  1.00  0.00    -0.354 N 
ATOM     54  N   UNL A   1      44.684  30.158  28.050  1.00  0.00    -0.248 NA
ATOM     55  C   UNL A   1      46.809  30.505  27.152  1.00  0.00     0.031 C 
ATOM     56  C   UNL A   1      42.330  33.298  30.159  1.00  0.00     0.029 A 
ATOM     57  C   UNL A   1      43.079  32.336  29.498  1.00  0.00     0.049 A 
ATOM     58  H   UNL A   1      42.553  30.353  29.006  1.00  0.00     0.167 HD
ATOM     59  C   UNL A   1      45.085  31.459  28.325  1.00  0.00     0.074 A 
ATOM     60  C   UNL A   1      46.419  31.605  27.781  1.00  0.00     0.031 C 
ATOM     61  C   UNL A   1      44.413  32.448  28.964  1.00  0.00     0.037 A 
BRANCH  48  62
ATOM     62  C   UNL A   1      38.746  30.846  30.866  1.00  0.00     0.064 A 
ATOM     63  C   UNL A   1      37.631  31.343  30.172  1.00  0.00     0.173 A 
ATOM     64  C   UNL A   1      38.646  30.716  32.259  1.00  0.00     0.173 A 
ATOM     65  F   UNL A   1      37.684  31.509  28.842  1.00  0.00    -0.203 F 
ATOM     66  C   UNL A   1      36.476  31.723  30.851  1.00  0.00     0.198 A 
ATOM     67  C   UNL A   1      37.479  31.067  32.931  1.00  0.00     0.198 A 
ATOM     68  F   UNL A   1      39.684  30.250  32.970  1.00  0.00    -0.203 F 
ATOM     69  F   UNL A   1      35.445  32.247  30.174  1.00  0.00    -0.200 F 
ATOM     70  C   UNL A   1      36.398  31.578  32.227  1.00  0.00     0.200 A 
ATOM     71  F   UNL A   1      37.403  30.918  34.260  1.00  0.00    -0.200 F 
ATOM     72  F   UNL A   1      35.286  31.941  32.880  1.00  0.00    -0.200 F 
ENDBRANCH  48  62
BRANCH  49  73
ATOM     73  C   UNL A   1      47.035  27.762  26.152  1.00  0.00     0.064 A 
ATOM     74  C   UNL A   1      47.123  27.803  24.753  1.00  0.00     0.173 A 
ATOM     75  C   UNL A   1      48.134  27.241  26.853  1.00  0.00     0.173 A 
ATOM     76  F   UNL A   1      46.091  28.265  24.031  1.00  0.00    -0.203 F 
ATOM     77  C   UNL A   1      48.243  27.312  24.083  1.00  0.00     0.198 A 
ATOM     78  C   UNL A   1      49.269  26.784  26.185  1.00  0.00     0.198 A 
ATOM     79  F   UNL A   1      48.105  27.169  28.193  1.00  0.00    -0.203 F 
ATOM     80  F   UNL A   1      48.268  27.301  22.743  1.00  0.00    -0.200 F 
ATOM     81  C   UNL A   1      49.317  26.807  24.801  1.00  0.00     0.200 A 
ATOM     82  F   UNL A   1      50.308  26.306  26.884  1.00  0.00    -0.200 F 
ATOM     83  F   UNL A   1      50.390  26.328  24.157  1.00  0.00    -0.200 F 
ENDBRANCH  49  73
BRANCH  61  84
ATOM     84  C   UNL A   1      45.129  33.754  29.158  1.00  0.00     0.064 A 
ATOM     85  C   UNL A   1      45.945  33.994  30.274  1.00  0.00     0.173 A 
ATOM     86  C   UNL A   1      45.030  34.764  28.189  1.00  0.00     0.173 A 
ATOM     87  F   UNL A   1      46.062  33.066  31.236  1.00  0.00    -0.203 F 
ATOM     88  C   UNL A   1      46.608  35.209  30.428  1.00  0.00     0.198 A 
ATOM     89  C   UNL A   1      45.722  35.964  28.328  1.00  0.00     0.198 A 
ATOM     90  F   UNL A   1      44.271  34.582  27.097  1.00  0.00    -0.203 F 
ATOM     91  F   UNL A   1      47.337  35.437  31.528  1.00  0.00    -0.200 F 
ATOM     92  C   UNL A   1      46.503  36.188  29.451  1.00  0.00     0.200 A 
ATOM     93  F   UNL A   1      45.634  36.901  27.375  1.00  0.00    -0.200 F 
ATOM     94  F   UNL A   1      47.149  37.352  29.596  1.00  0.00    -0.200 F 
ENDBRANCH  61  84
ENDBRANCH  35  36
ENDBRANCH  28  30
ENDBRANCH  27  28
ENDBRANCH  26  27
ENDBRANCH   1  26
TORSDOF 15
ENDMDL
