MODEL 1
REMARK VINA RESULT:     -10.8      0.000      0.000
REMARK SMILES CCN(C(=O)N[C@@H]1CCOC1)[C@H]1COC[C@H]1C(=O)OCCOC(=O)c1ccc(-c2c3nc(c(-c4c(F)c(F)c(F)c(F)c4F)c4ccc([nH]4)c(-c4c(F)c(F)c(F)c(F)c4F)c4nc(c(-c5c(F)c(F)c(F)c(F)c5F)c5ccc2[nH]5)C=C4)C=C3)cc1
REMARK SMILES IDX 20 1 19 2 17 3 18 4 16 5 12 6 13 7 14 8 15 9 3 10 2 11 1 12
REMARK SMILES IDX 4 13 5 14 6 15 7 17 8 18 11 19 9 20 10 21 21 22 22 23 23 24
REMARK SMILES IDX 24 25 25 26 26 27 87 28 27 29 86 30 28 31 29 32 30 33 80 34
REMARK SMILES IDX 31 35 85 36 79 37 81 38 32 39 84 40 78 41 77 42 33 44 65 45
REMARK SMILES IDX 45 46 64 47 46 48 49 49 63 50 82 51 47 52 48 53 62 55 83 56
REMARK SMILES IDX 50 57 34 58 35 59 43 60 36 61 37 62 41 63 44 64 38 65 39 66
REMARK SMILES IDX 42 67 40 68 66 69 67 70 75 71 68 72 69 73 73 74 76 75 70 76
REMARK SMILES IDX 71 77 74 78 72 79 51 80 52 81 60 82 53 83 54 84 58 85 61 86
REMARK SMILES IDX 55 87 56 88 59 89 57 90
REMARK H PARENT 6 16 81 43 49 54
REMARK Flexibility Score: inf
ROOT
ATOM      1  C   UNL A   1      32.049  28.602  24.061  1.00  0.00     0.274 C 
ENDROOT
BRANCH   1   2
ATOM      2  O   UNL A   1      32.645  27.291  24.165  1.00  0.00    -0.462 OA
BRANCH   2   3
ATOM      3  C   UNL A   1      32.878  26.671  22.993  1.00  0.00     0.313 C 
ATOM      4  O   UNL A   1      33.363  27.229  22.009  1.00  0.00    -0.252 OA
BRANCH   3   5
ATOM      5  C   UNL A   1      32.501  25.217  22.927  1.00  0.00     0.150 C 
ATOM      6  C   UNL A   1      33.204  24.004  23.554  1.00  0.00     0.129 C 
ATOM      7  C   UNL A   1      32.225  22.959  22.983  1.00  0.00     0.186 C 
ATOM      8  O   UNL A   1      30.902  23.515  23.157  1.00  0.00    -0.378 OA
ATOM      9  C   UNL A   1      31.049  24.950  23.234  1.00  0.00     0.177 C 
BRANCH   6  10
ATOM     10  N   UNL A   1      33.306  23.969  25.040  1.00  0.00    -0.319 N 
BRANCH  10  11
ATOM     11  C   UNL A   1      32.891  22.757  25.758  1.00  0.00     0.118 C 
ATOM     12  C   UNL A   1      31.734  22.951  26.727  1.00  0.00     0.027 C 
ENDBRANCH  10  11
BRANCH  10  13
ATOM     13  C   UNL A   1      34.398  24.611  25.607  1.00  0.00     0.318 C 
ATOM     14  O   UNL A   1      34.327  25.720  26.121  1.00  0.00    -0.249 OA
ATOM     15  N   UNL A   1      35.465  23.786  25.838  1.00  0.00    -0.333 N 
ATOM     16  H   UNL A   1      35.463  23.240  26.657  1.00  0.00     0.165 HD
BRANCH  15  17
ATOM     17  C   UNL A   1      36.611  23.669  24.935  1.00  0.00     0.112 C 
ATOM     18  C   UNL A   1      36.465  22.491  23.997  1.00  0.00     0.056 C 
ATOM     19  C   UNL A   1      37.880  23.249  25.684  1.00  0.00     0.185 C 
ATOM     20  C   UNL A   1      36.863  21.322  24.871  1.00  0.00     0.162 C 
ATOM     21  O   UNL A   1      37.849  21.814  25.790  1.00  0.00    -0.379 OA
ENDBRANCH  15  17
ENDBRANCH  10  13
ENDBRANCH   6  10
ENDBRANCH   3   5
ENDBRANCH   2   3
ENDBRANCH   1   2
BRANCH   1  22
ATOM     22  C   UNL A   1      32.003  29.274  25.436  1.00  0.00     0.275 C 
BRANCH  22  23
ATOM     23  O   UNL A   1      33.221  30.006  25.653  1.00  0.00    -0.458 OA
BRANCH  23  24
ATOM     24  C   UNL A   1      33.191  30.880  26.684  1.00  0.00     0.338 C 
ATOM     25  O   UNL A   1      32.351  31.733  26.910  1.00  0.00    -0.246 OA
BRANCH  24  26
ATOM     26  C   UNL A   1      34.442  30.749  27.461  1.00  0.00     0.060 A 
ATOM     27  C   UNL A   1      35.318  31.822  27.653  1.00  0.00     0.016 A 
ATOM     28  C   UNL A   1      34.739  29.497  28.001  1.00  0.00     0.016 A 
ATOM     29  C   UNL A   1      36.505  31.638  28.368  1.00  0.00     0.010 A 
ATOM     30  C   UNL A   1      35.898  29.326  28.757  1.00  0.00     0.010 A 
ATOM     31  C   UNL A   1      36.799  30.389  28.934  1.00  0.00    -0.014 A 
BRANCH  31  32
ATOM     32  C   UNL A   1      38.048  30.152  29.701  1.00  0.00     0.031 A 
ATOM     33  C   UNL A   1      39.093  29.226  29.146  1.00  0.00     0.074 A 
ATOM     34  C   UNL A   1      38.207  30.699  30.920  1.00  0.00     0.049 A 
ATOM     35  N   UNL A   1      40.153  28.722  29.727  1.00  0.00    -0.248 NA
ATOM     36  C   UNL A   1      38.911  28.796  27.750  1.00  0.00     0.031 C 
ATOM     37  C   UNL A   1      37.270  31.622  31.560  1.00  0.00     0.029 A 
ATOM     38  N   UNL A   1      39.203  30.535  31.850  1.00  0.00    -0.354 N 
ATOM     39  C   UNL A   1      40.741  27.892  28.783  1.00  0.00     0.074 A 
ATOM     40  C   UNL A   1      39.918  27.948  27.594  1.00  0.00     0.031 C 
ATOM     41  C   UNL A   1      37.730  31.935  32.782  1.00  0.00     0.029 A 
ATOM     42  C   UNL A   1      38.963  31.195  33.030  1.00  0.00     0.049 A 
ATOM     43  H   UNL A   1      40.010  29.995  31.687  1.00  0.00     0.167 HD
ATOM     44  C   UNL A   1      41.868  27.149  28.902  1.00  0.00     0.037 A 
ATOM     45  C   UNL A   1      39.642  31.174  34.194  1.00  0.00     0.037 A 
ATOM     46  C   UNL A   1      42.693  27.113  30.082  1.00  0.00     0.049 A 
ATOM     47  C   UNL A   1      40.877  30.323  34.308  1.00  0.00     0.074 A 
ATOM     48  C   UNL A   1      43.869  26.415  30.294  1.00  0.00     0.029 A 
ATOM     49  N   UNL A   1      42.426  27.812  31.249  1.00  0.00    -0.354 N 
ATOM     50  N   UNL A   1      41.428  29.542  33.412  1.00  0.00    -0.248 NA
ATOM     51  C   UNL A   1      41.579  30.345  35.599  1.00  0.00     0.031 C 
ATOM     52  C   UNL A   1      44.295  26.664  31.604  1.00  0.00     0.029 A 
ATOM     53  C   UNL A   1      43.407  27.550  32.192  1.00  0.00     0.049 A 
ATOM     54  H   UNL A   1      41.653  28.405  31.389  1.00  0.00     0.167 HD
ATOM     55  C   UNL A   1      42.549  28.995  34.019  1.00  0.00     0.074 A 
ATOM     56  C   UNL A   1      42.609  29.545  35.358  1.00  0.00     0.031 C 
ATOM     57  C   UNL A   1      43.448  28.114  33.517  1.00  0.00     0.037 A 
BRANCH  44  58
ATOM     58  C   UNL A   1      42.264  26.294  27.734  1.00  0.00     0.064 A 
ATOM     59  C   UNL A   1      41.702  25.026  27.524  1.00  0.00     0.173 A 
ATOM     60  C   UNL A   1      43.190  26.765  26.791  1.00  0.00     0.173 A 
ATOM     61  F   UNL A   1      40.821  24.524  28.403  1.00  0.00    -0.203 F 
ATOM     62  C   UNL A   1      42.069  24.254  26.425  1.00  0.00     0.198 A 
ATOM     63  C   UNL A   1      43.536  26.001  25.680  1.00  0.00     0.198 A 
ATOM     64  F   UNL A   1      43.754  27.973  26.944  1.00  0.00    -0.203 F 
ATOM     65  F   UNL A   1      41.549  23.029  26.265  1.00  0.00    -0.200 F 
ATOM     66  C   UNL A   1      42.980  24.744  25.501  1.00  0.00     0.200 A 
ATOM     67  F   UNL A   1      44.409  26.481  24.784  1.00  0.00    -0.200 F 
ATOM     68  F   UNL A   1      43.327  24.001  24.440  1.00  0.00    -0.200 F 
ENDBRANCH  44  58
BRANCH  45  69
ATOM     69  C   UNL A   1      39.155  31.975  35.347  1.00  0.00     0.064 A 
ATOM     70  C   UNL A   1      39.436  33.344  35.441  1.00  0.00     0.173 A 
ATOM     71  C   UNL A   1      38.395  31.391  36.372  1.00  0.00     0.173 A 
ATOM     72  F   UNL A   1      40.182  33.940  34.500  1.00  0.00    -0.203 F 
ATOM     73  C   UNL A   1      38.983  34.098  36.522  1.00  0.00     0.198 A 
ATOM     74  C   UNL A   1      37.920  32.152  37.439  1.00  0.00     0.198 A 
ATOM     75  F   UNL A   1      38.100  30.083  36.329  1.00  0.00    -0.203 F 
ATOM     76  F   UNL A   1      39.299  35.398  36.607  1.00  0.00    -0.200 F 
ATOM     77  C   UNL A   1      38.220  33.503  37.515  1.00  0.00     0.200 A 
ATOM     78  F   UNL A   1      37.174  31.576  38.390  1.00  0.00    -0.200 F 
ATOM     79  F   UNL A   1      37.778  34.232  38.550  1.00  0.00    -0.200 F 
ENDBRANCH  45  69
BRANCH  57  80
ATOM     80  C   UNL A   1      44.588  27.718  34.408  1.00  0.00     0.064 A 
ATOM     81  C   UNL A   1      45.778  28.459  34.447  1.00  0.00     0.173 A 
ATOM     82  C   UNL A   1      44.472  26.607  35.256  1.00  0.00     0.173 A 
ATOM     83  F   UNL A   1      45.940  29.520  33.643  1.00  0.00    -0.203 F 
ATOM     84  C   UNL A   1      46.822  28.086  35.289  1.00  0.00     0.198 A 
ATOM     85  C   UNL A   1      45.509  26.252  36.114  1.00  0.00     0.198 A 
ATOM     86  F   UNL A   1      43.351  25.871  35.257  1.00  0.00    -0.203 F 
ATOM     87  F   UNL A   1      47.968  28.782  35.281  1.00  0.00    -0.200 F 
ATOM     88  C   UNL A   1      46.685  26.988  36.124  1.00  0.00     0.200 A 
ATOM     89  F   UNL A   1      45.371  25.196  36.927  1.00  0.00    -0.200 F 
ATOM     90  F   UNL A   1      47.690  26.633  36.937  1.00  0.00    -0.200 F 
ENDBRANCH  57  80
ENDBRANCH  31  32
ENDBRANCH  24  26
ENDBRANCH  23  24
ENDBRANCH  22  23
ENDBRANCH   1  22
TORSDOF 15
ENDMDL
MODEL 2
REMARK VINA RESULT:     -10.6      2.230      4.398
REMARK SMILES CCN(C(=O)N[C@@H]1CCOC1)[C@H]1COC[C@H]1C(=O)OCCOC(=O)c1ccc(-c2c3nc(c(-c4c(F)c(F)c(F)c(F)c4F)c4ccc([nH]4)c(-c4c(F)c(F)c(F)c(F)c4F)c4nc(c(-c5c(F)c(F)c(F)c(F)c5F)c5ccc2[nH]5)C=C4)C=C3)cc1
REMARK SMILES IDX 20 1 19 2 17 3 18 4 16 5 12 6 13 7 14 8 15 9 3 10 2 11 1 12
REMARK SMILES IDX 4 13 5 14 6 15 7 17 8 18 11 19 9 20 10 21 21 22 22 23 23 24
REMARK SMILES IDX 24 25 25 26 26 27 87 28 27 29 86 30 28 31 29 32 30 33 80 34
REMARK SMILES IDX 31 35 85 36 79 37 81 38 32 39 84 40 78 41 77 42 33 44 65 45
REMARK SMILES IDX 45 46 64 47 46 48 49 49 63 50 82 51 47 52 48 53 62 55 83 56
REMARK SMILES IDX 50 57 34 58 35 59 43 60 36 61 37 62 41 63 44 64 38 65 39 66
REMARK SMILES IDX 42 67 40 68 66 69 67 70 75 71 68 72 69 73 73 74 76 75 70 76
REMARK SMILES IDX 71 77 74 78 72 79 51 80 52 81 60 82 53 83 54 84 58 85 61 86
REMARK SMILES IDX 55 87 56 88 59 89 57 90
REMARK H PARENT 6 16 81 43 49 54
REMARK Flexibility Score: inf
ROOT
ATOM      1  C   UNL A   1      32.972  31.112  27.191  1.00  0.00     0.274 C 
ENDROOT
BRANCH   1   2
ATOM      2  O   UNL A   1      32.061  29.996  27.092  1.00  0.00    -0.462 OA
BRANCH   2   3
ATOM      3  C   UNL A   1      31.884  29.507  25.850  1.00  0.00     0.313 C 
ATOM      4  O   UNL A   1      31.222  30.074  24.980  1.00  0.00    -0.252 OA
BRANCH   3   5
ATOM      5  C   UNL A   1      32.544  28.188  25.558  1.00  0.00     0.150 C 
ATOM      6  C   UNL A   1      31.900  26.833  25.233  1.00  0.00     0.129 C 
ATOM      7  C   UNL A   1      33.231  26.064  25.121  1.00  0.00     0.186 C 
ATOM      8  O   UNL A   1      34.125  26.920  24.374  1.00  0.00    -0.378 OA
ATOM      9  C   UNL A   1      33.654  28.276  24.541  1.00  0.00     0.177 C 
BRANCH   6  10
ATOM     10  N   UNL A   1      31.065  26.753  24.002  1.00  0.00    -0.319 N 
BRANCH  10  11
ATOM     11  C   UNL A   1      31.394  25.754  22.977  1.00  0.00     0.118 C 
ATOM     12  C   UNL A   1      31.780  26.329  21.623  1.00  0.00     0.027 C 
ENDBRANCH  10  11
BRANCH  10  13
ATOM     13  C   UNL A   1      29.703  26.971  24.155  1.00  0.00     0.318 C 
ATOM     14  O   UNL A   1      28.965  26.191  24.745  1.00  0.00    -0.249 OA
ATOM     15  N   UNL A   1      29.315  28.256  23.890  1.00  0.00    -0.333 N 
ATOM     16  H   UNL A   1      29.421  28.929  24.601  1.00  0.00     0.165 HD
BRANCH  15  17
ATOM     17  C   UNL A   1      28.752  28.687  22.610  1.00  0.00     0.112 C 
ATOM     18  C   UNL A   1      29.349  29.999  22.151  1.00  0.00     0.056 C 
ATOM     19  C   UNL A   1      27.284  29.104  22.751  1.00  0.00     0.185 C 
ATOM     20  C   UNL A   1      28.591  31.014  22.980  1.00  0.00     0.162 C 
ATOM     21  O   UNL A   1      27.277  30.475  23.187  1.00  0.00    -0.379 OA
ENDBRANCH  15  17
ENDBRANCH  10  13
ENDBRANCH   6  10
ENDBRANCH   3   5
ENDBRANCH   2   3
ENDBRANCH   1   2
BRANCH   1  22
ATOM     22  C   UNL A   1      32.192  32.427  27.280  1.00  0.00     0.275 C 
BRANCH  22  23
ATOM     23  O   UNL A   1      33.112  33.531  27.261  1.00  0.00    -0.458 OA
BRANCH  23  24
ATOM     24  C   UNL A   1      33.233  34.199  28.431  1.00  0.00     0.338 C 
ATOM     25  O   UNL A   1      32.528  35.102  28.847  1.00  0.00    -0.246 OA
BRANCH  24  26
ATOM     26  C   UNL A   1      34.471  33.760  29.109  1.00  0.00     0.060 A 
ATOM     27  C   UNL A   1      35.732  34.244  28.746  1.00  0.00     0.016 A 
ATOM     28  C   UNL A   1      34.349  32.822  30.134  1.00  0.00     0.016 A 
ATOM     29  C   UNL A   1      36.877  33.772  29.396  1.00  0.00     0.010 A 
ATOM     30  C   UNL A   1      35.485  32.388  30.816  1.00  0.00     0.010 A 
ATOM     31  C   UNL A   1      36.759  32.847  30.444  1.00  0.00    -0.014 A 
BRANCH  31  32
ATOM     32  C   UNL A   1      37.949  32.321  31.160  1.00  0.00     0.031 A 
ATOM     33  C   UNL A   1      38.720  31.172  30.572  1.00  0.00     0.074 A 
ATOM     34  C   UNL A   1      38.286  32.816  32.365  1.00  0.00     0.049 A 
ATOM     35  N   UNL A   1      39.654  30.433  31.113  1.00  0.00    -0.248 NA
ATOM     36  C   UNL A   1      38.380  30.797  29.190  1.00  0.00     0.031 C 
ATOM     37  C   UNL A   1      37.623  33.935  33.034  1.00  0.00     0.029 A 
ATOM     38  N   UNL A   1      39.254  32.421  33.254  1.00  0.00    -0.354 N 
ATOM     39  C   UNL A   1      39.987  29.485  30.155  1.00  0.00     0.074 A 
ATOM     40  C   UNL A   1      39.150  29.734  29.001  1.00  0.00     0.031 C 
ATOM     41  C   UNL A   1      38.198  34.132  34.231  1.00  0.00     0.029 A 
ATOM     42  C   UNL A   1      39.230  33.120  34.435  1.00  0.00     0.049 A 
ATOM     43  H   UNL A   1      39.903  31.705  33.063  1.00  0.00     0.167 HD
ATOM     44  C   UNL A   1      40.910  28.496  30.235  1.00  0.00     0.037 A 
ATOM     45  C   UNL A   1      39.934  32.940  35.570  1.00  0.00     0.037 A 
ATOM     46  C   UNL A   1      41.754  28.267  31.379  1.00  0.00     0.049 A 
ATOM     47  C   UNL A   1      40.936  31.820  35.641  1.00  0.00     0.074 A 
ATOM     48  C   UNL A   1      42.738  27.310  31.549  1.00  0.00     0.029 A 
ATOM     49  N   UNL A   1      41.711  29.010  32.549  1.00  0.00    -0.354 N 
ATOM     50  N   UNL A   1      41.248  30.930  34.732  1.00  0.00    -0.248 NA
ATOM     51  C   UNL A   1      41.680  31.677  36.901  1.00  0.00     0.031 C 
ATOM     52  C   UNL A   1      43.268  27.452  32.837  1.00  0.00     0.029 A 
ATOM     53  C   UNL A   1      42.642  28.524  33.452  1.00  0.00     0.049 A 
ATOM     54  H   UNL A   1      41.107  29.770  32.714  1.00  0.00     0.167 HD
ATOM     55  C   UNL A   1      42.233  30.134  35.297  1.00  0.00     0.074 A 
ATOM     56  C   UNL A   1      42.479  30.655  36.626  1.00  0.00     0.031 C 
ATOM     57  C   UNL A   1      42.874  29.064  34.768  1.00  0.00     0.037 A 
BRANCH  44  58
ATOM     58  C   UNL A   1      41.040  27.571  29.061  1.00  0.00     0.064 A 
ATOM     59  C   UNL A   1      42.074  27.710  28.123  1.00  0.00     0.173 A 
ATOM     60  C   UNL A   1      40.141  26.506  28.892  1.00  0.00     0.173 A 
ATOM     61  F   UNL A   1      42.952  28.719  28.232  1.00  0.00    -0.203 F 
ATOM     62  C   UNL A   1      42.189  26.832  27.048  1.00  0.00     0.198 A 
ATOM     63  C   UNL A   1      40.274  25.615  27.831  1.00  0.00     0.198 A 
ATOM     64  F   UNL A   1      39.137  26.326  29.764  1.00  0.00    -0.203 F 
ATOM     65  F   UNL A   1      43.162  27.008  26.142  1.00  0.00    -0.200 F 
ATOM     66  C   UNL A   1      41.294  25.782  26.907  1.00  0.00     0.200 A 
ATOM     67  F   UNL A   1      39.414  24.596  27.702  1.00  0.00    -0.200 F 
ATOM     68  F   UNL A   1      41.411  24.933  25.876  1.00  0.00    -0.200 F 
ENDBRANCH  44  58
BRANCH  45  69
ATOM     69  C   UNL A   1      39.702  33.835  36.733  1.00  0.00     0.064 A 
ATOM     70  C   UNL A   1      38.850  33.451  37.777  1.00  0.00     0.173 A 
ATOM     71  C   UNL A   1      40.332  35.085  36.829  1.00  0.00     0.173 A 
ATOM     72  F   UNL A   1      38.205  32.277  37.717  1.00  0.00    -0.203 F 
ATOM     73  C   UNL A   1      38.629  34.288  38.869  1.00  0.00     0.198 A 
ATOM     74  C   UNL A   1      40.131  35.909  37.934  1.00  0.00     0.198 A 
ATOM     75  F   UNL A   1      41.157  35.499  35.855  1.00  0.00    -0.203 F 
ATOM     76  F   UNL A   1      37.779  33.914  39.835  1.00  0.00    -0.200 F 
ATOM     77  C   UNL A   1      39.275  35.512  38.950  1.00  0.00     0.200 A 
ATOM     78  F   UNL A   1      40.765  37.086  38.014  1.00  0.00    -0.200 F 
ATOM     79  F   UNL A   1      39.067  36.313  40.005  1.00  0.00    -0.200 F 
ENDBRANCH  45  69
BRANCH  57  80
ATOM     80  C   UNL A   1      43.925  28.410  35.614  1.00  0.00     0.064 A 
ATOM     81  C   UNL A   1      45.269  28.804  35.547  1.00  0.00     0.173 A 
ATOM     82  C   UNL A   1      43.576  27.402  36.525  1.00  0.00     0.173 A 
ATOM     83  F   UNL A   1      45.652  29.753  34.679  1.00  0.00    -0.203 F 
ATOM     84  C   UNL A   1      46.231  28.197  36.349  1.00  0.00     0.198 A 
ATOM     85  C   UNL A   1      44.537  26.814  37.343  1.00  0.00     0.198 A 
ATOM     86  F   UNL A   1      42.303  26.995  36.629  1.00  0.00    -0.203 F 
ATOM     87  F   UNL A   1      47.517  28.558  36.240  1.00  0.00    -0.200 F 
ATOM     88  C   UNL A   1      45.864  27.207  37.248  1.00  0.00     0.200 A 
ATOM     89  F   UNL A   1      44.179  25.865  38.218  1.00  0.00    -0.200 F 
ATOM     90  F   UNL A   1      46.792  26.626  38.022  1.00  0.00    -0.200 F 
ENDBRANCH  57  80
ENDBRANCH  31  32
ENDBRANCH  24  26
ENDBRANCH  23  24
ENDBRANCH  22  23
ENDBRANCH   1  22
TORSDOF 15
ENDMDL
MODEL 3
REMARK VINA RESULT:     -10.6      1.058      2.630
REMARK SMILES CCN(C(=O)N[C@@H]1CCOC1)[C@H]1COC[C@H]1C(=O)OCCOC(=O)c1ccc(-c2c3nc(c(-c4c(F)c(F)c(F)c(F)c4F)c4ccc([nH]4)c(-c4c(F)c(F)c(F)c(F)c4F)c4nc(c(-c5c(F)c(F)c(F)c(F)c5F)c5ccc2[nH]5)C=C4)C=C3)cc1
REMARK SMILES IDX 20 1 19 2 17 3 18 4 16 5 12 6 13 7 14 8 15 9 3 10 2 11 1 12
REMARK SMILES IDX 4 13 5 14 6 15 7 17 8 18 11 19 9 20 10 21 21 22 22 23 23 24
REMARK SMILES IDX 24 25 25 26 26 27 87 28 27 29 86 30 28 31 29 32 30 33 80 34
REMARK SMILES IDX 31 35 85 36 79 37 81 38 32 39 84 40 78 41 77 42 33 44 65 45
REMARK SMILES IDX 45 46 64 47 46 48 49 49 63 50 82 51 47 52 48 53 62 55 83 56
REMARK SMILES IDX 50 57 34 58 35 59 43 60 36 61 37 62 41 63 44 64 38 65 39 66
REMARK SMILES IDX 42 67 40 68 66 69 67 70 75 71 68 72 69 73 73 74 76 75 70 76
REMARK SMILES IDX 71 77 74 78 72 79 51 80 52 81 60 82 53 83 54 84 58 85 61 86
REMARK SMILES IDX 55 87 56 88 59 89 57 90
REMARK H PARENT 6 16 81 43 49 54
REMARK Flexibility Score: inf
ROOT
ATOM      1  C   UNL A   1      31.684  29.226  24.629  1.00  0.00     0.274 C 
ENDROOT
BRANCH   1   2
ATOM      2  O   UNL A   1      31.618  27.876  25.137  1.00  0.00    -0.462 OA
BRANCH   2   3
ATOM      3  C   UNL A   1      32.660  27.087  24.809  1.00  0.00     0.313 C 
ATOM      4  O   UNL A   1      33.547  26.764  25.598  1.00  0.00    -0.252 OA
BRANCH   3   5
ATOM      5  C   UNL A   1      32.703  26.606  23.385  1.00  0.00     0.150 C 
ATOM      6  C   UNL A   1      33.635  25.570  22.740  1.00  0.00     0.129 C 
ATOM      7  C   UNL A   1      33.047  25.712  21.322  1.00  0.00     0.186 C 
ATOM      8  O   UNL A   1      31.612  25.760  21.488  1.00  0.00    -0.378 OA
ATOM      9  C   UNL A   1      31.353  26.224  22.831  1.00  0.00     0.177 C 
BRANCH   6  10
ATOM     10  N   UNL A   1      33.576  24.179  23.268  1.00  0.00    -0.319 N 
BRANCH  10  11
ATOM     11  C   UNL A   1      33.519  23.056  22.324  1.00  0.00     0.118 C 
ATOM     12  C   UNL A   1      32.244  22.228  22.389  1.00  0.00     0.027 C 
ENDBRANCH  10  11
BRANCH  10  13
ATOM     13  C   UNL A   1      34.316  23.913  24.411  1.00  0.00     0.318 C 
ATOM     14  O   UNL A   1      35.534  24.033  24.460  1.00  0.00    -0.249 OA
ATOM     15  N   UNL A   1      33.563  23.827  25.551  1.00  0.00    -0.333 N 
ATOM     16  H   UNL A   1      33.312  24.663  26.006  1.00  0.00     0.165 HD
BRANCH  15  17
ATOM     17  C   UNL A   1      33.111  22.562  26.132  1.00  0.00     0.112 C 
ATOM     18  C   UNL A   1      31.761  22.149  25.586  1.00  0.00     0.056 C 
ATOM     19  C   UNL A   1      32.756  22.717  27.614  1.00  0.00     0.185 C 
ATOM     20  C   UNL A   1      30.806  23.012  26.381  1.00  0.00     0.162 C 
ATOM     21  O   UNL A   1      31.401  23.200  27.673  1.00  0.00    -0.379 OA
ENDBRANCH  15  17
ENDBRANCH  10  13
ENDBRANCH   6  10
ENDBRANCH   3   5
ENDBRANCH   2   3
ENDBRANCH   1   2
BRANCH   1  22
ATOM     22  C   UNL A   1      31.704  30.228  25.787  1.00  0.00     0.275 C 
BRANCH  22  23
ATOM     23  O   UNL A   1      33.040  30.332  26.307  1.00  0.00    -0.458 OA
BRANCH  23  24
ATOM     24  C   UNL A   1      33.279  31.426  27.064  1.00  0.00     0.338 C 
ATOM     25  O   UNL A   1      32.649  32.469  27.083  1.00  0.00    -0.246 OA
BRANCH  24  26
ATOM     26  C   UNL A   1      34.543  31.232  27.804  1.00  0.00     0.060 A 
ATOM     27  C   UNL A   1      35.480  32.258  27.964  1.00  0.00     0.016 A 
ATOM     28  C   UNL A   1      34.791  29.968  28.341  1.00  0.00     0.016 A 
ATOM     29  C   UNL A   1      36.678  32.014  28.644  1.00  0.00     0.010 A 
ATOM     30  C   UNL A   1      35.962  29.738  29.062  1.00  0.00     0.010 A 
ATOM     31  C   UNL A   1      36.922  30.753  29.207  1.00  0.00    -0.014 A 
BRANCH  31  32
ATOM     32  C   UNL A   1      38.180  30.453  29.937  1.00  0.00     0.031 A 
ATOM     33  C   UNL A   1      39.167  29.487  29.344  1.00  0.00     0.074 A 
ATOM     34  C   UNL A   1      38.396  30.979  31.157  1.00  0.00     0.049 A 
ATOM     35  N   UNL A   1      40.219  28.932  29.891  1.00  0.00    -0.248 NA
ATOM     36  C   UNL A   1      38.929  29.081  27.950  1.00  0.00     0.031 C 
ATOM     37  C   UNL A   1      37.518  31.935  31.831  1.00  0.00     0.029 A 
ATOM     38  N   UNL A   1      39.408  30.761  32.057  1.00  0.00    -0.354 N 
ATOM     39  C   UNL A   1      40.745  28.086  28.924  1.00  0.00     0.074 A 
ATOM     40  C   UNL A   1      39.893  28.192  27.758  1.00  0.00     0.031 C 
ATOM     41  C   UNL A   1      38.024  32.215  33.043  1.00  0.00     0.029 A 
ATOM     42  C   UNL A   1      39.230  31.418  33.250  1.00  0.00     0.049 A 
ATOM     43  H   UNL A   1      40.186  30.188  31.867  1.00  0.00     0.167 HD
ATOM     44  C   UNL A   1      41.840  27.293  29.004  1.00  0.00     0.037 A 
ATOM     45  C   UNL A   1      39.938  31.354  34.394  1.00  0.00     0.037 A 
ATOM     46  C   UNL A   1      42.694  27.208  30.160  1.00  0.00     0.049 A 
ATOM     47  C   UNL A   1      41.137  30.448  34.466  1.00  0.00     0.074 A 
ATOM     48  C   UNL A   1      43.843  26.456  30.333  1.00  0.00     0.029 A 
ATOM     49  N   UNL A   1      42.490  27.905  31.342  1.00  0.00    -0.354 N 
ATOM     50  N   UNL A   1      41.629  29.654  33.548  1.00  0.00    -0.248 NA
ATOM     51  C   UNL A   1      41.874  30.426  35.737  1.00  0.00     0.031 C 
ATOM     52  C   UNL A   1      44.315  26.672  31.633  1.00  0.00     0.029 A 
ATOM     53  C   UNL A   1      43.484  27.590  32.254  1.00  0.00     0.049 A 
ATOM     54  H   UNL A   1      41.748  28.530  31.508  1.00  0.00     0.167 HD
ATOM     55  C   UNL A   1      42.741  29.052  34.118  1.00  0.00     0.074 A 
ATOM     56  C   UNL A   1      42.861  29.584  35.460  1.00  0.00     0.031 C 
ATOM     57  C   UNL A   1      43.586  28.137  33.583  1.00  0.00     0.037 A 
BRANCH  44  58
ATOM     58  C   UNL A   1      42.166  26.435  27.818  1.00  0.00     0.064 A 
ATOM     59  C   UNL A   1      43.104  26.834  26.853  1.00  0.00     0.173 A 
ATOM     60  C   UNL A   1      41.559  25.179  27.661  1.00  0.00     0.173 A 
ATOM     61  F   UNL A   1      43.702  28.031  26.950  1.00  0.00    -0.203 F 
ATOM     62  C   UNL A   1      43.406  26.017  25.767  1.00  0.00     0.198 A 
ATOM     63  C   UNL A   1      41.882  24.353  26.588  1.00  0.00     0.198 A 
ATOM     64  F   UNL A   1      40.658  24.748  28.558  1.00  0.00    -0.203 F 
ATOM     65  F   UNL A   1      44.276  26.435  24.837  1.00  0.00    -0.200 F 
ATOM     66  C   UNL A   1      42.800  24.775  25.639  1.00  0.00     0.200 A 
ATOM     67  F   UNL A   1      41.303  23.151  26.471  1.00  0.00    -0.200 F 
ATOM     68  F   UNL A   1      43.097  23.987  24.596  1.00  0.00    -0.200 F 
ENDBRANCH  44  58
BRANCH  45  69
ATOM     69  C   UNL A   1      39.519  32.163  35.568  1.00  0.00     0.064 A 
ATOM     70  C   UNL A   1      38.593  31.662  36.492  1.00  0.00     0.173 A 
ATOM     71  C   UNL A   1      40.040  33.446  35.793  1.00  0.00     0.173 A 
ATOM     72  F   UNL A   1      38.048  30.452  36.305  1.00  0.00    -0.203 F 
ATOM     73  C   UNL A   1      38.196  32.419  37.594  1.00  0.00     0.198 A 
ATOM     74  C   UNL A   1      39.663  34.191  36.909  1.00  0.00     0.198 A 
ATOM     75  F   UNL A   1      40.929  33.971  34.936  1.00  0.00    -0.203 F 
ATOM     76  F   UNL A   1      37.279  31.933  38.442  1.00  0.00    -0.200 F 
ATOM     77  C   UNL A   1      38.737  33.679  37.805  1.00  0.00     0.200 A 
ATOM     78  F   UNL A   1      40.195  35.402  37.115  1.00  0.00    -0.200 F 
ATOM     79  F   UNL A   1      38.360  34.402  38.869  1.00  0.00    -0.200 F 
ENDBRANCH  45  69
BRANCH  57  80
ATOM     80  C   UNL A   1      44.730  27.682  34.438  1.00  0.00     0.064 A 
ATOM     81  C   UNL A   1      44.630  26.545  35.252  1.00  0.00     0.173 A 
ATOM     82  C   UNL A   1      45.952  28.372  34.413  1.00  0.00     0.173 A 
ATOM     83  F   UNL A   1      43.477  25.863  35.320  1.00  0.00    -0.203 F 
ATOM     84  C   UNL A   1      45.706  26.128  36.030  1.00  0.00     0.198 A 
ATOM     85  C   UNL A   1      47.033  27.938  35.174  1.00  0.00     0.198 A 
ATOM     86  F   UNL A   1      46.098  29.462  33.646  1.00  0.00    -0.203 F 
ATOM     87  F   UNL A   1      45.576  25.063  36.835  1.00  0.00    -0.200 F 
ATOM     88  C   UNL A   1      46.907  26.820  35.986  1.00  0.00     0.200 A 
ATOM     89  F   UNL A   1      48.196  28.601  35.123  1.00  0.00    -0.200 F 
ATOM     90  F   UNL A   1      47.943  26.414  36.733  1.00  0.00    -0.200 F 
ENDBRANCH  57  80
ENDBRANCH  31  32
ENDBRANCH  24  26
ENDBRANCH  23  24
ENDBRANCH  22  23
ENDBRANCH   1  22
TORSDOF 15
ENDMDL
