MODEL 1
REMARK VINA RESULT:     -10.6      0.000      0.000
REMARK SMILES O=C(OCCOC(=O)[C@H]1CC[C@H](CNS(=O)(=O)c2cccs2)O1)c1ccc(-c2c3nc(c(-c4c(F)c(F)c(F)c(F)c4F)c4ccc([nH]4)c(-c4c(F)c(F)c(F)c(F)c4F)c4nc(c(-c5c(F)c(F)c(F)c(F)c5F)c5ccc2[nH]5)C=C4)C=C3)cc1
REMARK SMILES IDX 5 1 4 2 3 3 2 4 1 5 24 6 25 7 86 8 26 9 85 10 27 11 28 12
REMARK SMILES IDX 29 13 79 14 30 15 84 16 78 17 80 18 31 19 83 20 77 21 76 22
REMARK SMILES IDX 32 24 64 25 44 26 63 27 45 28 48 29 62 30 81 31 46 32 47 33
REMARK SMILES IDX 61 35 82 36 49 37 33 38 34 39 42 40 35 41 36 42 40 43 43 44
REMARK SMILES IDX 37 45 38 46 41 47 39 48 65 49 66 50 74 51 67 52 68 53 72 54
REMARK SMILES IDX 75 55 69 56 70 57 73 58 71 59 50 60 51 61 59 62 52 63 53 64
REMARK SMILES IDX 57 65 60 66 54 67 55 68 58 69 56 70 6 71 7 72 8 73 9 74
REMARK SMILES IDX 10 75 23 76 11 77 12 78 13 79 14 80 15 82 16 83 17 84 18 85
REMARK SMILES IDX 19 86 22 87 20 88 21 89
REMARK H PARENT 80 23 48 34 14 81
REMARK Flexibility Score: inf
ROOT
ATOM      1  C   UNL A   1      33.274  34.049  27.974  1.00  0.00     0.274 C 
ENDROOT
BRANCH   1   2
ATOM      2  C   UNL A   1      34.182  32.881  28.355  1.00  0.00     0.275 C 
BRANCH   2   3
ATOM      3  O   UNL A   1      33.735  31.598  27.872  1.00  0.00    -0.458 OA
BRANCH   3   4
ATOM      4  C   UNL A   1      34.423  30.519  27.434  1.00  0.00     0.338 C 
ATOM      5  O   UNL A   1      33.943  29.852  26.518  1.00  0.00    -0.246 OA
BRANCH   4   6
ATOM      6  C   UNL A   1      35.700  30.017  28.043  1.00  0.00     0.060 A 
ATOM      7  C   UNL A   1      35.843  29.473  29.323  1.00  0.00     0.016 A 
ATOM      8  C   UNL A   1      36.858  30.122  27.245  1.00  0.00     0.016 A 
ATOM      9  C   UNL A   1      37.071  28.959  29.760  1.00  0.00     0.010 A 
ATOM     10  C   UNL A   1      38.091  29.622  27.682  1.00  0.00     0.010 A 
ATOM     11  C   UNL A   1      38.199  29.014  28.939  1.00  0.00    -0.014 A 
BRANCH  11  12
ATOM     12  C   UNL A   1      39.511  28.559  29.454  1.00  0.00     0.031 A 
ATOM     13  C   UNL A   1      40.165  29.373  30.522  1.00  0.00     0.074 A 
ATOM     14  C   UNL A   1      40.086  27.415  29.034  1.00  0.00     0.049 A 
ATOM     15  N   UNL A   1      41.242  29.106  31.209  1.00  0.00    -0.248 NA
ATOM     16  C   UNL A   1      39.482  30.615  30.916  1.00  0.00     0.031 C 
ATOM     17  C   UNL A   1      39.483  26.455  28.120  1.00  0.00     0.029 A 
ATOM     18  N   UNL A   1      41.310  26.860  29.312  1.00  0.00    -0.354 N 
ATOM     19  C   UNL A   1      41.316  30.095  32.174  1.00  0.00     0.074 A 
ATOM     20  C   UNL A   1      40.240  31.027  31.920  1.00  0.00     0.031 C 
ATOM     21  C   UNL A   1      40.368  25.492  27.818  1.00  0.00     0.029 A 
ATOM     22  C   UNL A   1      41.588  25.736  28.570  1.00  0.00     0.049 A 
ATOM     23  H   UNL A   1      41.930  27.233  29.980  1.00  0.00     0.167 HD
ATOM     24  C   UNL A   1      42.173  30.177  33.216  1.00  0.00     0.037 A 
ATOM     25  C   UNL A   1      42.699  24.978  28.515  1.00  0.00     0.037 A 
ATOM     26  C   UNL A   1      43.281  29.283  33.408  1.00  0.00     0.049 A 
ATOM     27  C   UNL A   1      43.796  25.270  29.492  1.00  0.00     0.074 A 
ATOM     28  C   UNL A   1      44.229  29.280  34.412  1.00  0.00     0.029 A 
ATOM     29  N   UNL A   1      43.614  28.249  32.538  1.00  0.00    -0.354 N 
ATOM     30  N   UNL A   1      43.818  26.161  30.454  1.00  0.00    -0.248 NA
ATOM     31  C   UNL A   1      44.992  24.425  29.421  1.00  0.00     0.031 C 
ATOM     32  C   UNL A   1      45.178  28.297  34.110  1.00  0.00     0.029 A 
ATOM     33  C   UNL A   1      44.784  27.637  32.956  1.00  0.00     0.049 A 
ATOM     34  H   UNL A   1      43.094  27.992  31.743  1.00  0.00     0.167 HD
ATOM     35  C   UNL A   1      44.986  25.927  31.159  1.00  0.00     0.074 A 
ATOM     36  C   UNL A   1      45.662  24.832  30.489  1.00  0.00     0.031 C 
ATOM     37  C   UNL A   1      45.433  26.538  32.283  1.00  0.00     0.037 A 
BRANCH  24  38
ATOM     38  C   UNL A   1      41.934  31.294  34.184  1.00  0.00     0.064 A 
ATOM     39  C   UNL A   1      40.999  31.171  35.227  1.00  0.00     0.173 A 
ATOM     40  C   UNL A   1      42.587  32.523  34.029  1.00  0.00     0.173 A 
ATOM     41  F   UNL A   1      40.326  30.022  35.399  1.00  0.00    -0.203 F 
ATOM     42  C   UNL A   1      40.698  32.252  36.049  1.00  0.00     0.198 A 
ATOM     43  C   UNL A   1      42.303  33.594  34.871  1.00  0.00     0.198 A 
ATOM     44  F   UNL A   1      43.481  32.693  33.043  1.00  0.00    -0.203 F 
ATOM     45  F   UNL A   1      39.748  32.134  36.989  1.00  0.00    -0.200 F 
ATOM     46  C   UNL A   1      41.350  33.462  35.871  1.00  0.00     0.200 A 
ATOM     47  F   UNL A   1      42.934  34.763  34.700  1.00  0.00    -0.200 F 
ATOM     48  F   UNL A   1      41.045  34.510  36.649  1.00  0.00    -0.200 F 
ENDBRANCH  24  38
BRANCH  25  49
ATOM     49  C   UNL A   1      42.838  23.895  27.506  1.00  0.00     0.064 A 
ATOM     50  C   UNL A   1      42.419  22.581  27.740  1.00  0.00     0.173 A 
ATOM     51  C   UNL A   1      43.468  24.167  26.285  1.00  0.00     0.173 A 
ATOM     52  F   UNL A   1      41.825  22.266  28.900  1.00  0.00    -0.203 F 
ATOM     53  C   UNL A   1      42.649  21.576  26.801  1.00  0.00     0.198 A 
ATOM     54  C   UNL A   1      43.686  23.169  25.337  1.00  0.00     0.198 A 
ATOM     55  F   UNL A   1      43.865  25.420  26.032  1.00  0.00    -0.203 F 
ATOM     56  F   UNL A   1      42.274  20.317  27.065  1.00  0.00    -0.200 F 
ATOM     57  C   UNL A   1      43.284  21.869  25.602  1.00  0.00     0.200 A 
ATOM     58  F   UNL A   1      44.287  23.454  24.175  1.00  0.00    -0.200 F 
ATOM     59  F   UNL A   1      43.513  20.898  24.707  1.00  0.00    -0.200 F 
ENDBRANCH  25  49
BRANCH  37  60
ATOM     60  C   UNL A   1      46.668  25.967  32.913  1.00  0.00     0.064 A 
ATOM     61  C   UNL A   1      47.948  26.465  32.636  1.00  0.00     0.173 A 
ATOM     62  C   UNL A   1      46.554  24.906  33.824  1.00  0.00     0.173 A 
ATOM     63  F   UNL A   1      48.108  27.462  31.753  1.00  0.00    -0.203 F 
ATOM     64  C   UNL A   1      49.074  25.899  33.225  1.00  0.00     0.198 A 
ATOM     65  C   UNL A   1      47.677  24.369  34.442  1.00  0.00     0.198 A 
ATOM     66  F   UNL A   1      45.350  24.393  34.121  1.00  0.00    -0.203 F 
ATOM     67  F   UNL A   1      50.294  26.345  32.898  1.00  0.00    -0.200 F 
ATOM     68  C   UNL A   1      48.937  24.859  34.134  1.00  0.00     0.200 A 
ATOM     69  F   UNL A   1      47.541  23.376  35.331  1.00  0.00    -0.200 F 
ATOM     70  F   UNL A   1      50.023  24.321  34.706  1.00  0.00    -0.200 F 
ENDBRANCH  37  60
ENDBRANCH  11  12
ENDBRANCH   4   6
ENDBRANCH   3   4
ENDBRANCH   2   3
ENDBRANCH   1   2
BRANCH   1  71
ATOM     71  O   UNL A   1      32.660  34.628  29.130  1.00  0.00    -0.460 OA
BRANCH  71  72
ATOM     72  C   UNL A   1      32.908  35.947  29.395  1.00  0.00     0.335 C 
ATOM     73  O   UNL A   1      32.470  36.878  28.733  1.00  0.00    -0.249 OA
BRANCH  72  74
ATOM     74  C   UNL A   1      33.765  36.094  30.675  1.00  0.00     0.228 C 
ATOM     75  C   UNL A   1      33.100  36.964  31.724  1.00  0.00     0.047 C 
ATOM     76  O   UNL A   1      34.054  34.851  31.344  1.00  0.00    -0.362 OA
ATOM     77  C   UNL A   1      32.406  35.949  32.591  1.00  0.00     0.037 C 
ATOM     78  C   UNL A   1      33.460  34.869  32.666  1.00  0.00     0.134 C 
BRANCH  78  79
ATOM     79  C   UNL A   1      34.564  35.147  33.712  1.00  0.00     0.131 C 
BRANCH  79  80
ATOM     80  N   UNL A   1      35.902  35.328  33.090  1.00  0.00    -0.208 NA
ATOM     81  H   UNL A   1      36.400  36.046  33.616  1.00  0.00     0.141 HD
BRANCH  80  82
ATOM     82  S   UNL A   1      36.879  33.932  33.048  1.00  0.00     0.250 S 
ATOM     83  O   UNL A   1      37.999  34.156  33.930  1.00  0.00    -0.206 OA
ATOM     84  O   UNL A   1      35.991  32.804  33.220  1.00  0.00    -0.206 OA
BRANCH  82  85
ATOM     85  C   UNL A   1      37.496  33.737  31.399  1.00  0.00     0.134 A 
ATOM     86  C   UNL A   1      37.011  33.004  30.333  1.00  0.00     0.033 A 
ATOM     87  S   UNL A   1      38.926  34.577  30.985  1.00  0.00    -0.131 S 
ATOM     88  C   UNL A   1      37.786  33.186  29.154  1.00  0.00     0.013 A 
ATOM     89  C   UNL A   1      38.843  34.043  29.364  1.00  0.00     0.066 A 
ENDBRANCH  82  85
ENDBRANCH  80  82
ENDBRANCH  79  80
ENDBRANCH  78  79
ENDBRANCH  72  74
ENDBRANCH  71  72
ENDBRANCH   1  71
TORSDOF 15
ENDMDL
MODEL 2
REMARK VINA RESULT:     -10.5      4.022      6.426
REMARK SMILES O=C(OCCOC(=O)[C@H]1CC[C@H](CNS(=O)(=O)c2cccs2)O1)c1ccc(-c2c3nc(c(-c4c(F)c(F)c(F)c(F)c4F)c4ccc([nH]4)c(-c4c(F)c(F)c(F)c(F)c4F)c4nc(c(-c5c(F)c(F)c(F)c(F)c5F)c5ccc2[nH]5)C=C4)C=C3)cc1
REMARK SMILES IDX 5 1 4 2 3 3 2 4 1 5 24 6 25 7 86 8 26 9 85 10 27 11 28 12
REMARK SMILES IDX 29 13 79 14 30 15 84 16 78 17 80 18 31 19 83 20 77 21 76 22
REMARK SMILES IDX 32 24 64 25 44 26 63 27 45 28 48 29 62 30 81 31 46 32 47 33
REMARK SMILES IDX 61 35 82 36 49 37 33 38 34 39 42 40 35 41 36 42 40 43 43 44
REMARK SMILES IDX 37 45 38 46 41 47 39 48 65 49 66 50 74 51 67 52 68 53 72 54
REMARK SMILES IDX 75 55 69 56 70 57 73 58 71 59 50 60 51 61 59 62 52 63 53 64
REMARK SMILES IDX 57 65 60 66 54 67 55 68 58 69 56 70 6 71 7 72 8 73 9 74
REMARK SMILES IDX 10 75 23 76 11 77 12 78 13 79 14 80 15 82 16 83 17 84 18 85
REMARK SMILES IDX 19 86 22 87 20 88 21 89
REMARK H PARENT 80 23 48 34 14 81
REMARK Flexibility Score: inf
ROOT
ATOM      1  C   UNL A   1      32.560  30.916  26.900  1.00  0.00     0.274 C 
ENDROOT
BRANCH   1   2
ATOM      2  C   UNL A   1      31.740  32.194  27.066  1.00  0.00     0.275 C 
BRANCH   2   3
ATOM      3  O   UNL A   1      32.529  33.398  27.157  1.00  0.00    -0.458 OA
BRANCH   3   4
ATOM      4  C   UNL A   1      33.272  33.904  28.168  1.00  0.00     0.338 C 
ATOM      5  O   UNL A   1      32.936  34.983  28.657  1.00  0.00    -0.246 OA
BRANCH   4   6
ATOM      6  C   UNL A   1      34.540  33.290  28.686  1.00  0.00     0.060 A 
ATOM      7  C   UNL A   1      35.825  33.507  28.183  1.00  0.00     0.016 A 
ATOM      8  C   UNL A   1      34.405  32.401  29.773  1.00  0.00     0.016 A 
ATOM      9  C   UNL A   1      36.950  32.942  28.798  1.00  0.00     0.010 A 
ATOM     10  C   UNL A   1      35.525  31.823  30.383  1.00  0.00     0.010 A 
ATOM     11  C   UNL A   1      36.812  32.110  29.911  1.00  0.00    -0.014 A 
BRANCH  11  12
ATOM     12  C   UNL A   1      38.001  31.441  30.487  1.00  0.00     0.031 A 
ATOM     13  C   UNL A   1      38.494  31.911  31.817  1.00  0.00     0.074 A 
ATOM     14  C   UNL A   1      38.597  30.396  29.880  1.00  0.00     0.049 A 
ATOM     15  N   UNL A   1      39.428  31.397  32.570  1.00  0.00    -0.248 NA
ATOM     16  C   UNL A   1      37.799  33.065  32.408  1.00  0.00     0.031 C 
ATOM     17  C   UNL A   1      38.123  29.743  28.668  1.00  0.00     0.029 A 
ATOM     18  N   UNL A   1      39.736  29.696  30.191  1.00  0.00    -0.354 N 
ATOM     19  C   UNL A   1      39.373  32.106  33.757  1.00  0.00     0.074 A 
ATOM     20  C   UNL A   1      38.390  33.154  33.589  1.00  0.00     0.031 C 
ATOM     21  C   UNL A   1      39.012  28.820  28.267  1.00  0.00     0.029 A 
ATOM     22  C   UNL A   1      40.095  28.773  29.237  1.00  0.00     0.049 A 
ATOM     23  H   UNL A   1      40.247  29.841  31.020  1.00  0.00     0.167 HD
ATOM     24  C   UNL A   1      40.044  31.860  34.904  1.00  0.00     0.037 A 
ATOM     25  C   UNL A   1      41.171  27.969  29.160  1.00  0.00     0.037 A 
ATOM     26  C   UNL A   1      41.070  30.863  35.027  1.00  0.00     0.049 A 
ATOM     27  C   UNL A   1      42.096  27.922  30.337  1.00  0.00     0.074 A 
ATOM     28  C   UNL A   1      41.834  30.536  36.131  1.00  0.00     0.029 A 
ATOM     29  N   UNL A   1      41.508  30.055  33.983  1.00  0.00    -0.354 N 
ATOM     30  N   UNL A   1      41.987  28.542  31.488  1.00  0.00    -0.248 NA
ATOM     31  C   UNL A   1      43.256  27.031  30.235  1.00  0.00     0.031 C 
ATOM     32  C   UNL A   1      42.785  29.588  35.736  1.00  0.00     0.029 A 
ATOM     33  C   UNL A   1      42.568  29.269  34.404  1.00  0.00     0.049 A 
ATOM     34  H   UNL A   1      41.122  30.045  33.078  1.00  0.00     0.167 HD
ATOM     35  C   UNL A   1      43.010  28.049  32.280  1.00  0.00     0.074 A 
ATOM     36  C   UNL A   1      43.750  27.106  31.463  1.00  0.00     0.031 C 
ATOM     37  C   UNL A   1      43.282  28.324  33.579  1.00  0.00     0.037 A 
BRANCH  24  38
ATOM     38  C   UNL A   1      39.684  32.716  36.078  1.00  0.00     0.064 A 
ATOM     39  C   UNL A   1      38.603  32.392  36.917  1.00  0.00     0.173 A 
ATOM     40  C   UNL A   1      40.377  33.908  36.330  1.00  0.00     0.173 A 
ATOM     41  F   UNL A   1      37.890  31.276  36.699  1.00  0.00    -0.203 F 
ATOM     42  C   UNL A   1      38.203  33.253  37.934  1.00  0.00     0.198 A 
ATOM     43  C   UNL A   1      39.991  34.752  37.366  1.00  0.00     0.198 A 
ATOM     44  F   UNL A   1      41.410  34.265  35.553  1.00  0.00    -0.203 F 
ATOM     45  F   UNL A   1      37.122  32.961  38.672  1.00  0.00    -0.200 F 
ATOM     46  C   UNL A   1      38.897  34.432  38.158  1.00  0.00     0.200 A 
ATOM     47  F   UNL A   1      40.662  35.891  37.584  1.00  0.00    -0.200 F 
ATOM     48  F   UNL A   1      38.500  35.271  39.124  1.00  0.00    -0.200 F 
ENDBRANCH  24  38
BRANCH  25  49
ATOM     49  C   UNL A   1      41.440  27.163  27.940  1.00  0.00     0.064 A 
ATOM     50  C   UNL A   1      41.011  25.840  27.794  1.00  0.00     0.173 A 
ATOM     51  C   UNL A   1      42.206  27.715  26.905  1.00  0.00     0.173 A 
ATOM     52  F   UNL A   1      40.289  25.261  28.764  1.00  0.00    -0.203 F 
ATOM     53  C   UNL A   1      41.361  25.091  26.671  1.00  0.00     0.198 A 
ATOM     54  C   UNL A   1      42.545  26.975  25.774  1.00  0.00     0.198 A 
ATOM     55  F   UNL A   1      42.616  28.984  27.014  1.00  0.00    -0.203 F 
ATOM     56  F   UNL A   1      40.972  23.813  26.573  1.00  0.00    -0.200 F 
ATOM     57  C   UNL A   1      42.129  25.657  25.663  1.00  0.00     0.200 A 
ATOM     58  F   UNL A   1      43.275  27.524  24.795  1.00  0.00    -0.200 F 
ATOM     59  F   UNL A   1      42.473  24.931  24.590  1.00  0.00    -0.200 F 
ENDBRANCH  25  49
BRANCH  37  60
ATOM     60  C   UNL A   1      44.371  27.520  34.223  1.00  0.00     0.064 A 
ATOM     61  C   UNL A   1      45.697  27.969  34.284  1.00  0.00     0.173 A 
ATOM     62  C   UNL A   1      44.066  26.279  34.802  1.00  0.00     0.173 A 
ATOM     63  F   UNL A   1      46.040  29.138  33.722  1.00  0.00    -0.203 F 
ATOM     64  C   UNL A   1      46.686  27.188  34.874  1.00  0.00     0.198 A 
ATOM     65  C   UNL A   1      45.048  25.520  35.426  1.00  0.00     0.198 A 
ATOM     66  F   UNL A   1      42.811  25.805  34.768  1.00  0.00    -0.203 F 
ATOM     67  F   UNL A   1      47.960  27.605  34.863  1.00  0.00    -0.200 F 
ATOM     68  C   UNL A   1      46.359  25.970  35.452  1.00  0.00     0.200 A 
ATOM     69  F   UNL A   1      44.728  24.351  35.998  1.00  0.00    -0.200 F 
ATOM     70  F   UNL A   1      47.313  25.224  36.027  1.00  0.00    -0.200 F 
ENDBRANCH  37  60
ENDBRANCH  11  12
ENDBRANCH   4   6
ENDBRANCH   3   4
ENDBRANCH   2   3
ENDBRANCH   1   2
BRANCH   1  71
ATOM     71  O   UNL A   1      31.840  29.931  26.150  1.00  0.00    -0.460 OA
BRANCH  71  72
ATOM     72  C   UNL A   1      31.747  28.670  26.671  1.00  0.00     0.335 C 
ATOM     73  O   UNL A   1      31.471  28.422  27.837  1.00  0.00    -0.249 OA
BRANCH  72  74
ATOM     74  C   UNL A   1      31.981  27.609  25.570  1.00  0.00     0.228 C 
ATOM     75  C   UNL A   1      31.695  26.199  26.050  1.00  0.00     0.047 C 
ATOM     76  O   UNL A   1      31.165  27.779  24.395  1.00  0.00    -0.362 OA
ATOM     77  C   UNL A   1      30.271  25.992  25.612  1.00  0.00     0.037 C 
ATOM     78  C   UNL A   1      30.298  26.629  24.242  1.00  0.00     0.134 C 
BRANCH  78  79
ATOM     79  C   UNL A   1      30.868  25.707  23.139  1.00  0.00     0.131 C 
BRANCH  79  80
ATOM     80  N   UNL A   1      31.436  26.473  21.999  1.00  0.00    -0.208 NA
ATOM     81  H   UNL A   1      31.414  27.464  22.242  1.00  0.00     0.141 HD
BRANCH  80  82
ATOM     82  S   UNL A   1      33.037  26.070  21.577  1.00  0.00     0.250 S 
ATOM     83  O   UNL A   1      33.001  25.429  20.284  1.00  0.00    -0.206 OA
ATOM     84  O   UNL A   1      33.835  27.253  21.815  1.00  0.00    -0.206 OA
BRANCH  82  85
ATOM     85  C   UNL A   1      33.646  24.904  22.763  1.00  0.00     0.134 A 
ATOM     86  C   UNL A   1      34.287  25.095  23.972  1.00  0.00     0.033 A 
ATOM     87  S   UNL A   1      33.430  23.244  22.422  1.00  0.00    -0.131 S 
ATOM     88  C   UNL A   1      34.544  23.870  24.648  1.00  0.00     0.013 A 
ATOM     89  C   UNL A   1      34.101  22.785  23.925  1.00  0.00     0.066 A 
ENDBRANCH  82  85
ENDBRANCH  80  82
ENDBRANCH  79  80
ENDBRANCH  78  79
ENDBRANCH  72  74
ENDBRANCH  71  72
ENDBRANCH   1  71
TORSDOF 15
ENDMDL
MODEL 3
REMARK VINA RESULT:     -10.4      1.464      2.116
REMARK SMILES O=C(OCCOC(=O)[C@H]1CC[C@H](CNS(=O)(=O)c2cccs2)O1)c1ccc(-c2c3nc(c(-c4c(F)c(F)c(F)c(F)c4F)c4ccc([nH]4)c(-c4c(F)c(F)c(F)c(F)c4F)c4nc(c(-c5c(F)c(F)c(F)c(F)c5F)c5ccc2[nH]5)C=C4)C=C3)cc1
REMARK SMILES IDX 5 1 4 2 3 3 2 4 1 5 24 6 25 7 86 8 26 9 85 10 27 11 28 12
REMARK SMILES IDX 29 13 79 14 30 15 84 16 78 17 80 18 31 19 83 20 77 21 76 22
REMARK SMILES IDX 32 24 64 25 44 26 63 27 45 28 48 29 62 30 81 31 46 32 47 33
REMARK SMILES IDX 61 35 82 36 49 37 33 38 34 39 42 40 35 41 36 42 40 43 43 44
REMARK SMILES IDX 37 45 38 46 41 47 39 48 65 49 66 50 74 51 67 52 68 53 72 54
REMARK SMILES IDX 75 55 69 56 70 57 73 58 71 59 50 60 51 61 59 62 52 63 53 64
REMARK SMILES IDX 57 65 60 66 54 67 55 68 58 69 56 70 6 71 7 72 8 73 9 74
REMARK SMILES IDX 10 75 23 76 11 77 12 78 13 79 14 80 15 82 16 83 17 84 18 85
REMARK SMILES IDX 19 86 22 87 20 88 21 89
REMARK H PARENT 80 23 48 34 14 81
REMARK Flexibility Score: inf
ROOT
ATOM      1  C   UNL A   1      33.746  34.021  27.870  1.00  0.00     0.274 C 
ENDROOT
BRANCH   1   2
ATOM      2  C   UNL A   1      34.516  32.789  28.342  1.00  0.00     0.275 C 
BRANCH   2   3
ATOM      3  O   UNL A   1      33.893  31.534  28.003  1.00  0.00    -0.458 OA
BRANCH   3   4
ATOM      4  C   UNL A   1      34.406  30.288  27.875  1.00  0.00     0.338 C 
ATOM      5  O   UNL A   1      33.671  29.394  27.455  1.00  0.00    -0.246 OA
BRANCH   4   6
ATOM      6  C   UNL A   1      35.792  29.889  28.291  1.00  0.00     0.060 A 
ATOM      7  C   UNL A   1      36.171  29.432  29.556  1.00  0.00     0.016 A 
ATOM      8  C   UNL A   1      36.797  30.005  27.309  1.00  0.00     0.016 A 
ATOM      9  C   UNL A   1      37.483  29.009  29.811  1.00  0.00     0.010 A 
ATOM     10  C   UNL A   1      38.112  29.596  27.563  1.00  0.00     0.010 A 
ATOM     11  C   UNL A   1      38.458  29.071  28.815  1.00  0.00    -0.014 A 
BRANCH  11  12
ATOM     12  C   UNL A   1      39.861  28.716  29.129  1.00  0.00     0.031 A 
ATOM     13  C   UNL A   1      40.685  29.713  29.878  1.00  0.00     0.074 A 
ATOM     14  C   UNL A   1      40.380  27.512  28.818  1.00  0.00     0.049 A 
ATOM     15  N   UNL A   1      41.885  29.574  30.372  1.00  0.00    -0.248 NA
ATOM     16  C   UNL A   1      40.051  31.008  30.169  1.00  0.00     0.031 C 
ATOM     17  C   UNL A   1      39.642  26.401  28.234  1.00  0.00     0.029 A 
ATOM     18  N   UNL A   1      41.654  27.016  28.941  1.00  0.00    -0.354 N 
ATOM     19  C   UNL A   1      42.114  30.724  31.106  1.00  0.00     0.074 A 
ATOM     20  C   UNL A   1      40.978  31.596  30.907  1.00  0.00     0.031 C 
ATOM     21  C   UNL A   1      40.483  25.396  27.941  1.00  0.00     0.029 A 
ATOM     22  C   UNL A   1      41.819  25.772  28.376  1.00  0.00     0.049 A 
ATOM     23  H   UNL A   1      42.381  27.504  29.391  1.00  0.00     0.167 HD
ATOM     24  C   UNL A   1      43.157  30.995  31.922  1.00  0.00     0.037 A 
ATOM     25  C   UNL A   1      42.922  25.015  28.237  1.00  0.00     0.037 A 
ATOM     26  C   UNL A   1      44.311  30.150  32.047  1.00  0.00     0.049 A 
ATOM     27  C   UNL A   1      44.180  25.480  28.905  1.00  0.00     0.074 A 
ATOM     28  C   UNL A   1      45.439  30.330  32.824  1.00  0.00     0.029 A 
ATOM     29  N   UNL A   1      44.501  28.972  31.331  1.00  0.00    -0.354 N 
ATOM     30  N   UNL A   1      44.361  26.533  29.664  1.00  0.00    -0.248 NA
ATOM     31  C   UNL A   1      45.366  24.632  28.749  1.00  0.00     0.031 C 
ATOM     32  C   UNL A   1      46.343  29.305  32.521  1.00  0.00     0.029 A 
ATOM     33  C   UNL A   1      45.751  28.444  31.609  1.00  0.00     0.049 A 
ATOM     34  H   UNL A   1      43.843  28.573  30.717  1.00  0.00     0.167 HD
ATOM     35  C   UNL A   1      45.653  26.431  30.150  1.00  0.00     0.074 A 
ATOM     36  C   UNL A   1      46.220  25.228  29.569  1.00  0.00     0.031 C 
ATOM     37  C   UNL A   1      46.292  27.238  31.032  1.00  0.00     0.037 A 
BRANCH  24  38
ATOM     38  C   UNL A   1      43.076  32.273  32.698  1.00  0.00     0.064 A 
ATOM     39  C   UNL A   1      43.509  33.492  32.148  1.00  0.00     0.173 A 
ATOM     40  C   UNL A   1      42.629  32.273  34.026  1.00  0.00     0.173 A 
ATOM     41  F   UNL A   1      43.973  33.539  30.889  1.00  0.00    -0.203 F 
ATOM     42  C   UNL A   1      43.539  34.653  32.915  1.00  0.00     0.198 A 
ATOM     43  C   UNL A   1      42.634  33.442  34.781  1.00  0.00     0.198 A 
ATOM     44  F   UNL A   1      42.213  31.134  34.599  1.00  0.00    -0.203 F 
ATOM     45  F   UNL A   1      44.029  35.788  32.394  1.00  0.00    -0.200 F 
ATOM     46  C   UNL A   1      43.102  34.627  34.231  1.00  0.00     0.200 A 
ATOM     47  F   UNL A   1      42.210  33.417  36.052  1.00  0.00    -0.200 F 
ATOM     48  F   UNL A   1      43.150  35.740  34.976  1.00  0.00    -0.200 F 
ENDBRANCH  24  38
BRANCH  25  49
ATOM     49  C   UNL A   1      42.896  23.763  27.436  1.00  0.00     0.064 A 
ATOM     50  C   UNL A   1      42.518  22.527  27.970  1.00  0.00     0.173 A 
ATOM     51  C   UNL A   1      43.323  23.790  26.101  1.00  0.00     0.173 A 
ATOM     52  F   UNL A   1      42.118  22.445  29.247  1.00  0.00    -0.203 F 
ATOM     53  C   UNL A   1      42.593  21.361  27.207  1.00  0.00     0.198 A 
ATOM     54  C   UNL A   1      43.384  22.630  25.331  1.00  0.00     0.198 A 
ATOM     55  F   UNL A   1      43.676  24.963  25.563  1.00  0.00    -0.203 F 
ATOM     56  F   UNL A   1      42.264  20.184  27.754  1.00  0.00    -0.200 F 
ATOM     57  C   UNL A   1      43.028  21.413  25.890  1.00  0.00     0.200 A 
ATOM     58  F   UNL A   1      43.792  22.681  24.057  1.00  0.00    -0.200 F 
ATOM     59  F   UNL A   1      43.109  20.290  25.163  1.00  0.00    -0.200 F 
ENDBRANCH  25  49
BRANCH  37  60
ATOM     60  C   UNL A   1      47.646  26.790  31.494  1.00  0.00     0.064 A 
ATOM     61  C   UNL A   1      48.829  27.246  30.898  1.00  0.00     0.173 A 
ATOM     62  C   UNL A   1      47.750  25.893  32.568  1.00  0.00     0.173 A 
ATOM     63  F   UNL A   1      48.778  28.085  29.852  1.00  0.00    -0.203 F 
ATOM     64  C   UNL A   1      50.068  26.796  31.342  1.00  0.00     0.198 A 
ATOM     65  C   UNL A   1      48.991  25.476  33.035  1.00  0.00     0.198 A 
ATOM     66  F   UNL A   1      46.646  25.425  33.171  1.00  0.00    -0.203 F 
ATOM     67  F   UNL A   1      51.185  27.193  30.717  1.00  0.00    -0.200 F 
ATOM     68  C   UNL A   1      50.149  25.920  32.414  1.00  0.00     0.200 A 
ATOM     69  F   UNL A   1      49.066  24.642  34.081  1.00  0.00    -0.200 F 
ATOM     70  F   UNL A   1      51.344  25.493  32.845  1.00  0.00    -0.200 F 
ENDBRANCH  37  60
ENDBRANCH  11  12
ENDBRANCH   4   6
ENDBRANCH   3   4
ENDBRANCH   2   3
ENDBRANCH   1   2
BRANCH   1  71
ATOM     71  O   UNL A   1      32.792  34.445  28.851  1.00  0.00    -0.460 OA
BRANCH  71  72
ATOM     72  C   UNL A   1      32.835  35.747  29.266  1.00  0.00     0.335 C 
ATOM     73  O   UNL A   1      32.189  36.655  28.761  1.00  0.00    -0.249 OA
BRANCH  72  74
ATOM     74  C   UNL A   1      33.765  35.896  30.494  1.00  0.00     0.228 C 
ATOM     75  C   UNL A   1      33.311  36.992  31.438  1.00  0.00     0.047 C 
ATOM     76  O   UNL A   1      33.867  34.714  31.311  1.00  0.00    -0.362 OA
ATOM     77  C   UNL A   1      32.496  36.231  32.447  1.00  0.00     0.037 C 
ATOM     78  C   UNL A   1      33.350  34.999  32.634  1.00  0.00     0.134 C 
BRANCH  78  79
ATOM     79  C   UNL A   1      34.534  35.205  33.607  1.00  0.00     0.131 C 
BRANCH  79  80
ATOM     80  N   UNL A   1      35.751  34.464  33.182  1.00  0.00    -0.208 NA
ATOM     81  H   UNL A   1      36.291  35.072  32.565  1.00  0.00     0.141 HD
BRANCH  80  82
ATOM     82  S   UNL A   1      36.774  33.958  34.447  1.00  0.00     0.250 S 
ATOM     83  O   UNL A   1      37.879  34.883  34.514  1.00  0.00    -0.206 OA
ATOM     84  O   UNL A   1      35.921  33.709  35.589  1.00  0.00    -0.206 OA
BRANCH  82  85
ATOM     85  C   UNL A   1      37.410  32.355  34.038  1.00  0.00     0.134 A 
ATOM     86  C   UNL A   1      36.937  31.389  33.171  1.00  0.00     0.033 A 
ATOM     87  S   UNL A   1      38.855  31.860  34.802  1.00  0.00    -0.131 S 
ATOM     88  C   UNL A   1      37.803  30.264  33.090  1.00  0.00     0.013 A 
ATOM     89  C   UNL A   1      38.902  30.405  33.908  1.00  0.00     0.066 A 
ENDBRANCH  82  85
ENDBRANCH  80  82
ENDBRANCH  79  80
ENDBRANCH  78  79
ENDBRANCH  72  74
ENDBRANCH  71  72
ENDBRANCH   1  71
TORSDOF 15
ENDMDL
