MODEL 1
REMARK VINA RESULT:     -12.6      0.000      0.000
REMARK SMILES CC(C)(C)n1cc([C@@H]2[C@@H](C(=O)OCCOC(=O)c3ccc(-c4c5nc(c(-c6c(F)c(F)c(F)c(F)c6F)c6ccc([nH]6)c(-c6c(F)c(F)c(F)c(F)c6F)c6nc(c(-c7c(F)c(F)c(F)c(F)c7F)c7ccc4[nH]7)C=C6)C=C5)cc3)CC(=O)N2Cc2cccnc2)cn1
REMARK SMILES IDX 13 1 12 2 10 3 11 4 9 5 8 6 84 7 81 8 82 9 83 10 7 11 5 12
REMARK SMILES IDX 6 13 93 14 92 15 2 16 1 17 3 18 4 19 85 20 86 21 87 22 91 23
REMARK SMILES IDX 88 24 90 25 89 26 14 27 15 28 16 29 17 30 18 31 19 32 80 33
REMARK SMILES IDX 20 34 79 35 21 36 22 37 23 38 73 39 24 40 78 41 72 42 74 43
REMARK SMILES IDX 25 44 77 45 71 46 70 47 26 49 58 50 38 51 57 52 39 53 42 54
REMARK SMILES IDX 56 55 75 56 40 57 41 58 55 60 76 61 43 62 27 63 28 64 36 65
REMARK SMILES IDX 29 66 30 67 34 68 37 69 31 70 32 71 35 72 33 73 59 74 60 75
REMARK SMILES IDX 68 76 61 77 62 78 66 79 69 80 63 81 64 82 67 83 65 84 44 85
REMARK SMILES IDX 45 86 53 87 46 88 47 89 51 90 54 91 48 92 49 93 52 94 50 95
REMARK H PARENT 74 48 42 59
REMARK Flexibility Score: inf
ROOT
ATOM      1  C   UNL A   1      36.984  21.688  25.745  1.00  0.00     0.274 C 
ENDROOT
BRANCH   1   2
ATOM      2  O   UNL A   1      36.317  22.954  25.926  1.00  0.00    -0.462 OA
BRANCH   2   3
ATOM      3  C   UNL A   1      34.964  22.923  25.815  1.00  0.00     0.312 C 
ATOM      4  O   UNL A   1      34.214  22.386  26.623  1.00  0.00    -0.252 OA
BRANCH   3   5
ATOM      5  C   UNL A   1      34.449  23.580  24.563  1.00  0.00     0.136 C 
ATOM      6  C   UNL A   1      32.971  23.814  24.799  1.00  0.00     0.133 C 
ATOM      7  N   UNL A   1      32.388  23.794  23.476  1.00  0.00    -0.330 N 
ATOM      8  C   UNL A   1      34.510  22.808  23.251  1.00  0.00     0.118 C 
ATOM      9  C   UNL A   1      33.225  23.183  22.560  1.00  0.00     0.224 C 
ATOM     10  O   UNL A   1      32.964  22.946  21.389  1.00  0.00    -0.275 OA
BRANCH   6  11
ATOM     11  C   UNL A   1      32.720  25.090  25.520  1.00  0.00     0.013 A 
ATOM     12  N   UNL A   1      32.737  27.161  26.277  1.00  0.00    -0.267 N 
ATOM     13  C   UNL A   1      33.300  26.329  25.348  1.00  0.00     0.115 A 
ATOM     14  N   UNL A   1      31.813  26.533  27.035  1.00  0.00    -0.181 NA
ATOM     15  C   UNL A   1      31.841  25.274  26.609  1.00  0.00     0.141 A 
BRANCH  12  16
ATOM     16  C   UNL A   1      32.944  28.610  26.440  1.00  0.00     0.054 C 
ATOM     17  C   UNL A   1      33.015  29.337  25.082  1.00  0.00     0.036 C 
ATOM     18  C   UNL A   1      34.266  28.885  27.185  1.00  0.00     0.036 C 
ATOM     19  C   UNL A   1      31.765  29.174  27.251  1.00  0.00     0.036 C 
ENDBRANCH  12  16
ENDBRANCH   6  11
BRANCH   7  20
ATOM     20  C   UNL A   1      30.979  24.050  23.211  1.00  0.00     0.157 C 
BRANCH  20  21
ATOM     21  C   UNL A   1      30.679  25.521  23.101  1.00  0.00    -0.010 A 
ATOM     22  C   UNL A   1      29.675  26.126  23.865  1.00  0.00     0.009 A 
ATOM     23  C   UNL A   1      31.355  26.326  22.192  1.00  0.00     0.116 A 
ATOM     24  C   UNL A   1      29.355  27.464  23.666  1.00  0.00     0.020 A 
ATOM     25  N   UNL A   1      31.088  27.640  22.002  1.00  0.00    -0.264 NA
ATOM     26  C   UNL A   1      30.088  28.175  22.734  1.00  0.00     0.111 A 
ENDBRANCH  20  21
ENDBRANCH   7  20
ENDBRANCH   3   5
ENDBRANCH   2   3
ENDBRANCH   1   2
BRANCH   1  27
ATOM     27  C   UNL A   1      38.501  21.852  25.705  1.00  0.00     0.275 C 
BRANCH  27  28
ATOM     28  O   UNL A   1      38.923  22.949  26.517  1.00  0.00    -0.458 OA
BRANCH  28  29
ATOM     29  C   UNL A   1      40.184  22.845  26.989  1.00  0.00     0.338 C 
ATOM     30  O   UNL A   1      40.700  21.862  27.496  1.00  0.00    -0.246 OA
BRANCH  29  31
ATOM     31  C   UNL A   1      40.854  24.144  26.952  1.00  0.00     0.060 A 
ATOM     32  C   UNL A   1      41.874  24.341  27.891  1.00  0.00     0.016 A 
ATOM     33  C   UNL A   1      40.225  25.204  26.292  1.00  0.00     0.016 A 
ATOM     34  C   UNL A   1      42.075  25.612  28.369  1.00  0.00     0.010 A 
ATOM     35  C   UNL A   1      40.412  26.469  26.784  1.00  0.00     0.010 A 
ATOM     36  C   UNL A   1      41.256  26.633  27.883  1.00  0.00    -0.014 A 
BRANCH  36  37
ATOM     37  C   UNL A   1      41.272  27.900  28.577  1.00  0.00     0.031 A 
ATOM     38  C   UNL A   1      42.443  28.749  28.269  1.00  0.00     0.074 A 
ATOM     39  C   UNL A   1      40.216  28.286  29.317  1.00  0.00     0.049 A 
ATOM     40  N   UNL A   1      43.304  29.261  29.083  1.00  0.00    -0.248 NA
ATOM     41  C   UNL A   1      42.748  28.966  26.845  1.00  0.00     0.031 C 
ATOM     42  C   UNL A   1      38.903  27.640  29.432  1.00  0.00     0.029 A 
ATOM     43  N   UNL A   1      40.062  29.424  30.040  1.00  0.00    -0.354 N 
ATOM     44  C   UNL A   1      44.173  30.000  28.287  1.00  0.00     0.074 A 
ATOM     45  C   UNL A   1      43.878  29.664  26.919  1.00  0.00     0.031 C 
ATOM     46  C   UNL A   1      38.029  28.511  29.987  1.00  0.00     0.029 A 
ATOM     47  C   UNL A   1      38.749  29.713  30.371  1.00  0.00     0.049 A 
ATOM     48  H   UNL A   1      40.818  29.994  30.307  1.00  0.00     0.167 HD
ATOM     49  C   UNL A   1      44.923  31.011  28.796  1.00  0.00     0.037 A 
ATOM     50  C   UNL A   1      38.292  30.903  30.832  1.00  0.00     0.037 A 
ATOM     51  C   UNL A   1      45.089  30.889  30.217  1.00  0.00     0.049 A 
ATOM     52  C   UNL A   1      39.465  31.669  31.329  1.00  0.00     0.074 A 
ATOM     53  C   UNL A   1      45.675  29.948  31.042  1.00  0.00     0.029 A 
ATOM     54  N   UNL A   1      44.304  31.661  31.037  1.00  0.00    -0.354 N 
ATOM     55  N   UNL A   1      40.161  31.340  32.382  1.00  0.00    -0.248 NA
ATOM     56  C   UNL A   1      40.138  32.558  30.392  1.00  0.00     0.031 C 
ATOM     57  C   UNL A   1      44.852  29.908  32.205  1.00  0.00     0.029 A 
ATOM     58  C   UNL A   1      43.835  30.846  32.035  1.00  0.00     0.049 A 
ATOM     59  H   UNL A   1      44.114  32.621  30.928  1.00  0.00     0.167 HD
ATOM     60  C   UNL A   1      41.475  31.641  32.052  1.00  0.00     0.074 A 
ATOM     61  C   UNL A   1      41.388  32.469  30.854  1.00  0.00     0.031 C 
ATOM     62  C   UNL A   1      42.516  30.959  32.613  1.00  0.00     0.037 A 
BRANCH  49  63
ATOM     63  C   UNL A   1      45.213  32.279  28.041  1.00  0.00     0.064 A 
ATOM     64  C   UNL A   1      44.161  33.164  27.748  1.00  0.00     0.173 A 
ATOM     65  C   UNL A   1      46.424  32.517  27.353  1.00  0.00     0.173 A 
ATOM     66  F   UNL A   1      42.958  33.010  28.322  1.00  0.00    -0.203 F 
ATOM     67  C   UNL A   1      44.296  34.175  26.792  1.00  0.00     0.198 A 
ATOM     68  C   UNL A   1      46.574  33.562  26.446  1.00  0.00     0.198 A 
ATOM     69  F   UNL A   1      47.471  31.688  27.443  1.00  0.00    -0.203 F 
ATOM     70  F   UNL A   1      43.234  34.918  26.457  1.00  0.00    -0.200 F 
ATOM     71  C   UNL A   1      45.501  34.372  26.141  1.00  0.00     0.200 A 
ATOM     72  F   UNL A   1      47.744  33.722  25.812  1.00  0.00    -0.200 F 
ATOM     73  F   UNL A   1      45.616  35.302  25.186  1.00  0.00    -0.200 F 
ENDBRANCH  49  63
BRANCH  50  74
ATOM     74  C   UNL A   1      36.982  31.533  30.548  1.00  0.00     0.064 A 
ATOM     75  C   UNL A   1      36.065  31.800  31.575  1.00  0.00     0.173 A 
ATOM     76  C   UNL A   1      36.705  32.115  29.294  1.00  0.00     0.173 A 
ATOM     77  F   UNL A   1      36.283  31.328  32.811  1.00  0.00    -0.203 F 
ATOM     78  C   UNL A   1      34.943  32.608  31.362  1.00  0.00     0.198 A 
ATOM     79  C   UNL A   1      35.581  32.911  29.080  1.00  0.00     0.198 A 
ATOM     80  F   UNL A   1      37.568  31.998  28.274  1.00  0.00    -0.203 F 
ATOM     81  F   UNL A   1      34.117  32.887  32.381  1.00  0.00    -0.200 F 
ATOM     82  C   UNL A   1      34.704  33.167  30.117  1.00  0.00     0.200 A 
ATOM     83  F   UNL A   1      35.384  33.475  27.880  1.00  0.00    -0.200 F 
ATOM     84  F   UNL A   1      33.659  33.983  29.926  1.00  0.00    -0.200 F 
ENDBRANCH  50  74
BRANCH  62  85
ATOM     85  C   UNL A   1      42.206  30.040  33.761  1.00  0.00     0.064 A 
ATOM     86  C   UNL A   1      41.770  28.715  33.593  1.00  0.00     0.173 A 
ATOM     87  C   UNL A   1      42.514  30.456  35.062  1.00  0.00     0.173 A 
ATOM     88  F   UNL A   1      41.560  28.211  32.372  1.00  0.00    -0.203 F 
ATOM     89  C   UNL A   1      41.610  27.860  34.682  1.00  0.00     0.198 A 
ATOM     90  C   UNL A   1      42.388  29.590  36.145  1.00  0.00     0.198 A 
ATOM     91  F   UNL A   1      42.995  31.691  35.275  1.00  0.00    -0.203 F 
ATOM     92  F   UNL A   1      41.187  26.602  34.492  1.00  0.00    -0.200 F 
ATOM     93  C   UNL A   1      41.928  28.296  35.956  1.00  0.00     0.200 A 
ATOM     94  F   UNL A   1      42.747  29.999  37.370  1.00  0.00    -0.200 F 
ATOM     95  F   UNL A   1      41.821  27.461  36.999  1.00  0.00    -0.200 F 
ENDBRANCH  62  85
ENDBRANCH  36  37
ENDBRANCH  29  31
ENDBRANCH  28  29
ENDBRANCH  27  28
ENDBRANCH   1  27
TORSDOF 15
ENDMDL
MODEL 2
REMARK VINA RESULT:     -12.3      3.250      8.327
REMARK SMILES CC(C)(C)n1cc([C@@H]2[C@@H](C(=O)OCCOC(=O)c3ccc(-c4c5nc(c(-c6c(F)c(F)c(F)c(F)c6F)c6ccc([nH]6)c(-c6c(F)c(F)c(F)c(F)c6F)c6nc(c(-c7c(F)c(F)c(F)c(F)c7F)c7ccc4[nH]7)C=C6)C=C5)cc3)CC(=O)N2Cc2cccnc2)cn1
REMARK SMILES IDX 13 1 12 2 10 3 11 4 9 5 8 6 84 7 81 8 82 9 83 10 7 11 5 12
REMARK SMILES IDX 6 13 93 14 92 15 2 16 1 17 3 18 4 19 85 20 86 21 87 22 91 23
REMARK SMILES IDX 88 24 90 25 89 26 14 27 15 28 16 29 17 30 18 31 19 32 80 33
REMARK SMILES IDX 20 34 79 35 21 36 22 37 23 38 73 39 24 40 78 41 72 42 74 43
REMARK SMILES IDX 25 44 77 45 71 46 70 47 26 49 58 50 38 51 57 52 39 53 42 54
REMARK SMILES IDX 56 55 75 56 40 57 41 58 55 60 76 61 43 62 27 63 28 64 36 65
REMARK SMILES IDX 29 66 30 67 34 68 37 69 31 70 32 71 35 72 33 73 59 74 60 75
REMARK SMILES IDX 68 76 61 77 62 78 66 79 69 80 63 81 64 82 67 83 65 84 44 85
REMARK SMILES IDX 45 86 53 87 46 88 47 89 51 90 54 91 48 92 49 93 52 94 50 95
REMARK H PARENT 74 48 42 59
REMARK Flexibility Score: inf
ROOT
ATOM      1  C   UNL A   1      32.833  30.169  26.096  1.00  0.00     0.274 C 
ENDROOT
BRANCH   1   2
ATOM      2  O   UNL A   1      33.727  29.202  25.510  1.00  0.00    -0.462 OA
BRANCH   2   3
ATOM      3  C   UNL A   1      33.257  28.565  24.406  1.00  0.00     0.312 C 
ATOM      4  O   UNL A   1      33.613  28.812  23.258  1.00  0.00    -0.252 OA
BRANCH   3   5
ATOM      5  C   UNL A   1      32.204  27.535  24.710  1.00  0.00     0.136 C 
ATOM      6  C   UNL A   1      32.510  26.355  23.810  1.00  0.00     0.133 C 
ATOM      7  N   UNL A   1      31.227  25.719  23.603  1.00  0.00    -0.330 N 
ATOM      8  C   UNL A   1      30.745  27.869  24.421  1.00  0.00     0.118 C 
ATOM      9  C   UNL A   1      30.181  26.572  23.903  1.00  0.00     0.224 C 
ATOM     10  O   UNL A   1      28.991  26.340  23.743  1.00  0.00    -0.275 OA
BRANCH   6  11
ATOM     11  C   UNL A   1      33.515  25.442  24.415  1.00  0.00     0.013 A 
ATOM     12  N   UNL A   1      35.124  23.985  24.805  1.00  0.00    -0.267 N 
ATOM     13  C   UNL A   1      34.466  24.650  23.806  1.00  0.00     0.115 A 
ATOM     14  N   UNL A   1      34.661  24.311  26.029  1.00  0.00    -0.181 NA
ATOM     15  C   UNL A   1      33.659  25.151  25.788  1.00  0.00     0.141 A 
BRANCH  12  16
ATOM     16  C   UNL A   1      36.291  23.094  24.685  1.00  0.00     0.054 C 
ATOM     17  C   UNL A   1      36.010  21.696  25.272  1.00  0.00     0.036 C 
ATOM     18  C   UNL A   1      37.498  23.684  25.444  1.00  0.00     0.036 C 
ATOM     19  C   UNL A   1      36.635  22.953  23.193  1.00  0.00     0.036 C 
ENDBRANCH  12  16
ENDBRANCH   6  11
BRANCH   7  20
ATOM     20  C   UNL A   1      31.051  24.486  22.847  1.00  0.00     0.157 C 
BRANCH  20  21
ATOM     21  C   UNL A   1      31.382  23.266  23.663  1.00  0.00    -0.010 A 
ATOM     22  C   UNL A   1      30.981  23.142  24.997  1.00  0.00     0.009 A 
ATOM     23  C   UNL A   1      32.149  22.234  23.134  1.00  0.00     0.116 A 
ATOM     24  C   UNL A   1      31.389  22.048  25.752  1.00  0.00     0.020 A 
ATOM     25  N   UNL A   1      32.533  21.141  23.835  1.00  0.00    -0.264 NA
ATOM     26  C   UNL A   1      32.154  21.079  25.129  1.00  0.00     0.111 A 
ENDBRANCH  20  21
ENDBRANCH   7  20
ENDBRANCH   3   5
ENDBRANCH   2   3
ENDBRANCH   1   2
BRANCH   1  27
ATOM     27  C   UNL A   1      33.411  30.767  27.376  1.00  0.00     0.275 C 
BRANCH  27  28
ATOM     28  O   UNL A   1      34.812  30.508  27.480  1.00  0.00    -0.458 OA
BRANCH  28  29
ATOM     29  C   UNL A   1      35.534  31.526  27.994  1.00  0.00     0.338 C 
ATOM     30  O   UNL A   1      35.529  32.690  27.626  1.00  0.00    -0.246 OA
BRANCH  29  31
ATOM     31  C   UNL A   1      36.474  31.032  28.998  1.00  0.00     0.060 A 
ATOM     32  C   UNL A   1      37.598  31.832  29.241  1.00  0.00     0.016 A 
ATOM     33  C   UNL A   1      36.420  29.683  29.361  1.00  0.00     0.016 A 
ATOM     34  C   UNL A   1      38.768  31.211  29.601  1.00  0.00     0.010 A 
ATOM     35  C   UNL A   1      37.594  29.061  29.700  1.00  0.00     0.010 A 
ATOM     36  C   UNL A   1      38.764  29.819  29.710  1.00  0.00    -0.014 A 
BRANCH  36  37
ATOM     37  C   UNL A   1      40.039  29.146  29.811  1.00  0.00     0.031 A 
ATOM     38  C   UNL A   1      40.585  29.076  31.183  1.00  0.00     0.074 A 
ATOM     39  C   UNL A   1      40.571  28.529  28.739  1.00  0.00     0.049 A 
ATOM     40  N   UNL A   1      41.731  29.486  31.616  1.00  0.00    -0.248 NA
ATOM     41  C   UNL A   1      39.683  28.573  32.231  1.00  0.00     0.031 C 
ATOM     42  C   UNL A   1      39.956  28.298  27.426  1.00  0.00     0.029 A 
ATOM     43  N   UNL A   1      41.750  27.865  28.645  1.00  0.00    -0.354 N 
ATOM     44  C   UNL A   1      41.758  29.147  32.966  1.00  0.00     0.074 A 
ATOM     45  C   UNL A   1      40.429  28.730  33.322  1.00  0.00     0.031 C 
ATOM     46  C   UNL A   1      40.669  27.360  26.763  1.00  0.00     0.029 A 
ATOM     47  C   UNL A   1      41.843  27.023  27.550  1.00  0.00     0.049 A 
ATOM     48  H   UNL A   1      42.477  27.972  29.300  1.00  0.00     0.167 HD
ATOM     49  C   UNL A   1      42.927  29.014  33.644  1.00  0.00     0.037 A 
ATOM     50  C   UNL A   1      42.772  26.053  27.372  1.00  0.00     0.037 A 
ATOM     51  C   UNL A   1      44.002  29.715  32.999  1.00  0.00     0.049 A 
ATOM     52  C   UNL A   1      43.897  26.338  28.303  1.00  0.00     0.074 A 
ATOM     53  C   UNL A   1      44.246  31.042  32.702  1.00  0.00     0.029 A 
ATOM     54  N   UNL A   1      44.886  28.996  32.234  1.00  0.00    -0.354 N 
ATOM     55  N   UNL A   1      44.700  27.359  28.188  1.00  0.00    -0.248 NA
ATOM     56  C   UNL A   1      43.852  25.726  29.624  1.00  0.00     0.031 C 
ATOM     57  C   UNL A   1      44.919  31.025  31.446  1.00  0.00     0.029 A 
ATOM     58  C   UNL A   1      45.072  29.691  31.067  1.00  0.00     0.049 A 
ATOM     59  H   UNL A   1      45.308  28.140  32.479  1.00  0.00     0.167 HD
ATOM     60  C   UNL A   1      44.949  27.767  29.491  1.00  0.00     0.074 A 
ATOM     61  C   UNL A   1      44.475  26.672  30.332  1.00  0.00     0.031 C 
ATOM     62  C   UNL A   1      45.254  29.067  29.778  1.00  0.00     0.037 A 
BRANCH  49  63
ATOM     63  C   UNL A   1      43.146  27.970  34.705  1.00  0.00     0.064 A 
ATOM     64  C   UNL A   1      43.543  28.367  35.994  1.00  0.00     0.173 A 
ATOM     65  C   UNL A   1      43.254  26.589  34.428  1.00  0.00     0.173 A 
ATOM     66  F   UNL A   1      43.510  29.660  36.352  1.00  0.00    -0.203 F 
ATOM     67  C   UNL A   1      44.067  27.455  36.914  1.00  0.00     0.198 A 
ATOM     68  C   UNL A   1      43.719  25.674  35.368  1.00  0.00     0.198 A 
ATOM     69  F   UNL A   1      43.024  26.085  33.209  1.00  0.00    -0.203 F 
ATOM     70  F   UNL A   1      44.545  27.894  38.085  1.00  0.00    -0.200 F 
ATOM     71  C   UNL A   1      44.156  26.110  36.600  1.00  0.00     0.200 A 
ATOM     72  F   UNL A   1      43.816  24.379  35.035  1.00  0.00    -0.200 F 
ATOM     73  F   UNL A   1      44.708  25.245  37.459  1.00  0.00    -0.200 F 
ENDBRANCH  49  63
BRANCH  50  74
ATOM     74  C   UNL A   1      42.585  24.739  26.715  1.00  0.00     0.064 A 
ATOM     75  C   UNL A   1      43.356  24.365  25.605  1.00  0.00     0.173 A 
ATOM     76  C   UNL A   1      41.819  23.721  27.319  1.00  0.00     0.173 A 
ATOM     77  F   UNL A   1      44.153  25.261  25.006  1.00  0.00    -0.203 F 
ATOM     78  C   UNL A   1      43.365  23.048  25.131  1.00  0.00     0.198 A 
ATOM     79  C   UNL A   1      41.820  22.411  26.839  1.00  0.00     0.198 A 
ATOM     80  F   UNL A   1      41.124  23.954  28.441  1.00  0.00    -0.203 F 
ATOM     81  F   UNL A   1      44.154  22.714  24.100  1.00  0.00    -0.200 F 
ATOM     82  C   UNL A   1      42.602  22.072  25.751  1.00  0.00     0.200 A 
ATOM     83  F   UNL A   1      41.106  21.471  27.473  1.00  0.00    -0.200 F 
ATOM     84  F   UNL A   1      42.650  20.801  25.330  1.00  0.00    -0.200 F 
ENDBRANCH  50  74
BRANCH  62  85
ATOM     85  C   UNL A   1      45.536  29.984  28.621  1.00  0.00     0.064 A 
ATOM     86  C   UNL A   1      44.533  30.678  27.923  1.00  0.00     0.173 A 
ATOM     87  C   UNL A   1      46.866  30.297  28.316  1.00  0.00     0.173 A 
ATOM     88  F   UNL A   1      43.241  30.513  28.232  1.00  0.00    -0.203 F 
ATOM     89  C   UNL A   1      44.847  31.610  26.937  1.00  0.00     0.198 A 
ATOM     90  C   UNL A   1      47.179  31.256  27.356  1.00  0.00     0.198 A 
ATOM     91  F   UNL A   1      47.866  29.712  28.995  1.00  0.00    -0.203 F 
ATOM     92  F   UNL A   1      43.869  32.253  26.283  1.00  0.00    -0.200 F 
ATOM     93  C   UNL A   1      46.170  31.904  26.661  1.00  0.00     0.200 A 
ATOM     94  F   UNL A   1      48.461  31.576  27.128  1.00  0.00    -0.200 F 
ATOM     95  F   UNL A   1      46.475  32.836  25.747  1.00  0.00    -0.200 F 
ENDBRANCH  62  85
ENDBRANCH  36  37
ENDBRANCH  29  31
ENDBRANCH  28  29
ENDBRANCH  27  28
ENDBRANCH   1  27
TORSDOF 15
ENDMDL
MODEL 3
REMARK VINA RESULT:     -12.2      3.221      8.363
REMARK SMILES CC(C)(C)n1cc([C@@H]2[C@@H](C(=O)OCCOC(=O)c3ccc(-c4c5nc(c(-c6c(F)c(F)c(F)c(F)c6F)c6ccc([nH]6)c(-c6c(F)c(F)c(F)c(F)c6F)c6nc(c(-c7c(F)c(F)c(F)c(F)c7F)c7ccc4[nH]7)C=C6)C=C5)cc3)CC(=O)N2Cc2cccnc2)cn1
REMARK SMILES IDX 13 1 12 2 10 3 11 4 9 5 8 6 84 7 81 8 82 9 83 10 7 11 5 12
REMARK SMILES IDX 6 13 93 14 92 15 2 16 1 17 3 18 4 19 85 20 86 21 87 22 91 23
REMARK SMILES IDX 88 24 90 25 89 26 14 27 15 28 16 29 17 30 18 31 19 32 80 33
REMARK SMILES IDX 20 34 79 35 21 36 22 37 23 38 73 39 24 40 78 41 72 42 74 43
REMARK SMILES IDX 25 44 77 45 71 46 70 47 26 49 58 50 38 51 57 52 39 53 42 54
REMARK SMILES IDX 56 55 75 56 40 57 41 58 55 60 76 61 43 62 27 63 28 64 36 65
REMARK SMILES IDX 29 66 30 67 34 68 37 69 31 70 32 71 35 72 33 73 59 74 60 75
REMARK SMILES IDX 68 76 61 77 62 78 66 79 69 80 63 81 64 82 67 83 65 84 44 85
REMARK SMILES IDX 45 86 53 87 46 88 47 89 51 90 54 91 48 92 49 93 52 94 50 95
REMARK H PARENT 74 48 42 59
REMARK Flexibility Score: inf
ROOT
ATOM      1  C   UNL A   1      32.585  30.355  26.583  1.00  0.00     0.274 C 
ENDROOT
BRANCH   1   2
ATOM      2  O   UNL A   1      32.098  29.413  27.560  1.00  0.00    -0.462 OA
BRANCH   2   3
ATOM      3  C   UNL A   1      31.843  28.164  27.091  1.00  0.00     0.312 C 
ATOM      4  O   UNL A   1      31.049  27.380  27.602  1.00  0.00    -0.252 OA
BRANCH   3   5
ATOM      5  C   UNL A   1      32.669  27.792  25.890  1.00  0.00     0.136 C 
ATOM      6  C   UNL A   1      31.732  27.047  24.961  1.00  0.00     0.133 C 
ATOM      7  N   UNL A   1      32.597  26.163  24.211  1.00  0.00    -0.330 N 
ATOM      8  C   UNL A   1      33.852  26.850  26.076  1.00  0.00     0.118 C 
ATOM      9  C   UNL A   1      33.816  25.989  24.842  1.00  0.00     0.224 C 
ATOM     10  O   UNL A   1      34.710  25.233  24.488  1.00  0.00    -0.275 OA
BRANCH   6  11
ATOM     11  C   UNL A   1      30.962  27.975  24.090  1.00  0.00     0.013 A 
ATOM     12  N   UNL A   1      29.405  29.156  23.069  1.00  0.00    -0.267 N 
ATOM     13  C   UNL A   1      29.611  28.250  24.074  1.00  0.00     0.115 A 
ATOM     14  N   UNL A   1      30.550  29.493  22.440  1.00  0.00    -0.181 NA
ATOM     15  C   UNL A   1      31.479  28.743  23.025  1.00  0.00     0.141 A 
BRANCH  12  16
ATOM     16  C   UNL A   1      28.153  29.842  22.709  1.00  0.00     0.054 C 
ATOM     17  C   UNL A   1      28.138  30.275  21.229  1.00  0.00     0.036 C 
ATOM     18  C   UNL A   1      27.967  31.111  23.567  1.00  0.00     0.036 C 
ATOM     19  C   UNL A   1      26.986  28.872  22.961  1.00  0.00     0.036 C 
ENDBRANCH  12  16
ENDBRANCH   6  11
BRANCH   7  20
ATOM     20  C   UNL A   1      32.131  25.297  23.138  1.00  0.00     0.157 C 
BRANCH  20  21
ATOM     21  C   UNL A   1      32.063  23.853  23.560  1.00  0.00    -0.010 A 
ATOM     22  C   UNL A   1      31.370  23.454  24.707  1.00  0.00     0.009 A 
ATOM     23  C   UNL A   1      32.737  22.866  22.850  1.00  0.00     0.116 A 
ATOM     24  C   UNL A   1      31.413  22.128  25.124  1.00  0.00     0.020 A 
ATOM     25  N   UNL A   1      32.767  21.561  23.214  1.00  0.00    -0.264 NA
ATOM     26  C   UNL A   1      32.115  21.226  24.347  1.00  0.00     0.111 A 
ENDBRANCH  20  21
ENDBRANCH   7  20
ENDBRANCH   3   5
ENDBRANCH   2   3
ENDBRANCH   1   2
BRANCH   1  27
ATOM     27  C   UNL A   1      33.529  31.378  27.209  1.00  0.00     0.275 C 
BRANCH  27  28
ATOM     28  O   UNL A   1      34.750  30.766  27.626  1.00  0.00    -0.458 OA
BRANCH  28  29
ATOM     29  C   UNL A   1      35.707  31.634  28.017  1.00  0.00     0.338 C 
ATOM     30  O   UNL A   1      35.889  32.766  27.598  1.00  0.00    -0.246 OA
BRANCH  29  31
ATOM     31  C   UNL A   1      36.635  30.990  28.946  1.00  0.00     0.060 A 
ATOM     32  C   UNL A   1      37.655  31.798  29.462  1.00  0.00     0.016 A 
ATOM     33  C   UNL A   1      36.699  29.593  28.968  1.00  0.00     0.016 A 
ATOM     34  C   UNL A   1      38.861  31.210  29.754  1.00  0.00     0.010 A 
ATOM     35  C   UNL A   1      37.910  29.010  29.240  1.00  0.00     0.010 A 
ATOM     36  C   UNL A   1      38.994  29.839  29.525  1.00  0.00    -0.014 A 
BRANCH  36  37
ATOM     37  C   UNL A   1      40.323  29.275  29.562  1.00  0.00     0.031 A 
ATOM     38  C   UNL A   1      40.892  29.143  30.921  1.00  0.00     0.074 A 
ATOM     39  C   UNL A   1      40.891  28.793  28.440  1.00  0.00     0.049 A 
ATOM     40  N   UNL A   1      42.004  29.615  31.378  1.00  0.00    -0.248 NA
ATOM     41  C   UNL A   1      40.051  28.481  31.931  1.00  0.00     0.031 C 
ATOM     42  C   UNL A   1      40.280  28.615  27.118  1.00  0.00     0.029 A 
ATOM     43  N   UNL A   1      42.122  28.244  28.286  1.00  0.00    -0.354 N 
ATOM     44  C   UNL A   1      42.079  29.173  32.695  1.00  0.00     0.074 A 
ATOM     45  C   UNL A   1      40.796  28.615  33.026  1.00  0.00     0.031 C 
ATOM     46  C   UNL A   1      41.063  27.799  26.376  1.00  0.00     0.029 A 
ATOM     47  C   UNL A   1      42.272  27.504  27.126  1.00  0.00     0.049 A 
ATOM     48  H   UNL A   1      42.846  28.362  28.942  1.00  0.00     0.167 HD
ATOM     49  C   UNL A   1      43.264  29.090  33.353  1.00  0.00     0.037 A 
ATOM     50  C   UNL A   1      43.279  26.636  26.864  1.00  0.00     0.037 A 
ATOM     51  C   UNL A   1      44.266  29.930  32.759  1.00  0.00     0.049 A 
ATOM     52  C   UNL A   1      44.388  26.943  27.807  1.00  0.00     0.074 A 
ATOM     53  C   UNL A   1      44.390  31.293  32.569  1.00  0.00     0.029 A 
ATOM     54  N   UNL A   1      45.198  29.355  31.933  1.00  0.00    -0.354 N 
ATOM     55  N   UNL A   1      45.098  28.036  27.770  1.00  0.00    -0.248 NA
ATOM     56  C   UNL A   1      44.415  26.226  29.074  1.00  0.00     0.031 C 
ATOM     57  C   UNL A   1      45.044  31.435  31.311  1.00  0.00     0.029 A 
ATOM     58  C   UNL A   1      45.307  30.154  30.824  1.00  0.00     0.049 A 
ATOM     59  H   UNL A   1      45.695  28.522  32.105  1.00  0.00     0.167 HD
ATOM     60  C   UNL A   1      45.329  28.358  29.100  1.00  0.00     0.074 A 
ATOM     61  C   UNL A   1      44.963  27.163  29.852  1.00  0.00     0.031 C 
ATOM     62  C   UNL A   1      45.524  29.653  29.488  1.00  0.00     0.037 A 
BRANCH  49  63
ATOM     63  C   UNL A   1      43.587  27.988  34.324  1.00  0.00     0.064 A 
ATOM     64  C   UNL A   1      43.548  26.651  33.891  1.00  0.00     0.173 A 
ATOM     65  C   UNL A   1      43.656  28.177  35.723  1.00  0.00     0.173 A 
ATOM     66  F   UNL A   1      43.452  26.358  32.585  1.00  0.00    -0.203 F 
ATOM     67  C   UNL A   1      43.518  25.586  34.796  1.00  0.00     0.198 A 
ATOM     68  C   UNL A   1      43.687  27.112  36.619  1.00  0.00     0.198 A 
ATOM     69  F   UNL A   1      43.581  29.390  36.284  1.00  0.00    -0.203 F 
ATOM     70  F   UNL A   1      43.359  24.336  34.344  1.00  0.00    -0.200 F 
ATOM     71  C   UNL A   1      43.586  25.817  36.158  1.00  0.00     0.200 A 
ATOM     72  F   UNL A   1      43.732  27.360  37.936  1.00  0.00    -0.200 F 
ATOM     73  F   UNL A   1      43.501  24.803  37.027  1.00  0.00    -0.200 F 
ENDBRANCH  49  63
BRANCH  50  74
ATOM     74  C   UNL A   1      43.198  25.367  26.104  1.00  0.00     0.064 A 
ATOM     75  C   UNL A   1      44.182  25.014  25.170  1.00  0.00     0.173 A 
ATOM     76  C   UNL A   1      42.281  24.357  26.463  1.00  0.00     0.173 A 
ATOM     77  F   UNL A   1      45.123  25.901  24.816  1.00  0.00    -0.203 F 
ATOM     78  C   UNL A   1      44.250  23.724  24.632  1.00  0.00     0.198 A 
ATOM     79  C   UNL A   1      42.344  23.075  25.917  1.00  0.00     0.198 A 
ATOM     80  F   UNL A   1      41.363  24.565  27.417  1.00  0.00    -0.203 F 
ATOM     81  F   UNL A   1      45.237  23.406  23.782  1.00  0.00    -0.200 F 
ATOM     82  C   UNL A   1      43.335  22.755  25.009  1.00  0.00     0.200 A 
ATOM     83  F   UNL A   1      41.474  22.138  26.321  1.00  0.00    -0.200 F 
ATOM     84  F   UNL A   1      43.431  21.506  24.534  1.00  0.00    -0.200 F 
ENDBRANCH  50  74
BRANCH  62  85
ATOM     85  C   UNL A   1      45.710  30.680  28.406  1.00  0.00     0.064 A 
ATOM     86  C   UNL A   1      44.643  31.372  27.807  1.00  0.00     0.173 A 
ATOM     87  C   UNL A   1      47.008  31.095  28.085  1.00  0.00     0.173 A 
ATOM     88  F   UNL A   1      43.377  31.107  28.145  1.00  0.00    -0.203 F 
ATOM     89  C   UNL A   1      44.868  32.402  26.897  1.00  0.00     0.198 A 
ATOM     90  C   UNL A   1      47.230  32.149  27.202  1.00  0.00     0.198 A 
ATOM     91  F   UNL A   1      48.064  30.513  28.675  1.00  0.00    -0.203 F 
ATOM     92  F   UNL A   1      43.831  33.041  26.336  1.00  0.00    -0.200 F 
ATOM     93  C   UNL A   1      46.161  32.795  26.602  1.00  0.00     0.200 A 
ATOM     94  F   UNL A   1      48.482  32.561  26.959  1.00  0.00    -0.200 F 
ATOM     95  F   UNL A   1      46.379  33.818  25.763  1.00  0.00    -0.200 F 
ENDBRANCH  62  85
ENDBRANCH  36  37
ENDBRANCH  29  31
ENDBRANCH  28  29
ENDBRANCH  27  28
ENDBRANCH   1  27
TORSDOF 15
ENDMDL
