MODEL 1
REMARK VINA RESULT:     -13.9      0.000      0.000
REMARK SMILES O=C(Nc1ccccc1C(=O)OCCOC(=O)c1ccc(-c2c3nc(c(-c4c(F)c(F)c(F)c(F)c4F)c4ccc([nH]4)c(-c4c(F)c(F)c(F)c(F)c4F)c4nc(c(-c5c(F)c(F)c(F)c(F)c5F)c5ccc2[nH]5)C=C4)C=C3)cc1)c1ccc(N2C(=O)[C@H]3CC=CC[C@H]3C2=O)cc1
REMARK SMILES IDX 13 1 12 2 10 3 11 4 9 5 4 6 5 7 6 8 8 9 7 10 3 11 1 12 2 13
REMARK SMILES IDX 81 15 82 16 97 17 83 18 96 19 84 20 85 21 86 22 94 23 87 24
REMARK SMILES IDX 88 25 93 26 95 27 89 28 92 29 90 30 91 31 14 32 15 33 16 34
REMARK SMILES IDX 17 35 18 36 19 37 80 38 20 39 79 40 21 41 22 42 23 43 73 44
REMARK SMILES IDX 24 45 78 46 72 47 74 48 25 49 77 50 71 51 70 52 26 54 58 55
REMARK SMILES IDX 38 56 57 57 39 58 42 59 56 60 75 61 40 62 41 63 55 65 76 66
REMARK SMILES IDX 43 67 27 68 28 69 36 70 29 71 30 72 34 73 37 74 31 75 32 76
REMARK SMILES IDX 35 77 33 78 59 79 60 80 68 81 61 82 62 83 66 84 69 85 63 86
REMARK SMILES IDX 64 87 67 88 65 89 44 90 45 91 53 92 46 93 47 94 51 95 54 96
REMARK SMILES IDX 48 97 49 98 52 99 50 100
REMARK H PARENT 3 14 74 53 42 64
REMARK Flexibility Score: inf
ROOT
ATOM      1  C   UNL A   1      31.715  29.868  25.371  1.00  0.00     0.275 C 
ENDROOT
BRANCH   1   2
ATOM      2  O   UNL A   1      32.972  29.169  25.209  1.00  0.00    -0.458 OA
BRANCH   2   3
ATOM      3  C   UNL A   1      33.014  27.924  25.745  1.00  0.00     0.340 C 
ATOM      4  O   UNL A   1      33.906  27.474  26.439  1.00  0.00    -0.246 OA
BRANCH   3   5
ATOM      5  C   UNL A   1      31.829  27.104  25.414  1.00  0.00     0.083 A 
ATOM      6  C   UNL A   1      31.490  26.693  24.118  1.00  0.00     0.056 A 
ATOM      7  C   UNL A   1      30.289  25.982  23.937  1.00  0.00     0.027 A 
ATOM      8  C   UNL A   1      29.514  25.567  25.024  1.00  0.00     0.002 A 
ATOM      9  C   UNL A   1      31.031  26.688  26.498  1.00  0.00     0.018 A 
ATOM     10  C   UNL A   1      29.896  25.903  26.312  1.00  0.00     0.001 A 
BRANCH   6  11
ATOM     11  N   UNL A   1      32.250  26.896  22.949  1.00  0.00    -0.321 N 
ATOM     12  O   UNL A   1      34.000  26.710  21.537  1.00  0.00    -0.269 OA
ATOM     13  C   UNL A   1      33.303  26.189  22.405  1.00  0.00     0.255 C 
ATOM     14  H   UNL A   1      31.980  27.685  22.425  1.00  0.00     0.170 HD
BRANCH  13  15
ATOM     15  C   UNL A   1      33.575  24.782  22.792  1.00  0.00     0.040 A 
ATOM     16  C   UNL A   1      33.060  23.687  22.086  1.00  0.00     0.016 A 
ATOM     17  C   UNL A   1      34.326  24.569  23.949  1.00  0.00     0.016 A 
ATOM     18  C   UNL A   1      33.181  22.393  22.614  1.00  0.00     0.027 A 
ATOM     19  C   UNL A   1      34.383  23.292  24.507  1.00  0.00     0.027 A 
ATOM     20  C   UNL A   1      33.772  22.203  23.869  1.00  0.00     0.052 A 
BRANCH  20  21
ATOM     21  N   UNL A   1      33.727  20.960  24.533  1.00  0.00    -0.250 N 
ATOM     22  C   UNL A   1      32.596  20.394  25.059  1.00  0.00     0.238 C 
ATOM     23  C   UNL A   1      34.848  20.201  24.759  1.00  0.00     0.238 C 
ATOM     24  O   UNL A   1      31.477  20.881  25.143  1.00  0.00    -0.274 OA
ATOM     25  C   UNL A   1      32.921  18.981  25.497  1.00  0.00     0.096 C 
ATOM     26  C   UNL A   1      34.443  18.876  25.349  1.00  0.00     0.096 C 
ATOM     27  O   UNL A   1      36.021  20.505  24.576  1.00  0.00    -0.274 OA
ATOM     28  C   UNL A   1      32.122  17.980  24.653  1.00  0.00     0.041 C 
ATOM     29  C   UNL A   1      34.962  17.779  24.415  1.00  0.00     0.041 C 
ATOM     30  C   UNL A   1      32.757  17.712  23.319  1.00  0.00    -0.030 C 
ATOM     31  C   UNL A   1      34.088  17.614  23.207  1.00  0.00    -0.030 C 
ENDBRANCH  20  21
ENDBRANCH  13  15
ENDBRANCH   6  11
ENDBRANCH   3   5
ENDBRANCH   2   3
ENDBRANCH   1   2
BRANCH   1  32
ATOM     32  C   UNL A   1      31.798  31.101  26.273  1.00  0.00     0.275 C 
BRANCH  32  33
ATOM     33  O   UNL A   1      32.743  30.912  27.340  1.00  0.00    -0.458 OA
BRANCH  33  34
ATOM     34  C   UNL A   1      33.511  31.990  27.584  1.00  0.00     0.338 C 
ATOM     35  O   UNL A   1      33.158  33.157  27.662  1.00  0.00    -0.246 OA
BRANCH  34  36
ATOM     36  C   UNL A   1      34.898  31.600  27.852  1.00  0.00     0.060 A 
ATOM     37  C   UNL A   1      35.126  30.277  28.210  1.00  0.00     0.016 A 
ATOM     38  C   UNL A   1      35.887  32.557  28.041  1.00  0.00     0.016 A 
ATOM     39  C   UNL A   1      36.253  29.921  28.919  1.00  0.00     0.010 A 
ATOM     40  C   UNL A   1      37.094  32.168  28.632  1.00  0.00     0.010 A 
ATOM     41  C   UNL A   1      37.259  30.859  29.125  1.00  0.00    -0.014 A 
BRANCH  41  42
ATOM     42  C   UNL A   1      38.449  30.474  29.916  1.00  0.00     0.031 A 
ATOM     43  C   UNL A   1      39.460  29.543  29.313  1.00  0.00     0.074 A 
ATOM     44  C   UNL A   1      38.633  30.988  31.146  1.00  0.00     0.049 A 
ATOM     45  N   UNL A   1      40.433  28.892  29.893  1.00  0.00    -0.248 NA
ATOM     46  C   UNL A   1      39.348  29.296  27.866  1.00  0.00     0.031 C 
ATOM     47  C   UNL A   1      37.763  31.975  31.796  1.00  0.00     0.029 A 
ATOM     48  N   UNL A   1      39.611  30.751  32.078  1.00  0.00    -0.354 N 
ATOM     49  C   UNL A   1      41.006  28.111  28.898  1.00  0.00     0.074 A 
ATOM     50  C   UNL A   1      40.269  28.362  27.679  1.00  0.00     0.031 C 
ATOM     51  C   UNL A   1      38.254  32.269  33.007  1.00  0.00     0.029 A 
ATOM     52  C   UNL A   1      39.399  31.408  33.265  1.00  0.00     0.049 A 
ATOM     53  H   UNL A   1      40.388  30.169  31.912  1.00  0.00     0.167 HD
ATOM     54  C   UNL A   1      42.053  27.259  29.009  1.00  0.00     0.037 A 
ATOM     55  C   UNL A   1      40.011  31.273  34.454  1.00  0.00     0.037 A 
ATOM     56  C   UNL A   1      42.788  27.062  30.232  1.00  0.00     0.049 A 
ATOM     57  C   UNL A   1      41.123  30.270  34.570  1.00  0.00     0.074 A 
ATOM     58  C   UNL A   1      43.861  26.225  30.471  1.00  0.00     0.029 A 
ATOM     59  N   UNL A   1      42.526  27.729  31.422  1.00  0.00    -0.354 N 
ATOM     60  N   UNL A   1      41.622  29.479  33.649  1.00  0.00    -0.248 NA
ATOM     61  C   UNL A   1      41.748  30.130  35.888  1.00  0.00     0.031 C 
ATOM     62  C   UNL A   1      44.217  26.347  31.819  1.00  0.00     0.029 A 
ATOM     63  C   UNL A   1      43.408  27.310  32.404  1.00  0.00     0.049 A 
ATOM     64  H   UNL A   1      41.818  28.401  31.549  1.00  0.00     0.167 HD
ATOM     65  C   UNL A   1      42.634  28.764  34.270  1.00  0.00     0.074 A 
ATOM     66  C   UNL A   1      42.690  29.232  35.641  1.00  0.00     0.031 C 
ATOM     67  C   UNL A   1      43.443  27.804  33.757  1.00  0.00     0.037 A 
BRANCH  54  68
ATOM     68  C   UNL A   1      42.429  26.451  27.800  1.00  0.00     0.064 A 
ATOM     69  C   UNL A   1      43.441  26.854  26.916  1.00  0.00     0.173 A 
ATOM     70  C   UNL A   1      41.775  25.237  27.532  1.00  0.00     0.173 A 
ATOM     71  F   UNL A   1      44.088  28.013  27.113  1.00  0.00    -0.203 F 
ATOM     72  C   UNL A   1      43.764  26.088  25.797  1.00  0.00     0.198 A 
ATOM     73  C   UNL A   1      42.123  24.458  26.432  1.00  0.00     0.198 A 
ATOM     74  F   UNL A   1      40.799  24.801  28.343  1.00  0.00    -0.203 F 
ATOM     75  F   UNL A   1      44.698  26.522  24.938  1.00  0.00    -0.200 F 
ATOM     76  C   UNL A   1      43.112  24.888  25.560  1.00  0.00     0.200 A 
ATOM     77  F   UNL A   1      41.500  23.292  26.214  1.00  0.00    -0.200 F 
ATOM     78  F   UNL A   1      43.430  24.149  24.488  1.00  0.00    -0.200 F 
ENDBRANCH  54  68
BRANCH  55  79
ATOM     79  C   UNL A   1      39.535  32.053  35.628  1.00  0.00     0.064 A 
ATOM     80  C   UNL A   1      40.044  33.328  35.902  1.00  0.00     0.173 A 
ATOM     81  C   UNL A   1      38.554  31.543  36.493  1.00  0.00     0.173 A 
ATOM     82  F   UNL A   1      40.993  33.854  35.114  1.00  0.00    -0.203 F 
ATOM     83  C   UNL A   1      39.604  34.055  37.007  1.00  0.00     0.198 A 
ATOM     84  C   UNL A   1      38.088  32.287  37.575  1.00  0.00     0.198 A 
ATOM     85  F   UNL A   1      38.025  30.331  36.274  1.00  0.00    -0.203 F 
ATOM     86  F   UNL A   1      40.143  35.253  37.274  1.00  0.00    -0.200 F 
ATOM     87  C   UNL A   1      38.621  33.538  37.838  1.00  0.00     0.200 A 
ATOM     88  F   UNL A   1      37.118  31.793  38.356  1.00  0.00    -0.200 F 
ATOM     89  F   UNL A   1      38.192  34.243  38.892  1.00  0.00    -0.200 F 
ENDBRANCH  55  79
BRANCH  67  90
ATOM     90  C   UNL A   1      44.487  27.239  34.675  1.00  0.00     0.064 A 
ATOM     91  C   UNL A   1      45.744  27.840  34.825  1.00  0.00     0.173 A 
ATOM     92  C   UNL A   1      44.209  26.092  35.436  1.00  0.00     0.173 A 
ATOM     93  F   UNL A   1      46.063  28.927  34.104  1.00  0.00    -0.203 F 
ATOM     94  C   UNL A   1      46.698  27.296  35.678  1.00  0.00     0.198 A 
ATOM     95  C   UNL A   1      45.151  25.574  36.317  1.00  0.00     0.198 A 
ATOM     96  F   UNL A   1      43.018  25.484  35.333  1.00  0.00    -0.203 F 
ATOM     97  F   UNL A   1      47.914  27.853  35.762  1.00  0.00    -0.200 F 
ATOM     98  C   UNL A   1      46.398  26.169  36.431  1.00  0.00     0.200 A 
ATOM     99  F   UNL A   1      44.854  24.495  37.054  1.00  0.00    -0.200 F 
ATOM    100  F   UNL A   1      47.315  25.652  37.259  1.00  0.00    -0.200 F 
ENDBRANCH  67  90
ENDBRANCH  41  42
ENDBRANCH  34  36
ENDBRANCH  33  34
ENDBRANCH  32  33
ENDBRANCH   1  32
TORSDOF 14
ENDMDL
MODEL 2
REMARK VINA RESULT:     -13.4      2.536      8.238
REMARK SMILES O=C(Nc1ccccc1C(=O)OCCOC(=O)c1ccc(-c2c3nc(c(-c4c(F)c(F)c(F)c(F)c4F)c4ccc([nH]4)c(-c4c(F)c(F)c(F)c(F)c4F)c4nc(c(-c5c(F)c(F)c(F)c(F)c5F)c5ccc2[nH]5)C=C4)C=C3)cc1)c1ccc(N2C(=O)[C@H]3CC=CC[C@H]3C2=O)cc1
REMARK SMILES IDX 13 1 12 2 10 3 11 4 9 5 4 6 5 7 6 8 8 9 7 10 3 11 1 12 2 13
REMARK SMILES IDX 81 15 82 16 97 17 83 18 96 19 84 20 85 21 86 22 94 23 87 24
REMARK SMILES IDX 88 25 93 26 95 27 89 28 92 29 90 30 91 31 14 32 15 33 16 34
REMARK SMILES IDX 17 35 18 36 19 37 80 38 20 39 79 40 21 41 22 42 23 43 73 44
REMARK SMILES IDX 24 45 78 46 72 47 74 48 25 49 77 50 71 51 70 52 26 54 58 55
REMARK SMILES IDX 38 56 57 57 39 58 42 59 56 60 75 61 40 62 41 63 55 65 76 66
REMARK SMILES IDX 43 67 27 68 28 69 36 70 29 71 30 72 34 73 37 74 31 75 32 76
REMARK SMILES IDX 35 77 33 78 59 79 60 80 68 81 61 82 62 83 66 84 69 85 63 86
REMARK SMILES IDX 64 87 67 88 65 89 44 90 45 91 53 92 46 93 47 94 51 95 54 96
REMARK SMILES IDX 48 97 49 98 52 99 50 100
REMARK H PARENT 3 14 74 53 42 64
REMARK Flexibility Score: inf
ROOT
ATOM      1  C   UNL A   1      34.221  35.563  28.531  1.00  0.00     0.275 C 
ENDROOT
BRANCH   1   2
ATOM      2  O   UNL A   1      34.558  34.177  28.777  1.00  0.00    -0.458 OA
BRANCH   2   3
ATOM      3  C   UNL A   1      33.832  33.272  28.074  1.00  0.00     0.340 C 
ATOM      4  O   UNL A   1      32.717  33.448  27.620  1.00  0.00    -0.246 OA
BRANCH   3   5
ATOM      5  C   UNL A   1      34.532  31.984  27.880  1.00  0.00     0.083 A 
ATOM      6  C   UNL A   1      33.934  30.834  27.348  1.00  0.00     0.056 A 
ATOM      7  C   UNL A   1      34.696  29.652  27.292  1.00  0.00     0.027 A 
ATOM      8  C   UNL A   1      36.055  29.641  27.623  1.00  0.00     0.002 A 
ATOM      9  C   UNL A   1      35.899  31.954  28.220  1.00  0.00     0.018 A 
ATOM     10  C   UNL A   1      36.665  30.801  28.069  1.00  0.00     0.001 A 
BRANCH   6  11
ATOM     11  N   UNL A   1      32.629  30.732  26.826  1.00  0.00    -0.321 N 
ATOM     12  O   UNL A   1      31.008  30.226  25.341  1.00  0.00    -0.269 OA
ATOM     13  C   UNL A   1      32.100  29.941  25.827  1.00  0.00     0.255 C 
ATOM     14  H   UNL A   1      31.977  31.334  27.251  1.00  0.00     0.170 HD
BRANCH  13  15
ATOM     15  C   UNL A   1      32.787  28.707  25.369  1.00  0.00     0.040 A 
ATOM     16  C   UNL A   1      33.552  28.655  24.196  1.00  0.00     0.016 A 
ATOM     17  C   UNL A   1      32.595  27.547  26.121  1.00  0.00     0.016 A 
ATOM     18  C   UNL A   1      34.005  27.421  23.707  1.00  0.00     0.027 A 
ATOM     19  C   UNL A   1      32.985  26.315  25.598  1.00  0.00     0.027 A 
ATOM     20  C   UNL A   1      33.651  26.237  24.367  1.00  0.00     0.052 A 
BRANCH  20  21
ATOM     21  N   UNL A   1      33.899  24.968  23.803  1.00  0.00    -0.250 N 
ATOM     22  C   UNL A   1      34.922  24.135  24.170  1.00  0.00     0.238 C 
ATOM     23  C   UNL A   1      33.144  24.455  22.778  1.00  0.00     0.238 C 
ATOM     24  O   UNL A   1      35.839  24.362  24.947  1.00  0.00    -0.274 OA
ATOM     25  C   UNL A   1      34.725  22.797  23.488  1.00  0.00     0.096 C 
ATOM     26  C   UNL A   1      33.567  23.034  22.511  1.00  0.00     0.096 C 
ATOM     27  O   UNL A   1      32.282  25.016  22.114  1.00  0.00    -0.274 OA
ATOM     28  C   UNL A   1      34.467  21.712  24.541  1.00  0.00     0.041 C 
ATOM     29  C   UNL A   1      32.332  22.145  22.691  1.00  0.00     0.041 C 
ATOM     30  C   UNL A   1      33.040  21.685  25.006  1.00  0.00    -0.030 C 
ATOM     31  C   UNL A   1      32.039  21.885  24.139  1.00  0.00    -0.030 C 
ENDBRANCH  20  21
ENDBRANCH  13  15
ENDBRANCH   6  11
ENDBRANCH   3   5
ENDBRANCH   2   3
ENDBRANCH   1   2
BRANCH   1  32
ATOM     32  C   UNL A   1      33.055  36.082  29.374  1.00  0.00     0.275 C 
BRANCH  32  33
ATOM     33  O   UNL A   1      33.481  36.439  30.701  1.00  0.00    -0.458 OA
BRANCH  33  34
ATOM     34  C   UNL A   1      32.888  35.723  31.675  1.00  0.00     0.338 C 
ATOM     35  O   UNL A   1      31.694  35.519  31.830  1.00  0.00    -0.246 OA
BRANCH  34  36
ATOM     36  C   UNL A   1      33.882  35.096  32.549  1.00  0.00     0.060 A 
ATOM     37  C   UNL A   1      35.165  35.631  32.537  1.00  0.00     0.016 A 
ATOM     38  C   UNL A   1      33.649  33.852  33.122  1.00  0.00     0.016 A 
ATOM     39  C   UNL A   1      36.250  34.874  32.923  1.00  0.00     0.010 A 
ATOM     40  C   UNL A   1      34.732  33.140  33.647  1.00  0.00     0.010 A 
ATOM     41  C   UNL A   1      36.046  33.624  33.498  1.00  0.00    -0.014 A 
BRANCH  41  42
ATOM     42  C   UNL A   1      37.221  32.808  33.878  1.00  0.00     0.031 A 
ATOM     43  C   UNL A   1      37.882  33.048  35.203  1.00  0.00     0.074 A 
ATOM     44  C   UNL A   1      37.659  31.839  33.053  1.00  0.00     0.049 A 
ATOM     45  N   UNL A   1      39.043  32.631  35.635  1.00  0.00    -0.248 NA
ATOM     46  C   UNL A   1      37.147  33.887  36.165  1.00  0.00     0.031 C 
ATOM     47  C   UNL A   1      37.036  31.456  31.782  1.00  0.00     0.029 A 
ATOM     48  N   UNL A   1      38.738  30.998  33.156  1.00  0.00    -0.354 N 
ATOM     49  C   UNL A   1      39.205  33.208  36.887  1.00  0.00     0.074 A 
ATOM     50  C   UNL A   1      38.030  34.010  37.145  1.00  0.00     0.031 C 
ATOM     51  C   UNL A   1      37.729  30.449  31.234  1.00  0.00     0.029 A 
ATOM     52  C   UNL A   1      38.908  30.199  32.052  1.00  0.00     0.049 A 
ATOM     53  H   UNL A   1      39.330  30.970  33.942  1.00  0.00     0.167 HD
ATOM     54  C   UNL A   1      40.253  33.074  37.734  1.00  0.00     0.037 A 
ATOM     55  C   UNL A   1      39.938  29.410  31.701  1.00  0.00     0.037 A 
ATOM     56  C   UNL A   1      41.391  32.235  37.461  1.00  0.00     0.049 A 
ATOM     57  C   UNL A   1      41.119  29.333  32.625  1.00  0.00     0.074 A 
ATOM     58  C   UNL A   1      42.516  32.022  38.236  1.00  0.00     0.029 A 
ATOM     59  N   UNL A   1      41.539  31.459  36.318  1.00  0.00    -0.354 N 
ATOM     60  N   UNL A   1      41.307  29.931  33.777  1.00  0.00    -0.248 NA
ATOM     61  C   UNL A   1      42.236  28.485  32.197  1.00  0.00     0.031 C 
ATOM     62  C   UNL A   1      43.366  31.156  37.540  1.00  0.00     0.029 A 
ATOM     63  C   UNL A   1      42.743  30.777  36.360  1.00  0.00     0.049 A 
ATOM     64  H   UNL A   1      40.883  31.402  35.586  1.00  0.00     0.167 HD
ATOM     65  C   UNL A   1      42.552  29.516  34.223  1.00  0.00     0.074 A 
ATOM     66  C   UNL A   1      43.063  28.597  33.224  1.00  0.00     0.031 C 
ATOM     67  C   UNL A   1      43.218  29.862  35.353  1.00  0.00     0.037 A 
BRANCH  54  68
ATOM     68  C   UNL A   1      40.235  33.881  39.002  1.00  0.00     0.064 A 
ATOM     69  C   UNL A   1      40.856  35.135  39.099  1.00  0.00     0.173 A 
ATOM     70  C   UNL A   1      39.563  33.397  40.136  1.00  0.00     0.173 A 
ATOM     71  F   UNL A   1      41.528  35.640  38.052  1.00  0.00    -0.203 F 
ATOM     72  C   UNL A   1      40.830  35.859  40.290  1.00  0.00     0.198 A 
ATOM     73  C   UNL A   1      39.510  34.137  41.314  1.00  0.00     0.198 A 
ATOM     74  F   UNL A   1      38.950  32.203  40.101  1.00  0.00    -0.203 F 
ATOM     75  F   UNL A   1      41.477  37.030  40.374  1.00  0.00    -0.200 F 
ATOM     76  C   UNL A   1      40.150  35.364  41.392  1.00  0.00     0.200 A 
ATOM     77  F   UNL A   1      38.841  33.662  42.373  1.00  0.00    -0.200 F 
ATOM     78  F   UNL A   1      40.120  36.065  42.534  1.00  0.00    -0.200 F 
ENDBRANCH  54  68
BRANCH  55  79
ATOM     79  C   UNL A   1      39.918  28.698  30.395  1.00  0.00     0.064 A 
ATOM     80  C   UNL A   1      40.476  29.277  29.248  1.00  0.00     0.173 A 
ATOM     81  C   UNL A   1      39.350  27.421  30.269  1.00  0.00     0.173 A 
ATOM     82  F   UNL A   1      41.018  30.502  29.312  1.00  0.00    -0.203 F 
ATOM     83  C   UNL A   1      40.449  28.614  28.023  1.00  0.00     0.198 A 
ATOM     84  C   UNL A   1      39.359  26.743  29.052  1.00  0.00     0.198 A 
ATOM     85  F   UNL A   1      38.809  26.814  31.336  1.00  0.00    -0.203 F 
ATOM     86  F   UNL A   1      40.947  29.211  26.931  1.00  0.00    -0.200 F 
ATOM     87  C   UNL A   1      39.898  27.345  27.927  1.00  0.00     0.200 A 
ATOM     88  F   UNL A   1      38.850  25.506  28.973  1.00  0.00    -0.200 F 
ATOM     89  F   UNL A   1      39.884  26.704  26.751  1.00  0.00    -0.200 F 
ENDBRANCH  55  79
BRANCH  67  90
ATOM     90  C   UNL A   1      44.545  29.203  35.585  1.00  0.00     0.064 A 
ATOM     91  C   UNL A   1      45.744  29.775  35.138  1.00  0.00     0.173 A 
ATOM     92  C   UNL A   1      44.615  27.992  36.293  1.00  0.00     0.173 A 
ATOM     93  F   UNL A   1      45.727  30.921  34.440  1.00  0.00    -0.203 F 
ATOM     94  C   UNL A   1      46.963  29.143  35.362  1.00  0.00     0.198 A 
ATOM     95  C   UNL A   1      45.838  27.383  36.548  1.00  0.00     0.198 A 
ATOM     96  F   UNL A   1      43.496  27.408  36.747  1.00  0.00    -0.203 F 
ATOM     97  F   UNL A   1      48.091  29.677  34.874  1.00  0.00    -0.200 F 
ATOM     98  C   UNL A   1      47.010  27.953  36.074  1.00  0.00     0.200 A 
ATOM     99  F   UNL A   1      45.883  26.242  37.249  1.00  0.00    -0.200 F 
ATOM    100  F   UNL A   1      48.186  27.350  36.296  1.00  0.00    -0.200 F 
ENDBRANCH  67  90
ENDBRANCH  41  42
ENDBRANCH  34  36
ENDBRANCH  33  34
ENDBRANCH  32  33
ENDBRANCH   1  32
TORSDOF 14
ENDMDL
MODEL 3
REMARK VINA RESULT:     -13.3      4.202     10.246
REMARK SMILES O=C(Nc1ccccc1C(=O)OCCOC(=O)c1ccc(-c2c3nc(c(-c4c(F)c(F)c(F)c(F)c4F)c4ccc([nH]4)c(-c4c(F)c(F)c(F)c(F)c4F)c4nc(c(-c5c(F)c(F)c(F)c(F)c5F)c5ccc2[nH]5)C=C4)C=C3)cc1)c1ccc(N2C(=O)[C@H]3CC=CC[C@H]3C2=O)cc1
REMARK SMILES IDX 13 1 12 2 10 3 11 4 9 5 4 6 5 7 6 8 8 9 7 10 3 11 1 12 2 13
REMARK SMILES IDX 81 15 82 16 97 17 83 18 96 19 84 20 85 21 86 22 94 23 87 24
REMARK SMILES IDX 88 25 93 26 95 27 89 28 92 29 90 30 91 31 14 32 15 33 16 34
REMARK SMILES IDX 17 35 18 36 19 37 80 38 20 39 79 40 21 41 22 42 23 43 73 44
REMARK SMILES IDX 24 45 78 46 72 47 74 48 25 49 77 50 71 51 70 52 26 54 58 55
REMARK SMILES IDX 38 56 57 57 39 58 42 59 56 60 75 61 40 62 41 63 55 65 76 66
REMARK SMILES IDX 43 67 27 68 28 69 36 70 29 71 30 72 34 73 37 74 31 75 32 76
REMARK SMILES IDX 35 77 33 78 59 79 60 80 68 81 61 82 62 83 66 84 69 85 63 86
REMARK SMILES IDX 64 87 67 88 65 89 44 90 45 91 53 92 46 93 47 94 51 95 54 96
REMARK SMILES IDX 48 97 49 98 52 99 50 100
REMARK H PARENT 3 14 74 53 42 64
REMARK Flexibility Score: inf
ROOT
ATOM      1  C   UNL A   1      36.510  20.589  25.007  1.00  0.00     0.275 C 
ENDROOT
BRANCH   1   2
ATOM      2  O   UNL A   1      36.281  21.969  24.631  1.00  0.00    -0.458 OA
BRANCH   2   3
ATOM      3  C   UNL A   1      35.171  22.536  25.164  1.00  0.00     0.340 C 
ATOM      4  O   UNL A   1      35.018  22.849  26.330  1.00  0.00    -0.246 OA
BRANCH   3   5
ATOM      5  C   UNL A   1      34.098  22.768  24.173  1.00  0.00     0.083 A 
ATOM      6  C   UNL A   1      32.732  22.800  24.482  1.00  0.00     0.056 A 
ATOM      7  C   UNL A   1      31.814  22.951  23.427  1.00  0.00     0.027 A 
ATOM      8  C   UNL A   1      32.238  23.203  22.118  1.00  0.00     0.002 A 
ATOM      9  C   UNL A   1      34.509  23.011  22.848  1.00  0.00     0.018 A 
ATOM     10  C   UNL A   1      33.591  23.254  21.830  1.00  0.00     0.001 A 
BRANCH   6  11
ATOM     11  N   UNL A   1      32.161  22.721  25.768  1.00  0.00    -0.321 N 
ATOM     12  O   UNL A   1      31.490  23.431  27.802  1.00  0.00    -0.269 OA
ATOM     13  C   UNL A   1      31.670  23.694  26.615  1.00  0.00     0.255 C 
ATOM     14  H   UNL A   1      32.101  21.807  26.127  1.00  0.00     0.170 HD
BRANCH  13  15
ATOM     15  C   UNL A   1      31.287  25.038  26.113  1.00  0.00     0.040 A 
ATOM     16  C   UNL A   1      29.973  25.369  25.758  1.00  0.00     0.016 A 
ATOM     17  C   UNL A   1      32.308  25.973  25.938  1.00  0.00     0.016 A 
ATOM     18  C   UNL A   1      29.708  26.580  25.101  1.00  0.00     0.027 A 
ATOM     19  C   UNL A   1      32.054  27.143  25.223  1.00  0.00     0.027 A 
ATOM     20  C   UNL A   1      30.764  27.434  24.760  1.00  0.00     0.052 A 
BRANCH  20  21
ATOM     21  N   UNL A   1      30.576  28.551  23.919  1.00  0.00    -0.250 N 
ATOM     22  C   UNL A   1      30.374  28.488  22.566  1.00  0.00     0.238 C 
ATOM     23  C   UNL A   1      30.622  29.842  24.384  1.00  0.00     0.238 C 
ATOM     24  O   UNL A   1      30.419  27.503  21.841  1.00  0.00    -0.274 OA
ATOM     25  C   UNL A   1      30.009  29.870  22.066  1.00  0.00     0.096 C 
ATOM     26  C   UNL A   1      30.235  30.785  23.275  1.00  0.00     0.096 C 
ATOM     27  O   UNL A   1      30.956  30.238  25.494  1.00  0.00    -0.274 OA
ATOM     28  C   UNL A   1      28.576  29.863  21.522  1.00  0.00     0.041 C 
ATOM     29  C   UNL A   1      29.022  31.587  23.756  1.00  0.00     0.041 C 
ATOM     30  C   UNL A   1      27.545  29.986  22.607  1.00  0.00    -0.030 C 
ATOM     31  C   UNL A   1      27.752  30.796  23.653  1.00  0.00    -0.030 C 
ENDBRANCH  20  21
ENDBRANCH  13  15
ENDBRANCH   6  11
ENDBRANCH   3   5
ENDBRANCH   2   3
ENDBRANCH   1   2
BRANCH   1  32
ATOM     32  C   UNL A   1      37.987  20.219  25.153  1.00  0.00     0.275 C 
BRANCH  32  33
ATOM     33  O   UNL A   1      38.796  21.375  25.430  1.00  0.00    -0.458 OA
BRANCH  33  34
ATOM     34  C   UNL A   1      39.784  21.150  26.317  1.00  0.00     0.338 C 
ATOM     35  O   UNL A   1      40.399  20.110  26.501  1.00  0.00    -0.246 OA
BRANCH  34  36
ATOM     36  C   UNL A   1      40.138  22.376  27.036  1.00  0.00     0.060 A 
ATOM     37  C   UNL A   1      39.664  23.574  26.516  1.00  0.00     0.016 A 
ATOM     38  C   UNL A   1      41.139  22.378  27.998  1.00  0.00     0.016 A 
ATOM     39  C   UNL A   1      40.292  24.767  26.803  1.00  0.00     0.010 A 
ATOM     40  C   UNL A   1      41.682  23.603  28.400  1.00  0.00     0.010 A 
ATOM     41  C   UNL A   1      41.300  24.798  27.761  1.00  0.00    -0.014 A 
BRANCH  41  42
ATOM     42  C   UNL A   1      41.989  26.079  28.036  1.00  0.00     0.031 A 
ATOM     43  C   UNL A   1      41.284  27.133  28.838  1.00  0.00     0.074 A 
ATOM     44  C   UNL A   1      43.249  26.271  27.601  1.00  0.00     0.049 A 
ATOM     45  N   UNL A   1      41.589  28.395  28.994  1.00  0.00    -0.248 NA
ATOM     46  C   UNL A   1      40.059  26.718  29.542  1.00  0.00     0.031 C 
ATOM     47  C   UNL A   1      44.065  25.279  26.893  1.00  0.00     0.029 A 
ATOM     48  N   UNL A   1      44.066  27.368  27.685  1.00  0.00    -0.354 N 
ATOM     49  C   UNL A   1      40.563  28.935  29.758  1.00  0.00     0.074 A 
ATOM     50  C   UNL A   1      39.622  27.870  30.027  1.00  0.00     0.031 C 
ATOM     51  C   UNL A   1      45.267  25.805  26.624  1.00  0.00     0.029 A 
ATOM     52  C   UNL A   1      45.262  27.203  27.031  1.00  0.00     0.049 A 
ATOM     53  H   UNL A   1      43.820  28.191  28.166  1.00  0.00     0.167 HD
ATOM     54  C   UNL A   1      40.429  30.214  30.184  1.00  0.00     0.037 A 
ATOM     55  C   UNL A   1      46.216  28.100  26.724  1.00  0.00     0.037 A 
ATOM     56  C   UNL A   1      41.405  31.240  29.929  1.00  0.00     0.049 A 
ATOM     57  C   UNL A   1      46.010  29.526  27.147  1.00  0.00     0.074 A 
ATOM     58  C   UNL A   1      41.381  32.571  30.302  1.00  0.00     0.029 A 
ATOM     59  N   UNL A   1      42.595  31.039  29.239  1.00  0.00    -0.354 N 
ATOM     60  N   UNL A   1      45.009  30.056  27.809  1.00  0.00    -0.248 NA
ATOM     61  C   UNL A   1      47.058  30.481  26.772  1.00  0.00     0.031 C 
ATOM     62  C   UNL A   1      42.530  33.187  29.796  1.00  0.00     0.029 A 
ATOM     63  C   UNL A   1      43.305  32.226  29.163  1.00  0.00     0.049 A 
ATOM     64  H   UNL A   1      42.890  30.180  28.861  1.00  0.00     0.167 HD
ATOM     65  C   UNL A   1      45.314  31.401  27.949  1.00  0.00     0.074 A 
ATOM     66  C   UNL A   1      46.606  31.598  27.321  1.00  0.00     0.031 C 
ATOM     67  C   UNL A   1      44.594  32.386  28.539  1.00  0.00     0.037 A 
BRANCH  54  68
ATOM     68  C   UNL A   1      39.172  30.576  30.923  1.00  0.00     0.064 A 
ATOM     69  C   UNL A   1      38.020  31.027  30.262  1.00  0.00     0.173 A 
ATOM     70  C   UNL A   1      39.114  30.448  32.320  1.00  0.00     0.173 A 
ATOM     71  F   UNL A   1      38.022  31.185  28.930  1.00  0.00    -0.203 F 
ATOM     72  C   UNL A   1      36.869  31.364  30.974  1.00  0.00     0.198 A 
ATOM     73  C   UNL A   1      37.953  30.753  33.025  1.00  0.00     0.198 A 
ATOM     74  F   UNL A   1      40.186  30.021  33.005  1.00  0.00    -0.203 F 
ATOM     75  F   UNL A   1      35.799  31.844  30.325  1.00  0.00    -0.200 F 
ATOM     76  C   UNL A   1      36.834  31.219  32.352  1.00  0.00     0.200 A 
ATOM     77  F   UNL A   1      37.918  30.599  34.356  1.00  0.00    -0.200 F 
ATOM     78  F   UNL A   1      35.724  31.535  33.034  1.00  0.00    -0.200 F 
ENDBRANCH  54  68
BRANCH  55  79
ATOM     79  C   UNL A   1      47.399  27.683  25.925  1.00  0.00     0.064 A 
ATOM     80  C   UNL A   1      48.582  27.267  26.548  1.00  0.00     0.173 A 
ATOM     81  C   UNL A   1      47.367  27.681  24.522  1.00  0.00     0.173 A 
ATOM     82  F   UNL A   1      48.669  27.265  27.886  1.00  0.00    -0.203 F 
ATOM     83  C   UNL A   1      49.694  26.885  25.799  1.00  0.00     0.198 A 
ATOM     84  C   UNL A   1      48.465  27.262  23.775  1.00  0.00     0.198 A 
ATOM     85  F   UNL A   1      46.257  28.061  23.871  1.00  0.00    -0.203 F 
ATOM     86  F   UNL A   1      50.829  26.539  26.420  1.00  0.00    -0.200 F 
ATOM     87  C   UNL A   1      49.632  26.875  24.413  1.00  0.00     0.200 A 
ATOM     88  F   UNL A   1      48.389  27.228  22.437  1.00  0.00    -0.200 F 
ATOM     89  F   UNL A   1      50.697  26.496  23.695  1.00  0.00    -0.200 F 
ENDBRANCH  55  79
BRANCH  67  90
ATOM     90  C   UNL A   1      45.216  33.751  28.573  1.00  0.00     0.064 A 
ATOM     91  C   UNL A   1      46.091  34.140  29.597  1.00  0.00     0.173 A 
ATOM     92  C   UNL A   1      44.951  34.671  27.547  1.00  0.00     0.173 A 
ATOM     93  F   UNL A   1      46.360  33.302  30.610  1.00  0.00    -0.203 F 
ATOM     94  C   UNL A   1      46.653  35.412  29.610  1.00  0.00     0.198 A 
ATOM     95  C   UNL A   1      45.544  35.928  27.543  1.00  0.00     0.198 A 
ATOM     96  F   UNL A   1      44.125  34.345  26.542  1.00  0.00    -0.203 F 
ATOM     97  F   UNL A   1      47.440  35.784  30.629  1.00  0.00    -0.200 F 
ATOM     98  C   UNL A   1      46.387  36.302  28.579  1.00  0.00     0.200 A 
ATOM     99  F   UNL A   1      45.298  36.781  26.539  1.00  0.00    -0.200 F 
ATOM    100  F   UNL A   1      46.936  37.524  28.589  1.00  0.00    -0.200 F 
ENDBRANCH  67  90
ENDBRANCH  41  42
ENDBRANCH  34  36
ENDBRANCH  33  34
ENDBRANCH  32  33
ENDBRANCH   1  32
TORSDOF 14
ENDMDL
