MODEL 1
REMARK VINA RESULT:     -10.0      0.000      0.000
REMARK SMILES C[C@H](CCC(=O)OCCOC(=O)c1ccc(-c2c3nc(c(-c4c(F)c(F)c(F)c(F)c4F)c4ccc([nH]4)c(-c4c(F)c(F)c(F)c(F)c4F)c4nc(c(-c5c(F)c(F)c(F)c(F)c5F)c5ccc2[nH]5)C=C4)C=C3)cc1)NC(=O)OC(C)(C)C
REMARK SMILES IDX 7 1 5 2 6 3 4 4 3 5 2 6 1 7 76 8 77 9 78 11 79 12 80 13
REMARK SMILES IDX 81 14 82 15 83 16 8 17 9 18 10 19 11 20 12 21 13 22 14 23
REMARK SMILES IDX 75 24 15 25 74 26 16 27 17 28 18 29 68 30 19 31 73 32 67 33
REMARK SMILES IDX 69 34 20 35 72 36 66 37 65 38 21 40 53 41 33 42 52 43 34 44
REMARK SMILES IDX 37 45 51 46 70 47 35 48 36 49 50 51 71 52 38 53 22 54 23 55
REMARK SMILES IDX 31 56 24 57 25 58 29 59 32 60 26 61 27 62 30 63 28 64 54 65
REMARK SMILES IDX 55 66 63 67 56 68 57 69 61 70 64 71 58 72 59 73 62 74 60 75
REMARK SMILES IDX 39 76 40 77 48 78 41 79 42 80 46 81 49 82 43 83 44 84 47 85
REMARK SMILES IDX 45 86
REMARK H PARENT 76 10 69 39 37 50
REMARK Flexibility Score: inf
ROOT
ATOM      1  O   UNL A   1      33.520  33.878  29.290  1.00  0.00    -0.462 OA
ENDROOT
BRANCH   1   2
ATOM      2  C   UNL A   1      34.769  33.363  29.329  1.00  0.00     0.305 C 
ATOM      3  O   UNL A   1      35.791  34.011  29.506  1.00  0.00    -0.252 OA
BRANCH   2   4
ATOM      4  C   UNL A   1      34.778  31.874  29.082  1.00  0.00     0.125 C 
BRANCH   4   5
ATOM      5  C   UNL A   1      34.077  31.387  27.807  1.00  0.00     0.036 C 
BRANCH   5   6
ATOM      6  C   UNL A   1      34.331  29.939  27.345  1.00  0.00     0.083 C 
ATOM      7  C   UNL A   1      35.732  29.389  27.595  1.00  0.00     0.031 C 
BRANCH   6   8
ATOM      8  N   UNL A   1      33.326  29.048  27.896  1.00  0.00    -0.319 N 
ATOM      9  C   UNL A   1      32.223  28.562  27.277  1.00  0.00     0.407 C 
ATOM     10  H   UNL A   1      33.461  28.763  28.829  1.00  0.00     0.167 HD
ATOM     11  O   UNL A   1      31.388  27.929  27.909  1.00  0.00    -0.225 OA
BRANCH   9  12
ATOM     12  O   UNL A   1      32.202  28.830  25.956  1.00  0.00    -0.444 OA
BRANCH  12  13
ATOM     13  C   UNL A   1      32.463  27.777  24.998  1.00  0.00     0.106 C 
ATOM     14  C   UNL A   1      33.407  26.712  25.567  1.00  0.00     0.056 C 
ATOM     15  C   UNL A   1      31.144  27.181  24.498  1.00  0.00     0.056 C 
ATOM     16  C   UNL A   1      33.173  28.480  23.833  1.00  0.00     0.056 C 
ENDBRANCH  12  13
ENDBRANCH   9  12
ENDBRANCH   6   8
ENDBRANCH   5   6
ENDBRANCH   4   5
ENDBRANCH   2   4
ENDBRANCH   1   2
BRANCH   1  17
ATOM     17  C   UNL A   1      33.368  35.208  28.764  1.00  0.00     0.274 C 
BRANCH  17  18
ATOM     18  C   UNL A   1      32.857  36.159  29.848  1.00  0.00     0.275 C 
BRANCH  18  19
ATOM     19  O   UNL A   1      32.360  35.419  30.979  1.00  0.00    -0.458 OA
BRANCH  19  20
ATOM     20  C   UNL A   1      32.754  35.869  32.192  1.00  0.00     0.338 C 
ATOM     21  O   UNL A   1      32.208  36.702  32.892  1.00  0.00    -0.246 OA
BRANCH  20  22
ATOM     22  C   UNL A   1      33.922  35.097  32.635  1.00  0.00     0.060 A 
ATOM     23  C   UNL A   1      35.188  35.674  32.519  1.00  0.00     0.016 A 
ATOM     24  C   UNL A   1      33.778  33.787  33.089  1.00  0.00     0.016 A 
ATOM     25  C   UNL A   1      36.323  34.949  32.865  1.00  0.00     0.010 A 
ATOM     26  C   UNL A   1      34.917  33.061  33.448  1.00  0.00     0.010 A 
ATOM     27  C   UNL A   1      36.196  33.637  33.333  1.00  0.00    -0.014 A 
BRANCH  27  28
ATOM     28  C   UNL A   1      37.410  32.857  33.673  1.00  0.00     0.031 A 
ATOM     29  C   UNL A   1      38.126  33.117  34.964  1.00  0.00     0.074 A 
ATOM     30  C   UNL A   1      37.852  31.913  32.822  1.00  0.00     0.049 A 
ATOM     31  N   UNL A   1      39.252  32.614  35.404  1.00  0.00    -0.248 NA
ATOM     32  C   UNL A   1      37.494  34.074  35.885  1.00  0.00     0.031 C 
ATOM     33  C   UNL A   1      37.208  31.547  31.560  1.00  0.00     0.029 A 
ATOM     34  N   UNL A   1      38.952  31.095  32.886  1.00  0.00    -0.354 N 
ATOM     35  C   UNL A   1      39.473  33.209  36.639  1.00  0.00     0.074 A 
ATOM     36  C   UNL A   1      38.379  34.128  36.869  1.00  0.00     0.031 C 
ATOM     37  C   UNL A   1      37.923  30.576  30.969  1.00  0.00     0.029 A 
ATOM     38  C   UNL A   1      39.103  30.295  31.780  1.00  0.00     0.049 A 
ATOM     39  H   UNL A   1      39.571  31.082  33.651  1.00  0.00     0.167 HD
ATOM     40  C   UNL A   1      40.498  32.999  37.500  1.00  0.00     0.037 A 
ATOM     41  C   UNL A   1      40.103  29.458  31.443  1.00  0.00     0.037 A 
ATOM     42  C   UNL A   1      41.577  32.075  37.258  1.00  0.00     0.049 A 
ATOM     43  C   UNL A   1      41.265  29.299  32.388  1.00  0.00     0.074 A 
ATOM     44  C   UNL A   1      42.656  31.777  38.070  1.00  0.00     0.029 A 
ATOM     45  N   UNL A   1      41.714  31.303  36.112  1.00  0.00    -0.354 N 
ATOM     46  N   UNL A   1      41.466  29.857  33.557  1.00  0.00    -0.248 NA
ATOM     47  C   UNL A   1      42.341  28.394  31.963  1.00  0.00     0.031 C 
ATOM     48  C   UNL A   1      43.478  30.871  37.391  1.00  0.00     0.029 A 
ATOM     49  C   UNL A   1      42.877  30.550  36.185  1.00  0.00     0.049 A 
ATOM     50  H   UNL A   1      41.079  31.292  35.360  1.00  0.00     0.167 HD
ATOM     51  C   UNL A   1      42.673  29.352  34.019  1.00  0.00     0.074 A 
ATOM     52  C   UNL A   1      43.149  28.425  33.012  1.00  0.00     0.031 C 
ATOM     53  C   UNL A   1      43.330  29.628  35.174  1.00  0.00     0.037 A 
BRANCH  40  54
ATOM     54  C   UNL A   1      40.522  33.806  38.767  1.00  0.00     0.064 A 
ATOM     55  C   UNL A   1      39.832  33.399  39.920  1.00  0.00     0.173 A 
ATOM     56  C   UNL A   1      41.277  34.987  38.840  1.00  0.00     0.173 A 
ATOM     57  F   UNL A   1      39.086  32.285  39.903  1.00  0.00    -0.203 F 
ATOM     58  C   UNL A   1      39.877  34.158  41.087  1.00  0.00     0.198 A 
ATOM     59  C   UNL A   1      41.345  35.726  40.018  1.00  0.00     0.198 A 
ATOM     60  F   UNL A   1      41.958  35.421  37.770  1.00  0.00    -0.203 F 
ATOM     61  F   UNL A   1      39.172  33.775  42.161  1.00  0.00    -0.200 F 
ATOM     62  C   UNL A   1      40.640  35.316  41.139  1.00  0.00     0.200 A 
ATOM     63  F   UNL A   1      42.095  36.835  40.068  1.00  0.00    -0.200 F 
ATOM     64  F   UNL A   1      40.689  36.038  42.266  1.00  0.00    -0.200 F 
ENDBRANCH  40  54
BRANCH  41  65
ATOM     65  C   UNL A   1      40.061  28.727  30.149  1.00  0.00     0.064 A 
ATOM     66  C   UNL A   1      39.454  27.467  30.047  1.00  0.00     0.173 A 
ATOM     67  C   UNL A   1      40.646  29.262  28.990  1.00  0.00     0.173 A 
ATOM     68  F   UNL A   1      38.901  26.900  31.130  1.00  0.00    -0.203 F 
ATOM     69  C   UNL A   1      39.455  26.762  28.845  1.00  0.00     0.198 A 
ATOM     70  C   UNL A   1      40.614  28.572  27.781  1.00  0.00     0.198 A 
ATOM     71  F   UNL A   1      41.241  30.464  29.031  1.00  0.00    -0.203 F 
ATOM     72  F   UNL A   1      38.919  25.535  28.791  1.00  0.00    -0.200 F 
ATOM     73  C   UNL A   1      40.029  27.318  27.711  1.00  0.00     0.200 A 
ATOM     74  F   UNL A   1      41.157  29.120  26.685  1.00  0.00    -0.200 F 
ATOM     75  F   UNL A   1      40.029  26.639  26.556  1.00  0.00    -0.200 F 
ENDBRANCH  41  65
BRANCH  53  76
ATOM     76  C   UNL A   1      44.611  28.886  35.427  1.00  0.00     0.064 A 
ATOM     77  C   UNL A   1      45.856  29.401  35.037  1.00  0.00     0.173 A 
ATOM     78  C   UNL A   1      44.593  27.654  36.100  1.00  0.00     0.173 A 
ATOM     79  F   UNL A   1      45.927  30.568  34.378  1.00  0.00    -0.203 F 
ATOM     80  C   UNL A   1      47.031  28.694  35.279  1.00  0.00     0.198 A 
ATOM     81  C   UNL A   1      45.773  26.968  36.374  1.00  0.00     0.198 A 
ATOM     82  F   UNL A   1      43.431  27.119  36.503  1.00  0.00    -0.203 F 
ATOM     83  F   UNL A   1      48.203  29.179  34.844  1.00  0.00    -0.200 F 
ATOM     84  C   UNL A   1      46.990  27.483  35.954  1.00  0.00     0.200 A 
ATOM     85  F   UNL A   1      45.732  25.807  37.042  1.00  0.00    -0.200 F 
ATOM     86  F   UNL A   1      48.122  26.809  36.193  1.00  0.00    -0.200 F 
ENDBRANCH  53  76
ENDBRANCH  27  28
ENDBRANCH  20  22
ENDBRANCH  19  20
ENDBRANCH  18  19
ENDBRANCH  17  18
ENDBRANCH   1  17
TORSDOF 16
ENDMDL
MODEL 2
REMARK VINA RESULT:      -9.6      6.053     11.190
REMARK SMILES C[C@H](CCC(=O)OCCOC(=O)c1ccc(-c2c3nc(c(-c4c(F)c(F)c(F)c(F)c4F)c4ccc([nH]4)c(-c4c(F)c(F)c(F)c(F)c4F)c4nc(c(-c5c(F)c(F)c(F)c(F)c5F)c5ccc2[nH]5)C=C4)C=C3)cc1)NC(=O)OC(C)(C)C
REMARK SMILES IDX 7 1 5 2 6 3 4 4 3 5 2 6 1 7 76 8 77 9 78 11 79 12 80 13
REMARK SMILES IDX 81 14 82 15 83 16 8 17 9 18 10 19 11 20 12 21 13 22 14 23
REMARK SMILES IDX 75 24 15 25 74 26 16 27 17 28 18 29 68 30 19 31 73 32 67 33
REMARK SMILES IDX 69 34 20 35 72 36 66 37 65 38 21 40 53 41 33 42 52 43 34 44
REMARK SMILES IDX 37 45 51 46 70 47 35 48 36 49 50 51 71 52 38 53 22 54 23 55
REMARK SMILES IDX 31 56 24 57 25 58 29 59 32 60 26 61 27 62 30 63 28 64 54 65
REMARK SMILES IDX 55 66 63 67 56 68 57 69 61 70 64 71 58 72 59 73 62 74 60 75
REMARK SMILES IDX 39 76 40 77 48 78 41 79 42 80 46 81 49 82 43 83 44 84 47 85
REMARK SMILES IDX 45 86
REMARK H PARENT 76 10 69 39 37 50
REMARK Flexibility Score: inf
ROOT
ATOM      1  O   UNL A   1      41.833  19.338  25.886  1.00  0.00    -0.462 OA
ENDROOT
BRANCH   1   2
ATOM      2  C   UNL A   1      42.889  18.503  25.987  1.00  0.00     0.305 C 
ATOM      3  O   UNL A   1      43.071  17.705  26.896  1.00  0.00    -0.252 OA
BRANCH   2   4
ATOM      4  C   UNL A   1      43.871  18.688  24.856  1.00  0.00     0.125 C 
BRANCH   4   5
ATOM      5  C   UNL A   1      44.361  20.120  24.603  1.00  0.00     0.036 C 
BRANCH   5   6
ATOM      6  C   UNL A   1      45.755  20.515  25.128  1.00  0.00     0.083 C 
ATOM      7  C   UNL A   1      46.794  19.399  25.186  1.00  0.00     0.031 C 
BRANCH   6   8
ATOM      8  N   UNL A   1      46.271  21.654  24.389  1.00  0.00    -0.319 N 
ATOM      9  C   UNL A   1      46.121  22.968  24.684  1.00  0.00     0.407 C 
ATOM     10  H   UNL A   1      46.791  21.448  23.579  1.00  0.00     0.167 HD
ATOM     11  O   UNL A   1      46.493  23.826  23.895  1.00  0.00    -0.225 OA
BRANCH   9  12
ATOM     12  O   UNL A   1      45.573  23.174  25.899  1.00  0.00    -0.444 OA
BRANCH  12  13
ATOM     13  C   UNL A   1      44.291  23.835  26.013  1.00  0.00     0.106 C 
ATOM     14  C   UNL A   1      43.388  23.538  24.809  1.00  0.00     0.056 C 
ATOM     15  C   UNL A   1      43.627  23.472  27.344  1.00  0.00     0.056 C 
ATOM     16  C   UNL A   1      44.624  25.333  26.007  1.00  0.00     0.056 C 
ENDBRANCH  12  13
ENDBRANCH   9  12
ENDBRANCH   6   8
ENDBRANCH   5   6
ENDBRANCH   4   5
ENDBRANCH   2   4
ENDBRANCH   1   2
BRANCH   1  17
ATOM     17  C   UNL A   1      41.596  20.242  26.981  1.00  0.00     0.274 C 
BRANCH  17  18
ATOM     18  C   UNL A   1      40.248  20.946  26.813  1.00  0.00     0.275 C 
BRANCH  18  19
ATOM     19  O   UNL A   1      40.427  22.256  26.245  1.00  0.00    -0.458 OA
BRANCH  19  20
ATOM     20  C   UNL A   1      39.324  23.037  26.217  1.00  0.00     0.338 C 
ATOM     21  O   UNL A   1      38.211  22.744  25.818  1.00  0.00    -0.246 OA
BRANCH  20  22
ATOM     22  C   UNL A   1      39.622  24.315  26.876  1.00  0.00     0.060 A 
ATOM     23  C   UNL A   1      40.329  25.286  26.163  1.00  0.00     0.016 A 
ATOM     24  C   UNL A   1      39.276  24.527  28.209  1.00  0.00     0.016 A 
ATOM     25  C   UNL A   1      40.689  26.481  26.774  1.00  0.00     0.010 A 
ATOM     26  C   UNL A   1      39.627  25.732  28.822  1.00  0.00     0.010 A 
ATOM     27  C   UNL A   1      40.340  26.714  28.109  1.00  0.00    -0.014 A 
BRANCH  27  28
ATOM     28  C   UNL A   1      40.751  27.977  28.767  1.00  0.00     0.031 A 
ATOM     29  C   UNL A   1      42.169  28.155  29.222  1.00  0.00     0.074 A 
ATOM     30  C   UNL A   1      39.848  28.960  28.941  1.00  0.00     0.049 A 
ATOM     31  N   UNL A   1      42.706  29.138  29.898  1.00  0.00    -0.248 NA
ATOM     32  C   UNL A   1      43.110  27.080  28.871  1.00  0.00     0.031 C 
ATOM     33  C   UNL A   1      38.454  28.911  28.498  1.00  0.00     0.029 A 
ATOM     34  N   UNL A   1      39.965  30.187  29.543  1.00  0.00    -0.354 N 
ATOM     35  C   UNL A   1      44.039  28.791  30.073  1.00  0.00     0.074 A 
ATOM     36  C   UNL A   1      44.226  27.496  29.453  1.00  0.00     0.031 C 
ATOM     37  C   UNL A   1      37.845  30.057  28.843  1.00  0.00     0.029 A 
ATOM     38  C   UNL A   1      38.788  30.893  29.580  1.00  0.00     0.049 A 
ATOM     39  H   UNL A   1      40.812  30.528  29.913  1.00  0.00     0.167 HD
ATOM     40  C   UNL A   1      45.016  29.496  30.692  1.00  0.00     0.037 A 
ATOM     41  C   UNL A   1      38.496  32.065  30.174  1.00  0.00     0.037 A 
ATOM     42  C   UNL A   1      44.816  30.788  31.298  1.00  0.00     0.049 A 
ATOM     43  C   UNL A   1      39.585  32.793  30.918  1.00  0.00     0.074 A 
ATOM     44  C   UNL A   1      45.740  31.594  31.939  1.00  0.00     0.029 A 
ATOM     45  N   UNL A   1      43.601  31.461  31.343  1.00  0.00    -0.354 N 
ATOM     46  N   UNL A   1      40.844  32.465  31.074  1.00  0.00    -0.248 NA
ATOM     47  C   UNL A   1      39.208  34.054  31.570  1.00  0.00     0.031 C 
ATOM     48  C   UNL A   1      45.074  32.725  32.424  1.00  0.00     0.029 A 
ATOM     49  C   UNL A   1      43.748  32.658  32.026  1.00  0.00     0.049 A 
ATOM     50  H   UNL A   1      42.761  31.135  30.947  1.00  0.00     0.167 HD
ATOM     51  C   UNL A   1      41.417  33.489  31.815  1.00  0.00     0.074 A 
ATOM     52  C   UNL A   1      40.370  34.460  32.060  1.00  0.00     0.031 C 
ATOM     53  C   UNL A   1      42.694  33.616  32.254  1.00  0.00     0.037 A 
BRANCH  40  54
ATOM     54  C   UNL A   1      46.381  28.874  30.776  1.00  0.00     0.064 A 
ATOM     55  C   UNL A   1      47.311  28.977  29.730  1.00  0.00     0.173 A 
ATOM     56  C   UNL A   1      46.778  28.195  31.939  1.00  0.00     0.173 A 
ATOM     57  F   UNL A   1      46.980  29.605  28.592  1.00  0.00    -0.203 F 
ATOM     58  C   UNL A   1      48.574  28.401  29.835  1.00  0.00     0.198 A 
ATOM     59  C   UNL A   1      48.053  27.648  32.053  1.00  0.00     0.198 A 
ATOM     60  F   UNL A   1      45.931  28.069  32.971  1.00  0.00    -0.203 F 
ATOM     61  F   UNL A   1      49.428  28.471  28.804  1.00  0.00    -0.200 F 
ATOM     62  C   UNL A   1      48.948  27.744  30.999  1.00  0.00     0.200 A 
ATOM     63  F   UNL A   1      48.416  27.027  33.184  1.00  0.00    -0.200 F 
ATOM     64  F   UNL A   1      50.168  27.199  31.100  1.00  0.00    -0.200 F 
ENDBRANCH  40  54
BRANCH  41  65
ATOM     65  C   UNL A   1      37.114  32.610  30.112  1.00  0.00     0.064 A 
ATOM     66  C   UNL A   1      36.694  33.402  29.033  1.00  0.00     0.173 A 
ATOM     67  C   UNL A   1      36.188  32.369  31.140  1.00  0.00     0.173 A 
ATOM     68  F   UNL A   1      37.547  33.682  28.037  1.00  0.00    -0.203 F 
ATOM     69  C   UNL A   1      35.414  33.950  28.998  1.00  0.00     0.198 A 
ATOM     70  C   UNL A   1      34.897  32.888  31.085  1.00  0.00     0.198 A 
ATOM     71  F   UNL A   1      36.536  31.619  32.196  1.00  0.00    -0.203 F 
ATOM     72  F   UNL A   1      35.059  34.751  27.983  1.00  0.00    -0.200 F 
ATOM     73  C   UNL A   1      34.514  33.688  30.020  1.00  0.00     0.200 A 
ATOM     74  F   UNL A   1      34.027  32.619  32.068  1.00  0.00    -0.200 F 
ATOM     75  F   UNL A   1      33.282  34.215  29.984  1.00  0.00    -0.200 F 
ENDBRANCH  41  65
BRANCH  53  76
ATOM     76  C   UNL A   1      43.039  34.870  33.006  1.00  0.00     0.064 A 
ATOM     77  C   UNL A   1      43.456  36.037  32.350  1.00  0.00     0.173 A 
ATOM     78  C   UNL A   1      42.919  34.910  34.404  1.00  0.00     0.173 A 
ATOM     79  F   UNL A   1      43.600  36.047  31.016  1.00  0.00    -0.203 F 
ATOM     80  C   UNL A   1      43.773  37.188  33.068  1.00  0.00     0.198 A 
ATOM     81  C   UNL A   1      43.201  36.073  35.116  1.00  0.00     0.198 A 
ATOM     82  F   UNL A   1      42.517  33.825  35.081  1.00  0.00    -0.203 F 
ATOM     83  F   UNL A   1      44.226  38.272  32.424  1.00  0.00    -0.200 F 
ATOM     84  C   UNL A   1      43.638  37.207  34.448  1.00  0.00     0.200 A 
ATOM     85  F   UNL A   1      43.053  36.096  36.447  1.00  0.00    -0.200 F 
ATOM     86  F   UNL A   1      43.937  38.317  35.135  1.00  0.00    -0.200 F 
ENDBRANCH  53  76
ENDBRANCH  27  28
ENDBRANCH  20  22
ENDBRANCH  19  20
ENDBRANCH  18  19
ENDBRANCH  17  18
ENDBRANCH   1  17
TORSDOF 16
ENDMDL
MODEL 3
REMARK VINA RESULT:      -9.4      2.683      8.818
REMARK SMILES C[C@H](CCC(=O)OCCOC(=O)c1ccc(-c2c3nc(c(-c4c(F)c(F)c(F)c(F)c4F)c4ccc([nH]4)c(-c4c(F)c(F)c(F)c(F)c4F)c4nc(c(-c5c(F)c(F)c(F)c(F)c5F)c5ccc2[nH]5)C=C4)C=C3)cc1)NC(=O)OC(C)(C)C
REMARK SMILES IDX 7 1 5 2 6 3 4 4 3 5 2 6 1 7 76 8 77 9 78 11 79 12 80 13
REMARK SMILES IDX 81 14 82 15 83 16 8 17 9 18 10 19 11 20 12 21 13 22 14 23
REMARK SMILES IDX 75 24 15 25 74 26 16 27 17 28 18 29 68 30 19 31 73 32 67 33
REMARK SMILES IDX 69 34 20 35 72 36 66 37 65 38 21 40 53 41 33 42 52 43 34 44
REMARK SMILES IDX 37 45 51 46 70 47 35 48 36 49 50 51 71 52 38 53 22 54 23 55
REMARK SMILES IDX 31 56 24 57 25 58 29 59 32 60 26 61 27 62 30 63 28 64 54 65
REMARK SMILES IDX 55 66 63 67 56 68 57 69 61 70 64 71 58 72 59 73 62 74 60 75
REMARK SMILES IDX 39 76 40 77 48 78 41 79 42 80 46 81 49 82 43 83 44 84 47 85
REMARK SMILES IDX 45 86
REMARK H PARENT 76 10 69 39 37 50
REMARK Flexibility Score: inf
ROOT
ATOM      1  O   UNL A   1      30.484  29.573  23.962  1.00  0.00    -0.462 OA
ENDROOT
BRANCH   1   2
ATOM      2  C   UNL A   1      30.136  28.535  23.171  1.00  0.00     0.305 C 
ATOM      3  O   UNL A   1      29.770  28.630  22.007  1.00  0.00    -0.252 OA
BRANCH   2   4
ATOM      4  C   UNL A   1      30.204  27.215  23.899  1.00  0.00     0.125 C 
BRANCH   4   5
ATOM      5  C   UNL A   1      31.033  26.108  23.234  1.00  0.00     0.036 C 
BRANCH   5   6
ATOM      6  C   UNL A   1      32.217  25.513  24.021  1.00  0.00     0.083 C 
ATOM      7  C   UNL A   1      33.537  26.273  23.928  1.00  0.00     0.031 C 
BRANCH   6   8
ATOM      8  N   UNL A   1      31.847  25.301  25.410  1.00  0.00    -0.319 N 
ATOM      9  C   UNL A   1      31.809  24.127  26.085  1.00  0.00     0.407 C 
ATOM     10  H   UNL A   1      31.594  26.104  25.920  1.00  0.00     0.167 HD
ATOM     11  O   UNL A   1      31.343  24.079  27.216  1.00  0.00    -0.225 OA
BRANCH   9  12
ATOM     12  O   UNL A   1      32.349  23.105  25.391  1.00  0.00    -0.444 OA
BRANCH  12  13
ATOM     13  C   UNL A   1      33.653  22.593  25.753  1.00  0.00     0.106 C 
ATOM     14  C   UNL A   1      34.557  23.691  26.326  1.00  0.00     0.056 C 
ATOM     15  C   UNL A   1      33.506  21.403  26.705  1.00  0.00     0.056 C 
ATOM     16  C   UNL A   1      34.261  22.108  24.430  1.00  0.00     0.056 C 
ENDBRANCH  12  13
ENDBRANCH   9  12
ENDBRANCH   6   8
ENDBRANCH   5   6
ENDBRANCH   4   5
ENDBRANCH   2   4
ENDBRANCH   1   2
BRANCH   1  17
ATOM     17  C   UNL A   1      31.422  29.311  25.022  1.00  0.00     0.274 C 
BRANCH  17  18
ATOM     18  C   UNL A   1      31.744  30.599  25.783  1.00  0.00     0.275 C 
BRANCH  18  19
ATOM     19  O   UNL A   1      32.890  30.413  26.633  1.00  0.00    -0.458 OA
BRANCH  19  20
ATOM     20  C   UNL A   1      33.403  31.539  27.179  1.00  0.00     0.338 C 
ATOM     21  O   UNL A   1      32.891  32.642  27.232  1.00  0.00    -0.246 OA
BRANCH  20  22
ATOM     22  C   UNL A   1      34.673  31.218  27.841  1.00  0.00     0.060 A 
ATOM     23  C   UNL A   1      34.864  29.924  28.330  1.00  0.00     0.016 A 
ATOM     24  C   UNL A   1      35.637  32.204  28.048  1.00  0.00     0.016 A 
ATOM     25  C   UNL A   1      36.025  29.601  29.023  1.00  0.00     0.010 A 
ATOM     26  C   UNL A   1      36.810  31.877  28.734  1.00  0.00     0.010 A 
ATOM     27  C   UNL A   1      37.008  30.575  29.230  1.00  0.00    -0.014 A 
BRANCH  27  28
ATOM     28  C   UNL A   1      38.231  30.235  29.994  1.00  0.00     0.031 A 
ATOM     29  C   UNL A   1      39.248  29.306  29.400  1.00  0.00     0.074 A 
ATOM     30  C   UNL A   1      38.424  30.772  31.213  1.00  0.00     0.049 A 
ATOM     31  N   UNL A   1      40.333  28.809  29.939  1.00  0.00    -0.248 NA
ATOM     32  C   UNL A   1      39.012  28.875  28.014  1.00  0.00     0.031 C 
ATOM     33  C   UNL A   1      37.522  31.720  31.868  1.00  0.00     0.029 A 
ATOM     34  N   UNL A   1      39.436  30.591  32.121  1.00  0.00    -0.354 N 
ATOM     35  C   UNL A   1      40.895  27.992  28.967  1.00  0.00     0.074 A 
ATOM     36  C   UNL A   1      40.021  28.039  27.815  1.00  0.00     0.031 C 
ATOM     37  C   UNL A   1      38.022  32.039  33.072  1.00  0.00     0.029 A 
ATOM     38  C   UNL A   1      39.245  31.274  33.297  1.00  0.00     0.049 A 
ATOM     39  H   UNL A   1      40.223  30.026  31.946  1.00  0.00     0.167 HD
ATOM     40  C   UNL A   1      42.041  27.273  29.037  1.00  0.00     0.037 A 
ATOM     41  C   UNL A   1      39.958  31.255  34.439  1.00  0.00     0.037 A 
ATOM     42  C   UNL A   1      42.904  27.242  30.190  1.00  0.00     0.049 A 
ATOM     43  C   UNL A   1      41.188  30.390  34.512  1.00  0.00     0.074 A 
ATOM     44  C   UNL A   1      44.095  26.558  30.360  1.00  0.00     0.029 A 
ATOM     45  N   UNL A   1      42.663  27.924  31.376  1.00  0.00    -0.354 N 
ATOM     46  N   UNL A   1      41.720  29.625  33.589  1.00  0.00    -0.248 NA
ATOM     47  C   UNL A   1      41.915  30.384  35.788  1.00  0.00     0.031 C 
ATOM     48  C   UNL A   1      44.543  26.777  31.668  1.00  0.00     0.029 A 
ATOM     49  C   UNL A   1      43.669  27.653  32.291  1.00  0.00     0.049 A 
ATOM     50  H   UNL A   1      41.893  28.513  31.541  1.00  0.00     0.167 HD
ATOM     51  C   UNL A   1      42.857  29.071  34.161  1.00  0.00     0.074 A 
ATOM     52  C   UNL A   1      42.948  29.604  35.505  1.00  0.00     0.031 C 
ATOM     53  C   UNL A   1      43.746  28.199  33.623  1.00  0.00     0.037 A 
BRANCH  40  54
ATOM     54  C   UNL A   1      42.413  26.434  27.848  1.00  0.00     0.064 A 
ATOM     55  C   UNL A   1      43.322  26.881  26.877  1.00  0.00     0.173 A 
ATOM     56  C   UNL A   1      41.876  25.145  27.696  1.00  0.00     0.173 A 
ATOM     57  F   UNL A   1      43.856  28.108  26.966  1.00  0.00    -0.203 F 
ATOM     58  C   UNL A   1      43.659  26.081  25.788  1.00  0.00     0.198 A 
ATOM     59  C   UNL A   1      42.240  24.336  26.623  1.00  0.00     0.198 A 
ATOM     60  F   UNL A   1      41.005  24.665  28.596  1.00  0.00    -0.203 F 
ATOM     61  F   UNL A   1      44.493  26.548  24.848  1.00  0.00    -0.200 F 
ATOM     62  C   UNL A   1      43.125  24.806  25.666  1.00  0.00     0.200 A 
ATOM     63  F   UNL A   1      41.734  23.100  26.517  1.00  0.00    -0.200 F 
ATOM     64  F   UNL A   1      43.459  24.035  24.622  1.00  0.00    -0.200 F 
ENDBRANCH  40  54
BRANCH  41  65
ATOM     65  C   UNL A   1      39.515  32.059  35.609  1.00  0.00     0.064 A 
ATOM     66  C   UNL A   1      40.059  33.325  35.866  1.00  0.00     0.173 A 
ATOM     67  C   UNL A   1      38.554  31.570  36.508  1.00  0.00     0.173 A 
ATOM     68  F   UNL A   1      40.998  33.829  35.051  1.00  0.00    -0.203 F 
ATOM     69  C   UNL A   1      39.677  34.059  36.988  1.00  0.00     0.198 A 
ATOM     70  C   UNL A   1      38.148  32.319  37.609  1.00  0.00     0.198 A 
ATOM     71  F   UNL A   1      38.001  30.363  36.311  1.00  0.00    -0.203 F 
ATOM     72  F   UNL A   1      40.256  35.241  37.241  1.00  0.00    -0.200 F 
ATOM     73  C   UNL A   1      38.717  33.559  37.855  1.00  0.00     0.200 A 
ATOM     74  F   UNL A   1      37.208  31.838  38.435  1.00  0.00    -0.200 F 
ATOM     75  F   UNL A   1      38.351  34.265  38.933  1.00  0.00    -0.200 F 
ENDBRANCH  41  65
BRANCH  53  76
ATOM     76  C   UNL A   1      44.918  27.803  34.476  1.00  0.00     0.064 A 
ATOM     77  C   UNL A   1      46.106  28.549  34.495  1.00  0.00     0.173 A 
ATOM     78  C   UNL A   1      44.837  26.677  35.309  1.00  0.00     0.173 A 
ATOM     79  F   UNL A   1      46.240  29.627  33.707  1.00  0.00    -0.203 F 
ATOM     80  C   UNL A   1      47.182  28.161  35.291  1.00  0.00     0.198 A 
ATOM     81  C   UNL A   1      45.900  26.313  36.131  1.00  0.00     0.198 A 
ATOM     82  F   UNL A   1      43.721  25.933  35.336  1.00  0.00    -0.203 F 
ATOM     83  F   UNL A   1      48.328  28.855  35.248  1.00  0.00    -0.200 F 
ATOM     84  C   UNL A   1      47.075  27.050  36.113  1.00  0.00     0.200 A 
ATOM     85  F   UNL A   1      45.789  25.250  36.938  1.00  0.00    -0.200 F 
ATOM     86  F   UNL A   1      48.108  26.684  36.883  1.00  0.00    -0.200 F 
ENDBRANCH  53  76
ENDBRANCH  27  28
ENDBRANCH  20  22
ENDBRANCH  19  20
ENDBRANCH  18  19
ENDBRANCH  17  18
ENDBRANCH   1  17
TORSDOF 16
ENDMDL
