MODEL 1
REMARK VINA RESULT:     -11.6      0.000      0.000
REMARK SMILES COc1cc(/C=N/NC(=O)c2cc(Cl)ccc2O)ccc1OCC(=O)OCCOC(=O)c1ccc(-c2c3nc(c(-c4c(F)c(F)c(F)c(F)c4F)c4ccc([nH]4)c(-c4c(F)c(F)c(F)c(F)c4F)c4nc(c(-c5c(F)c(F)c(F)c(F)c5F)c5ccc2[nH]5)C=C4)C=C3)cc1
REMARK SMILES IDX 24 1 25 2 23 3 22 4 21 5 3 6 4 7 5 8 20 9 19 10 2 11 1 12
REMARK SMILES IDX 6 13 7 14 8 15 9 16 10 18 11 19 12 20 17 21 13 22 16 23
REMARK SMILES IDX 14 24 15 25 18 26 26 28 27 29 28 30 29 31 30 32 31 33 32 34
REMARK SMILES IDX 33 35 94 36 34 37 93 38 35 39 36 40 37 41 87 42 38 43 92 44
REMARK SMILES IDX 86 45 88 46 39 47 91 48 85 49 84 50 40 52 72 53 52 54 71 55
REMARK SMILES IDX 53 56 56 57 70 58 89 59 54 60 55 61 69 63 90 64 57 65 41 66
REMARK SMILES IDX 42 67 50 68 43 69 44 70 48 71 51 72 45 73 46 74 49 75 47 76
REMARK SMILES IDX 73 77 74 78 82 79 75 80 76 81 80 82 83 83 77 84 78 85 81 86
REMARK SMILES IDX 79 87 58 88 59 89 67 90 60 91 61 92 65 93 68 94 62 95 63 96
REMARK SMILES IDX 66 97 64 98
REMARK H PARENT 8 17 18 27 88 51 56 62
REMARK Flexibility Score: inf
ROOT
ATOM      1  C   UNL A   1      35.142  34.233  29.105  1.00  0.00     0.344 C 
ATOM      2  O   UNL A   1      36.188  34.154  29.742  1.00  0.00    -0.248 OA
ENDROOT
BRANCH   1   3
ATOM      3  C   UNL A   1      34.184  33.035  28.960  1.00  0.00     0.352 C 
BRANCH   3   4
ATOM      4  O   UNL A   1      34.463  31.669  29.156  1.00  0.00    -0.478 OA
BRANCH   4   5
ATOM      5  C   UNL A   1      34.244  30.770  28.158  1.00  0.00     0.162 A 
ATOM      6  C   UNL A   1      35.014  29.649  27.820  1.00  0.00     0.161 A 
ATOM      7  C   UNL A   1      34.689  28.899  26.668  1.00  0.00     0.060 A 
ATOM      8  C   UNL A   1      33.613  29.289  25.857  1.00  0.00    -0.002 A 
ATOM      9  C   UNL A   1      33.204  31.167  27.311  1.00  0.00     0.051 A 
ATOM     10  C   UNL A   1      32.884  30.436  26.172  1.00  0.00     0.014 A 
BRANCH   6  11
ATOM     11  O   UNL A   1      36.237  29.417  28.394  1.00  0.00    -0.493 OA
ATOM     12  C   UNL A   1      37.342  29.919  27.657  1.00  0.00     0.278 C 
ENDBRANCH   6  11
BRANCH   8  13
ATOM     13  C   UNL A   1      33.233  28.615  24.599  1.00  0.00     0.141 C 
ATOM     14  N   UNL A   1      32.200  27.834  24.473  1.00  0.00    -0.180 NA
BRANCH  14  15
ATOM     15  N   UNL A   1      32.091  27.195  23.260  1.00  0.00    -0.243 N 
ATOM     16  C   UNL A   1      31.029  27.205  22.361  1.00  0.00     0.275 C 
ATOM     17  H   UNL A   1      32.869  26.657  22.992  1.00  0.00     0.194 HD
ATOM     18  O   UNL A   1      31.029  26.442  21.396  1.00  0.00    -0.267 OA
BRANCH  16  19
ATOM     19  C   UNL A   1      29.892  28.143  22.539  1.00  0.00     0.084 A 
ATOM     20  C   UNL A   1      28.697  27.620  23.058  1.00  0.00     0.038 A 
ATOM     21  C   UNL A   1      29.952  29.497  22.189  1.00  0.00     0.128 A 
ATOM     22  C   UNL A   1      27.609  28.464  23.281  1.00  0.00     0.042 A 
ATOM     23  C   UNL A   1      28.859  30.334  22.407  1.00  0.00     0.048 A 
ATOM     24  Cl  UNL A   1      26.161  27.832  23.962  1.00  0.00    -0.084 Cl
ATOM     25  C   UNL A   1      27.689  29.820  22.970  1.00  0.00     0.024 A 
BRANCH  21  26
ATOM     26  O   UNL A   1      31.054  30.083  21.632  1.00  0.00    -0.507 OA
ATOM     27  H   UNL A   1      31.367  29.793  20.798  1.00  0.00     0.293 HD
ENDBRANCH  21  26
ENDBRANCH  16  19
ENDBRANCH  14  15
ENDBRANCH   8  13
ENDBRANCH   4   5
ENDBRANCH   3   4
ENDBRANCH   1   3
BRANCH   1  28
ATOM     28  O   UNL A   1      34.706  35.368  28.499  1.00  0.00    -0.460 OA
BRANCH  28  29
ATOM     29  C   UNL A   1      33.278  35.584  28.542  1.00  0.00     0.274 C 
BRANCH  29  30
ATOM     30  C   UNL A   1      32.925  36.446  29.756  1.00  0.00     0.275 C 
BRANCH  30  31
ATOM     31  O   UNL A   1      32.297  35.615  30.753  1.00  0.00    -0.458 OA
BRANCH  31  32
ATOM     32  C   UNL A   1      32.489  36.012  32.039  1.00  0.00     0.338 C 
ATOM     33  O   UNL A   1      31.795  36.807  32.650  1.00  0.00    -0.246 OA
BRANCH  32  34
ATOM     34  C   UNL A   1      33.623  35.260  32.650  1.00  0.00     0.060 A 
ATOM     35  C   UNL A   1      34.900  35.810  32.746  1.00  0.00     0.016 A 
ATOM     36  C   UNL A   1      33.435  33.943  33.074  1.00  0.00     0.016 A 
ATOM     37  C   UNL A   1      35.997  35.015  33.091  1.00  0.00     0.010 A 
ATOM     38  C   UNL A   1      34.521  33.185  33.547  1.00  0.00     0.010 A 
ATOM     39  C   UNL A   1      35.833  33.693  33.523  1.00  0.00    -0.014 A 
BRANCH  39  40
ATOM     40  C   UNL A   1      37.002  32.840  33.924  1.00  0.00     0.031 A 
ATOM     41  C   UNL A   1      37.633  33.011  35.289  1.00  0.00     0.074 A 
ATOM     42  C   UNL A   1      37.531  31.913  33.094  1.00  0.00     0.049 A 
ATOM     43  N   UNL A   1      38.815  32.636  35.714  1.00  0.00    -0.248 NA
ATOM     44  C   UNL A   1      36.832  33.714  36.304  1.00  0.00     0.031 C 
ATOM     45  C   UNL A   1      37.020  31.555  31.770  1.00  0.00     0.029 A 
ATOM     46  N   UNL A   1      38.633  31.097  33.243  1.00  0.00    -0.354 N 
ATOM     47  C   UNL A   1      38.936  33.139  37.004  1.00  0.00     0.074 A 
ATOM     48  C   UNL A   1      37.696  33.824  37.305  1.00  0.00     0.031 C 
ATOM     49  C   UNL A   1      37.765  30.568  31.254  1.00  0.00     0.029 A 
ATOM     50  C   UNL A   1      38.890  30.311  32.143  1.00  0.00     0.049 A 
ATOM     51  H   UNL A   1      39.183  31.079  34.059  1.00  0.00     0.167 HD
ATOM     52  C   UNL A   1      39.990  33.049  37.852  1.00  0.00     0.037 A 
ATOM     53  C   UNL A   1      39.943  29.526  31.838  1.00  0.00     0.037 A 
ATOM     54  C   UNL A   1      41.186  32.286  37.589  1.00  0.00     0.049 A 
ATOM     55  C   UNL A   1      41.107  29.449  32.785  1.00  0.00     0.074 A 
ATOM     56  C   UNL A   1      42.308  32.134  38.387  1.00  0.00     0.029 A 
ATOM     57  N   UNL A   1      41.398  31.516  36.456  1.00  0.00    -0.354 N 
ATOM     58  N   UNL A   1      41.267  30.030  33.948  1.00  0.00    -0.248 NA
ATOM     59  C   UNL A   1      42.253  28.631  32.361  1.00  0.00     0.031 C 
ATOM     60  C   UNL A   1      43.209  31.293  37.724  1.00  0.00     0.029 A 
ATOM     61  C   UNL A   1      42.631  30.887  36.534  1.00  0.00     0.049 A 
ATOM     62  H   UNL A   1      40.765  31.429  35.707  1.00  0.00     0.167 HD
ATOM     63  C   UNL A   1      42.519  29.639  34.400  1.00  0.00     0.074 A 
ATOM     64  C   UNL A   1      43.071  28.753  33.397  1.00  0.00     0.031 C 
ATOM     65  C   UNL A   1      43.160  29.992  35.540  1.00  0.00     0.037 A 
BRANCH  52  66
ATOM     66  C   UNL A   1      39.932  33.830  39.134  1.00  0.00     0.064 A 
ATOM     67  C   UNL A   1      40.454  35.126  39.249  1.00  0.00     0.173 A 
ATOM     68  C   UNL A   1      39.282  33.285  40.255  1.00  0.00     0.173 A 
ATOM     69  F   UNL A   1      41.091  35.690  38.211  1.00  0.00    -0.203 F 
ATOM     70  C   UNL A   1      40.346  35.839  40.442  1.00  0.00     0.198 A 
ATOM     71  C   UNL A   1      39.151  34.012  41.435  1.00  0.00     0.198 A 
ATOM     72  F   UNL A   1      38.754  32.053  40.197  1.00  0.00    -0.203 F 
ATOM     73  F   UNL A   1      40.883  37.063  40.539  1.00  0.00    -0.200 F 
ATOM     74  C   UNL A   1      39.688  35.285  41.530  1.00  0.00     0.200 A 
ATOM     75  F   UNL A   1      38.498  33.480  42.479  1.00  0.00    -0.200 F 
ATOM     76  F   UNL A   1      39.571  35.980  42.671  1.00  0.00    -0.200 F 
ENDBRANCH  52  66
BRANCH  53  77
ATOM     77  C   UNL A   1      39.982  28.805  30.534  1.00  0.00     0.064 A 
ATOM     78  C   UNL A   1      39.388  27.543  30.388  1.00  0.00     0.173 A 
ATOM     79  C   UNL A   1      40.622  29.355  29.413  1.00  0.00     0.173 A 
ATOM     80  F   UNL A   1      38.794  26.957  31.437  1.00  0.00    -0.203 F 
ATOM     81  C   UNL A   1      39.443  26.857  29.176  1.00  0.00     0.198 A 
ATOM     82  C   UNL A   1      40.642  28.687  28.192  1.00  0.00     0.198 A 
ATOM     83  F   UNL A   1      41.211  30.557  29.498  1.00  0.00    -0.203 F 
ATOM     84  F   UNL A   1      38.911  25.631  29.077  1.00  0.00    -0.200 F 
ATOM     85  C   UNL A   1      40.060  27.434  28.076  1.00  0.00     0.200 A 
ATOM     86  F   UNL A   1      41.224  29.257  27.128  1.00  0.00    -0.200 F 
ATOM     87  F   UNL A   1      40.100  26.780  26.906  1.00  0.00    -0.200 F 
ENDBRANCH  53  77
BRANCH  65  88
ATOM     88  C   UNL A   1      44.504  29.375  35.788  1.00  0.00     0.064 A 
ATOM     89  C   UNL A   1      44.643  28.156  36.466  1.00  0.00     0.173 A 
ATOM     90  C   UNL A   1      45.668  30.007  35.325  1.00  0.00     0.173 A 
ATOM     91  F   UNL A   1      43.561  27.524  36.945  1.00  0.00    -0.203 F 
ATOM     92  C   UNL A   1      45.901  27.604  36.695  1.00  0.00     0.198 A 
ATOM     93  C   UNL A   1      46.922  29.441  35.533  1.00  0.00     0.198 A 
ATOM     94  F   UNL A   1      45.588  31.174  34.668  1.00  0.00    -0.203 F 
ATOM     95  F   UNL A   1      46.013  26.464  37.389  1.00  0.00    -0.200 F 
ATOM     96  C   UNL A   1      47.038  28.244  36.225  1.00  0.00     0.200 A 
ATOM     97  F   UNL A   1      48.019  30.056  35.071  1.00  0.00    -0.200 F 
ATOM     98  F   UNL A   1      48.248  27.713  36.448  1.00  0.00    -0.200 F 
ENDBRANCH  65  88
ENDBRANCH  39  40
ENDBRANCH  32  34
ENDBRANCH  31  32
ENDBRANCH  30  31
ENDBRANCH  29  30
ENDBRANCH  28  29
ENDBRANCH   1  28
TORSDOF 18
ENDMDL
MODEL 2
REMARK VINA RESULT:     -11.5      2.184      3.144
REMARK SMILES COc1cc(/C=N/NC(=O)c2cc(Cl)ccc2O)ccc1OCC(=O)OCCOC(=O)c1ccc(-c2c3nc(c(-c4c(F)c(F)c(F)c(F)c4F)c4ccc([nH]4)c(-c4c(F)c(F)c(F)c(F)c4F)c4nc(c(-c5c(F)c(F)c(F)c(F)c5F)c5ccc2[nH]5)C=C4)C=C3)cc1
REMARK SMILES IDX 24 1 25 2 23 3 22 4 21 5 3 6 4 7 5 8 20 9 19 10 2 11 1 12
REMARK SMILES IDX 6 13 7 14 8 15 9 16 10 18 11 19 12 20 17 21 13 22 16 23
REMARK SMILES IDX 14 24 15 25 18 26 26 28 27 29 28 30 29 31 30 32 31 33 32 34
REMARK SMILES IDX 33 35 94 36 34 37 93 38 35 39 36 40 37 41 87 42 38 43 92 44
REMARK SMILES IDX 86 45 88 46 39 47 91 48 85 49 84 50 40 52 72 53 52 54 71 55
REMARK SMILES IDX 53 56 56 57 70 58 89 59 54 60 55 61 69 63 90 64 57 65 41 66
REMARK SMILES IDX 42 67 50 68 43 69 44 70 48 71 51 72 45 73 46 74 49 75 47 76
REMARK SMILES IDX 73 77 74 78 82 79 75 80 76 81 80 82 83 83 77 84 78 85 81 86
REMARK SMILES IDX 79 87 58 88 59 89 67 90 60 91 61 92 65 93 68 94 62 95 63 96
REMARK SMILES IDX 66 97 64 98
REMARK H PARENT 8 17 18 27 88 51 56 62
REMARK Flexibility Score: inf
ROOT
ATOM      1  C   UNL A   1      35.291  33.609  28.336  1.00  0.00     0.344 C 
ATOM      2  O   UNL A   1      36.180  33.822  29.155  1.00  0.00    -0.248 OA
ENDROOT
BRANCH   1   3
ATOM      3  C   UNL A   1      35.073  32.216  27.714  1.00  0.00     0.352 C 
BRANCH   3   4
ATOM      4  O   UNL A   1      34.268  31.165  28.194  1.00  0.00    -0.478 OA
BRANCH   4   5
ATOM      5  C   UNL A   1      33.567  30.382  27.330  1.00  0.00     0.162 A 
ATOM      6  C   UNL A   1      32.398  30.702  26.626  1.00  0.00     0.161 A 
ATOM      7  C   UNL A   1      31.746  29.708  25.863  1.00  0.00     0.060 A 
ATOM      8  C   UNL A   1      32.259  28.403  25.829  1.00  0.00    -0.002 A 
ATOM      9  C   UNL A   1      34.034  29.064  27.317  1.00  0.00     0.051 A 
ATOM     10  C   UNL A   1      33.393  28.079  26.573  1.00  0.00     0.014 A 
BRANCH   6  11
ATOM     11  O   UNL A   1      31.702  31.857  26.876  1.00  0.00    -0.493 OA
ATOM     12  C   UNL A   1      30.705  32.167  25.913  1.00  0.00     0.278 C 
ENDBRANCH   6  11
BRANCH   8  13
ATOM     13  C   UNL A   1      31.618  27.277  25.117  1.00  0.00     0.141 C 
ATOM     14  N   UNL A   1      30.837  26.405  25.685  1.00  0.00    -0.180 NA
BRANCH  14  15
ATOM     15  N   UNL A   1      30.448  25.357  24.885  1.00  0.00    -0.243 N 
ATOM     16  C   UNL A   1      31.046  24.110  24.726  1.00  0.00     0.275 C 
ATOM     17  H   UNL A   1      29.635  25.508  24.352  1.00  0.00     0.194 HD
ATOM     18  O   UNL A   1      30.660  23.348  23.841  1.00  0.00    -0.267 OA
BRANCH  16  19
ATOM     19  C   UNL A   1      32.143  23.675  25.627  1.00  0.00     0.084 A 
ATOM     20  C   UNL A   1      33.457  23.977  25.239  1.00  0.00     0.038 A 
ATOM     21  C   UNL A   1      31.924  22.960  26.811  1.00  0.00     0.128 A 
ATOM     22  C   UNL A   1      34.523  23.624  26.066  1.00  0.00     0.042 A 
ATOM     23  C   UNL A   1      32.995  22.603  27.629  1.00  0.00     0.048 A 
ATOM     24  Cl  UNL A   1      36.131  24.039  25.615  1.00  0.00    -0.084 Cl
ATOM     25  C   UNL A   1      34.297  22.949  27.265  1.00  0.00     0.024 A 
BRANCH  21  26
ATOM     26  O   UNL A   1      30.686  22.577  27.242  1.00  0.00    -0.507 OA
ATOM     27  H   UNL A   1      30.249  23.069  27.909  1.00  0.00     0.293 HD
ENDBRANCH  21  26
ENDBRANCH  16  19
ENDBRANCH  14  15
ENDBRANCH   8  13
ENDBRANCH   4   5
ENDBRANCH   3   4
ENDBRANCH   1   3
BRANCH   1  28
ATOM     28  O   UNL A   1      34.401  34.547  27.919  1.00  0.00    -0.460 OA
BRANCH  28  29
ATOM     29  C   UNL A   1      33.118  34.523  28.583  1.00  0.00     0.274 C 
BRANCH  29  30
ATOM     30  C   UNL A   1      32.989  35.742  29.497  1.00  0.00     0.275 C 
BRANCH  30  31
ATOM     31  O   UNL A   1      32.164  35.395  30.627  1.00  0.00    -0.458 OA
BRANCH  31  32
ATOM     32  C   UNL A   1      32.526  35.970  31.805  1.00  0.00     0.338 C 
ATOM     33  O   UNL A   1      31.973  36.918  32.334  1.00  0.00    -0.246 OA
BRANCH  32  34
ATOM     34  C   UNL A   1      33.651  35.212  32.428  1.00  0.00     0.060 A 
ATOM     35  C   UNL A   1      34.932  35.750  32.525  1.00  0.00     0.016 A 
ATOM     36  C   UNL A   1      33.448  33.900  32.861  1.00  0.00     0.016 A 
ATOM     37  C   UNL A   1      36.020  34.948  32.881  1.00  0.00     0.010 A 
ATOM     38  C   UNL A   1      34.524  33.136  33.345  1.00  0.00     0.010 A 
ATOM     39  C   UNL A   1      35.841  33.631  33.323  1.00  0.00    -0.014 A 
BRANCH  39  40
ATOM     40  C   UNL A   1      37.001  32.771  33.738  1.00  0.00     0.031 A 
ATOM     41  C   UNL A   1      37.629  32.950  35.102  1.00  0.00     0.074 A 
ATOM     42  C   UNL A   1      37.522  31.830  32.919  1.00  0.00     0.049 A 
ATOM     43  N   UNL A   1      38.806  32.567  35.534  1.00  0.00    -0.248 NA
ATOM     44  C   UNL A   1      36.832  33.672  36.107  1.00  0.00     0.031 C 
ATOM     45  C   UNL A   1      37.011  31.463  31.597  1.00  0.00     0.029 A 
ATOM     46  N   UNL A   1      38.615  31.004  33.079  1.00  0.00    -0.354 N 
ATOM     47  C   UNL A   1      38.929  33.083  36.820  1.00  0.00     0.074 A 
ATOM     48  C   UNL A   1      37.695  33.784  37.109  1.00  0.00     0.031 C 
ATOM     49  C   UNL A   1      37.747  30.462  31.094  1.00  0.00     0.029 A 
ATOM     50  C   UNL A   1      38.868  30.203  31.989  1.00  0.00     0.049 A 
ATOM     51  H   UNL A   1      39.163  30.989  33.897  1.00  0.00     0.167 HD
ATOM     52  C   UNL A   1      39.979  32.991  37.671  1.00  0.00     0.037 A 
ATOM     53  C   UNL A   1      39.913  29.404  31.695  1.00  0.00     0.037 A 
ATOM     54  C   UNL A   1      41.168  32.213  37.420  1.00  0.00     0.049 A 
ATOM     55  C   UNL A   1      41.073  29.325  32.647  1.00  0.00     0.074 A 
ATOM     56  C   UNL A   1      42.287  32.058  38.223  1.00  0.00     0.029 A 
ATOM     57  N   UNL A   1      41.375  31.429  36.296  1.00  0.00    -0.354 N 
ATOM     58  N   UNL A   1      41.236  29.917  33.804  1.00  0.00    -0.248 NA
ATOM     59  C   UNL A   1      42.212  28.491  32.234  1.00  0.00     0.031 C 
ATOM     60  C   UNL A   1      43.181  31.201  37.572  1.00  0.00     0.029 A 
ATOM     61  C   UNL A   1      42.602  30.788  36.385  1.00  0.00     0.049 A 
ATOM     62  H   UNL A   1      40.744  31.340  35.546  1.00  0.00     0.167 HD
ATOM     63  C   UNL A   1      42.483  29.518  34.263  1.00  0.00     0.074 A 
ATOM     64  C   UNL A   1      43.028  28.616  33.271  1.00  0.00     0.031 C 
ATOM     65  C   UNL A   1      43.124  29.877  35.402  1.00  0.00     0.037 A 
BRANCH  52  66
ATOM     66  C   UNL A   1      39.926  33.787  38.945  1.00  0.00     0.064 A 
ATOM     67  C   UNL A   1      40.512  35.054  39.064  1.00  0.00     0.173 A 
ATOM     68  C   UNL A   1      39.216  33.287  40.051  1.00  0.00     0.173 A 
ATOM     69  F   UNL A   1      41.206  35.574  38.041  1.00  0.00    -0.203 F 
ATOM     70  C   UNL A   1      40.408  35.784  40.248  1.00  0.00     0.198 A 
ATOM     71  C   UNL A   1      39.091  34.031  41.221  1.00  0.00     0.198 A 
ATOM     72  F   UNL A   1      38.626  32.084  39.988  1.00  0.00    -0.203 F 
ATOM     73  F   UNL A   1      41.005  36.979  40.350  1.00  0.00    -0.200 F 
ATOM     74  C   UNL A   1      39.690  35.275  41.321  1.00  0.00     0.200 A 
ATOM     75  F   UNL A   1      38.381  33.544  42.249  1.00  0.00    -0.200 F 
ATOM     76  F   UNL A   1      39.578  35.986  42.452  1.00  0.00    -0.200 F 
ENDBRANCH  52  66
BRANCH  53  77
ATOM     77  C   UNL A   1      39.948  28.669  30.399  1.00  0.00     0.064 A 
ATOM     78  C   UNL A   1      40.552  29.231  29.265  1.00  0.00     0.173 A 
ATOM     79  C   UNL A   1      39.369  27.398  30.264  1.00  0.00     0.173 A 
ATOM     80  F   UNL A   1      41.089  30.457  29.331  1.00  0.00    -0.203 F 
ATOM     81  C   UNL A   1      40.566  28.554  28.047  1.00  0.00     0.198 A 
ATOM     82  C   UNL A   1      39.417  26.706  29.057  1.00  0.00     0.198 A 
ATOM     83  F   UNL A   1      38.772  26.816  31.315  1.00  0.00    -0.203 F 
ATOM     84  F   UNL A   1      41.106  29.135  26.966  1.00  0.00    -0.200 F 
ATOM     85  C   UNL A   1      40.008  27.288  27.946  1.00  0.00     0.200 A 
ATOM     86  F   UNL A   1      38.893  25.476  28.970  1.00  0.00    -0.200 F 
ATOM     87  F   UNL A   1      40.034  26.632  26.777  1.00  0.00    -0.200 F 
ENDBRANCH  53  77
BRANCH  65  88
ATOM     88  C   UNL A   1      44.461  29.249  35.660  1.00  0.00     0.064 A 
ATOM     89  C   UNL A   1      44.586  28.041  36.360  1.00  0.00     0.173 A 
ATOM     90  C   UNL A   1      45.632  29.859  35.185  1.00  0.00     0.173 A 
ATOM     91  F   UNL A   1      43.497  27.430  36.851  1.00  0.00    -0.203 F 
ATOM     92  C   UNL A   1      45.838  27.479  36.598  1.00  0.00     0.198 A 
ATOM     93  C   UNL A   1      46.879  29.282  35.402  1.00  0.00     0.198 A 
ATOM     94  F   UNL A   1      45.565  31.014  34.507  1.00  0.00    -0.203 F 
ATOM     95  F   UNL A   1      45.937  26.349  37.313  1.00  0.00    -0.200 F 
ATOM     96  C   UNL A   1      46.982  28.097  36.116  1.00  0.00     0.200 A 
ATOM     97  F   UNL A   1      47.983  29.876  34.929  1.00  0.00    -0.200 F 
ATOM     98  F   UNL A   1      48.186  27.555  36.348  1.00  0.00    -0.200 F 
ENDBRANCH  65  88
ENDBRANCH  39  40
ENDBRANCH  32  34
ENDBRANCH  31  32
ENDBRANCH  30  31
ENDBRANCH  29  30
ENDBRANCH  28  29
ENDBRANCH   1  28
TORSDOF 18
ENDMDL
MODEL 3
REMARK VINA RESULT:     -11.3      5.244     10.235
REMARK SMILES COc1cc(/C=N/NC(=O)c2cc(Cl)ccc2O)ccc1OCC(=O)OCCOC(=O)c1ccc(-c2c3nc(c(-c4c(F)c(F)c(F)c(F)c4F)c4ccc([nH]4)c(-c4c(F)c(F)c(F)c(F)c4F)c4nc(c(-c5c(F)c(F)c(F)c(F)c5F)c5ccc2[nH]5)C=C4)C=C3)cc1
REMARK SMILES IDX 24 1 25 2 23 3 22 4 21 5 3 6 4 7 5 8 20 9 19 10 2 11 1 12
REMARK SMILES IDX 6 13 7 14 8 15 9 16 10 18 11 19 12 20 17 21 13 22 16 23
REMARK SMILES IDX 14 24 15 25 18 26 26 28 27 29 28 30 29 31 30 32 31 33 32 34
REMARK SMILES IDX 33 35 94 36 34 37 93 38 35 39 36 40 37 41 87 42 38 43 92 44
REMARK SMILES IDX 86 45 88 46 39 47 91 48 85 49 84 50 40 52 72 53 52 54 71 55
REMARK SMILES IDX 53 56 56 57 70 58 89 59 54 60 55 61 69 63 90 64 57 65 41 66
REMARK SMILES IDX 42 67 50 68 43 69 44 70 48 71 51 72 45 73 46 74 49 75 47 76
REMARK SMILES IDX 73 77 74 78 82 79 75 80 76 81 80 82 83 83 77 84 78 85 81 86
REMARK SMILES IDX 79 87 58 88 59 89 67 90 60 91 61 92 65 93 68 94 62 95 63 96
REMARK SMILES IDX 66 97 64 98
REMARK H PARENT 8 17 18 27 88 51 56 62
REMARK Flexibility Score: inf
ROOT
ATOM      1  C   UNL A   1      44.183  18.878  25.027  1.00  0.00     0.344 C 
ATOM      2  O   UNL A   1      45.168  18.155  25.144  1.00  0.00    -0.248 OA
ENDROOT
BRANCH   1   3
ATOM      3  C   UNL A   1      42.860  18.577  25.758  1.00  0.00     0.352 C 
BRANCH   3   4
ATOM      4  O   UNL A   1      42.325  19.220  26.891  1.00  0.00    -0.478 OA
BRANCH   4   5
ATOM      5  C   UNL A   1      41.548  20.328  26.754  1.00  0.00     0.162 A 
ATOM      6  C   UNL A   1      41.774  21.612  27.267  1.00  0.00     0.161 A 
ATOM      7  C   UNL A   1      40.785  22.609  27.118  1.00  0.00     0.060 A 
ATOM      8  C   UNL A   1      39.575  22.306  26.477  1.00  0.00    -0.002 A 
ATOM      9  C   UNL A   1      40.316  20.036  26.159  1.00  0.00     0.051 A 
ATOM     10  C   UNL A   1      39.336  21.012  26.015  1.00  0.00     0.014 A 
BRANCH   6  11
ATOM     11  O   UNL A   1      42.787  21.863  28.156  1.00  0.00    -0.493 OA
ATOM     12  C   UNL A   1      42.453  22.774  29.193  1.00  0.00     0.278 C 
ENDBRANCH   6  11
BRANCH   8  13
ATOM     13  C   UNL A   1      38.452  23.255  26.328  1.00  0.00     0.141 C 
ATOM     14  N   UNL A   1      37.456  23.084  25.510  1.00  0.00    -0.180 NA
BRANCH  14  15
ATOM     15  N   UNL A   1      36.581  24.141  25.419  1.00  0.00    -0.243 N 
ATOM     16  C   UNL A   1      35.223  24.127  25.119  1.00  0.00     0.275 C 
ATOM     17  H   UNL A   1      36.969  25.029  25.589  1.00  0.00     0.194 HD
ATOM     18  O   UNL A   1      34.624  25.183  24.915  1.00  0.00    -0.267 OA
BRANCH  16  19
ATOM     19  C   UNL A   1      34.472  22.848  25.057  1.00  0.00     0.084 A 
ATOM     20  C   UNL A   1      33.692  22.610  23.915  1.00  0.00     0.038 A 
ATOM     21  C   UNL A   1      34.486  21.900  26.087  1.00  0.00     0.128 A 
ATOM     22  C   UNL A   1      32.996  21.407  23.788  1.00  0.00     0.042 A 
ATOM     23  C   UNL A   1      33.782  20.704  25.957  1.00  0.00     0.048 A 
ATOM     24  Cl  UNL A   1      32.081  21.095  22.365  1.00  0.00    -0.084 Cl
ATOM     25  C   UNL A   1      33.048  20.449  24.798  1.00  0.00     0.024 A 
BRANCH  21  26
ATOM     26  O   UNL A   1      35.173  22.067  27.256  1.00  0.00    -0.507 OA
ATOM     27  H   UNL A   1      36.076  21.822  27.308  1.00  0.00     0.293 HD
ENDBRANCH  21  26
ENDBRANCH  16  19
ENDBRANCH  14  15
ENDBRANCH   8  13
ENDBRANCH   4   5
ENDBRANCH   3   4
ENDBRANCH   1   3
BRANCH   1  28
ATOM     28  O   UNL A   1      44.159  20.016  24.284  1.00  0.00    -0.460 OA
BRANCH  28  29
ATOM     29  C   UNL A   1      44.642  21.202  24.953  1.00  0.00     0.274 C 
BRANCH  29  30
ATOM     30  C   UNL A   1      44.645  22.378  23.975  1.00  0.00     0.275 C 
BRANCH  30  31
ATOM     31  O   UNL A   1      44.025  23.515  24.609  1.00  0.00    -0.458 OA
BRANCH  31  32
ATOM     32  C   UNL A   1      44.854  24.564  24.852  1.00  0.00     0.338 C 
ATOM     33  O   UNL A   1      45.953  24.734  24.355  1.00  0.00    -0.246 OA
BRANCH  32  34
ATOM     34  C   UNL A   1      44.189  25.552  25.752  1.00  0.00     0.060 A 
ATOM     35  C   UNL A   1      44.323  26.925  25.559  1.00  0.00     0.016 A 
ATOM     36  C   UNL A   1      43.473  25.105  26.864  1.00  0.00     0.016 A 
ATOM     37  C   UNL A   1      43.905  27.830  26.539  1.00  0.00     0.010 A 
ATOM     38  C   UNL A   1      42.937  26.026  27.782  1.00  0.00     0.010 A 
ATOM     39  C   UNL A   1      43.181  27.406  27.661  1.00  0.00    -0.014 A 
BRANCH  39  40
ATOM     40  C   UNL A   1      42.700  28.374  28.704  1.00  0.00     0.031 A 
ATOM     41  C   UNL A   1      43.574  28.702  29.895  1.00  0.00     0.074 A 
ATOM     42  C   UNL A   1      41.489  28.969  28.624  1.00  0.00     0.049 A 
ATOM     43  N   UNL A   1      43.246  29.230  31.049  1.00  0.00    -0.248 NA
ATOM     44  C   UNL A   1      45.004  28.373  29.776  1.00  0.00     0.031 C 
ATOM     45  C   UNL A   1      40.536  28.834  27.520  1.00  0.00     0.029 A 
ATOM     46  N   UNL A   1      40.843  29.814  29.502  1.00  0.00    -0.354 N 
ATOM     47  C   UNL A   1      44.400  29.208  31.823  1.00  0.00     0.074 A 
ATOM     48  C   UNL A   1      45.446  28.638  30.999  1.00  0.00     0.031 C 
ATOM     49  C   UNL A   1      39.463  29.601  27.759  1.00  0.00     0.029 A 
ATOM     50  C   UNL A   1      39.581  30.178  29.092  1.00  0.00     0.049 A 
ATOM     51  H   UNL A   1      41.246  30.127  30.344  1.00  0.00     0.167 HD
ATOM     52  C   UNL A   1      44.566  29.612  33.106  1.00  0.00     0.037 A 
ATOM     53  C   UNL A   1      38.592  30.835  29.731  1.00  0.00     0.037 A 
ATOM     54  C   UNL A   1      43.551  30.267  33.893  1.00  0.00     0.049 A 
ATOM     55  C   UNL A   1      38.791  31.264  31.157  1.00  0.00     0.074 A 
ATOM     56  C   UNL A   1      43.625  30.714  35.203  1.00  0.00     0.029 A 
ATOM     57  N   UNL A   1      42.287  30.603  33.431  1.00  0.00    -0.354 N 
ATOM     58  N   UNL A   1      39.845  31.126  31.923  1.00  0.00    -0.248 NA
ATOM     59  C   UNL A   1      37.650  31.913  31.818  1.00  0.00     0.031 C 
ATOM     60  C   UNL A   1      42.397  31.295  35.540  1.00  0.00     0.029 A 
ATOM     61  C   UNL A   1      41.574  31.250  34.428  1.00  0.00     0.049 A 
ATOM     62  H   UNL A   1      41.948  30.409  32.528  1.00  0.00     0.167 HD
ATOM     63  C   UNL A   1      39.500  31.680  33.147  1.00  0.00     0.074 A 
ATOM     64  C   UNL A   1      38.147  32.178  33.018  1.00  0.00     0.031 C 
ATOM     65  C   UNL A   1      40.237  31.760  34.282  1.00  0.00     0.037 A 
BRANCH  52  66
ATOM     66  C   UNL A   1      45.882  29.321  33.772  1.00  0.00     0.064 A 
ATOM     67  C   UNL A   1      46.928  30.253  33.808  1.00  0.00     0.173 A 
ATOM     68  C   UNL A   1      46.070  28.100  34.441  1.00  0.00     0.173 A 
ATOM     69  F   UNL A   1      46.803  31.431  33.178  1.00  0.00    -0.203 F 
ATOM     70  C   UNL A   1      48.121  29.966  34.470  1.00  0.00     0.198 A 
ATOM     71  C   UNL A   1      47.252  27.829  35.126  1.00  0.00     0.198 A 
ATOM     72  F   UNL A   1      45.097  27.176  34.449  1.00  0.00    -0.203 F 
ATOM     73  F   UNL A   1      49.121  30.859  34.462  1.00  0.00    -0.200 F 
ATOM     74  C   UNL A   1      48.278  28.759  35.136  1.00  0.00     0.200 A 
ATOM     75  F   UNL A   1      47.393  26.669  35.783  1.00  0.00    -0.200 F 
ATOM     76  F   UNL A   1      49.420  28.493  35.786  1.00  0.00    -0.200 F 
ENDBRANCH  52  66
BRANCH  53  77
ATOM     77  C   UNL A   1      37.285  31.061  29.050  1.00  0.00     0.064 A 
ATOM     78  C   UNL A   1      36.375  30.011  28.867  1.00  0.00     0.173 A 
ATOM     79  C   UNL A   1      36.927  32.325  28.558  1.00  0.00     0.173 A 
ATOM     80  F   UNL A   1      36.683  28.776  29.287  1.00  0.00    -0.203 F 
ATOM     81  C   UNL A   1      35.162  30.216  28.211  1.00  0.00     0.198 A 
ATOM     82  C   UNL A   1      35.699  32.537  27.936  1.00  0.00     0.198 A 
ATOM     83  F   UNL A   1      37.763  33.364  28.700  1.00  0.00    -0.203 F 
ATOM     84  F   UNL A   1      34.331  29.185  28.005  1.00  0.00    -0.200 F 
ATOM     85  C   UNL A   1      34.820  31.481  27.756  1.00  0.00     0.200 A 
ATOM     86  F   UNL A   1      35.367  33.765  27.515  1.00  0.00    -0.200 F 
ATOM     87  F   UNL A   1      33.648  31.680  27.137  1.00  0.00    -0.200 F 
ENDBRANCH  53  77
BRANCH  65  88
ATOM     88  C   UNL A   1      39.614  32.457  35.454  1.00  0.00     0.064 A 
ATOM     89  C   UNL A   1      38.828  31.770  36.389  1.00  0.00     0.173 A 
ATOM     90  C   UNL A   1      39.822  33.831  35.651  1.00  0.00     0.173 A 
ATOM     91  F   UNL A   1      38.585  30.460  36.233  1.00  0.00    -0.203 F 
ATOM     92  C   UNL A   1      38.249  32.438  37.465  1.00  0.00     0.198 A 
ATOM     93  C   UNL A   1      39.263  34.491  36.741  1.00  0.00     0.198 A 
ATOM     94  F   UNL A   1      40.569  34.533  34.785  1.00  0.00    -0.203 F 
ATOM     95  F   UNL A   1      37.461  31.771  38.319  1.00  0.00    -0.200 F 
ATOM     96  C   UNL A   1      38.471  33.796  37.643  1.00  0.00     0.200 A 
ATOM     97  F   UNL A   1      39.485  35.801  36.916  1.00  0.00    -0.200 F 
ATOM     98  F   UNL A   1      37.912  34.437  38.679  1.00  0.00    -0.200 F 
ENDBRANCH  65  88
ENDBRANCH  39  40
ENDBRANCH  32  34
ENDBRANCH  31  32
ENDBRANCH  30  31
ENDBRANCH  29  30
ENDBRANCH  28  29
ENDBRANCH   1  28
TORSDOF 18
ENDMDL
