MODEL 1
REMARK VINA RESULT:     -11.6      0.000      0.000
REMARK SMILES CC[C@H](C)[C@@H](NC(=O)c1csc(NC(C)=O)n1)C(=O)OCCOC(=O)c1ccc(-c2c3nc(c(-c4c(F)c(F)c(F)c(F)c4F)c4ccc([nH]4)c(-c4c(F)c(F)c(F)c(F)c4F)c4nc(c(-c5c(F)c(F)c(F)c(F)c5F)c5ccc2[nH]5)C=C4)C=C3)cc1
REMARK SMILES IDX 21 1 20 2 18 3 19 4 5 5 3 6 4 7 2 8 1 9 6 10 7 11 8 13 9 14
REMARK SMILES IDX 10 15 17 16 11 17 12 18 13 19 14 20 15 22 16 23 22 24 23 25
REMARK SMILES IDX 24 26 25 27 26 28 27 29 88 30 28 31 87 32 29 33 30 34 31 35
REMARK SMILES IDX 81 36 32 37 86 38 80 39 82 40 33 41 85 42 79 43 78 44 34 46
REMARK SMILES IDX 66 47 46 48 65 49 47 50 50 51 64 52 83 53 48 54 49 55 63 57
REMARK SMILES IDX 84 58 51 59 35 60 36 61 44 62 37 63 38 64 42 65 45 66 39 67
REMARK SMILES IDX 40 68 43 69 41 70 67 71 68 72 76 73 69 74 70 75 74 76 77 77
REMARK SMILES IDX 71 78 72 79 75 80 73 81 52 82 53 83 61 84 54 85 55 86 59 87
REMARK SMILES IDX 62 88 56 89 57 90 60 91 58 92
REMARK H PARENT 6 12 13 21 82 45 50 56
REMARK Flexibility Score: inf
ROOT
ATOM      1  C   UNL A   1      36.447  20.056  24.924  1.00  0.00     0.274 C 
ENDROOT
BRANCH   1   2
ATOM      2  O   UNL A   1      35.613  21.199  24.630  1.00  0.00    -0.461 OA
BRANCH   2   3
ATOM      3  C   UNL A   1      34.572  21.403  25.479  1.00  0.00     0.329 C 
ATOM      4  O   UNL A   1      34.696  21.770  26.644  1.00  0.00    -0.250 OA
BRANCH   3   5
ATOM      5  C   UNL A   1      33.188  21.135  24.855  1.00  0.00     0.195 C 
BRANCH   5   6
ATOM      6  C   UNL A   1      33.076  19.658  24.316  1.00  0.00     0.019 C 
ATOM      7  C   UNL A   1      32.591  18.676  25.398  1.00  0.00     0.010 C 
BRANCH   6   8
ATOM      8  C   UNL A   1      32.248  19.507  23.010  1.00  0.00     0.002 C 
ATOM      9  C   UNL A   1      32.239  18.140  22.333  1.00  0.00     0.004 C 
ENDBRANCH   6   8
ENDBRANCH   5   6
BRANCH   5  10
ATOM     10  N   UNL A   1      32.025  21.434  25.728  1.00  0.00    -0.337 N 
ATOM     11  C   UNL A   1      30.953  22.288  25.639  1.00  0.00     0.271 C 
ATOM     12  H   UNL A   1      32.022  20.902  26.556  1.00  0.00     0.164 HD
ATOM     13  O   UNL A   1      29.963  22.021  26.322  1.00  0.00    -0.267 OA
BRANCH  11  14
ATOM     14  C   UNL A   1      31.067  23.556  24.935  1.00  0.00     0.141 A 
ATOM     15  C   UNL A   1      31.379  24.736  25.588  1.00  0.00     0.102 A 
ATOM     16  N   UNL A   1      30.867  23.704  23.574  1.00  0.00    -0.215 NA
ATOM     17  S   UNL A   1      31.612  25.993  24.451  1.00  0.00    -0.104 S 
ATOM     18  C   UNL A   1      31.279  24.894  23.196  1.00  0.00     0.190 A 
BRANCH  18  19
ATOM     19  N   UNL A   1      31.492  25.171  21.869  1.00  0.00    -0.302 N 
ATOM     20  C   UNL A   1      32.704  25.427  21.273  1.00  0.00     0.223 C 
ATOM     21  H   UNL A   1      30.698  25.188  21.287  1.00  0.00     0.172 HD
ATOM     22  C   UNL A   1      32.609  25.549  19.771  1.00  0.00     0.114 C 
ATOM     23  O   UNL A   1      33.797  25.523  21.822  1.00  0.00    -0.275 OA
ENDBRANCH  18  19
ENDBRANCH  11  14
ENDBRANCH   5  10
ENDBRANCH   3   5
ENDBRANCH   2   3
ENDBRANCH   1   2
BRANCH   1  24
ATOM     24  C   UNL A   1      37.960  20.321  24.940  1.00  0.00     0.275 C 
BRANCH  24  25
ATOM     25  O   UNL A   1      38.343  21.271  25.956  1.00  0.00    -0.458 OA
BRANCH  25  26
ATOM     26  C   UNL A   1      39.638  21.215  26.343  1.00  0.00     0.338 C 
ATOM     27  O   UNL A   1      40.416  20.288  26.194  1.00  0.00    -0.246 OA
BRANCH  26  28
ATOM     28  C   UNL A   1      40.070  22.502  26.916  1.00  0.00     0.060 A 
ATOM     29  C   UNL A   1      39.647  23.687  26.303  1.00  0.00     0.016 A 
ATOM     30  C   UNL A   1      41.021  22.540  27.933  1.00  0.00     0.016 A 
ATOM     31  C   UNL A   1      40.182  24.913  26.680  1.00  0.00     0.010 A 
ATOM     32  C   UNL A   1      41.566  23.772  28.313  1.00  0.00     0.010 A 
ATOM     33  C   UNL A   1      41.169  24.959  27.668  1.00  0.00    -0.014 A 
BRANCH  33  34
ATOM     34  C   UNL A   1      41.880  26.231  27.920  1.00  0.00     0.031 A 
ATOM     35  C   UNL A   1      41.188  27.306  28.706  1.00  0.00     0.074 A 
ATOM     36  C   UNL A   1      43.143  26.406  27.494  1.00  0.00     0.049 A 
ATOM     37  N   UNL A   1      41.555  28.542  28.924  1.00  0.00    -0.248 NA
ATOM     38  C   UNL A   1      39.912  26.934  29.338  1.00  0.00     0.031 C 
ATOM     39  C   UNL A   1      43.950  25.397  26.811  1.00  0.00     0.029 A 
ATOM     40  N   UNL A   1      43.963  27.502  27.573  1.00  0.00    -0.354 N 
ATOM     41  C   UNL A   1      40.543  29.104  29.690  1.00  0.00     0.074 A 
ATOM     42  C   UNL A   1      39.547  28.076  29.902  1.00  0.00     0.031 C 
ATOM     43  C   UNL A   1      45.148  25.929  26.513  1.00  0.00     0.029 A 
ATOM     44  C   UNL A   1      45.167  27.326  26.938  1.00  0.00     0.049 A 
ATOM     45  H   UNL A   1      43.713  28.333  28.038  1.00  0.00     0.167 HD
ATOM     46  C   UNL A   1      40.455  30.368  30.167  1.00  0.00     0.037 A 
ATOM     47  C   UNL A   1      46.153  28.210  26.692  1.00  0.00     0.037 A 
ATOM     48  C   UNL A   1      41.457  31.379  29.962  1.00  0.00     0.049 A 
ATOM     49  C   UNL A   1      45.998  29.631  27.163  1.00  0.00     0.074 A 
ATOM     50  C   UNL A   1      41.454  32.698  30.379  1.00  0.00     0.029 A 
ATOM     51  N   UNL A   1      42.649  31.176  29.282  1.00  0.00    -0.354 N 
ATOM     52  N   UNL A   1      45.012  30.178  27.834  1.00  0.00    -0.248 NA
ATOM     53  C   UNL A   1      47.086  30.562  26.831  1.00  0.00     0.031 C 
ATOM     54  C   UNL A   1      42.632  33.302  29.925  1.00  0.00     0.029 A 
ATOM     55  C   UNL A   1      43.384  32.349  29.257  1.00  0.00     0.049 A 
ATOM     56  H   UNL A   1      42.929  30.324  28.875  1.00  0.00     0.167 HD
ATOM     57  C   UNL A   1      45.365  31.507  28.017  1.00  0.00     0.074 A 
ATOM     58  C   UNL A   1      46.664  31.683  27.400  1.00  0.00     0.031 C 
ATOM     59  C   UNL A   1      44.677  32.496  28.638  1.00  0.00     0.037 A 
BRANCH  46  60
ATOM     60  C   UNL A   1      39.211  30.735  30.917  1.00  0.00     0.064 A 
ATOM     61  C   UNL A   1      38.091  31.276  30.270  1.00  0.00     0.173 A 
ATOM     62  C   UNL A   1      39.135  30.526  32.302  1.00  0.00     0.173 A 
ATOM     63  F   UNL A   1      38.123  31.514  28.951  1.00  0.00    -0.203 F 
ATOM     64  C   UNL A   1      36.945  31.612  30.988  1.00  0.00     0.198 A 
ATOM     65  C   UNL A   1      37.980  30.842  33.012  1.00  0.00     0.198 A 
ATOM     66  F   UNL A   1      40.181  30.012  32.966  1.00  0.00    -0.203 F 
ATOM     67  F   UNL A   1      35.900  32.165  30.357  1.00  0.00    -0.200 F 
ATOM     68  C   UNL A   1      36.888  31.389  32.356  1.00  0.00     0.200 A 
ATOM     69  F   UNL A   1      37.926  30.620  34.333  1.00  0.00    -0.200 F 
ATOM     70  F   UNL A   1      35.784  31.712  33.044  1.00  0.00    -0.200 F 
ENDBRANCH  46  60
BRANCH  47  71
ATOM     71  C   UNL A   1      47.346  27.788  25.917  1.00  0.00     0.064 A 
ATOM     72  C   UNL A   1      48.535  27.421  26.560  1.00  0.00     0.173 A 
ATOM     73  C   UNL A   1      47.322  27.747  24.515  1.00  0.00     0.173 A 
ATOM     74  F   UNL A   1      48.615  27.469  27.897  1.00  0.00    -0.203 F 
ATOM     75  C   UNL A   1      49.658  27.037  25.829  1.00  0.00     0.198 A 
ATOM     76  C   UNL A   1      48.436  27.341  23.786  1.00  0.00     0.198 A 
ATOM     77  F   UNL A   1      46.208  28.095  23.853  1.00  0.00    -0.203 F 
ATOM     78  F   UNL A   1      50.796  26.728  26.466  1.00  0.00    -0.200 F 
ATOM     79  C   UNL A   1      49.606  26.992  24.443  1.00  0.00     0.200 A 
ATOM     80  F   UNL A   1      48.378  27.288  22.449  1.00  0.00    -0.200 F 
ATOM     81  F   UNL A   1      50.685  26.618  23.742  1.00  0.00    -0.200 F 
ENDBRANCH  47  71
BRANCH  59  82
ATOM     82  C   UNL A   1      45.325  33.845  28.701  1.00  0.00     0.064 A 
ATOM     83  C   UNL A   1      45.086  34.817  27.720  1.00  0.00     0.173 A 
ATOM     84  C   UNL A   1      46.162  34.182  29.776  1.00  0.00     0.173 A 
ATOM     85  F   UNL A   1      44.306  34.535  26.666  1.00  0.00    -0.203 F 
ATOM     86  C   UNL A   1      45.677  36.075  27.803  1.00  0.00     0.198 A 
ATOM     87  C   UNL A   1      46.732  35.447  29.867  1.00  0.00     0.198 A 
ATOM     88  F   UNL A   1      46.415  33.285  30.741  1.00  0.00    -0.203 F 
ATOM     89  F   UNL A   1      45.467  36.978  26.836  1.00  0.00    -0.200 F 
ATOM     90  C   UNL A   1      46.494  36.390  28.880  1.00  0.00     0.200 A 
ATOM     91  F   UNL A   1      47.514  35.754  30.913  1.00  0.00    -0.200 F 
ATOM     92  F   UNL A   1      47.059  37.604  28.960  1.00  0.00    -0.200 F 
ENDBRANCH  59  82
ENDBRANCH  33  34
ENDBRANCH  26  28
ENDBRANCH  25  26
ENDBRANCH  24  25
ENDBRANCH   1  24
TORSDOF 16
ENDMDL
MODEL 2
REMARK VINA RESULT:     -11.5      1.358      2.039
REMARK SMILES CC[C@H](C)[C@@H](NC(=O)c1csc(NC(C)=O)n1)C(=O)OCCOC(=O)c1ccc(-c2c3nc(c(-c4c(F)c(F)c(F)c(F)c4F)c4ccc([nH]4)c(-c4c(F)c(F)c(F)c(F)c4F)c4nc(c(-c5c(F)c(F)c(F)c(F)c5F)c5ccc2[nH]5)C=C4)C=C3)cc1
REMARK SMILES IDX 21 1 20 2 18 3 19 4 5 5 3 6 4 7 2 8 1 9 6 10 7 11 8 13 9 14
REMARK SMILES IDX 10 15 17 16 11 17 12 18 13 19 14 20 15 22 16 23 22 24 23 25
REMARK SMILES IDX 24 26 25 27 26 28 27 29 88 30 28 31 87 32 29 33 30 34 31 35
REMARK SMILES IDX 81 36 32 37 86 38 80 39 82 40 33 41 85 42 79 43 78 44 34 46
REMARK SMILES IDX 66 47 46 48 65 49 47 50 50 51 64 52 83 53 48 54 49 55 63 57
REMARK SMILES IDX 84 58 51 59 35 60 36 61 44 62 37 63 38 64 42 65 45 66 39 67
REMARK SMILES IDX 40 68 43 69 41 70 67 71 68 72 76 73 69 74 70 75 74 76 77 77
REMARK SMILES IDX 71 78 72 79 75 80 73 81 52 82 53 83 61 84 54 85 55 86 59 87
REMARK SMILES IDX 62 88 56 89 57 90 60 91 58 92
REMARK H PARENT 6 12 13 21 82 45 50 56
REMARK Flexibility Score: inf
ROOT
ATOM      1  C   UNL A   1      35.990  20.332  25.049  1.00  0.00     0.274 C 
ENDROOT
BRANCH   1   2
ATOM      2  O   UNL A   1      35.106  21.475  25.010  1.00  0.00    -0.461 OA
BRANCH   2   3
ATOM      3  C   UNL A   1      34.184  21.542  26.006  1.00  0.00     0.329 C 
ATOM      4  O   UNL A   1      34.443  21.381  27.196  1.00  0.00    -0.250 OA
BRANCH   3   5
ATOM      5  C   UNL A   1      32.753  21.844  25.520  1.00  0.00     0.195 C 
BRANCH   5   6
ATOM      6  C   UNL A   1      32.126  20.606  24.772  1.00  0.00     0.019 C 
ATOM      7  C   UNL A   1      32.264  20.717  23.243  1.00  0.00     0.010 C 
BRANCH   6   8
ATOM      8  C   UNL A   1      32.619  19.224  25.281  1.00  0.00     0.002 C 
ATOM      9  C   UNL A   1      32.821  18.122  24.247  1.00  0.00     0.004 C 
ENDBRANCH   6   8
ENDBRANCH   5   6
BRANCH   5  10
ATOM     10  N   UNL A   1      31.812  22.322  26.565  1.00  0.00    -0.337 N 
ATOM     11  C   UNL A   1      30.949  23.385  26.665  1.00  0.00     0.271 C 
ATOM     12  H   UNL A   1      31.805  21.748  27.364  1.00  0.00     0.164 HD
ATOM     13  O   UNL A   1      30.026  23.286  27.475  1.00  0.00    -0.267 OA
BRANCH  11  14
ATOM     14  C   UNL A   1      31.239  24.644  25.997  1.00  0.00     0.141 A 
ATOM     15  C   UNL A   1      30.344  25.237  25.122  1.00  0.00     0.102 A 
ATOM     16  N   UNL A   1      32.417  25.351  26.158  1.00  0.00    -0.215 NA
ATOM     17  S   UNL A   1      30.912  26.783  24.658  1.00  0.00    -0.104 S 
ATOM     18  C   UNL A   1      32.286  26.550  25.633  1.00  0.00     0.190 A 
BRANCH  18  19
ATOM     19  N   UNL A   1      33.177  27.547  25.940  1.00  0.00    -0.302 N 
ATOM     20  C   UNL A   1      33.134  28.371  27.039  1.00  0.00     0.223 C 
ATOM     21  H   UNL A   1      33.921  27.686  25.310  1.00  0.00     0.172 HD
ATOM     22  C   UNL A   1      34.345  29.265  27.155  1.00  0.00     0.114 C 
ATOM     23  O   UNL A   1      32.263  28.413  27.903  1.00  0.00    -0.275 OA
ENDBRANCH  18  19
ENDBRANCH  11  14
ENDBRANCH   5  10
ENDBRANCH   3   5
ENDBRANCH   2   3
ENDBRANCH   1   2
BRANCH   1  24
ATOM     24  C   UNL A   1      37.459  20.612  24.702  1.00  0.00     0.275 C 
BRANCH  24  25
ATOM     25  O   UNL A   1      38.002  21.718  25.452  1.00  0.00    -0.458 OA
BRANCH  25  26
ATOM     26  C   UNL A   1      39.146  21.456  26.125  1.00  0.00     0.338 C 
ATOM     27  O   UNL A   1      39.763  20.405  26.154  1.00  0.00    -0.246 OA
BRANCH  26  28
ATOM     28  C   UNL A   1      39.655  22.671  26.786  1.00  0.00     0.060 A 
ATOM     29  C   UNL A   1      39.139  23.913  26.401  1.00  0.00     0.016 A 
ATOM     30  C   UNL A   1      40.751  22.602  27.645  1.00  0.00     0.016 A 
ATOM     31  C   UNL A   1      39.721  25.093  26.848  1.00  0.00     0.010 A 
ATOM     32  C   UNL A   1      41.342  23.789  28.092  1.00  0.00     0.010 A 
ATOM     33  C   UNL A   1      40.847  25.038  27.672  1.00  0.00    -0.014 A 
BRANCH  33  34
ATOM     34  C   UNL A   1      41.583  26.285  27.976  1.00  0.00     0.031 A 
ATOM     35  C   UNL A   1      40.890  27.367  28.751  1.00  0.00     0.074 A 
ATOM     36  C   UNL A   1      42.867  26.429  27.605  1.00  0.00     0.049 A 
ATOM     37  N   UNL A   1      41.283  28.588  29.004  1.00  0.00    -0.248 NA
ATOM     38  C   UNL A   1      39.579  27.022  29.323  1.00  0.00     0.031 C 
ATOM     39  C   UNL A   1      43.672  25.408  26.938  1.00  0.00     0.029 A 
ATOM     40  N   UNL A   1      43.715  27.498  27.736  1.00  0.00    -0.354 N 
ATOM     41  C   UNL A   1      40.257  29.167  29.738  1.00  0.00     0.074 A 
ATOM     42  C   UNL A   1      39.224  28.165  29.891  1.00  0.00     0.031 C 
ATOM     43  C   UNL A   1      44.897  25.909  26.699  1.00  0.00     0.029 A 
ATOM     44  C   UNL A   1      44.938  27.297  27.148  1.00  0.00     0.049 A 
ATOM     45  H   UNL A   1      43.469  28.329  28.204  1.00  0.00     0.167 HD
ATOM     46  C   UNL A   1      40.185  30.425  30.233  1.00  0.00     0.037 A 
ATOM     47  C   UNL A   1      45.958  28.156  26.958  1.00  0.00     0.037 A 
ATOM     48  C   UNL A   1      41.224  31.410  30.086  1.00  0.00     0.049 A 
ATOM     49  C   UNL A   1      45.825  29.573  27.447  1.00  0.00     0.074 A 
ATOM     50  C   UNL A   1      41.242  32.721  30.526  1.00  0.00     0.029 A 
ATOM     51  N   UNL A   1      42.437  31.182  29.452  1.00  0.00    -0.354 N 
ATOM     52  N   UNL A   1      44.829  30.138  28.086  1.00  0.00    -0.248 NA
ATOM     53  C   UNL A   1      46.952  30.476  27.176  1.00  0.00     0.031 C 
ATOM     54  C   UNL A   1      42.454  33.297  30.131  1.00  0.00     0.029 A 
ATOM     55  C   UNL A   1      43.206  32.333  29.478  1.00  0.00     0.049 A 
ATOM     56  H   UNL A   1      42.709  30.329  29.043  1.00  0.00     0.167 HD
ATOM     57  C   UNL A   1      45.212  31.453  28.306  1.00  0.00     0.074 A 
ATOM     58  C   UNL A   1      46.540  31.600  27.746  1.00  0.00     0.031 C 
ATOM     59  C   UNL A   1      44.527  32.452  28.915  1.00  0.00     0.037 A 
BRANCH  46  60
ATOM     60  C   UNL A   1      38.922  30.817  30.937  1.00  0.00     0.064 A 
ATOM     61  C   UNL A   1      38.808  30.762  32.333  1.00  0.00     0.173 A 
ATOM     62  C   UNL A   1      37.817  31.270  30.202  1.00  0.00     0.173 A 
ATOM     63  F   UNL A   1      39.831  30.317  33.078  1.00  0.00    -0.203 F 
ATOM     64  C   UNL A   1      37.624  31.130  32.968  1.00  0.00     0.198 A 
ATOM     65  C   UNL A   1      36.643  31.657  30.841  1.00  0.00     0.198 A 
ATOM     66  F   UNL A   1      37.877  31.338  28.864  1.00  0.00    -0.203 F 
ATOM     67  F   UNL A   1      37.521  31.033  34.300  1.00  0.00    -0.200 F 
ATOM     68  C   UNL A   1      36.545  31.582  32.223  1.00  0.00     0.200 A 
ATOM     69  F   UNL A   1      35.603  32.100  30.119  1.00  0.00    -0.200 F 
ATOM     70  F   UNL A   1      35.406  31.937  32.835  1.00  0.00    -0.200 F 
ENDBRANCH  46  60
BRANCH  47  71
ATOM     71  C   UNL A   1      47.170  27.711  26.225  1.00  0.00     0.064 A 
ATOM     72  C   UNL A   1      48.310  27.270  26.910  1.00  0.00     0.173 A 
ATOM     73  C   UNL A   1      47.214  27.723  24.823  1.00  0.00     0.173 A 
ATOM     74  F   UNL A   1      48.325  27.266  28.251  1.00  0.00    -0.203 F 
ATOM     75  C   UNL A   1      49.451  26.865  26.220  1.00  0.00     0.198 A 
ATOM     76  C   UNL A   1      48.345  27.295  24.134  1.00  0.00     0.198 A 
ATOM     77  F   UNL A   1      46.150  28.142  24.122  1.00  0.00    -0.203 F 
ATOM     78  F   UNL A   1      50.541  26.483  26.899  1.00  0.00    -0.200 F 
ATOM     79  C   UNL A   1      49.466  26.872  24.833  1.00  0.00     0.200 A 
ATOM     80  F   UNL A   1      48.351  27.294  22.794  1.00  0.00    -0.200 F 
ATOM     81  F   UNL A   1      50.561  26.478  24.170  1.00  0.00    -0.200 F 
ENDBRANCH  47  71
BRANCH  59  82
ATOM     82  C   UNL A   1      45.210  33.780  29.028  1.00  0.00     0.064 A 
ATOM     83  C   UNL A   1      45.048  34.771  28.050  1.00  0.00     0.173 A 
ATOM     84  C   UNL A   1      46.004  34.078  30.146  1.00  0.00     0.173 A 
ATOM     85  F   UNL A   1      44.313  34.526  26.956  1.00  0.00    -0.203 F 
ATOM     86  C   UNL A   1      45.671  36.009  28.179  1.00  0.00     0.198 A 
ATOM     87  C   UNL A   1      46.606  35.325  30.283  1.00  0.00     0.198 A 
ATOM     88  F   UNL A   1      46.183  33.163  31.110  1.00  0.00    -0.203 F 
ATOM     89  F   UNL A   1      45.534  36.930  27.215  1.00  0.00    -0.200 F 
ATOM     90  C   UNL A   1      46.444  36.287  29.298  1.00  0.00     0.200 A 
ATOM     91  F   UNL A   1      47.344  35.595  31.368  1.00  0.00    -0.200 F 
ATOM     92  F   UNL A   1      47.039  37.482  29.422  1.00  0.00    -0.200 F 
ENDBRANCH  59  82
ENDBRANCH  33  34
ENDBRANCH  26  28
ENDBRANCH  25  26
ENDBRANCH  24  25
ENDBRANCH   1  24
TORSDOF 16
ENDMDL
MODEL 3
REMARK VINA RESULT:     -11.5      4.596     10.022
REMARK SMILES CC[C@H](C)[C@@H](NC(=O)c1csc(NC(C)=O)n1)C(=O)OCCOC(=O)c1ccc(-c2c3nc(c(-c4c(F)c(F)c(F)c(F)c4F)c4ccc([nH]4)c(-c4c(F)c(F)c(F)c(F)c4F)c4nc(c(-c5c(F)c(F)c(F)c(F)c5F)c5ccc2[nH]5)C=C4)C=C3)cc1
REMARK SMILES IDX 21 1 20 2 18 3 19 4 5 5 3 6 4 7 2 8 1 9 6 10 7 11 8 13 9 14
REMARK SMILES IDX 10 15 17 16 11 17 12 18 13 19 14 20 15 22 16 23 22 24 23 25
REMARK SMILES IDX 24 26 25 27 26 28 27 29 88 30 28 31 87 32 29 33 30 34 31 35
REMARK SMILES IDX 81 36 32 37 86 38 80 39 82 40 33 41 85 42 79 43 78 44 34 46
REMARK SMILES IDX 66 47 46 48 65 49 47 50 50 51 64 52 83 53 48 54 49 55 63 57
REMARK SMILES IDX 84 58 51 59 35 60 36 61 44 62 37 63 38 64 42 65 45 66 39 67
REMARK SMILES IDX 40 68 43 69 41 70 67 71 68 72 76 73 69 74 70 75 74 76 77 77
REMARK SMILES IDX 71 78 72 79 75 80 73 81 52 82 53 83 61 84 54 85 55 86 59 87
REMARK SMILES IDX 62 88 56 89 57 90 60 91 58 92
REMARK H PARENT 6 12 13 21 82 45 50 56
REMARK Flexibility Score: inf
ROOT
ATOM      1  C   UNL A   1      31.290  30.090  24.481  1.00  0.00     0.274 C 
ENDROOT
BRANCH   1   2
ATOM      2  O   UNL A   1      30.364  28.982  24.525  1.00  0.00    -0.461 OA
BRANCH   2   3
ATOM      3  C   UNL A   1      30.790  27.833  23.938  1.00  0.00     0.329 C 
ATOM      4  O   UNL A   1      30.056  27.056  23.334  1.00  0.00    -0.250 OA
BRANCH   3   5
ATOM      5  C   UNL A   1      32.301  27.573  24.089  1.00  0.00     0.195 C 
BRANCH   5   6
ATOM      6  C   UNL A   1      32.615  26.736  25.388  1.00  0.00     0.019 C 
ATOM      7  C   UNL A   1      34.007  27.052  25.964  1.00  0.00     0.010 C 
BRANCH   6   8
ATOM      8  C   UNL A   1      31.521  26.815  26.488  1.00  0.00     0.002 C 
ATOM      9  C   UNL A   1      31.750  27.785  27.643  1.00  0.00     0.004 C 
ENDBRANCH   6   8
ENDBRANCH   5   6
BRANCH   5  10
ATOM     10  N   UNL A   1      32.960  26.937  22.919  1.00  0.00    -0.337 N 
ATOM     11  C   UNL A   1      32.944  25.676  22.377  1.00  0.00     0.271 C 
ATOM     12  H   UNL A   1      33.537  27.560  22.421  1.00  0.00     0.164 HD
ATOM     13  O   UNL A   1      33.271  25.567  21.195  1.00  0.00    -0.267 OA
BRANCH  11  14
ATOM     14  C   UNL A   1      32.753  24.506  23.221  1.00  0.00     0.141 A 
ATOM     15  C   UNL A   1      33.815  23.731  23.657  1.00  0.00     0.102 A 
ATOM     16  N   UNL A   1      31.517  24.056  23.649  1.00  0.00    -0.215 NA
ATOM     17  S   UNL A   1      33.264  22.552  24.768  1.00  0.00    -0.104 S 
ATOM     18  C   UNL A   1      31.680  23.145  24.584  1.00  0.00     0.190 A 
BRANCH  18  19
ATOM     19  N   UNL A   1      30.635  22.780  25.393  1.00  0.00    -0.302 N 
ATOM     20  C   UNL A   1      30.510  23.046  26.737  1.00  0.00     0.223 C 
ATOM     21  H   UNL A   1      29.901  22.278  24.970  1.00  0.00     0.172 HD
ATOM     22  C   UNL A   1      29.171  22.632  27.298  1.00  0.00     0.114 C 
ATOM     23  O   UNL A   1      31.333  23.591  27.466  1.00  0.00    -0.275 OA
ENDBRANCH  18  19
ENDBRANCH  11  14
ENDBRANCH   5  10
ENDBRANCH   3   5
ENDBRANCH   2   3
ENDBRANCH   1   2
BRANCH   1  24
ATOM     24  C   UNL A   1      31.508  30.831  25.808  1.00  0.00     0.275 C 
BRANCH  24  25
ATOM     25  O   UNL A   1      32.814  30.582  26.370  1.00  0.00    -0.458 OA
BRANCH  25  26
ATOM     26  C   UNL A   1      33.292  31.556  27.179  1.00  0.00     0.338 C 
ATOM     27  O   UNL A   1      32.699  32.542  27.580  1.00  0.00    -0.246 OA
BRANCH  26  28
ATOM     28  C   UNL A   1      34.657  31.236  27.633  1.00  0.00     0.060 A 
ATOM     29  C   UNL A   1      34.974  29.905  27.926  1.00  0.00     0.016 A 
ATOM     30  C   UNL A   1      35.558  32.255  27.936  1.00  0.00     0.016 A 
ATOM     31  C   UNL A   1      36.177  29.581  28.542  1.00  0.00     0.010 A 
ATOM     32  C   UNL A   1      36.768  31.932  28.561  1.00  0.00     0.010 A 
ATOM     33  C   UNL A   1      37.069  30.598  28.892  1.00  0.00    -0.014 A 
BRANCH  33  34
ATOM     34  C   UNL A   1      38.246  30.272  29.726  1.00  0.00     0.031 A 
ATOM     35  C   UNL A   1      39.297  29.354  29.173  1.00  0.00     0.074 A 
ATOM     36  C   UNL A   1      38.398  30.826  30.942  1.00  0.00     0.049 A 
ATOM     37  N   UNL A   1      40.329  28.818  29.771  1.00  0.00    -0.248 NA
ATOM     38  C   UNL A   1      39.168  28.997  27.751  1.00  0.00     0.031 C 
ATOM     39  C   UNL A   1      37.496  31.807  31.540  1.00  0.00     0.029 A 
ATOM     40  N   UNL A   1      39.368  30.633  31.890  1.00  0.00    -0.354 N 
ATOM     41  C   UNL A   1      40.955  28.038  28.809  1.00  0.00     0.074 A 
ATOM     42  C   UNL A   1      40.190  28.169  27.588  1.00  0.00     0.031 C 
ATOM     43  C   UNL A   1      37.945  32.118  32.768  1.00  0.00     0.029 A 
ATOM     44  C   UNL A   1      39.132  31.318  33.056  1.00  0.00     0.049 A 
ATOM     45  H   UNL A   1      40.156  30.059  31.750  1.00  0.00     0.167 HD
ATOM     46  C   UNL A   1      42.068  27.277  28.940  1.00  0.00     0.037 A 
ATOM     47  C   UNL A   1      39.779  31.267  34.236  1.00  0.00     0.037 A 
ATOM     48  C   UNL A   1      42.829  27.164  30.155  1.00  0.00     0.049 A 
ATOM     49  C   UNL A   1      40.967  30.353  34.382  1.00  0.00     0.074 A 
ATOM     50  C   UNL A   1      43.956  26.400  30.403  1.00  0.00     0.029 A 
ATOM     51  N   UNL A   1      42.539  27.845  31.329  1.00  0.00    -0.354 N 
ATOM     52  N   UNL A   1      41.522  29.568  33.490  1.00  0.00    -0.248 NA
ATOM     53  C   UNL A   1      41.610  30.309  35.703  1.00  0.00     0.031 C 
ATOM     54  C   UNL A   1      44.331  26.596  31.737  1.00  0.00     0.029 A 
ATOM     55  C   UNL A   1      43.459  27.509  32.308  1.00  0.00     0.049 A 
ATOM     56  H   UNL A   1      41.790  28.472  31.447  1.00  0.00     0.167 HD
ATOM     57  C   UNL A   1      42.584  28.949  34.133  1.00  0.00     0.074 A 
ATOM     58  C   UNL A   1      42.606  29.460  35.489  1.00  0.00     0.031 C 
ATOM     59  C   UNL A   1      43.461  28.036  33.649  1.00  0.00     0.037 A 
BRANCH  46  60
ATOM     60  C   UNL A   1      42.496  26.474  27.750  1.00  0.00     0.064 A 
ATOM     61  C   UNL A   1      41.958  25.208  27.481  1.00  0.00     0.173 A 
ATOM     62  C   UNL A   1      43.448  26.989  26.857  1.00  0.00     0.173 A 
ATOM     63  F   UNL A   1      41.060  24.665  28.315  1.00  0.00    -0.203 F 
ATOM     64  C   UNL A   1      42.372  24.478  26.369  1.00  0.00     0.198 A 
ATOM     65  C   UNL A   1      43.843  26.267  25.735  1.00  0.00     0.198 A 
ATOM     66  F   UNL A   1      43.993  28.196  27.073  1.00  0.00    -0.203 F 
ATOM     67  F   UNL A   1      41.875  23.253  26.150  1.00  0.00    -0.200 F 
ATOM     68  C   UNL A   1      43.308  25.010  25.494  1.00  0.00     0.200 A 
ATOM     69  F   UNL A   1      44.744  26.785  24.889  1.00  0.00    -0.200 F 
ATOM     70  F   UNL A   1      43.705  24.306  24.424  1.00  0.00    -0.200 F 
ENDBRANCH  46  60
BRANCH  47  71
ATOM     71  C   UNL A   1      39.285  32.066  35.384  1.00  0.00     0.064 A 
ATOM     72  C   UNL A   1      39.636  33.414  35.534  1.00  0.00     0.173 A 
ATOM     73  C   UNL A   1      38.452  31.496  36.358  1.00  0.00     0.173 A 
ATOM     74  F   UNL A   1      40.451  33.996  34.643  1.00  0.00    -0.203 F 
ATOM     75  C   UNL A   1      39.181  34.159  36.620  1.00  0.00     0.198 A 
ATOM     76  C   UNL A   1      37.977  32.246  37.430  1.00  0.00     0.198 A 
ATOM     77  F   UNL A   1      38.091  30.208  36.262  1.00  0.00    -0.203 F 
ATOM     78  F   UNL A   1      39.562  35.435  36.763  1.00  0.00    -0.200 F 
ATOM     79  C   UNL A   1      38.347  33.576  37.565  1.00  0.00     0.200 A 
ATOM     80  F   UNL A   1      37.163  31.683  38.333  1.00  0.00    -0.200 F 
ATOM     81  F   UNL A   1      37.905  34.294  38.606  1.00  0.00    -0.200 F 
ENDBRANCH  47  71
BRANCH  59  82
ATOM     82  C   UNL A   1      44.530  27.554  34.581  1.00  0.00     0.064 A 
ATOM     83  C   UNL A   1      44.359  26.396  35.353  1.00  0.00     0.173 A 
ATOM     84  C   UNL A   1      45.754  28.234  34.672  1.00  0.00     0.173 A 
ATOM     85  F   UNL A   1      43.200  25.722  35.311  1.00  0.00    -0.203 F 
ATOM     86  C   UNL A   1      45.369  25.946  36.198  1.00  0.00     0.198 A 
ATOM     87  C   UNL A   1      46.770  27.768  35.499  1.00  0.00     0.198 A 
ATOM     88  F   UNL A   1      45.965  29.343  33.947  1.00  0.00    -0.203 F 
ATOM     89  F   UNL A   1      45.172  24.859  36.957  1.00  0.00    -0.200 F 
ATOM     90  C   UNL A   1      46.576  26.629  36.266  1.00  0.00     0.200 A 
ATOM     91  F   UNL A   1      47.938  28.423  35.557  1.00  0.00    -0.200 F 
ATOM     92  F   UNL A   1      47.550  26.191  37.076  1.00  0.00    -0.200 F 
ENDBRANCH  59  82
ENDBRANCH  33  34
ENDBRANCH  26  28
ENDBRANCH  25  26
ENDBRANCH  24  25
ENDBRANCH   1  24
TORSDOF 16
ENDMDL
