MODEL 1
REMARK VINA RESULT:     -12.6      0.000      0.000
REMARK SMILES Cc1ccc(/C=C2/SC(=O)N(CC(=O)OCCOC(=O)c3ccc(-c4c5nc(c(-c6c(F)c(F)c(F)c(F)c6F)c6ccc([nH]6)c(-c6c(F)c(F)c(F)c(F)c6F)c6nc(c(-c7c(F)c(F)c(F)c(F)c7F)c7ccc4[nH]7)C=C6)C=C5)cc3)C2=O)cc1
REMARK SMILES IDX 16 1 15 2 13 3 14 4 12 5 11 6 6 7 7 8 8 9 84 10 9 11 85 12
REMARK SMILES IDX 10 13 5 14 1 15 2 16 3 17 87 18 4 19 86 20 17 21 18 22 19 23
REMARK SMILES IDX 20 24 21 25 22 26 83 27 23 28 82 29 24 30 25 31 26 32 76 33
REMARK SMILES IDX 27 34 81 35 75 36 77 37 28 38 80 39 74 40 73 41 29 43 61 44
REMARK SMILES IDX 41 45 60 46 42 47 45 48 59 49 78 50 43 51 44 52 58 54 79 55
REMARK SMILES IDX 46 56 30 57 31 58 39 59 32 60 33 61 37 62 40 63 34 64 35 65
REMARK SMILES IDX 38 66 36 67 62 68 63 69 71 70 64 71 65 72 69 73 72 74 66 75
REMARK SMILES IDX 67 76 70 77 68 78 47 79 48 80 56 81 49 82 50 83 54 84 57 85
REMARK SMILES IDX 51 86 52 87 55 88 53 89
REMARK H PARENT 77 42 45 53
REMARK Flexibility Score: inf
ROOT
ATOM      1  C   UNL A   1      36.747  21.497  24.705  1.00  0.00     0.274 C 
ENDROOT
BRANCH   1   2
ATOM      2  O   UNL A   1      36.462  22.421  23.651  1.00  0.00    -0.461 OA
BRANCH   2   3
ATOM      3  C   UNL A   1      35.255  23.021  23.647  1.00  0.00     0.326 C 
ATOM      4  O   UNL A   1      34.896  23.830  22.802  1.00  0.00    -0.250 OA
BRANCH   3   5
ATOM      5  C   UNL A   1      34.435  22.550  24.849  1.00  0.00     0.252 C 
BRANCH   5   6
ATOM      6  N   UNL A   1      33.111  23.086  24.655  1.00  0.00    -0.257 N 
ATOM      7  C   UNL A   1      31.285  26.150  24.599  1.00  0.00     0.029 C 
ATOM      8  C   UNL A   1      31.610  24.851  24.594  1.00  0.00     0.083 C 
ATOM      9  S   UNL A   1      30.880  23.665  23.565  1.00  0.00    -0.022 SA
ATOM     10  C   UNL A   1      32.724  24.215  25.331  1.00  0.00     0.268 C 
ATOM     11  C   UNL A   1      32.204  22.540  23.810  1.00  0.00     0.294 C 
ATOM     12  O   UNL A   1      33.241  24.623  26.354  1.00  0.00    -0.268 OA
ATOM     13  O   UNL A   1      32.256  21.425  23.301  1.00  0.00    -0.261 OA
BRANCH   7  14
ATOM     14  C   UNL A   1      31.926  27.211  25.392  1.00  0.00    -0.024 A 
ATOM     15  C   UNL A   1      33.872  30.447  27.492  1.00  0.00     0.044 C 
ATOM     16  C   UNL A   1      33.219  29.290  26.796  1.00  0.00    -0.051 A 
ATOM     17  C   UNL A   1      33.698  28.865  25.553  1.00  0.00     0.004 A 
ATOM     18  C   UNL A   1      32.112  28.641  27.349  1.00  0.00     0.004 A 
ATOM     19  C   UNL A   1      33.060  27.833  24.861  1.00  0.00     0.008 A 
ATOM     20  C   UNL A   1      31.471  27.605  26.655  1.00  0.00     0.008 A 
ENDBRANCH   7  14
ENDBRANCH   5   6
ENDBRANCH   3   5
ENDBRANCH   2   3
ENDBRANCH   1   2
BRANCH   1  21
ATOM     21  C   UNL A   1      38.158  21.529  25.353  1.00  0.00     0.275 C 
BRANCH  21  22
ATOM     22  O   UNL A   1      38.794  22.629  26.117  1.00  0.00    -0.458 OA
BRANCH  22  23
ATOM     23  C   UNL A   1      39.913  22.957  26.811  1.00  0.00     0.338 C 
ATOM     24  O   UNL A   1      40.707  22.126  27.225  1.00  0.00    -0.246 OA
BRANCH  23  25
ATOM     25  C   UNL A   1      40.111  24.361  27.133  1.00  0.00     0.060 A 
ATOM     26  C   UNL A   1      40.663  25.322  26.263  1.00  0.00     0.016 A 
ATOM     27  C   UNL A   1      39.690  24.708  28.388  1.00  0.00     0.016 A 
ATOM     28  C   UNL A   1      40.701  26.659  26.665  1.00  0.00     0.010 A 
ATOM     29  C   UNL A   1      39.369  26.009  28.591  1.00  0.00     0.010 A 
ATOM     30  C   UNL A   1      40.030  26.980  27.839  1.00  0.00    -0.014 A 
BRANCH  30  31
ATOM     31  C   UNL A   1      40.165  28.176  28.648  1.00  0.00     0.031 A 
ATOM     32  C   UNL A   1      39.169  29.241  28.608  1.00  0.00     0.074 A 
ATOM     33  C   UNL A   1      41.040  27.973  29.667  1.00  0.00     0.049 A 
ATOM     34  N   UNL A   1      39.413  30.449  28.964  1.00  0.00    -0.248 NA
ATOM     35  C   UNL A   1      37.789  29.035  28.181  1.00  0.00     0.031 C 
ATOM     36  C   UNL A   1      41.213  28.596  30.963  1.00  0.00     0.029 A 
ATOM     37  N   UNL A   1      42.033  26.969  29.673  1.00  0.00    -0.354 N 
ATOM     38  C   UNL A   1      38.191  31.043  29.199  1.00  0.00     0.074 A 
ATOM     39  C   UNL A   1      37.227  30.202  28.528  1.00  0.00     0.031 C 
ATOM     40  C   UNL A   1      42.430  28.244  31.439  1.00  0.00     0.029 A 
ATOM     41  C   UNL A   1      43.105  27.465  30.404  1.00  0.00     0.049 A 
ATOM     42  H   UNL A   1      41.976  26.087  29.242  1.00  0.00     0.167 HD
ATOM     43  C   UNL A   1      38.127  32.039  30.133  1.00  0.00     0.037 A 
ATOM     44  C   UNL A   1      44.199  27.801  29.661  1.00  0.00     0.037 A 
ATOM     45  C   UNL A   1      39.432  32.166  30.794  1.00  0.00     0.049 A 
ATOM     46  C   UNL A   1      44.343  29.302  29.636  1.00  0.00     0.074 A 
ATOM     47  C   UNL A   1      39.899  31.695  32.012  1.00  0.00     0.029 A 
ATOM     48  N   UNL A   1      40.559  32.493  30.047  1.00  0.00    -0.354 N 
ATOM     49  N   UNL A   1      43.355  30.135  29.823  1.00  0.00    -0.248 NA
ATOM     50  C   UNL A   1      45.622  29.969  29.479  1.00  0.00     0.031 C 
ATOM     51  C   UNL A   1      41.320  31.703  31.973  1.00  0.00     0.029 A 
ATOM     52  C   UNL A   1      41.718  32.174  30.732  1.00  0.00     0.049 A 
ATOM     53  H   UNL A   1      40.535  32.898  29.150  1.00  0.00     0.167 HD
ATOM     54  C   UNL A   1      43.837  31.411  29.897  1.00  0.00     0.074 A 
ATOM     55  C   UNL A   1      45.265  31.251  29.671  1.00  0.00     0.031 C 
ATOM     56  C   UNL A   1      43.021  32.481  30.152  1.00  0.00     0.037 A 
BRANCH  43  57
ATOM     57  C   UNL A   1      36.865  32.676  30.686  1.00  0.00     0.064 A 
ATOM     58  C   UNL A   1      36.128  33.605  29.913  1.00  0.00     0.173 A 
ATOM     59  C   UNL A   1      36.304  32.394  31.946  1.00  0.00     0.173 A 
ATOM     60  F   UNL A   1      36.481  33.913  28.659  1.00  0.00    -0.203 F 
ATOM     61  C   UNL A   1      34.982  34.249  30.389  1.00  0.00     0.198 A 
ATOM     62  C   UNL A   1      35.173  33.065  32.437  1.00  0.00     0.198 A 
ATOM     63  F   UNL A   1      36.789  31.422  32.728  1.00  0.00    -0.203 F 
ATOM     64  F   UNL A   1      34.335  35.119  29.600  1.00  0.00    -0.200 F 
ATOM     65  C   UNL A   1      34.514  33.995  31.658  1.00  0.00     0.200 A 
ATOM     66  F   UNL A   1      34.717  32.789  33.667  1.00  0.00    -0.200 F 
ATOM     67  F   UNL A   1      33.421  34.619  32.118  1.00  0.00    -0.200 F 
ENDBRANCH  43  57
BRANCH  44  68
ATOM     68  C   UNL A   1      44.414  26.858  28.499  1.00  0.00     0.064 A 
ATOM     69  C   UNL A   1      44.159  27.339  27.190  1.00  0.00     0.173 A 
ATOM     70  C   UNL A   1      45.180  25.688  28.591  1.00  0.00     0.173 A 
ATOM     71  F   UNL A   1      43.457  28.472  27.017  1.00  0.00    -0.203 F 
ATOM     72  C   UNL A   1      44.722  26.748  26.055  1.00  0.00     0.198 A 
ATOM     73  C   UNL A   1      45.717  25.077  27.446  1.00  0.00     0.198 A 
ATOM     74  F   UNL A   1      45.492  25.174  29.789  1.00  0.00    -0.203 F 
ATOM     75  F   UNL A   1      44.564  27.324  24.853  1.00  0.00    -0.200 F 
ATOM     76  C   UNL A   1      45.508  25.620  26.186  1.00  0.00     0.200 A 
ATOM     77  F   UNL A   1      46.508  24.001  27.572  1.00  0.00    -0.200 F 
ATOM     78  F   UNL A   1      46.092  25.077  25.109  1.00  0.00    -0.200 F 
ENDBRANCH  44  68
BRANCH  56  79
ATOM     79  C   UNL A   1      43.370  33.942  29.961  1.00  0.00     0.064 A 
ATOM     80  C   UNL A   1      43.496  34.568  28.713  1.00  0.00     0.173 A 
ATOM     81  C   UNL A   1      43.433  34.818  31.080  1.00  0.00     0.173 A 
ATOM     82  F   UNL A   1      43.313  33.903  27.567  1.00  0.00    -0.203 F 
ATOM     83  C   UNL A   1      43.743  35.936  28.593  1.00  0.00     0.198 A 
ATOM     84  C   UNL A   1      43.579  36.194  30.950  1.00  0.00     0.198 A 
ATOM     85  F   UNL A   1      43.321  34.377  32.341  1.00  0.00    -0.203 F 
ATOM     86  F   UNL A   1      43.927  36.466  27.375  1.00  0.00    -0.200 F 
ATOM     87  C   UNL A   1      43.762  36.752  29.707  1.00  0.00     0.200 A 
ATOM     88  F   UNL A   1      43.519  36.973  32.039  1.00  0.00    -0.200 F 
ATOM     89  F   UNL A   1      43.933  38.073  29.577  1.00  0.00    -0.200 F 
ENDBRANCH  56  79
ENDBRANCH  30  31
ENDBRANCH  23  25
ENDBRANCH  22  23
ENDBRANCH  21  22
ENDBRANCH   1  21
TORSDOF 13
ENDMDL
MODEL 2
REMARK VINA RESULT:     -12.6      3.003      9.315
REMARK SMILES Cc1ccc(/C=C2/SC(=O)N(CC(=O)OCCOC(=O)c3ccc(-c4c5nc(c(-c6c(F)c(F)c(F)c(F)c6F)c6ccc([nH]6)c(-c6c(F)c(F)c(F)c(F)c6F)c6nc(c(-c7c(F)c(F)c(F)c(F)c7F)c7ccc4[nH]7)C=C6)C=C5)cc3)C2=O)cc1
REMARK SMILES IDX 16 1 15 2 13 3 14 4 12 5 11 6 6 7 7 8 8 9 84 10 9 11 85 12
REMARK SMILES IDX 10 13 5 14 1 15 2 16 3 17 87 18 4 19 86 20 17 21 18 22 19 23
REMARK SMILES IDX 20 24 21 25 22 26 83 27 23 28 82 29 24 30 25 31 26 32 76 33
REMARK SMILES IDX 27 34 81 35 75 36 77 37 28 38 80 39 74 40 73 41 29 43 61 44
REMARK SMILES IDX 41 45 60 46 42 47 45 48 59 49 78 50 43 51 44 52 58 54 79 55
REMARK SMILES IDX 46 56 30 57 31 58 39 59 32 60 33 61 37 62 40 63 34 64 35 65
REMARK SMILES IDX 38 66 36 67 62 68 63 69 71 70 64 71 65 72 69 73 72 74 66 75
REMARK SMILES IDX 67 76 70 77 68 78 47 79 48 80 56 81 49 82 50 83 54 84 57 85
REMARK SMILES IDX 51 86 52 87 55 88 53 89
REMARK H PARENT 77 42 45 53
REMARK Flexibility Score: inf
ROOT
ATOM      1  C   UNL A   1      31.936  30.454  26.100  1.00  0.00     0.274 C 
ENDROOT
BRANCH   1   2
ATOM      2  O   UNL A   1      31.587  29.071  26.000  1.00  0.00    -0.461 OA
BRANCH   2   3
ATOM      3  C   UNL A   1      32.520  28.217  25.533  1.00  0.00     0.326 C 
ATOM      4  O   UNL A   1      33.424  28.540  24.775  1.00  0.00    -0.250 OA
BRANCH   3   5
ATOM      5  C   UNL A   1      32.261  26.812  26.080  1.00  0.00     0.252 C 
BRANCH   5   6
ATOM      6  N   UNL A   1      32.142  25.958  24.925  1.00  0.00    -0.257 N 
ATOM      7  C   UNL A   1      33.308  22.877  23.556  1.00  0.00     0.029 C 
ATOM      8  C   UNL A   1      32.714  24.068  23.712  1.00  0.00     0.083 C 
ATOM      9  S   UNL A   1      31.129  24.453  23.133  1.00  0.00    -0.022 SA
ATOM     10  C   UNL A   1      33.213  25.206  24.516  1.00  0.00     0.268 C 
ATOM     11  C   UNL A   1      31.000  25.836  24.204  1.00  0.00     0.294 C 
ATOM     12  O   UNL A   1      34.373  25.438  24.800  1.00  0.00    -0.268 OA
ATOM     13  O   UNL A   1      30.024  26.576  24.251  1.00  0.00    -0.261 OA
BRANCH   7  14
ATOM     14  C   UNL A   1      34.615  22.472  24.096  1.00  0.00    -0.024 A 
ATOM     15  C   UNL A   1      38.556  21.503  25.581  1.00  0.00     0.044 C 
ATOM     16  C   UNL A   1      37.183  21.790  25.050  1.00  0.00    -0.051 A 
ATOM     17  C   UNL A   1      37.032  22.489  23.848  1.00  0.00     0.004 A 
ATOM     18  C   UNL A   1      36.038  21.401  25.751  1.00  0.00     0.004 A 
ATOM     19  C   UNL A   1      35.760  22.822  23.375  1.00  0.00     0.008 A 
ATOM     20  C   UNL A   1      34.762  21.734  25.276  1.00  0.00     0.008 A 
ENDBRANCH   7  14
ENDBRANCH   5   6
ENDBRANCH   3   5
ENDBRANCH   2   3
ENDBRANCH   1   2
BRANCH   1  21
ATOM     21  C   UNL A   1      32.863  30.900  27.263  1.00  0.00     0.275 C 
BRANCH  21  22
ATOM     22  O   UNL A   1      34.321  30.677  27.414  1.00  0.00    -0.458 OA
BRANCH  22  23
ATOM     23  C   UNL A   1      35.475  31.288  27.783  1.00  0.00     0.338 C 
ATOM     24  O   UNL A   1      35.668  32.487  27.645  1.00  0.00    -0.246 OA
BRANCH  23  25
ATOM     25  C   UNL A   1      36.545  30.444  28.289  1.00  0.00     0.060 A 
ATOM     26  C   UNL A   1      36.510  29.730  29.503  1.00  0.00     0.016 A 
ATOM     27  C   UNL A   1      37.632  30.368  27.461  1.00  0.00     0.016 A 
ATOM     28  C   UNL A   1      37.566  28.874  29.819  1.00  0.00     0.010 A 
ATOM     29  C   UNL A   1      38.420  29.272  27.578  1.00  0.00     0.010 A 
ATOM     30  C   UNL A   1      38.512  28.652  28.824  1.00  0.00    -0.014 A 
BRANCH  30  31
ATOM     31  C   UNL A   1      39.843  28.093  28.963  1.00  0.00     0.031 A 
ATOM     32  C   UNL A   1      40.142  26.723  28.563  1.00  0.00     0.074 A 
ATOM     33  C   UNL A   1      40.768  29.079  29.098  1.00  0.00     0.049 A 
ATOM     34  N   UNL A   1      41.142  26.058  29.014  1.00  0.00    -0.248 NA
ATOM     35  C   UNL A   1      39.346  25.978  27.593  1.00  0.00     0.031 C 
ATOM     36  C   UNL A   1      42.189  29.147  28.829  1.00  0.00     0.029 A 
ATOM     37  N   UNL A   1      40.475  30.390  29.534  1.00  0.00    -0.354 N 
ATOM     38  C   UNL A   1      41.351  25.019  28.133  1.00  0.00     0.074 A 
ATOM     39  C   UNL A   1      40.118  24.901  27.389  1.00  0.00     0.031 C 
ATOM     40  C   UNL A   1      42.682  30.245  29.448  1.00  0.00     0.029 A 
ATOM     41  C   UNL A   1      41.594  30.851  30.212  1.00  0.00     0.049 A 
ATOM     42  H   UNL A   1      39.636  30.882  29.384  1.00  0.00     0.167 HD
ATOM     43  C   UNL A   1      42.625  24.547  27.982  1.00  0.00     0.037 A 
ATOM     44  C   UNL A   1      41.450  30.936  31.566  1.00  0.00     0.037 A 
ATOM     45  C   UNL A   1      43.548  25.393  28.750  1.00  0.00     0.049 A 
ATOM     46  C   UNL A   1      42.278  29.862  32.225  1.00  0.00     0.074 A 
ATOM     47  C   UNL A   1      44.387  26.428  28.367  1.00  0.00     0.029 A 
ATOM     48  N   UNL A   1      43.403  25.502  30.130  1.00  0.00    -0.354 N 
ATOM     49  N   UNL A   1      42.636  28.751  31.640  1.00  0.00    -0.248 NA
ATOM     50  C   UNL A   1      42.829  29.999  33.561  1.00  0.00     0.031 C 
ATOM     51  C   UNL A   1      44.710  27.186  29.526  1.00  0.00     0.029 A 
ATOM     52  C   UNL A   1      44.067  26.616  30.612  1.00  0.00     0.049 A 
ATOM     53  H   UNL A   1      42.895  24.869  30.688  1.00  0.00     0.167 HD
ATOM     54  C   UNL A   1      43.505  28.067  32.441  1.00  0.00     0.074 A 
ATOM     55  C   UNL A   1      43.590  28.893  33.636  1.00  0.00     0.031 C 
ATOM     56  C   UNL A   1      44.088  26.894  32.044  1.00  0.00     0.037 A 
BRANCH  43  57
ATOM     57  C   UNL A   1      43.103  23.563  26.930  1.00  0.00     0.064 A 
ATOM     58  C   UNL A   1      42.773  22.189  27.025  1.00  0.00     0.173 A 
ATOM     59  C   UNL A   1      43.854  23.902  25.788  1.00  0.00     0.173 A 
ATOM     60  F   UNL A   1      41.990  21.721  28.004  1.00  0.00    -0.203 F 
ATOM     61  C   UNL A   1      43.219  21.235  26.106  1.00  0.00     0.198 A 
ATOM     62  C   UNL A   1      44.330  22.940  24.884  1.00  0.00     0.198 A 
ATOM     63  F   UNL A   1      44.108  25.176  25.470  1.00  0.00    -0.203 F 
ATOM     64  F   UNL A   1      42.866  19.951  26.259  1.00  0.00    -0.200 F 
ATOM     65  C   UNL A   1      44.014  21.606  25.045  1.00  0.00     0.200 A 
ATOM     66  F   UNL A   1      45.085  23.321  23.844  1.00  0.00    -0.200 F 
ATOM     67  F   UNL A   1      44.450  20.691  24.169  1.00  0.00    -0.200 F 
ENDBRANCH  43  57
BRANCH  44  68
ATOM     68  C   UNL A   1      40.059  31.371  31.968  1.00  0.00     0.064 A 
ATOM     69  C   UNL A   1      39.196  30.406  32.549  1.00  0.00     0.173 A 
ATOM     70  C   UNL A   1      39.693  32.712  32.141  1.00  0.00     0.173 A 
ATOM     71  F   UNL A   1      39.493  29.099  32.453  1.00  0.00    -0.203 F 
ATOM     72  C   UNL A   1      38.102  30.765  33.341  1.00  0.00     0.198 A 
ATOM     73  C   UNL A   1      38.573  33.069  32.909  1.00  0.00     0.198 A 
ATOM     74  F   UNL A   1      40.461  33.694  31.647  1.00  0.00    -0.203 F 
ATOM     75  F   UNL A   1      37.401  29.817  33.981  1.00  0.00    -0.200 F 
ATOM     76  C   UNL A   1      37.795  32.098  33.526  1.00  0.00     0.200 A 
ATOM     77  F   UNL A   1      38.291  34.364  33.119  1.00  0.00    -0.200 F 
ATOM     78  F   UNL A   1      36.777  32.452  34.323  1.00  0.00    -0.200 F 
ENDBRANCH  44  68
BRANCH  56  79
ATOM     79  C   UNL A   1      44.812  25.905  32.933  1.00  0.00     0.064 A 
ATOM     80  C   UNL A   1      46.189  25.649  32.873  1.00  0.00     0.173 A 
ATOM     81  C   UNL A   1      44.134  25.283  34.017  1.00  0.00     0.173 A 
ATOM     82  F   UNL A   1      46.988  26.275  32.002  1.00  0.00    -0.203 F 
ATOM     83  C   UNL A   1      46.821  24.783  33.768  1.00  0.00     0.198 A 
ATOM     84  C   UNL A   1      44.787  24.503  34.964  1.00  0.00     0.198 A 
ATOM     85  F   UNL A   1      42.817  25.435  34.219  1.00  0.00    -0.203 F 
ATOM     86  F   UNL A   1      48.126  24.520  33.616  1.00  0.00    -0.200 F 
ATOM     87  C   UNL A   1      46.127  24.229  34.825  1.00  0.00     0.200 A 
ATOM     88  F   UNL A   1      44.108  24.037  36.023  1.00  0.00    -0.200 F 
ATOM     89  F   UNL A   1      46.755  23.454  35.717  1.00  0.00    -0.200 F 
ENDBRANCH  56  79
ENDBRANCH  30  31
ENDBRANCH  23  25
ENDBRANCH  22  23
ENDBRANCH  21  22
ENDBRANCH   1  21
TORSDOF 13
ENDMDL
MODEL 3
REMARK VINA RESULT:     -12.5      2.993      9.184
REMARK SMILES Cc1ccc(/C=C2/SC(=O)N(CC(=O)OCCOC(=O)c3ccc(-c4c5nc(c(-c6c(F)c(F)c(F)c(F)c6F)c6ccc([nH]6)c(-c6c(F)c(F)c(F)c(F)c6F)c6nc(c(-c7c(F)c(F)c(F)c(F)c7F)c7ccc4[nH]7)C=C6)C=C5)cc3)C2=O)cc1
REMARK SMILES IDX 16 1 15 2 13 3 14 4 12 5 11 6 6 7 7 8 8 9 84 10 9 11 85 12
REMARK SMILES IDX 10 13 5 14 1 15 2 16 3 17 87 18 4 19 86 20 17 21 18 22 19 23
REMARK SMILES IDX 20 24 21 25 22 26 83 27 23 28 82 29 24 30 25 31 26 32 76 33
REMARK SMILES IDX 27 34 81 35 75 36 77 37 28 38 80 39 74 40 73 41 29 43 61 44
REMARK SMILES IDX 41 45 60 46 42 47 45 48 59 49 78 50 43 51 44 52 58 54 79 55
REMARK SMILES IDX 46 56 30 57 31 58 39 59 32 60 33 61 37 62 40 63 34 64 35 65
REMARK SMILES IDX 38 66 36 67 62 68 63 69 71 70 64 71 65 72 69 73 72 74 66 75
REMARK SMILES IDX 67 76 70 77 68 78 47 79 48 80 56 81 49 82 50 83 54 84 57 85
REMARK SMILES IDX 51 86 52 87 55 88 53 89
REMARK H PARENT 77 42 45 53
REMARK Flexibility Score: inf
ROOT
ATOM      1  C   UNL A   1      31.911  27.798  26.252  1.00  0.00     0.274 C 
ENDROOT
BRANCH   1   2
ATOM      2  O   UNL A   1      30.835  27.522  25.350  1.00  0.00    -0.461 OA
BRANCH   2   3
ATOM      3  C   UNL A   1      30.211  26.332  25.458  1.00  0.00     0.326 C 
ATOM      4  O   UNL A   1      30.009  25.760  26.520  1.00  0.00    -0.250 OA
BRANCH   3   5
ATOM      5  C   UNL A   1      29.823  25.820  24.070  1.00  0.00     0.252 C 
BRANCH   5   6
ATOM      6  N   UNL A   1      31.063  25.652  23.354  1.00  0.00    -0.257 N 
ATOM      7  C   UNL A   1      33.386  23.170  22.274  1.00  0.00     0.029 C 
ATOM      8  C   UNL A   1      32.794  24.340  22.545  1.00  0.00     0.083 C 
ATOM      9  S   UNL A   1      32.793  25.706  21.481  1.00  0.00    -0.022 SA
ATOM     10  C   UNL A   1      31.923  24.642  23.703  1.00  0.00     0.268 C 
ATOM     11  C   UNL A   1      31.437  26.441  22.317  1.00  0.00     0.294 C 
ATOM     12  O   UNL A   1      31.935  24.083  24.783  1.00  0.00    -0.268 OA
ATOM     13  O   UNL A   1      30.943  27.518  22.003  1.00  0.00    -0.261 OA
BRANCH   7  14
ATOM     14  C   UNL A   1      33.351  21.956  23.103  1.00  0.00    -0.024 A 
ATOM     15  C   UNL A   1      33.152  18.257  25.328  1.00  0.00     0.044 C 
ATOM     16  C   UNL A   1      33.201  19.565  24.597  1.00  0.00    -0.051 A 
ATOM     17  C   UNL A   1      32.261  19.842  23.600  1.00  0.00     0.004 A 
ATOM     18  C   UNL A   1      34.193  20.512  24.867  1.00  0.00     0.004 A 
ATOM     19  C   UNL A   1      32.333  21.027  22.864  1.00  0.00     0.008 A 
ATOM     20  C   UNL A   1      34.267  21.701  24.130  1.00  0.00     0.008 A 
ENDBRANCH   7  14
ENDBRANCH   5   6
ENDBRANCH   3   5
ENDBRANCH   2   3
ENDBRANCH   1   2
BRANCH   1  21
ATOM     21  C   UNL A   1      32.110  29.260  26.738  1.00  0.00     0.275 C 
BRANCH  21  22
ATOM     22  O   UNL A   1      33.380  29.953  27.067  1.00  0.00    -0.458 OA
BRANCH  22  23
ATOM     23  C   UNL A   1      33.879  31.099  27.594  1.00  0.00     0.338 C 
ATOM     24  O   UNL A   1      33.245  32.142  27.643  1.00  0.00    -0.246 OA
BRANCH  23  25
ATOM     25  C   UNL A   1      35.263  31.080  28.041  1.00  0.00     0.060 A 
ATOM     26  C   UNL A   1      36.151  32.172  27.976  1.00  0.00     0.016 A 
ATOM     27  C   UNL A   1      35.659  29.883  28.571  1.00  0.00     0.016 A 
ATOM     28  C   UNL A   1      37.424  32.046  28.536  1.00  0.00     0.010 A 
ATOM     29  C   UNL A   1      36.701  29.907  29.437  1.00  0.00     0.010 A 
ATOM     30  C   UNL A   1      37.671  30.897  29.278  1.00  0.00    -0.014 A 
BRANCH  30  31
ATOM     31  C   UNL A   1      38.952  30.355  29.689  1.00  0.00     0.031 A 
ATOM     32  C   UNL A   1      39.501  29.147  29.084  1.00  0.00     0.074 A 
ATOM     33  C   UNL A   1      39.684  31.294  30.344  1.00  0.00     0.049 A 
ATOM     34  N   UNL A   1      40.387  28.413  29.651  1.00  0.00    -0.248 NA
ATOM     35  C   UNL A   1      39.115  28.664  27.762  1.00  0.00     0.031 C 
ATOM     36  C   UNL A   1      41.105  31.467  30.562  1.00  0.00     0.029 A 
ATOM     37  N   UNL A   1      39.136  32.435  30.969  1.00  0.00    -0.354 N 
ATOM     38  C   UNL A   1      40.958  27.649  28.657  1.00  0.00     0.074 A 
ATOM     39  C   UNL A   1      40.023  27.700  27.557  1.00  0.00     0.031 C 
ATOM     40  C   UNL A   1      41.271  32.376  31.551  1.00  0.00     0.029 A 
ATOM     41  C   UNL A   1      39.947  32.730  32.057  1.00  0.00     0.049 A 
ATOM     42  H   UNL A   1      38.332  32.928  30.688  1.00  0.00     0.167 HD
ATOM     43  C   UNL A   1      42.262  27.267  28.805  1.00  0.00     0.037 A 
ATOM     44  C   UNL A   1      39.399  32.451  33.274  1.00  0.00     0.037 A 
ATOM     45  C   UNL A   1      42.819  27.904  30.006  1.00  0.00     0.049 A 
ATOM     46  C   UNL A   1      40.103  31.263  33.879  1.00  0.00     0.074 A 
ATOM     47  C   UNL A   1      43.618  29.025  30.170  1.00  0.00     0.029 A 
ATOM     48  N   UNL A   1      42.260  27.641  31.252  1.00  0.00    -0.354 N 
ATOM     49  N   UNL A   1      40.735  30.355  33.185  1.00  0.00    -0.248 NA
ATOM     50  C   UNL A   1      40.213  31.056  35.311  1.00  0.00     0.031 C 
ATOM     51  C   UNL A   1      43.499  29.458  31.519  1.00  0.00     0.029 A 
ATOM     52  C   UNL A   1      42.627  28.605  32.174  1.00  0.00     0.049 A 
ATOM     53  H   UNL A   1      41.679  26.871  31.452  1.00  0.00     0.167 HD
ATOM     54  C   UNL A   1      41.395  29.507  34.028  1.00  0.00     0.074 A 
ATOM     55  C   UNL A   1      41.031  29.990  35.351  1.00  0.00     0.031 C 
ATOM     56  C   UNL A   1      42.192  28.496  33.563  1.00  0.00     0.037 A 
BRANCH  43  57
ATOM     57  C   UNL A   1      43.134  26.608  27.752  1.00  0.00     0.064 A 
ATOM     58  C   UNL A   1      43.758  27.384  26.745  1.00  0.00     0.173 A 
ATOM     59  C   UNL A   1      43.429  25.233  27.691  1.00  0.00     0.173 A 
ATOM     60  F   UNL A   1      43.649  28.718  26.716  1.00  0.00    -0.203 F 
ATOM     61  C   UNL A   1      44.540  26.824  25.729  1.00  0.00     0.198 A 
ATOM     62  C   UNL A   1      44.185  24.667  26.653  1.00  0.00     0.198 A 
ATOM     63  F   UNL A   1      43.050  24.392  28.661  1.00  0.00    -0.203 F 
ATOM     64  F   UNL A   1      45.100  27.621  24.808  1.00  0.00    -0.200 F 
ATOM     65  C   UNL A   1      44.737  25.463  25.671  1.00  0.00     0.200 A 
ATOM     66  F   UNL A   1      44.387  23.342  26.624  1.00  0.00    -0.200 F 
ATOM     67  F   UNL A   1      45.478  24.925  24.693  1.00  0.00    -0.200 F 
ENDBRANCH  43  57
BRANCH  44  68
ATOM     68  C   UNL A   1      37.912  32.728  33.310  1.00  0.00     0.064 A 
ATOM     69  C   UNL A   1      37.485  34.070  33.477  1.00  0.00     0.173 A 
ATOM     70  C   UNL A   1      36.951  31.827  32.835  1.00  0.00     0.173 A 
ATOM     71  F   UNL A   1      38.355  35.003  33.901  1.00  0.00    -0.203 F 
ATOM     72  C   UNL A   1      36.212  34.501  33.093  1.00  0.00     0.198 A 
ATOM     73  C   UNL A   1      35.661  32.256  32.481  1.00  0.00     0.198 A 
ATOM     74  F   UNL A   1      37.272  30.543  32.623  1.00  0.00    -0.203 F 
ATOM     75  F   UNL A   1      35.905  35.806  33.141  1.00  0.00    -0.200 F 
ATOM     76  C   UNL A   1      35.303  33.593  32.587  1.00  0.00     0.200 A 
ATOM     77  F   UNL A   1      34.787  31.383  31.959  1.00  0.00    -0.200 F 
ATOM     78  F   UNL A   1      34.098  34.006  32.170  1.00  0.00    -0.200 F 
ENDBRANCH  44  68
BRANCH  56  79
ATOM     79  C   UNL A   1      42.720  27.327  34.366  1.00  0.00     0.064 A 
ATOM     80  C   UNL A   1      41.919  26.300  34.888  1.00  0.00     0.173 A 
ATOM     81  C   UNL A   1      44.120  27.120  34.499  1.00  0.00     0.173 A 
ATOM     82  F   UNL A   1      40.594  26.278  34.712  1.00  0.00    -0.203 F 
ATOM     83  C   UNL A   1      42.465  25.203  35.557  1.00  0.00     0.198 A 
ATOM     84  C   UNL A   1      44.661  25.977  35.077  1.00  0.00     0.198 A 
ATOM     85  F   UNL A   1      45.021  28.004  34.045  1.00  0.00    -0.203 F 
ATOM     86  F   UNL A   1      41.646  24.291  36.099  1.00  0.00    -0.200 F 
ATOM     87  C   UNL A   1      43.833  25.030  35.631  1.00  0.00     0.200 A 
ATOM     88  F   UNL A   1      45.989  25.795  35.071  1.00  0.00    -0.200 F 
ATOM     89  F   UNL A   1      44.348  23.941  36.215  1.00  0.00    -0.200 F 
ENDBRANCH  56  79
ENDBRANCH  30  31
ENDBRANCH  23  25
ENDBRANCH  22  23
ENDBRANCH  21  22
ENDBRANCH   1  21
TORSDOF 13
ENDMDL
