MODEL 1
REMARK VINA RESULT:     -13.0      0.000      0.000
REMARK SMILES Cc1cc2c(c(C)c1Cl)C=C(C(=O)OCCOC(=O)c1ccc(-c3c4nc(c(-c5c(F)c(F)c(F)c(F)c5F)c5ccc([nH]5)c(-c5c(F)c(F)c(F)c(F)c5F)c5nc(c(-c6c(F)c(F)c(F)c(F)c6F)c6ccc3[nH]6)C=C5)C=C4)cc1)[C@@H](C(F)(F)F)O2
REMARK SMILES IDX 16 1 15 2 14 3 12 4 13 5 11 6 1 7 2 8 3 9 8 10 4 11 6 12
REMARK SMILES IDX 9 13 5 14 88 15 7 16 10 17 83 18 84 19 85 20 86 21 87 22
REMARK SMILES IDX 17 23 18 24 19 25 20 26 21 27 82 28 22 29 81 30 23 31 24 32
REMARK SMILES IDX 25 33 75 34 26 35 80 36 74 37 76 38 27 39 79 40 73 41 72 42
REMARK SMILES IDX 28 44 60 45 40 46 59 47 41 48 44 49 58 50 77 51 42 52 43 53
REMARK SMILES IDX 57 55 78 56 45 57 29 58 30 59 38 60 31 61 32 62 36 63 39 64
REMARK SMILES IDX 33 65 34 66 37 67 35 68 61 69 62 70 70 71 63 72 64 73 68 74
REMARK SMILES IDX 71 75 65 76 66 77 69 78 67 79 46 80 47 81 55 82 48 83 49 84
REMARK SMILES IDX 53 85 56 86 50 87 51 88 54 89 52 90
REMARK H PARENT 76 43 44 54
REMARK Flexibility Score: inf
ROOT
ATOM      1  C   UNL A   1      31.828  29.935  25.404  1.00  0.00     0.275 C 
ENDROOT
BRANCH   1   2
ATOM      2  C   UNL A   1      31.391  28.502  25.105  1.00  0.00     0.275 C 
BRANCH   2   3
ATOM      3  O   UNL A   1      32.416  27.553  25.475  1.00  0.00    -0.459 OA
BRANCH   3   4
ATOM      4  C   UNL A   1      33.049  26.949  24.444  1.00  0.00     0.338 C 
ATOM      5  O   UNL A   1      33.553  27.496  23.475  1.00  0.00    -0.246 OA
BRANCH   4   6
ATOM      6  C   UNL A   1      33.088  25.487  24.644  1.00  0.00     0.087 C 
ATOM      7  C   UNL A   1      34.394  19.131  24.719  1.00  0.00     0.046 C 
ATOM      8  C   UNL A   1      34.428  20.635  24.759  1.00  0.00    -0.028 A 
ATOM      9  C   UNL A   1      33.215  21.334  24.764  1.00  0.00     0.052 A 
ATOM     10  C   UNL A   1      35.634  21.359  24.833  1.00  0.00     0.047 A 
ATOM     11  C   UNL A   1      33.189  22.726  24.781  1.00  0.00     0.128 A 
ATOM     12  C   UNL A   1      35.631  22.772  24.840  1.00  0.00    -0.021 A 
ATOM     13  Cl  UNL A   1      37.130  20.477  24.923  1.00  0.00    -0.084 Cl
ATOM     14  C   UNL A   1      34.385  23.451  24.798  1.00  0.00     0.022 A 
ATOM     15  O   UNL A   1      31.943  23.289  24.801  1.00  0.00    -0.475 OA
ATOM     16  C   UNL A   1      36.918  23.563  24.910  1.00  0.00     0.047 C 
ATOM     17  C   UNL A   1      34.289  24.907  24.745  1.00  0.00     0.027 C 
ATOM     18  C   UNL A   1      31.804  24.718  24.585  1.00  0.00     0.316 C 
BRANCH  18  19
ATOM     19  C   UNL A   1      31.069  24.950  23.255  1.00  0.00     0.430 C 
ATOM     20  F   UNL A   1      30.198  23.949  22.991  1.00  0.00    -0.167 F 
ATOM     21  F   UNL A   1      30.346  26.096  23.280  1.00  0.00    -0.167 F 
ATOM     22  F   UNL A   1      31.923  25.035  22.210  1.00  0.00    -0.167 F 
ENDBRANCH  18  19
ENDBRANCH   4   6
ENDBRANCH   3   4
ENDBRANCH   2   3
ENDBRANCH   1   2
BRANCH   1  23
ATOM     23  O   UNL A   1      32.352  30.025  26.741  1.00  0.00    -0.458 OA
BRANCH  23  24
ATOM     24  C   UNL A   1      32.940  31.200  27.061  1.00  0.00     0.338 C 
ATOM     25  O   UNL A   1      32.439  32.310  27.054  1.00  0.00    -0.246 OA
BRANCH  24  26
ATOM     26  C   UNL A   1      34.324  30.967  27.505  1.00  0.00     0.060 A 
ATOM     27  C   UNL A   1      34.752  29.662  27.716  1.00  0.00     0.016 A 
ATOM     28  C   UNL A   1      35.134  32.033  27.889  1.00  0.00     0.016 A 
ATOM     29  C   UNL A   1      35.911  29.418  28.446  1.00  0.00     0.010 A 
ATOM     30  C   UNL A   1      36.370  31.779  28.502  1.00  0.00     0.010 A 
ATOM     31  C   UNL A   1      36.752  30.468  28.842  1.00  0.00    -0.014 A 
BRANCH  31  32
ATOM     32  C   UNL A   1      37.989  30.194  29.640  1.00  0.00     0.031 A 
ATOM     33  C   UNL A   1      39.121  29.391  29.043  1.00  0.00     0.074 A 
ATOM     34  C   UNL A   1      38.135  30.693  30.886  1.00  0.00     0.049 A 
ATOM     35  N   UNL A   1      40.168  28.867  29.634  1.00  0.00    -0.248 NA
ATOM     36  C   UNL A   1      39.068  29.134  27.595  1.00  0.00     0.031 C 
ATOM     37  C   UNL A   1      37.168  31.545  31.580  1.00  0.00     0.029 A 
ATOM     38  N   UNL A   1      39.167  30.575  31.788  1.00  0.00    -0.354 N 
ATOM     39  C   UNL A   1      40.852  28.163  28.649  1.00  0.00     0.074 A 
ATOM     40  C   UNL A   1      40.109  28.330  27.419  1.00  0.00     0.031 C 
ATOM     41  C   UNL A   1      37.680  31.934  32.755  1.00  0.00     0.029 A 
ATOM     42  C   UNL A   1      38.952  31.255  32.964  1.00  0.00     0.049 A 
ATOM     43  H   UNL A   1      39.983  30.055  31.607  1.00  0.00     0.167 HD
ATOM     44  C   UNL A   1      41.993  27.443  28.766  1.00  0.00     0.037 A 
ATOM     45  C   UNL A   1      39.662  31.289  34.108  1.00  0.00     0.037 A 
ATOM     46  C   UNL A   1      42.771  27.342  29.974  1.00  0.00     0.049 A 
ATOM     47  C   UNL A   1      40.900  30.448  34.227  1.00  0.00     0.074 A 
ATOM     48  C   UNL A   1      43.935  26.624  30.194  1.00  0.00     0.029 A 
ATOM     49  N   UNL A   1      42.483  28.004  31.158  1.00  0.00    -0.354 N 
ATOM     50  N   UNL A   1      41.471  29.689  33.326  1.00  0.00    -0.248 NA
ATOM     51  C   UNL A   1      41.573  30.441  35.534  1.00  0.00     0.031 C 
ATOM     52  C   UNL A   1      44.333  26.826  31.518  1.00  0.00     0.029 A 
ATOM     53  C   UNL A   1      43.444  27.708  32.111  1.00  0.00     0.049 A 
ATOM     54  H   UNL A   1      41.710  28.597  31.300  1.00  0.00     0.167 HD
ATOM     55  C   UNL A   1      42.573  29.122  33.950  1.00  0.00     0.074 A 
ATOM     56  C   UNL A   1      42.604  29.641  35.300  1.00  0.00     0.031 C 
ATOM     57  C   UNL A   1      43.471  28.240  33.448  1.00  0.00     0.037 A 
BRANCH  44  58
ATOM     58  C   UNL A   1      42.475  26.675  27.567  1.00  0.00     0.064 A 
ATOM     59  C   UNL A   1      43.468  27.175  26.714  1.00  0.00     0.173 A 
ATOM     60  C   UNL A   1      41.995  25.377  27.326  1.00  0.00     0.173 A 
ATOM     61  F   UNL A   1      43.950  28.413  26.892  1.00  0.00    -0.203 F 
ATOM     62  C   UNL A   1      43.958  26.407  25.659  1.00  0.00     0.198 A 
ATOM     63  C   UNL A   1      42.507  24.602  26.289  1.00  0.00     0.198 A 
ATOM     64  F   UNL A   1      41.050  24.848  28.117  1.00  0.00    -0.203 F 
ATOM     65  F   UNL A   1      44.889  26.914  24.839  1.00  0.00    -0.200 F 
ATOM     66  C   UNL A   1      43.487  25.118  25.455  1.00  0.00     0.200 A 
ATOM     67  F   UNL A   1      42.061  23.351  26.105  1.00  0.00    -0.200 F 
ATOM     68  F   UNL A   1      43.977  24.374  24.454  1.00  0.00    -0.200 F 
ENDBRANCH  44  58
BRANCH  45  69
ATOM     69  C   UNL A   1      39.180  32.111  35.252  1.00  0.00     0.064 A 
ATOM     70  C   UNL A   1      38.409  31.542  36.274  1.00  0.00     0.173 A 
ATOM     71  C   UNL A   1      39.500  33.473  35.360  1.00  0.00     0.173 A 
ATOM     72  F   UNL A   1      38.049  30.251  36.201  1.00  0.00    -0.203 F 
ATOM     73  C   UNL A   1      37.980  32.301  37.362  1.00  0.00     0.198 A 
ATOM     74  C   UNL A   1      39.102  34.223  36.465  1.00  0.00     0.198 A 
ATOM     75  F   UNL A   1      40.230  34.070  34.407  1.00  0.00    -0.203 F 
ATOM     76  F   UNL A   1      37.214  31.740  38.307  1.00  0.00    -0.200 F 
ATOM     77  C   UNL A   1      38.338  33.637  37.463  1.00  0.00     0.200 A 
ATOM     78  F   UNL A   1      39.468  35.507  36.567  1.00  0.00    -0.200 F 
ATOM     79  F   UNL A   1      37.944  34.361  38.519  1.00  0.00    -0.200 F 
ENDBRANCH  45  69
BRANCH  57  80
ATOM     80  C   UNL A   1      44.586  27.802  34.350  1.00  0.00     0.064 A 
ATOM     81  C   UNL A   1      45.777  28.533  34.452  1.00  0.00     0.173 A 
ATOM     82  C   UNL A   1      44.435  26.668  35.163  1.00  0.00     0.173 A 
ATOM     83  F   UNL A   1      45.972  29.616  33.685  1.00  0.00    -0.203 F 
ATOM     84  C   UNL A   1      46.788  28.134  35.323  1.00  0.00     0.198 A 
ATOM     85  C   UNL A   1      45.436  26.287  36.051  1.00  0.00     0.198 A 
ATOM     86  F   UNL A   1      43.310  25.939  35.106  1.00  0.00    -0.203 F 
ATOM     87  F   UNL A   1      47.934  28.826  35.377  1.00  0.00    -0.200 F 
ATOM     88  C   UNL A   1      46.613  27.018  36.126  1.00  0.00     0.200 A 
ATOM     89  F   UNL A   1      45.262  25.216  36.838  1.00  0.00    -0.200 F 
ATOM     90  F   UNL A   1      47.583  26.641  36.972  1.00  0.00    -0.200 F 
ENDBRANCH  57  80
ENDBRANCH  31  32
ENDBRANCH  24  26
ENDBRANCH  23  24
ENDBRANCH   1  23
TORSDOF 12
ENDMDL
MODEL 2
REMARK VINA RESULT:     -12.9      0.262      1.669
REMARK SMILES Cc1cc2c(c(C)c1Cl)C=C(C(=O)OCCOC(=O)c1ccc(-c3c4nc(c(-c5c(F)c(F)c(F)c(F)c5F)c5ccc([nH]5)c(-c5c(F)c(F)c(F)c(F)c5F)c5nc(c(-c6c(F)c(F)c(F)c(F)c6F)c6ccc3[nH]6)C=C5)C=C4)cc1)[C@@H](C(F)(F)F)O2
REMARK SMILES IDX 16 1 15 2 14 3 12 4 13 5 11 6 1 7 2 8 3 9 8 10 4 11 6 12
REMARK SMILES IDX 9 13 5 14 88 15 7 16 10 17 83 18 84 19 85 20 86 21 87 22
REMARK SMILES IDX 17 23 18 24 19 25 20 26 21 27 82 28 22 29 81 30 23 31 24 32
REMARK SMILES IDX 25 33 75 34 26 35 80 36 74 37 76 38 27 39 79 40 73 41 72 42
REMARK SMILES IDX 28 44 60 45 40 46 59 47 41 48 44 49 58 50 77 51 42 52 43 53
REMARK SMILES IDX 57 55 78 56 45 57 29 58 30 59 38 60 31 61 32 62 36 63 39 64
REMARK SMILES IDX 33 65 34 66 37 67 35 68 61 69 62 70 70 71 63 72 64 73 68 74
REMARK SMILES IDX 71 75 65 76 66 77 69 78 67 79 46 80 47 81 55 82 48 83 49 84
REMARK SMILES IDX 53 85 56 86 50 87 51 88 54 89 52 90
REMARK H PARENT 76 43 44 54
REMARK Flexibility Score: inf
ROOT
ATOM      1  C   UNL A   1      31.907  30.070  25.387  1.00  0.00     0.275 C 
ENDROOT
BRANCH   1   2
ATOM      2  C   UNL A   1      31.402  28.678  25.005  1.00  0.00     0.275 C 
BRANCH   2   3
ATOM      3  O   UNL A   1      32.315  27.650  25.447  1.00  0.00    -0.459 OA
BRANCH   3   4
ATOM      4  C   UNL A   1      33.052  27.068  24.474  1.00  0.00     0.338 C 
ATOM      5  O   UNL A   1      33.656  27.637  23.577  1.00  0.00    -0.246 OA
BRANCH   4   6
ATOM      6  C   UNL A   1      33.066  25.602  24.640  1.00  0.00     0.087 C 
ATOM      7  C   UNL A   1      34.304  19.231  24.626  1.00  0.00     0.046 C 
ATOM      8  C   UNL A   1      34.351  20.733  24.704  1.00  0.00    -0.028 A 
ATOM      9  C   UNL A   1      33.146  21.446  24.667  1.00  0.00     0.052 A 
ATOM     10  C   UNL A   1      35.559  21.442  24.853  1.00  0.00     0.047 A 
ATOM     11  C   UNL A   1      33.133  22.838  24.716  1.00  0.00     0.128 A 
ATOM     12  C   UNL A   1      35.570  22.855  24.894  1.00  0.00    -0.021 A 
ATOM     13  Cl  UNL A   1      37.040  20.542  24.993  1.00  0.00    -0.084 Cl
ATOM     14  C   UNL A   1      34.334  23.549  24.808  1.00  0.00     0.022 A 
ATOM     15  O   UNL A   1      31.893  23.413  24.689  1.00  0.00    -0.475 OA
ATOM     16  C   UNL A   1      36.860  23.630  25.044  1.00  0.00     0.047 C 
ATOM     17  C   UNL A   1      34.255  25.006  24.785  1.00  0.00     0.027 C 
ATOM     18  C   UNL A   1      31.779  24.849  24.501  1.00  0.00     0.316 C 
BRANCH  18  19
ATOM     19  C   UNL A   1      31.112  25.120  23.143  1.00  0.00     0.430 C 
ATOM     20  F   UNL A   1      30.346  26.236  23.183  1.00  0.00    -0.167 F 
ATOM     21  F   UNL A   1      32.031  25.316  22.167  1.00  0.00    -0.167 F 
ATOM     22  F   UNL A   1      30.320  24.096  22.752  1.00  0.00    -0.167 F 
ENDBRANCH  18  19
ENDBRANCH   4   6
ENDBRANCH   3   4
ENDBRANCH   2   3
ENDBRANCH   1   2
BRANCH   1  23
ATOM     23  O   UNL A   1      32.376  30.071  26.747  1.00  0.00    -0.458 OA
BRANCH  23  24
ATOM     24  C   UNL A   1      32.964  31.216  27.161  1.00  0.00     0.338 C 
ATOM     25  O   UNL A   1      32.466  32.325  27.235  1.00  0.00    -0.246 OA
BRANCH  24  26
ATOM     26  C   UNL A   1      34.343  30.945  27.600  1.00  0.00     0.060 A 
ATOM     27  C   UNL A   1      34.743  29.628  27.789  1.00  0.00     0.016 A 
ATOM     28  C   UNL A   1      35.177  31.987  28.000  1.00  0.00     0.016 A 
ATOM     29  C   UNL A   1      35.896  29.347  28.514  1.00  0.00     0.010 A 
ATOM     30  C   UNL A   1      36.407  31.696  28.607  1.00  0.00     0.010 A 
ATOM     31  C   UNL A   1      36.761  30.372  28.926  1.00  0.00    -0.014 A 
BRANCH  31  32
ATOM     32  C   UNL A   1      37.992  30.058  29.718  1.00  0.00     0.031 A 
ATOM     33  C   UNL A   1      39.099  29.227  29.112  1.00  0.00     0.074 A 
ATOM     34  C   UNL A   1      38.156  30.545  30.966  1.00  0.00     0.049 A 
ATOM     35  N   UNL A   1      40.132  28.669  29.697  1.00  0.00    -0.248 NA
ATOM     36  C   UNL A   1      39.033  28.980  27.663  1.00  0.00     0.031 C 
ATOM     37  C   UNL A   1      37.216  31.420  31.669  1.00  0.00     0.029 A 
ATOM     38  N   UNL A   1      39.187  30.393  31.864  1.00  0.00    -0.354 N 
ATOM     39  C   UNL A   1      40.792  27.952  28.705  1.00  0.00     0.074 A 
ATOM     40  C   UNL A   1      40.050  28.148  27.479  1.00  0.00     0.031 C 
ATOM     41  C   UNL A   1      37.743  31.787  32.844  1.00  0.00     0.029 A 
ATOM     42  C   UNL A   1      38.995  31.071  33.045  1.00  0.00     0.049 A 
ATOM     43  H   UNL A   1      39.987  29.850  31.678  1.00  0.00     0.167 HD
ATOM     44  C   UNL A   1      41.913  27.200  28.814  1.00  0.00     0.037 A 
ATOM     45  C   UNL A   1      39.709  31.078  34.187  1.00  0.00     0.037 A 
ATOM     46  C   UNL A   1      42.692  27.069  30.018  1.00  0.00     0.049 A 
ATOM     47  C   UNL A   1      40.924  30.201  34.297  1.00  0.00     0.074 A 
ATOM     48  C   UNL A   1      43.836  26.317  30.230  1.00  0.00     0.029 A 
ATOM     49  N   UNL A   1      42.427  27.732  31.207  1.00  0.00    -0.354 N 
ATOM     50  N   UNL A   1      41.470  29.431  33.389  1.00  0.00    -0.248 NA
ATOM     51  C   UNL A   1      41.601  30.167  35.601  1.00  0.00     0.031 C 
ATOM     52  C   UNL A   1      44.244  26.500  31.554  1.00  0.00     0.029 A 
ATOM     53  C   UNL A   1      43.382  27.403  32.155  1.00  0.00     0.049 A 
ATOM     54  H   UNL A   1      41.671  28.346  31.355  1.00  0.00     0.167 HD
ATOM     55  C   UNL A   1      42.557  28.829  34.005  1.00  0.00     0.074 A 
ATOM     56  C   UNL A   1      42.608  29.339  35.359  1.00  0.00     0.031 C 
ATOM     57  C   UNL A   1      43.429  27.925  33.495  1.00  0.00     0.037 A 
BRANCH  44  58
ATOM     58  C   UNL A   1      42.369  26.425  27.608  1.00  0.00     0.064 A 
ATOM     59  C   UNL A   1      43.377  26.900  26.757  1.00  0.00     0.173 A 
ATOM     60  C   UNL A   1      41.848  25.145  27.359  1.00  0.00     0.173 A 
ATOM     61  F   UNL A   1      43.898  28.121  26.944  1.00  0.00    -0.203 F 
ATOM     62  C   UNL A   1      43.840  26.125  25.696  1.00  0.00     0.198 A 
ATOM     63  C   UNL A   1      42.333  24.362  26.315  1.00  0.00     0.198 A 
ATOM     64  F   UNL A   1      40.887  24.640  28.147  1.00  0.00    -0.203 F 
ATOM     65  F   UNL A   1      44.787  26.608  24.879  1.00  0.00    -0.200 F 
ATOM     66  C   UNL A   1      43.328  24.852  25.483  1.00  0.00     0.200 A 
ATOM     67  F   UNL A   1      41.848  23.127  26.122  1.00  0.00    -0.200 F 
ATOM     68  F   UNL A   1      43.793  24.100  24.477  1.00  0.00    -0.200 F 
ENDBRANCH  44  58
BRANCH  45  69
ATOM     69  C   UNL A   1      39.255  31.906  35.337  1.00  0.00     0.064 A 
ATOM     70  C   UNL A   1      39.600  33.261  35.430  1.00  0.00     0.173 A 
ATOM     71  C   UNL A   1      38.448  31.370  36.352  1.00  0.00     0.173 A 
ATOM     72  F   UNL A   1      40.396  33.814  34.502  1.00  0.00    -0.203 F 
ATOM     73  C   UNL A   1      39.153  34.048  36.490  1.00  0.00     0.198 A 
ATOM     74  C   UNL A   1      37.971  32.166  37.392  1.00  0.00     0.198 A 
ATOM     75  F   UNL A   1      38.093  30.077  36.316  1.00  0.00    -0.203 F 
ATOM     76  F   UNL A   1      39.527  35.332  36.572  1.00  0.00    -0.200 F 
ATOM     77  C   UNL A   1      38.328  33.503  37.462  1.00  0.00     0.200 A 
ATOM     78  F   UNL A   1      37.159  31.638  38.317  1.00  0.00    -0.200 F 
ATOM     79  F   UNL A   1      37.880  34.264  38.469  1.00  0.00    -0.200 F 
ENDBRANCH  45  69
BRANCH  57  80
ATOM     80  C   UNL A   1      44.533  27.450  34.391  1.00  0.00     0.064 A 
ATOM     81  C   UNL A   1      44.393  26.304  35.184  1.00  0.00     0.173 A 
ATOM     82  C   UNL A   1      45.766  28.120  34.411  1.00  0.00     0.173 A 
ATOM     83  F   UNL A   1      43.228  25.638  35.208  1.00  0.00    -0.203 F 
ATOM     84  C   UNL A   1      45.442  25.854  35.981  1.00  0.00     0.198 A 
ATOM     85  C   UNL A   1      46.821  27.653  35.189  1.00  0.00     0.198 A 
ATOM     86  F   UNL A   1      45.952  29.219  33.663  1.00  0.00    -0.203 F 
ATOM     87  F   UNL A   1      45.273  24.777  36.761  1.00  0.00    -0.200 F 
ATOM     88  C   UNL A   1      46.656  26.523  35.977  1.00  0.00     0.200 A 
ATOM     89  F   UNL A   1      47.999  28.292  35.173  1.00  0.00    -0.200 F 
ATOM     90  F   UNL A   1      47.668  26.082  36.736  1.00  0.00    -0.200 F 
ENDBRANCH  57  80
ENDBRANCH  31  32
ENDBRANCH  24  26
ENDBRANCH  23  24
ENDBRANCH   1  23
TORSDOF 12
ENDMDL
MODEL 3
REMARK VINA RESULT:     -12.9      4.145      9.600
REMARK SMILES Cc1cc2c(c(C)c1Cl)C=C(C(=O)OCCOC(=O)c1ccc(-c3c4nc(c(-c5c(F)c(F)c(F)c(F)c5F)c5ccc([nH]5)c(-c5c(F)c(F)c(F)c(F)c5F)c5nc(c(-c6c(F)c(F)c(F)c(F)c6F)c6ccc3[nH]6)C=C5)C=C4)cc1)[C@@H](C(F)(F)F)O2
REMARK SMILES IDX 16 1 15 2 14 3 12 4 13 5 11 6 1 7 2 8 3 9 8 10 4 11 6 12
REMARK SMILES IDX 9 13 5 14 88 15 7 16 10 17 83 18 84 19 85 20 86 21 87 22
REMARK SMILES IDX 17 23 18 24 19 25 20 26 21 27 82 28 22 29 81 30 23 31 24 32
REMARK SMILES IDX 25 33 75 34 26 35 80 36 74 37 76 38 27 39 79 40 73 41 72 42
REMARK SMILES IDX 28 44 60 45 40 46 59 47 41 48 44 49 58 50 77 51 42 52 43 53
REMARK SMILES IDX 57 55 78 56 45 57 29 58 30 59 38 60 31 61 32 62 36 63 39 64
REMARK SMILES IDX 33 65 34 66 37 67 35 68 61 69 62 70 70 71 63 72 64 73 68 74
REMARK SMILES IDX 71 75 65 76 66 77 69 78 67 79 46 80 47 81 55 82 48 83 49 84
REMARK SMILES IDX 53 85 56 86 50 87 51 88 54 89 52 90
REMARK H PARENT 76 43 44 54
REMARK Flexibility Score: inf
ROOT
ATOM      1  C   UNL A   1      36.172  20.948  25.376  1.00  0.00     0.275 C 
ENDROOT
BRANCH   1   2
ATOM      2  C   UNL A   1      34.976  21.603  24.685  1.00  0.00     0.275 C 
BRANCH   2   3
ATOM      3  O   UNL A   1      35.004  23.039  24.836  1.00  0.00    -0.459 OA
BRANCH   3   4
ATOM      4  C   UNL A   1      34.113  23.549  25.716  1.00  0.00     0.338 C 
ATOM      5  O   UNL A   1      33.912  23.166  26.859  1.00  0.00    -0.246 OA
BRANCH   4   6
ATOM      6  C   UNL A   1      33.393  24.692  25.121  1.00  0.00     0.087 C 
ATOM      7  C   UNL A   1      30.010  30.078  23.832  1.00  0.00     0.046 C 
ATOM      8  C   UNL A   1      30.954  29.031  24.358  1.00  0.00    -0.028 A 
ATOM      9  C   UNL A   1      31.020  27.796  23.700  1.00  0.00     0.052 A 
ATOM     10  C   UNL A   1      31.800  29.265  25.458  1.00  0.00     0.047 A 
ATOM     11  C   UNL A   1      31.863  26.785  24.156  1.00  0.00     0.128 A 
ATOM     12  C   UNL A   1      32.656  28.250  25.944  1.00  0.00    -0.021 A 
ATOM     13  Cl  UNL A   1      31.778  30.835  26.206  1.00  0.00    -0.084 Cl
ATOM     14  C   UNL A   1      32.665  26.993  25.283  1.00  0.00     0.022 A 
ATOM     15  O   UNL A   1      31.849  25.634  23.419  1.00  0.00    -0.475 OA
ATOM     16  C   UNL A   1      33.563  28.484  27.131  1.00  0.00     0.047 C 
ATOM     17  C   UNL A   1      33.473  25.871  25.749  1.00  0.00     0.027 C 
ATOM     18  C   UNL A   1      32.507  24.448  23.938  1.00  0.00     0.316 C 
BRANCH  18  19
ATOM     19  C   UNL A   1      31.443  23.381  24.241  1.00  0.00     0.430 C 
ATOM     20  F   UNL A   1      30.335  23.560  23.485  1.00  0.00    -0.167 F 
ATOM     21  F   UNL A   1      31.899  22.134  23.972  1.00  0.00    -0.167 F 
ATOM     22  F   UNL A   1      31.060  23.400  25.538  1.00  0.00    -0.167 F 
ENDBRANCH  18  19
ENDBRANCH   4   6
ENDBRANCH   3   4
ENDBRANCH   2   3
ENDBRANCH   1   2
BRANCH   1  23
ATOM     23  O   UNL A   1      37.388  21.624  25.008  1.00  0.00    -0.458 OA
BRANCH  23  24
ATOM     24  C   UNL A   1      38.490  21.262  25.702  1.00  0.00     0.338 C 
ATOM     25  O   UNL A   1      39.013  20.163  25.751  1.00  0.00    -0.246 OA
BRANCH  24  26
ATOM     26  C   UNL A   1      39.062  22.434  26.387  1.00  0.00     0.060 A 
ATOM     27  C   UNL A   1      38.531  23.691  26.126  1.00  0.00     0.016 A 
ATOM     28  C   UNL A   1      40.230  22.316  27.137  1.00  0.00     0.016 A 
ATOM     29  C   UNL A   1      39.243  24.834  26.477  1.00  0.00     0.010 A 
ATOM     30  C   UNL A   1      40.871  23.471  27.608  1.00  0.00     0.010 A 
ATOM     31  C   UNL A   1      40.418  24.751  27.237  1.00  0.00    -0.014 A 
BRANCH  31  32
ATOM     32  C   UNL A   1      41.183  25.987  27.595  1.00  0.00     0.031 A 
ATOM     33  C   UNL A   1      40.560  27.041  28.481  1.00  0.00     0.074 A 
ATOM     34  C   UNL A   1      42.453  26.164  27.172  1.00  0.00     0.049 A 
ATOM     35  N   UNL A   1      40.966  28.263  28.727  1.00  0.00    -0.248 NA
ATOM     36  C   UNL A   1      39.313  26.680  29.175  1.00  0.00     0.031 C 
ATOM     37  C   UNL A   1      43.222  25.212  26.369  1.00  0.00     0.029 A 
ATOM     38  N   UNL A   1      43.333  27.201  27.376  1.00  0.00    -0.354 N 
ATOM     39  C   UNL A   1      39.993  28.834  29.539  1.00  0.00     0.074 A 
ATOM     40  C   UNL A   1      38.978  27.826  29.753  1.00  0.00     0.031 C 
ATOM     41  C   UNL A   1      44.473  25.668  26.217  1.00  0.00     0.029 A 
ATOM     42  C   UNL A   1      44.562  27.004  26.791  1.00  0.00     0.049 A 
ATOM     43  H   UNL A   1      43.106  28.007  27.893  1.00  0.00     0.167 HD
ATOM     44  C   UNL A   1      39.953  30.086  30.055  1.00  0.00     0.037 A 
ATOM     45  C   UNL A   1      45.627  27.820  26.674  1.00  0.00     0.037 A 
ATOM     46  C   UNL A   1      41.001  31.062  29.904  1.00  0.00     0.049 A 
ATOM     47  C   UNL A   1      45.542  29.218  27.216  1.00  0.00     0.074 A 
ATOM     48  C   UNL A   1      41.045  32.363  30.378  1.00  0.00     0.029 A 
ATOM     49  N   UNL A   1      42.206  30.835  29.255  1.00  0.00    -0.354 N 
ATOM     50  N   UNL A   1      44.566  29.787  27.878  1.00  0.00    -0.248 NA
ATOM     51  C   UNL A   1      46.692  30.098  26.965  1.00  0.00     0.031 C 
ATOM     52  C   UNL A   1      42.261  32.932  29.988  1.00  0.00     0.029 A 
ATOM     53  C   UNL A   1      42.996  31.971  29.313  1.00  0.00     0.049 A 
ATOM     54  H   UNL A   1      42.461  29.990  28.817  1.00  0.00     0.167 HD
ATOM     55  C   UNL A   1      44.985  31.085  28.131  1.00  0.00     0.074 A 
ATOM     56  C   UNL A   1      46.313  31.214  27.570  1.00  0.00     0.031 C 
ATOM     57  C   UNL A   1      44.320  32.084  28.761  1.00  0.00     0.037 A 
BRANCH  44  58
ATOM     58  C   UNL A   1      38.726  30.502  30.818  1.00  0.00     0.064 A 
ATOM     59  C   UNL A   1      38.665  30.445  32.217  1.00  0.00     0.173 A 
ATOM     60  C   UNL A   1      37.629  31.053  30.135  1.00  0.00     0.173 A 
ATOM     61  F   UNL A   1      39.680  29.916  32.915  1.00  0.00    -0.203 F 
ATOM     62  C   UNL A   1      37.548  30.916  32.904  1.00  0.00     0.198 A 
ATOM     63  C   UNL A   1      36.527  31.549  30.827  1.00  0.00     0.198 A 
ATOM     64  F   UNL A   1      37.639  31.138  28.796  1.00  0.00    -0.203 F 
ATOM     65  F   UNL A   1      37.500  30.828  34.241  1.00  0.00    -0.200 F 
ATOM     66  C   UNL A   1      36.486  31.479  32.211  1.00  0.00     0.200 A 
ATOM     67  F   UNL A   1      35.510  32.107  30.154  1.00  0.00    -0.200 F 
ATOM     68  F   UNL A   1      35.425  31.953  32.876  1.00  0.00    -0.200 F 
ENDBRANCH  44  58
BRANCH  45  69
ATOM     69  C   UNL A   1      46.846  27.346  25.963  1.00  0.00     0.064 A 
ATOM     70  C   UNL A   1      47.010  27.567  24.588  1.00  0.00     0.173 A 
ATOM     71  C   UNL A   1      47.881  26.687  26.643  1.00  0.00     0.173 A 
ATOM     72  F   UNL A   1      46.035  28.165  23.886  1.00  0.00    -0.203 F 
ATOM     73  C   UNL A   1      48.162  27.151  23.924  1.00  0.00     0.198 A 
ATOM     74  C   UNL A   1      49.049  26.304  25.986  1.00  0.00     0.198 A 
ATOM     75  F   UNL A   1      47.774  26.445  27.958  1.00  0.00    -0.203 F 
ATOM     76  F   UNL A   1      48.278  27.344  22.603  1.00  0.00    -0.200 F 
ATOM     77  C   UNL A   1      49.186  26.532  24.626  1.00  0.00     0.200 A 
ATOM     78  F   UNL A   1      50.042  25.725  26.673  1.00  0.00    -0.200 F 
ATOM     79  F   UNL A   1      50.303  26.152  23.991  1.00  0.00    -0.200 F 
ENDBRANCH  45  69
BRANCH  57  80
ATOM     80  C   UNL A   1      45.028  33.397  28.911  1.00  0.00     0.064 A 
ATOM     81  C   UNL A   1      44.876  34.424  27.970  1.00  0.00     0.173 A 
ATOM     82  C   UNL A   1      45.823  33.649  30.039  1.00  0.00     0.173 A 
ATOM     83  F   UNL A   1      44.136  34.226  26.868  1.00  0.00    -0.203 F 
ATOM     84  C   UNL A   1      45.509  35.652  28.143  1.00  0.00     0.198 A 
ATOM     85  C   UNL A   1      46.434  34.885  30.223  1.00  0.00     0.198 A 
ATOM     86  F   UNL A   1      45.994  32.699  30.972  1.00  0.00    -0.203 F 
ATOM     87  F   UNL A   1      45.381  36.607  27.212  1.00  0.00    -0.200 F 
ATOM     88  C   UNL A   1      46.281  35.884  29.272  1.00  0.00     0.200 A 
ATOM     89  F   UNL A   1      47.168  35.113  31.321  1.00  0.00    -0.200 F 
ATOM     90  F   UNL A   1      46.881  37.070  29.442  1.00  0.00    -0.200 F 
ENDBRANCH  57  80
ENDBRANCH  31  32
ENDBRANCH  24  26
ENDBRANCH  23  24
ENDBRANCH   1  23
TORSDOF 12
ENDMDL
