MODEL 1
REMARK VINA RESULT:     -12.3      0.000      0.000
REMARK SMILES C[C@H](NC(=O)c1ccc(NC(N)=O)cc1)C(=O)OCCOC(=O)c1ccc(-c2c3nc(c(-c4c(F)c(F)c(F)c(F)c4F)c4ccc([nH]4)c(-c4c(F)c(F)c(F)c(F)c4F)c4nc(c(-c5c(F)c(F)c(F)c(F)c5F)c5ccc2[nH]5)C=C4)C=C3)cc1
REMARK SMILES IDX 19 1 18 2 16 3 17 4 2 5 1 6 3 7 4 8 5 10 6 11 7 12 15 13
REMARK SMILES IDX 8 14 14 15 9 16 10 17 11 18 12 20 13 21 20 24 21 25 22 26
REMARK SMILES IDX 23 27 24 28 25 29 86 30 26 31 85 32 27 33 28 34 29 35 79 36
REMARK SMILES IDX 30 37 84 38 78 39 80 40 31 41 83 42 77 43 76 44 32 46 64 47
REMARK SMILES IDX 44 48 63 49 45 50 48 51 62 52 81 53 46 54 47 55 61 57 82 58
REMARK SMILES IDX 49 59 33 60 34 61 42 62 35 63 36 64 40 65 43 66 37 67 38 68
REMARK SMILES IDX 41 69 39 70 65 71 66 72 74 73 67 74 68 75 72 76 75 77 69 78
REMARK SMILES IDX 70 79 73 80 71 81 50 82 51 83 59 84 52 85 53 86 57 87 60 88
REMARK SMILES IDX 54 89 55 90 58 91 56 92
REMARK H PARENT 3 9 10 19 12 22 12 23 80 45 48 56
REMARK Flexibility Score: inf
ROOT
ATOM      1  C   UNL A   1      36.289  20.335  25.070  1.00  0.00     0.274 C 
ENDROOT
BRANCH   1   2
ATOM      2  O   UNL A   1      36.015  21.376  26.037  1.00  0.00    -0.461 OA
BRANCH   2   3
ATOM      3  C   UNL A   1      35.416  22.487  25.529  1.00  0.00     0.328 C 
ATOM      4  O   UNL A   1      35.164  23.500  26.177  1.00  0.00    -0.250 OA
BRANCH   3   5
ATOM      5  C   UNL A   1      34.946  22.328  24.076  1.00  0.00     0.189 C 
ATOM      6  C   UNL A   1      35.908  23.106  23.182  1.00  0.00     0.043 C 
BRANCH   5   7
ATOM      7  N   UNL A   1      33.570  22.726  23.749  1.00  0.00    -0.339 N 
ATOM      8  C   UNL A   1      32.525  21.866  23.456  1.00  0.00     0.251 C 
ATOM      9  H   UNL A   1      33.373  23.691  23.736  1.00  0.00     0.164 HD
ATOM     10  O   UNL A   1      31.533  22.243  22.846  1.00  0.00    -0.269 OA
BRANCH   8  11
ATOM     11  C   UNL A   1      32.614  20.473  23.953  1.00  0.00     0.039 A 
ATOM     12  C   UNL A   1      32.723  20.164  25.310  1.00  0.00     0.016 A 
ATOM     13  C   UNL A   1      32.523  19.450  23.015  1.00  0.00     0.016 A 
ATOM     14  C   UNL A   1      32.632  18.822  25.730  1.00  0.00     0.027 A 
ATOM     15  C   UNL A   1      32.399  18.133  23.442  1.00  0.00     0.027 A 
ATOM     16  C   UNL A   1      32.429  17.805  24.796  1.00  0.00     0.042 A 
BRANCH  16  17
ATOM     17  N   UNL A   1      32.238  16.443  25.080  1.00  0.00    -0.308 N 
ATOM     18  C   UNL A   1      33.171  15.458  25.212  1.00  0.00     0.316 C 
ATOM     19  H   UNL A   1      31.302  16.162  25.199  1.00  0.00     0.171 HD
ATOM     20  N   UNL A   1      32.593  14.256  25.503  1.00  0.00    -0.351 N 
ATOM     21  O   UNL A   1      34.385  15.555  25.113  1.00  0.00    -0.249 OA
ATOM     22  H   UNL A   1      31.614  14.186  25.582  1.00  0.00     0.161 HD
ATOM     23  H   UNL A   1      33.156  13.458  25.636  1.00  0.00     0.161 HD
ENDBRANCH  16  17
ENDBRANCH   8  11
ENDBRANCH   5   7
ENDBRANCH   3   5
ENDBRANCH   2   3
ENDBRANCH   1   2
BRANCH   1  24
ATOM     24  C   UNL A   1      37.778  20.018  24.991  1.00  0.00     0.275 C 
BRANCH  24  25
ATOM     25  O   UNL A   1      38.548  21.191  25.309  1.00  0.00    -0.458 OA
BRANCH  25  26
ATOM     26  C   UNL A   1      39.563  20.992  26.175  1.00  0.00     0.338 C 
ATOM     27  O   UNL A   1      40.168  19.951  26.395  1.00  0.00    -0.246 OA
BRANCH  26  28
ATOM     28  C   UNL A   1      39.934  22.257  26.822  1.00  0.00     0.060 A 
ATOM     29  C   UNL A   1      39.354  23.428  26.354  1.00  0.00     0.016 A 
ATOM     30  C   UNL A   1      40.999  22.313  27.725  1.00  0.00     0.016 A 
ATOM     31  C   UNL A   1      39.926  24.647  26.703  1.00  0.00     0.010 A 
ATOM     32  C   UNL A   1      41.516  23.556  28.129  1.00  0.00     0.010 A 
ATOM     33  C   UNL A   1      41.024  24.744  27.568  1.00  0.00    -0.014 A 
BRANCH  33  34
ATOM     34  C   UNL A   1      41.704  26.069  27.727  1.00  0.00     0.031 A 
ATOM     35  C   UNL A   1      41.090  27.129  28.612  1.00  0.00     0.074 A 
ATOM     36  C   UNL A   1      42.937  26.295  27.223  1.00  0.00     0.049 A 
ATOM     37  N   UNL A   1      41.468  28.369  28.812  1.00  0.00    -0.248 NA
ATOM     38  C   UNL A   1      39.898  26.740  29.381  1.00  0.00     0.031 C 
ATOM     39  C   UNL A   1      43.725  25.338  26.445  1.00  0.00     0.029 A 
ATOM     40  N   UNL A   1      43.764  27.391  27.324  1.00  0.00    -0.354 N 
ATOM     41  C   UNL A   1      40.526  28.922  29.671  1.00  0.00     0.074 A 
ATOM     42  C   UNL A   1      39.569  27.879  29.973  1.00  0.00     0.031 C 
ATOM     43  C   UNL A   1      44.938  25.861  26.197  1.00  0.00     0.029 A 
ATOM     44  C   UNL A   1      44.984  27.227  26.713  1.00  0.00     0.049 A 
ATOM     45  H   UNL A   1      43.504  28.217  27.792  1.00  0.00     0.167 HD
ATOM     46  C   UNL A   1      40.453  30.185  30.158  1.00  0.00     0.037 A 
ATOM     47  C   UNL A   1      46.011  28.085  26.552  1.00  0.00     0.037 A 
ATOM     48  C   UNL A   1      41.434  31.213  29.926  1.00  0.00     0.049 A 
ATOM     49  C   UNL A   1      45.886  29.500  27.056  1.00  0.00     0.074 A 
ATOM     50  C   UNL A   1      41.422  32.532  30.345  1.00  0.00     0.029 A 
ATOM     51  N   UNL A   1      42.619  31.027  29.234  1.00  0.00    -0.354 N 
ATOM     52  N   UNL A   1      44.928  30.046  27.761  1.00  0.00    -0.248 NA
ATOM     53  C   UNL A   1      46.976  30.425  26.707  1.00  0.00     0.031 C 
ATOM     54  C   UNL A   1      42.589  33.152  29.883  1.00  0.00     0.029 A 
ATOM     55  C   UNL A   1      43.342  32.209  29.206  1.00  0.00     0.049 A 
ATOM     56  H   UNL A   1      42.907  30.180  28.822  1.00  0.00     0.167 HD
ATOM     57  C   UNL A   1      45.299  31.373  27.945  1.00  0.00     0.074 A 
ATOM     58  C   UNL A   1      46.586  31.542  27.304  1.00  0.00     0.031 C 
ATOM     59  C   UNL A   1      44.626  32.366  28.576  1.00  0.00     0.037 A 
BRANCH  46  60
ATOM     60  C   UNL A   1      39.228  30.550  30.942  1.00  0.00     0.064 A 
ATOM     61  C   UNL A   1      39.162  30.416  32.335  1.00  0.00     0.173 A 
ATOM     62  C   UNL A   1      38.106  31.066  30.276  1.00  0.00     0.173 A 
ATOM     63  F   UNL A   1      40.204  29.913  33.014  1.00  0.00    -0.203 F 
ATOM     64  C   UNL A   1      38.005  30.761  33.031  1.00  0.00     0.198 A 
ATOM     65  C   UNL A   1      36.960  31.432  30.977  1.00  0.00     0.198 A 
ATOM     66  F   UNL A   1      38.122  31.218  28.943  1.00  0.00    -0.203 F 
ATOM     67  F   UNL A   1      37.945  30.584  34.358  1.00  0.00    -0.200 F 
ATOM     68  C   UNL A   1      36.908  31.272  32.353  1.00  0.00     0.200 A 
ATOM     69  F   UNL A   1      35.906  31.934  30.319  1.00  0.00    -0.200 F 
ATOM     70  F   UNL A   1      35.797  31.604  33.024  1.00  0.00    -0.200 F 
ENDBRANCH  46  60
BRANCH  47  71
ATOM     71  C   UNL A   1      47.245  27.661  25.837  1.00  0.00     0.064 A 
ATOM     72  C   UNL A   1      48.373  27.228  26.548  1.00  0.00     0.173 A 
ATOM     73  C   UNL A   1      47.338  27.713  24.439  1.00  0.00     0.173 A 
ATOM     74  F   UNL A   1      48.337  27.169  27.887  1.00  0.00    -0.203 F 
ATOM     75  C   UNL A   1      49.552  26.883  25.890  1.00  0.00     0.198 A 
ATOM     76  C   UNL A   1      48.506  27.336  23.779  1.00  0.00     0.198 A 
ATOM     77  F   UNL A   1      46.287  28.118  23.712  1.00  0.00    -0.203 F 
ATOM     78  F   UNL A   1      50.626  26.510  26.598  1.00  0.00    -0.200 F 
ATOM     79  C   UNL A   1      49.616  26.932  24.506  1.00  0.00     0.200 A 
ATOM     80  F   UNL A   1      48.555  27.366  22.441  1.00  0.00    -0.200 F 
ATOM     81  F   UNL A   1      50.745  26.591  23.872  1.00  0.00    -0.200 F 
ENDBRANCH  47  71
BRANCH  59  82
ATOM     82  C   UNL A   1      45.276  33.717  28.625  1.00  0.00     0.064 A 
ATOM     83  C   UNL A   1      46.172  34.061  29.648  1.00  0.00     0.173 A 
ATOM     84  C   UNL A   1      45.026  34.666  27.622  1.00  0.00     0.173 A 
ATOM     85  F   UNL A   1      46.430  33.194  30.639  1.00  0.00    -0.203 F 
ATOM     86  C   UNL A   1      46.776  35.316  29.678  1.00  0.00     0.198 A 
ATOM     87  C   UNL A   1      45.650  35.910  27.643  1.00  0.00     0.198 A 
ATOM     88  F   UNL A   1      44.181  34.383  26.620  1.00  0.00    -0.203 F 
ATOM     89  F   UNL A   1      47.594  35.639  30.689  1.00  0.00    -0.200 F 
ATOM     90  C   UNL A   1      46.519  36.236  28.673  1.00  0.00     0.200 A 
ATOM     91  F   UNL A   1      45.408  36.797  26.667  1.00  0.00    -0.200 F 
ATOM     92  F   UNL A   1      47.102  37.442  28.703  1.00  0.00    -0.200 F 
ENDBRANCH  59  82
ENDBRANCH  33  34
ENDBRANCH  26  28
ENDBRANCH  25  26
ENDBRANCH  24  25
ENDBRANCH   1  24
TORSDOF 14
ENDMDL
MODEL 2
REMARK VINA RESULT:     -12.3      5.835     11.068
REMARK SMILES C[C@H](NC(=O)c1ccc(NC(N)=O)cc1)C(=O)OCCOC(=O)c1ccc(-c2c3nc(c(-c4c(F)c(F)c(F)c(F)c4F)c4ccc([nH]4)c(-c4c(F)c(F)c(F)c(F)c4F)c4nc(c(-c5c(F)c(F)c(F)c(F)c5F)c5ccc2[nH]5)C=C4)C=C3)cc1
REMARK SMILES IDX 19 1 18 2 16 3 17 4 2 5 1 6 3 7 4 8 5 10 6 11 7 12 15 13
REMARK SMILES IDX 8 14 14 15 9 16 10 17 11 18 12 20 13 21 20 24 21 25 22 26
REMARK SMILES IDX 23 27 24 28 25 29 86 30 26 31 85 32 27 33 28 34 29 35 79 36
REMARK SMILES IDX 30 37 84 38 78 39 80 40 31 41 83 42 77 43 76 44 32 46 64 47
REMARK SMILES IDX 44 48 63 49 45 50 48 51 62 52 81 53 46 54 47 55 61 57 82 58
REMARK SMILES IDX 49 59 33 60 34 61 42 62 35 63 36 64 40 65 43 66 37 67 38 68
REMARK SMILES IDX 41 69 39 70 65 71 66 72 74 73 67 74 68 75 72 76 75 77 69 78
REMARK SMILES IDX 70 79 73 80 71 81 50 82 51 83 59 84 52 85 53 86 57 87 60 88
REMARK SMILES IDX 54 89 55 90 58 91 56 92
REMARK H PARENT 3 9 10 19 12 22 12 23 80 45 48 56
REMARK Flexibility Score: inf
ROOT
ATOM      1  C   UNL A   1      31.410  30.464  25.359  1.00  0.00     0.274 C 
ENDROOT
BRANCH   1   2
ATOM      2  O   UNL A   1      32.711  29.859  25.168  1.00  0.00    -0.461 OA
BRANCH   2   3
ATOM      3  C   UNL A   1      32.713  28.498  25.146  1.00  0.00     0.328 C 
ATOM      4  O   UNL A   1      33.645  27.810  24.736  1.00  0.00    -0.250 OA
BRANCH   3   5
ATOM      5  C   UNL A   1      31.375  27.870  25.558  1.00  0.00     0.189 C 
ATOM      6  C   UNL A   1      31.459  27.513  27.041  1.00  0.00     0.043 C 
BRANCH   5   7
ATOM      7  N   UNL A   1      30.907  26.692  24.815  1.00  0.00    -0.339 N 
ATOM      8  C   UNL A   1      29.880  26.674  23.886  1.00  0.00     0.251 C 
ATOM      9  H   UNL A   1      31.365  25.838  24.993  1.00  0.00     0.164 HD
ATOM     10  O   UNL A   1      29.303  25.638  23.585  1.00  0.00    -0.269 OA
BRANCH   8  11
ATOM     11  C   UNL A   1      29.529  27.949  23.218  1.00  0.00     0.039 A 
ATOM     12  C   UNL A   1      30.444  28.675  22.454  1.00  0.00     0.016 A 
ATOM     13  C   UNL A   1      28.212  28.385  23.320  1.00  0.00     0.016 A 
ATOM     14  C   UNL A   1      30.005  29.785  21.706  1.00  0.00     0.027 A 
ATOM     15  C   UNL A   1      27.781  29.460  22.551  1.00  0.00     0.027 A 
ATOM     16  C   UNL A   1      28.660  30.156  21.723  1.00  0.00     0.042 A 
BRANCH  16  17
ATOM     17  N   UNL A   1      28.072  31.182  20.967  1.00  0.00    -0.308 N 
ATOM     18  C   UNL A   1      28.020  32.519  21.233  1.00  0.00     0.316 C 
ATOM     19  H   UNL A   1      27.638  30.898  20.130  1.00  0.00     0.171 HD
ATOM     20  N   UNL A   1      27.368  33.202  20.246  1.00  0.00    -0.351 N 
ATOM     21  O   UNL A   1      28.481  33.112  22.196  1.00  0.00    -0.249 OA
ATOM     22  H   UNL A   1      26.999  32.716  19.472  1.00  0.00     0.161 HD
ATOM     23  H   UNL A   1      27.268  34.179  20.308  1.00  0.00     0.161 HD
ENDBRANCH  16  17
ENDBRANCH   8  11
ENDBRANCH   5   7
ENDBRANCH   3   5
ENDBRANCH   2   3
ENDBRANCH   1   2
BRANCH   1  24
ATOM     24  C   UNL A   1      31.451  31.568  26.408  1.00  0.00     0.275 C 
BRANCH  24  25
ATOM     25  O   UNL A   1      32.504  31.309  27.354  1.00  0.00    -0.458 OA
BRANCH  25  26
ATOM     26  C   UNL A   1      33.355  32.335  27.558  1.00  0.00     0.338 C 
ATOM     27  O   UNL A   1      33.103  33.533  27.542  1.00  0.00    -0.246 OA
BRANCH  26  28
ATOM     28  C   UNL A   1      34.693  31.828  27.888  1.00  0.00     0.060 A 
ATOM     29  C   UNL A   1      34.824  30.484  28.207  1.00  0.00     0.016 A 
ATOM     30  C   UNL A   1      35.761  32.706  28.095  1.00  0.00     0.016 A 
ATOM     31  C   UNL A   1      35.985  30.054  28.844  1.00  0.00     0.010 A 
ATOM     32  C   UNL A   1      36.956  32.240  28.668  1.00  0.00     0.010 A 
ATOM     33  C   UNL A   1      37.058  30.913  29.112  1.00  0.00    -0.014 A 
BRANCH  33  34
ATOM     34  C   UNL A   1      38.177  30.423  29.980  1.00  0.00     0.031 A 
ATOM     35  C   UNL A   1      39.266  29.557  29.387  1.00  0.00     0.074 A 
ATOM     36  C   UNL A   1      38.328  30.859  31.250  1.00  0.00     0.049 A 
ATOM     37  N   UNL A   1      40.268  28.956  29.983  1.00  0.00    -0.248 NA
ATOM     38  C   UNL A   1      39.227  29.349  27.932  1.00  0.00     0.031 C 
ATOM     39  C   UNL A   1      37.435  31.790  31.940  1.00  0.00     0.029 A 
ATOM     40  N   UNL A   1      39.315  30.606  32.176  1.00  0.00    -0.354 N 
ATOM     41  C   UNL A   1      40.933  28.248  28.989  1.00  0.00     0.074 A 
ATOM     42  C   UNL A   1      40.235  28.510  27.748  1.00  0.00     0.031 C 
ATOM     43  C   UNL A   1      37.946  32.078  33.149  1.00  0.00     0.029 A 
ATOM     44  C   UNL A   1      39.152  31.281  33.362  1.00  0.00     0.049 A 
ATOM     45  H   UNL A   1      40.068  29.996  32.005  1.00  0.00     0.167 HD
ATOM     46  C   UNL A   1      42.018  27.444  29.096  1.00  0.00     0.037 A 
ATOM     47  C   UNL A   1      39.866  31.241  34.504  1.00  0.00     0.037 A 
ATOM     48  C   UNL A   1      42.766  27.230  30.308  1.00  0.00     0.049 A 
ATOM     49  C   UNL A   1      41.038  30.300  34.617  1.00  0.00     0.074 A 
ATOM     50  C   UNL A   1      43.854  26.400  30.519  1.00  0.00     0.029 A 
ATOM     51  N   UNL A   1      42.519  27.875  31.508  1.00  0.00    -0.354 N 
ATOM     52  N   UNL A   1      41.579  29.538  33.701  1.00  0.00    -0.248 NA
ATOM     53  C   UNL A   1      41.672  30.191  35.941  1.00  0.00     0.031 C 
ATOM     54  C   UNL A   1      44.249  26.523  31.856  1.00  0.00     0.029 A 
ATOM     55  C   UNL A   1      43.428  27.456  32.467  1.00  0.00     0.049 A 
ATOM     56  H   UNL A   1      41.803  28.534  31.659  1.00  0.00     0.167 HD
ATOM     57  C   UNL A   1      42.619  28.865  34.332  1.00  0.00     0.074 A 
ATOM     58  C   UNL A   1      42.652  29.332  35.702  1.00  0.00     0.031 C 
ATOM     59  C   UNL A   1      43.461  27.932  33.824  1.00  0.00     0.037 A 
BRANCH  46  60
ATOM     60  C   UNL A   1      42.426  26.673  27.876  1.00  0.00     0.064 A 
ATOM     61  C   UNL A   1      41.891  25.415  27.570  1.00  0.00     0.173 A 
ATOM     62  C   UNL A   1      43.362  27.225  26.988  1.00  0.00     0.173 A 
ATOM     63  F   UNL A   1      41.005  24.840  28.397  1.00  0.00    -0.203 F 
ATOM     64  C   UNL A   1      42.297  24.725  26.429  1.00  0.00     0.198 A 
ATOM     65  C   UNL A   1      43.748  26.544  25.837  1.00  0.00     0.198 A 
ATOM     66  F   UNL A   1      43.900  28.429  27.234  1.00  0.00    -0.203 F 
ATOM     67  F   UNL A   1      41.807  23.505  26.176  1.00  0.00    -0.200 F 
ATOM     68  C   UNL A   1      43.221  25.291  25.563  1.00  0.00     0.200 A 
ATOM     69  F   UNL A   1      44.634  27.098  24.998  1.00  0.00    -0.200 F 
ATOM     70  F   UNL A   1      43.610  24.627  24.466  1.00  0.00    -0.200 F 
ENDBRANCH  46  60
BRANCH  47  71
ATOM     71  C   UNL A   1      39.476  32.081  35.668  1.00  0.00     0.064 A 
ATOM     72  C   UNL A   1      38.499  31.645  36.575  1.00  0.00     0.173 A 
ATOM     73  C   UNL A   1      40.040  33.349  35.880  1.00  0.00     0.173 A 
ATOM     74  F   UNL A   1      37.925  30.445  36.412  1.00  0.00    -0.203 F 
ATOM     75  C   UNL A   1      38.088  32.450  37.636  1.00  0.00     0.198 A 
ATOM     76  C   UNL A   1      39.652  34.140  36.959  1.00  0.00     0.198 A 
ATOM     77  F   UNL A   1      40.978  33.813  35.042  1.00  0.00    -0.203 F 
ATOM     78  F   UNL A   1      37.126  32.022  38.463  1.00  0.00    -0.200 F 
ATOM     79  C   UNL A   1      38.668  33.695  37.830  1.00  0.00     0.200 A 
ATOM     80  F   UNL A   1      40.230  35.331  37.154  1.00  0.00    -0.200 F 
ATOM     81  F   UNL A   1      38.280  34.465  38.854  1.00  0.00    -0.200 F 
ENDBRANCH  47  71
BRANCH  59  82
ATOM     82  C   UNL A   1      44.504  27.370  34.745  1.00  0.00     0.064 A 
ATOM     83  C   UNL A   1      45.748  27.995  34.909  1.00  0.00     0.173 A 
ATOM     84  C   UNL A   1      44.244  26.213  35.494  1.00  0.00     0.173 A 
ATOM     85  F   UNL A   1      46.049  29.095  34.201  1.00  0.00    -0.203 F 
ATOM     86  C   UNL A   1      46.705  27.468  35.773  1.00  0.00     0.198 A 
ATOM     87  C   UNL A   1      45.195  25.702  36.375  1.00  0.00     0.198 A 
ATOM     88  F   UNL A   1      43.068  25.580  35.375  1.00  0.00    -0.203 F 
ATOM     89  F   UNL A   1      47.904  28.058  35.881  1.00  0.00    -0.200 F 
ATOM     90  C   UNL A   1      46.426  26.327  36.509  1.00  0.00     0.200 A 
ATOM     91  F   UNL A   1      44.920  24.603  37.092  1.00  0.00    -0.200 F 
ATOM     92  F   UNL A   1      47.347  25.822  37.341  1.00  0.00    -0.200 F 
ENDBRANCH  59  82
ENDBRANCH  33  34
ENDBRANCH  26  28
ENDBRANCH  25  26
ENDBRANCH  24  25
ENDBRANCH   1  24
TORSDOF 14
ENDMDL
MODEL 3
REMARK VINA RESULT:     -12.2      0.727      7.517
REMARK SMILES C[C@H](NC(=O)c1ccc(NC(N)=O)cc1)C(=O)OCCOC(=O)c1ccc(-c2c3nc(c(-c4c(F)c(F)c(F)c(F)c4F)c4ccc([nH]4)c(-c4c(F)c(F)c(F)c(F)c4F)c4nc(c(-c5c(F)c(F)c(F)c(F)c5F)c5ccc2[nH]5)C=C4)C=C3)cc1
REMARK SMILES IDX 19 1 18 2 16 3 17 4 2 5 1 6 3 7 4 8 5 10 6 11 7 12 15 13
REMARK SMILES IDX 8 14 14 15 9 16 10 17 11 18 12 20 13 21 20 24 21 25 22 26
REMARK SMILES IDX 23 27 24 28 25 29 86 30 26 31 85 32 27 33 28 34 29 35 79 36
REMARK SMILES IDX 30 37 84 38 78 39 80 40 31 41 83 42 77 43 76 44 32 46 64 47
REMARK SMILES IDX 44 48 63 49 45 50 48 51 62 52 81 53 46 54 47 55 61 57 82 58
REMARK SMILES IDX 49 59 33 60 34 61 42 62 35 63 36 64 40 65 43 66 37 67 38 68
REMARK SMILES IDX 41 69 39 70 65 71 66 72 74 73 67 74 68 75 72 76 75 77 69 78
REMARK SMILES IDX 70 79 73 80 71 81 50 82 51 83 59 84 52 85 53 86 57 87 60 88
REMARK SMILES IDX 54 89 55 90 58 91 56 92
REMARK H PARENT 3 9 10 19 12 22 12 23 80 45 48 56
REMARK Flexibility Score: inf
ROOT
ATOM      1  C   UNL A   1      36.597  20.180  24.999  1.00  0.00     0.274 C 
ENDROOT
BRANCH   1   2
ATOM      2  O   UNL A   1      36.205  21.164  25.984  1.00  0.00    -0.461 OA
BRANCH   2   3
ATOM      3  C   UNL A   1      35.820  22.366  25.474  1.00  0.00     0.328 C 
ATOM      4  O   UNL A   1      35.841  23.425  26.096  1.00  0.00    -0.250 OA
BRANCH   3   5
ATOM      5  C   UNL A   1      35.218  22.275  24.065  1.00  0.00     0.189 C 
ATOM      6  C   UNL A   1      36.151  23.010  23.105  1.00  0.00     0.043 C 
BRANCH   5   7
ATOM      7  N   UNL A   1      33.849  22.773  23.867  1.00  0.00    -0.339 N 
ATOM      8  C   UNL A   1      32.729  21.994  23.630  1.00  0.00     0.251 C 
ATOM      9  H   UNL A   1      33.716  23.748  23.906  1.00  0.00     0.164 HD
ATOM     10  O   UNL A   1      31.719  22.459  23.118  1.00  0.00    -0.269 OA
BRANCH   8  11
ATOM     11  C   UNL A   1      32.765  20.579  24.067  1.00  0.00     0.039 A 
ATOM     12  C   UNL A   1      32.932  20.208  25.402  1.00  0.00     0.016 A 
ATOM     13  C   UNL A   1      32.561  19.603  23.097  1.00  0.00     0.016 A 
ATOM     14  C   UNL A   1      32.786  18.857  25.775  1.00  0.00     0.027 A 
ATOM     15  C   UNL A   1      32.384  18.279  23.478  1.00  0.00     0.027 A 
ATOM     16  C   UNL A   1      32.472  17.893  24.815  1.00  0.00     0.042 A 
BRANCH  16  17
ATOM     17  N   UNL A   1      32.218  16.533  25.057  1.00  0.00    -0.308 N 
ATOM     18  C   UNL A   1      33.107  15.515  25.234  1.00  0.00     0.316 C 
ATOM     19  H   UNL A   1      31.267  16.281  25.105  1.00  0.00     0.171 HD
ATOM     20  N   UNL A   1      32.472  14.327  25.459  1.00  0.00    -0.351 N 
ATOM     21  O   UNL A   1      34.327  15.573  25.221  1.00  0.00    -0.249 OA
ATOM     22  H   UNL A   1      31.488  14.289  25.468  1.00  0.00     0.161 HD
ATOM     23  H   UNL A   1      32.998  13.510  25.614  1.00  0.00     0.161 HD
ENDBRANCH  16  17
ENDBRANCH   8  11
ENDBRANCH   5   7
ENDBRANCH   3   5
ENDBRANCH   2   3
ENDBRANCH   1   2
BRANCH   1  24
ATOM     24  C   UNL A   1      38.050  19.754  25.175  1.00  0.00     0.275 C 
BRANCH  24  25
ATOM     25  O   UNL A   1      38.882  20.913  25.367  1.00  0.00    -0.458 OA
BRANCH  25  26
ATOM     26  C   UNL A   1      39.882  20.758  26.259  1.00  0.00     0.338 C 
ATOM     27  O   UNL A   1      40.571  19.764  26.448  1.00  0.00    -0.246 OA
BRANCH  26  28
ATOM     28  C   UNL A   1      40.117  22.014  26.982  1.00  0.00     0.060 A 
ATOM     29  C   UNL A   1      39.450  23.153  26.552  1.00  0.00     0.016 A 
ATOM     30  C   UNL A   1      41.141  22.114  27.928  1.00  0.00     0.016 A 
ATOM     31  C   UNL A   1      39.900  24.397  26.984  1.00  0.00     0.010 A 
ATOM     32  C   UNL A   1      41.531  23.374  28.413  1.00  0.00     0.010 A 
ATOM     33  C   UNL A   1      40.954  24.543  27.894  1.00  0.00    -0.014 A 
BRANCH  33  34
ATOM     34  C   UNL A   1      41.508  25.912  28.146  1.00  0.00     0.031 A 
ATOM     35  C   UNL A   1      42.856  26.294  27.577  1.00  0.00     0.074 A 
ATOM     36  C   UNL A   1      40.769  26.875  28.739  1.00  0.00     0.049 A 
ATOM     37  N   UNL A   1      43.553  27.391  27.754  1.00  0.00    -0.248 NA
ATOM     38  C   UNL A   1      43.499  25.318  26.685  1.00  0.00     0.031 C 
ATOM     39  C   UNL A   1      39.405  26.711  29.240  1.00  0.00     0.029 A 
ATOM     40  N   UNL A   1      41.050  28.200  28.986  1.00  0.00    -0.354 N 
ATOM     41  C   UNL A   1      44.740  27.206  27.055  1.00  0.00     0.074 A 
ATOM     42  C   UNL A   1      44.661  25.902  26.431  1.00  0.00     0.031 C 
ATOM     43  C   UNL A   1      38.946  27.897  29.673  1.00  0.00     0.029 A 
ATOM     44  C   UNL A   1      40.014  28.889  29.570  1.00  0.00     0.049 A 
ATOM     45  H   UNL A   1      41.914  28.616  28.764  1.00  0.00     0.167 HD
ATOM     46  C   UNL A   1      45.804  28.038  26.945  1.00  0.00     0.037 A 
ATOM     47  C   UNL A   1      39.938  30.162  30.008  1.00  0.00     0.037 A 
ATOM     48  C   UNL A   1      45.869  29.365  27.498  1.00  0.00     0.049 A 
ATOM     49  C   UNL A   1      41.152  31.052  29.924  1.00  0.00     0.074 A 
ATOM     50  C   UNL A   1      46.922  30.264  27.472  1.00  0.00     0.029 A 
ATOM     51  N   UNL A   1      44.824  29.997  28.152  1.00  0.00    -0.354 N 
ATOM     52  N   UNL A   1      42.313  30.818  29.369  1.00  0.00    -0.248 NA
ATOM     53  C   UNL A   1      41.047  32.373  30.563  1.00  0.00     0.031 C 
ATOM     54  C   UNL A   1      46.524  31.430  28.136  1.00  0.00     0.029 A 
ATOM     55  C   UNL A   1      45.210  31.270  28.542  1.00  0.00     0.049 A 
ATOM     56  H   UNL A   1      43.938  29.601  28.315  1.00  0.00     0.167 HD
ATOM     57  C   UNL A   1      43.075  31.960  29.585  1.00  0.00     0.074 A 
ATOM     58  C   UNL A   1      42.234  32.899  30.296  1.00  0.00     0.031 C 
ATOM     59  C   UNL A   1      44.363  32.201  29.239  1.00  0.00     0.037 A 
BRANCH  46  60
ATOM     60  C   UNL A   1      47.024  27.507  26.253  1.00  0.00     0.064 A 
ATOM     61  C   UNL A   1      47.241  27.680  24.880  1.00  0.00     0.173 A 
ATOM     62  C   UNL A   1      48.003  26.828  26.995  1.00  0.00     0.173 A 
ATOM     63  F   UNL A   1      46.327  28.309  24.126  1.00  0.00    -0.203 F 
ATOM     64  C   UNL A   1      48.384  27.169  24.268  1.00  0.00     0.198 A 
ATOM     65  C   UNL A   1      49.155  26.339  26.385  1.00  0.00     0.198 A 
ATOM     66  F   UNL A   1      47.843  26.641  28.313  1.00  0.00    -0.203 F 
ATOM     67  F   UNL A   1      48.554  27.306  22.946  1.00  0.00    -0.200 F 
ATOM     68  C   UNL A   1      49.341  26.504  25.021  1.00  0.00     0.200 A 
ATOM     69  F   UNL A   1      50.081  25.706  27.118  1.00  0.00    -0.200 F 
ATOM     70  F   UNL A   1      50.440  26.014  24.432  1.00  0.00    -0.200 F 
ENDBRANCH  46  60
BRANCH  47  71
ATOM     71  C   UNL A   1      38.683  30.677  30.617  1.00  0.00     0.064 A 
ATOM     72  C   UNL A   1      38.504  30.674  32.008  1.00  0.00     0.173 A 
ATOM     73  C   UNL A   1      37.623  31.147  29.827  1.00  0.00     0.173 A 
ATOM     74  F   UNL A   1      39.485  30.227  32.806  1.00  0.00    -0.203 F 
ATOM     75  C   UNL A   1      37.309  31.102  32.584  1.00  0.00     0.198 A 
ATOM     76  C   UNL A   1      36.441  31.606  30.405  1.00  0.00     0.198 A 
ATOM     77  F   UNL A   1      37.742  31.172  28.492  1.00  0.00    -0.203 F 
ATOM     78  F   UNL A   1      37.155  31.052  33.913  1.00  0.00    -0.200 F 
ATOM     79  C   UNL A   1      36.281  31.572  31.782  1.00  0.00     0.200 A 
ATOM     80  F   UNL A   1      35.459  32.079  29.627  1.00  0.00    -0.200 F 
ATOM     81  F   UNL A   1      35.136  31.993  32.335  1.00  0.00    -0.200 F 
ENDBRANCH  47  71
BRANCH  59  82
ATOM     82  C   UNL A   1      44.936  33.540  29.602  1.00  0.00     0.064 A 
ATOM     83  C   UNL A   1      44.814  34.644  28.746  1.00  0.00     0.173 A 
ATOM     84  C   UNL A   1      45.583  33.730  30.832  1.00  0.00     0.173 A 
ATOM     85  F   UNL A   1      44.218  34.509  27.551  1.00  0.00    -0.203 F 
ATOM     86  C   UNL A   1      45.342  35.884  29.097  1.00  0.00     0.198 A 
ATOM     87  C   UNL A   1      46.089  34.977  31.191  1.00  0.00     0.198 A 
ATOM     88  F   UNL A   1      45.721  32.706  31.687  1.00  0.00    -0.203 F 
ATOM     89  F   UNL A   1      45.253  36.914  28.244  1.00  0.00    -0.200 F 
ATOM     90  C   UNL A   1      45.973  36.050  30.321  1.00  0.00     0.200 A 
ATOM     91  F   UNL A   1      46.692  35.138  32.377  1.00  0.00    -0.200 F 
ATOM     92  F   UNL A   1      46.479  37.244  30.658  1.00  0.00    -0.200 F 
ENDBRANCH  59  82
ENDBRANCH  33  34
ENDBRANCH  26  28
ENDBRANCH  25  26
ENDBRANCH  24  25
ENDBRANCH   1  24
TORSDOF 14
ENDMDL
