MODEL 1
REMARK VINA RESULT:     -11.4      0.000      0.000
REMARK SMILES O=C(NCCOCC(=O)OCCOC(=O)c1ccc(-c2c3nc(c(-c4c(F)c(F)c(F)c(F)c4F)c4ccc([nH]4)c(-c4c(F)c(F)c(F)c(F)c4F)c4nc(c(-c5c(F)c(F)c(F)c(F)c5F)c5ccc2[nH]5)C=C4)C=C3)cc1)Nc1cccc(F)c1
REMARK SMILES IDX 10 1 8 2 9 3 7 4 6 5 5 6 4 7 3 8 1 9 2 10 79 11 80 14 81 15
REMARK SMILES IDX 86 16 82 17 84 18 83 19 85 20 11 21 12 22 13 23 14 24 15 25
REMARK SMILES IDX 16 26 17 27 78 28 18 29 77 30 19 31 20 32 21 33 71 34 22 35
REMARK SMILES IDX 76 36 70 37 72 38 23 39 75 40 69 41 68 42 24 44 56 45 36 46
REMARK SMILES IDX 55 47 37 48 40 49 54 50 73 51 38 52 39 53 53 55 74 56 41 57
REMARK SMILES IDX 25 58 26 59 34 60 27 61 28 62 32 63 35 64 29 65 30 66 33 67
REMARK SMILES IDX 31 68 57 69 58 70 66 71 59 72 60 73 64 74 67 75 61 76 62 77
REMARK SMILES IDX 65 78 63 79 42 80 43 81 51 82 44 83 45 84 49 85 52 86 46 87
REMARK SMILES IDX 47 88 50 89 48 90
REMARK H PARENT 3 12 79 13 72 43 40 54
REMARK Flexibility Score: inf
ROOT
ATOM      1  O   UNL A   1      32.432  28.566  25.648  1.00  0.00    -0.460 OA
ENDROOT
BRANCH   1   2
ATOM      2  C   UNL A   1      33.072  27.739  24.780  1.00  0.00     0.332 C 
ATOM      3  O   UNL A   1      34.010  28.084  24.064  1.00  0.00    -0.250 OA
BRANCH   2   4
ATOM      4  C   UNL A   1      32.600  26.269  24.838  1.00  0.00     0.282 C 
BRANCH   4   5
ATOM      5  O   UNL A   1      31.920  25.566  23.823  1.00  0.00    -0.368 OA
BRANCH   5   6
ATOM      6  C   UNL A   1      30.584  25.130  24.089  1.00  0.00     0.182 C 
BRANCH   6   7
ATOM      7  C   UNL A   1      29.591  26.207  24.575  1.00  0.00     0.146 C 
BRANCH   7   8
ATOM      8  N   UNL A   1      29.009  26.957  23.489  1.00  0.00    -0.336 N 
ATOM      9  O   UNL A   1      30.385  28.009  22.084  1.00  0.00    -0.249 OA
ATOM     10  C   UNL A   1      29.538  28.098  22.959  1.00  0.00     0.319 C 
ATOM     11  N   UNL A   1      28.806  29.210  23.300  1.00  0.00    -0.308 N 
ATOM     12  H   UNL A   1      28.168  26.621  23.102  1.00  0.00     0.165 HD
ATOM     13  H   UNL A   1      28.326  29.194  24.159  1.00  0.00     0.171 HD
BRANCH  11  14
ATOM     14  C   UNL A   1      28.691  30.375  22.509  1.00  0.00     0.045 A 
ATOM     15  C   UNL A   1      28.177  30.392  21.209  1.00  0.00     0.026 A 
ATOM     16  C   UNL A   1      28.979  31.589  23.136  1.00  0.00     0.065 A 
ATOM     17  C   UNL A   1      27.866  31.609  20.581  1.00  0.00     0.005 A 
ATOM     18  C   UNL A   1      28.609  32.788  22.529  1.00  0.00     0.125 A 
ATOM     19  C   UNL A   1      28.047  32.810  21.261  1.00  0.00     0.039 A 
ATOM     20  F   UNL A   1      28.714  33.928  23.225  1.00  0.00    -0.207 F 
ENDBRANCH  11  14
ENDBRANCH   7   8
ENDBRANCH   6   7
ENDBRANCH   5   6
ENDBRANCH   4   5
ENDBRANCH   2   4
ENDBRANCH   1   2
BRANCH   1  21
ATOM     21  C   UNL A   1      31.740  29.693  25.057  1.00  0.00     0.274 C 
BRANCH  21  22
ATOM     22  C   UNL A   1      31.601  30.875  26.035  1.00  0.00     0.275 C 
BRANCH  22  23
ATOM     23  O   UNL A   1      32.374  30.699  27.254  1.00  0.00    -0.458 OA
BRANCH  23  24
ATOM     24  C   UNL A   1      33.269  31.696  27.426  1.00  0.00     0.338 C 
ATOM     25  O   UNL A   1      32.988  32.877  27.400  1.00  0.00    -0.246 OA
BRANCH  24  26
ATOM     26  C   UNL A   1      34.681  31.323  27.624  1.00  0.00     0.060 A 
ATOM     27  C   UNL A   1      34.980  30.001  27.989  1.00  0.00     0.016 A 
ATOM     28  C   UNL A   1      35.586  32.336  27.914  1.00  0.00     0.016 A 
ATOM     29  C   UNL A   1      36.121  29.712  28.752  1.00  0.00     0.010 A 
ATOM     30  C   UNL A   1      36.732  32.043  28.665  1.00  0.00     0.010 A 
ATOM     31  C   UNL A   1      36.995  30.741  29.134  1.00  0.00    -0.014 A 
BRANCH  31  32
ATOM     32  C   UNL A   1      38.343  30.462  29.706  1.00  0.00     0.031 A 
ATOM     33  C   UNL A   1      39.340  29.484  29.144  1.00  0.00     0.074 A 
ATOM     34  C   UNL A   1      38.564  31.017  30.906  1.00  0.00     0.049 A 
ATOM     35  N   UNL A   1      40.294  28.806  29.737  1.00  0.00    -0.248 NA
ATOM     36  C   UNL A   1      39.257  29.222  27.715  1.00  0.00     0.031 C 
ATOM     37  C   UNL A   1      37.671  31.977  31.558  1.00  0.00     0.029 A 
ATOM     38  N   UNL A   1      39.559  30.798  31.815  1.00  0.00    -0.354 N 
ATOM     39  C   UNL A   1      40.842  27.970  28.758  1.00  0.00     0.074 A 
ATOM     40  C   UNL A   1      40.087  28.200  27.550  1.00  0.00     0.031 C 
ATOM     41  C   UNL A   1      38.118  32.210  32.795  1.00  0.00     0.029 A 
ATOM     42  C   UNL A   1      39.307  31.398  33.019  1.00  0.00     0.049 A 
ATOM     43  H   UNL A   1      40.366  30.267  31.625  1.00  0.00     0.167 HD
ATOM     44  C   UNL A   1      41.917  27.146  28.846  1.00  0.00     0.037 A 
ATOM     45  C   UNL A   1      39.942  31.274  34.193  1.00  0.00     0.037 A 
ATOM     46  C   UNL A   1      42.787  27.117  29.996  1.00  0.00     0.049 A 
ATOM     47  C   UNL A   1      41.163  30.415  34.260  1.00  0.00     0.074 A 
ATOM     48  C   UNL A   1      43.992  26.454  30.157  1.00  0.00     0.029 A 
ATOM     49  N   UNL A   1      42.562  27.831  31.163  1.00  0.00    -0.354 N 
ATOM     50  N   UNL A   1      41.664  29.618  33.347  1.00  0.00    -0.248 NA
ATOM     51  C   UNL A   1      41.927  30.465  35.508  1.00  0.00     0.031 C 
ATOM     52  C   UNL A   1      44.473  26.732  31.440  1.00  0.00     0.029 A 
ATOM     53  C   UNL A   1      43.594  27.609  32.058  1.00  0.00     0.049 A 
ATOM     54  H   UNL A   1      41.785  28.410  31.330  1.00  0.00     0.167 HD
ATOM     55  C   UNL A   1      42.817  29.088  33.900  1.00  0.00     0.074 A 
ATOM     56  C   UNL A   1      42.950  29.672  35.221  1.00  0.00     0.031 C 
ATOM     57  C   UNL A   1      43.691  28.200  33.366  1.00  0.00     0.037 A 
BRANCH  44  58
ATOM     58  C   UNL A   1      42.268  26.238  27.689  1.00  0.00     0.064 A 
ATOM     59  C   UNL A   1      43.259  26.550  26.746  1.00  0.00     0.173 A 
ATOM     60  C   UNL A   1      41.667  24.967  27.588  1.00  0.00     0.173 A 
ATOM     61  F   UNL A   1      43.888  27.735  26.794  1.00  0.00    -0.203 F 
ATOM     62  C   UNL A   1      43.610  25.653  25.735  1.00  0.00     0.198 A 
ATOM     63  C   UNL A   1      42.049  24.056  26.603  1.00  0.00     0.198 A 
ATOM     64  F   UNL A   1      40.730  24.591  28.470  1.00  0.00    -0.203 F 
ATOM     65  F   UNL A   1      44.530  25.998  24.824  1.00  0.00    -0.200 F 
ATOM     66  C   UNL A   1      43.013  24.403  25.672  1.00  0.00     0.200 A 
ATOM     67  F   UNL A   1      41.493  22.838  26.566  1.00  0.00    -0.200 F 
ATOM     68  F   UNL A   1      43.372  23.532  24.717  1.00  0.00    -0.200 F 
ENDBRANCH  44  58
BRANCH  45  69
ATOM     69  C   UNL A   1      39.437  32.052  35.344  1.00  0.00     0.064 A 
ATOM     70  C   UNL A   1      38.559  31.461  36.258  1.00  0.00     0.173 A 
ATOM     71  C   UNL A   1      39.928  33.334  35.630  1.00  0.00     0.173 A 
ATOM     72  F   UNL A   1      38.077  30.232  36.024  1.00  0.00    -0.203 F 
ATOM     73  C   UNL A   1      38.182  32.127  37.418  1.00  0.00     0.198 A 
ATOM     74  C   UNL A   1      39.572  33.988  36.806  1.00  0.00     0.198 A 
ATOM     75  F   UNL A   1      40.805  33.921  34.800  1.00  0.00    -0.203 F 
ATOM     76  F   UNL A   1      37.332  31.544  38.274  1.00  0.00    -0.200 F 
ATOM     77  C   UNL A   1      38.697  33.385  37.697  1.00  0.00     0.200 A 
ATOM     78  F   UNL A   1      40.099  35.187  37.090  1.00  0.00    -0.200 F 
ATOM     79  F   UNL A   1      38.358  34.011  38.832  1.00  0.00    -0.200 F 
ENDBRANCH  45  69
BRANCH  57  80
ATOM     80  C   UNL A   1      44.863  27.817  34.214  1.00  0.00     0.064 A 
ATOM     81  C   UNL A   1      46.047  28.569  34.196  1.00  0.00     0.173 A 
ATOM     82  C   UNL A   1      44.792  26.712  35.074  1.00  0.00     0.173 A 
ATOM     83  F   UNL A   1      46.163  29.626  33.378  1.00  0.00    -0.203 F 
ATOM     84  C   UNL A   1      47.131  28.206  34.987  1.00  0.00     0.198 A 
ATOM     85  C   UNL A   1      45.866  26.372  35.888  1.00  0.00     0.198 A 
ATOM     86  F   UNL A   1      43.676  25.969  35.132  1.00  0.00    -0.203 F 
ATOM     87  F   UNL A   1      48.272  28.905  34.916  1.00  0.00    -0.200 F 
ATOM     88  C   UNL A   1      47.038  27.114  35.837  1.00  0.00     0.200 A 
ATOM     89  F   UNL A   1      45.771  25.326  36.719  1.00  0.00    -0.200 F 
ATOM     90  F   UNL A   1      48.082  26.770  36.602  1.00  0.00    -0.200 F 
ENDBRANCH  57  80
ENDBRANCH  31  32
ENDBRANCH  24  26
ENDBRANCH  23  24
ENDBRANCH  22  23
ENDBRANCH  21  22
ENDBRANCH   1  21
TORSDOF 16
ENDMDL
MODEL 2
REMARK VINA RESULT:     -11.3      5.208     10.385
REMARK SMILES O=C(NCCOCC(=O)OCCOC(=O)c1ccc(-c2c3nc(c(-c4c(F)c(F)c(F)c(F)c4F)c4ccc([nH]4)c(-c4c(F)c(F)c(F)c(F)c4F)c4nc(c(-c5c(F)c(F)c(F)c(F)c5F)c5ccc2[nH]5)C=C4)C=C3)cc1)Nc1cccc(F)c1
REMARK SMILES IDX 10 1 8 2 9 3 7 4 6 5 5 6 4 7 3 8 1 9 2 10 79 11 80 14 81 15
REMARK SMILES IDX 86 16 82 17 84 18 83 19 85 20 11 21 12 22 13 23 14 24 15 25
REMARK SMILES IDX 16 26 17 27 78 28 18 29 77 30 19 31 20 32 21 33 71 34 22 35
REMARK SMILES IDX 76 36 70 37 72 38 23 39 75 40 69 41 68 42 24 44 56 45 36 46
REMARK SMILES IDX 55 47 37 48 40 49 54 50 73 51 38 52 39 53 53 55 74 56 41 57
REMARK SMILES IDX 25 58 26 59 34 60 27 61 28 62 32 63 35 64 29 65 30 66 33 67
REMARK SMILES IDX 31 68 57 69 58 70 66 71 59 72 60 73 64 74 67 75 61 76 62 77
REMARK SMILES IDX 65 78 63 79 42 80 43 81 51 82 44 83 45 84 49 85 52 86 46 87
REMARK SMILES IDX 47 88 50 89 48 90
REMARK H PARENT 3 12 79 13 72 43 40 54
REMARK Flexibility Score: inf
ROOT
ATOM      1  O   UNL A   1      34.643  21.542  26.298  1.00  0.00    -0.460 OA
ENDROOT
BRANCH   1   2
ATOM      2  C   UNL A   1      33.904  22.458  26.977  1.00  0.00     0.332 C 
ATOM      3  O   UNL A   1      33.316  22.225  28.031  1.00  0.00    -0.250 OA
BRANCH   2   4
ATOM      4  C   UNL A   1      33.947  23.882  26.376  1.00  0.00     0.282 C 
BRANCH   4   5
ATOM      5  O   UNL A   1      33.031  24.430  25.455  1.00  0.00    -0.368 OA
BRANCH   5   6
ATOM      6  C   UNL A   1      31.898  23.640  25.084  1.00  0.00     0.182 C 
BRANCH   6   7
ATOM      7  C   UNL A   1      31.900  23.062  23.652  1.00  0.00     0.146 C 
BRANCH   7   8
ATOM      8  N   UNL A   1      32.788  21.934  23.510  1.00  0.00    -0.336 N 
ATOM      9  O   UNL A   1      31.998  20.093  22.530  1.00  0.00    -0.249 OA
ATOM     10  C   UNL A   1      32.399  20.627  23.552  1.00  0.00     0.319 C 
ATOM     11  N   UNL A   1      32.799  20.008  24.712  1.00  0.00    -0.308 N 
ATOM     12  H   UNL A   1      33.745  22.121  23.374  1.00  0.00     0.165 HD
ATOM     13  H   UNL A   1      32.885  20.565  25.520  1.00  0.00     0.171 HD
BRANCH  11  14
ATOM     14  C   UNL A   1      33.097  18.633  24.833  1.00  0.00     0.045 A 
ATOM     15  C   UNL A   1      32.534  17.790  25.796  1.00  0.00     0.026 A 
ATOM     16  C   UNL A   1      33.893  18.074  23.830  1.00  0.00     0.065 A 
ATOM     17  C   UNL A   1      32.686  16.398  25.702  1.00  0.00     0.005 A 
ATOM     18  C   UNL A   1      33.985  16.688  23.711  1.00  0.00     0.125 A 
ATOM     19  C   UNL A   1      33.382  15.843  24.632  1.00  0.00     0.039 A 
ATOM     20  F   UNL A   1      34.589  16.167  22.635  1.00  0.00    -0.207 F 
ENDBRANCH  11  14
ENDBRANCH   7   8
ENDBRANCH   6   7
ENDBRANCH   5   6
ENDBRANCH   4   5
ENDBRANCH   2   4
ENDBRANCH   1   2
BRANCH   1  21
ATOM     21  C   UNL A   1      35.772  22.063  25.555  1.00  0.00     0.274 C 
BRANCH  21  22
ATOM     22  C   UNL A   1      36.890  21.018  25.377  1.00  0.00     0.275 C 
BRANCH  22  23
ATOM     23  O   UNL A   1      38.148  21.599  24.937  1.00  0.00    -0.458 OA
BRANCH  23  24
ATOM     24  C   UNL A   1      39.110  21.477  25.878  1.00  0.00     0.338 C 
ATOM     25  O   UNL A   1      39.737  20.457  26.083  1.00  0.00    -0.246 OA
BRANCH  24  26
ATOM     26  C   UNL A   1      39.390  22.648  26.727  1.00  0.00     0.060 A 
ATOM     27  C   UNL A   1      38.944  23.908  26.300  1.00  0.00     0.016 A 
ATOM     28  C   UNL A   1      40.449  22.562  27.623  1.00  0.00     0.016 A 
ATOM     29  C   UNL A   1      39.634  25.073  26.670  1.00  0.00     0.010 A 
ATOM     30  C   UNL A   1      41.129  23.728  28.001  1.00  0.00     0.010 A 
ATOM     31  C   UNL A   1      40.764  24.992  27.498  1.00  0.00    -0.014 A 
BRANCH  31  32
ATOM     32  C   UNL A   1      41.367  26.199  28.131  1.00  0.00     0.031 A 
ATOM     33  C   UNL A   1      40.598  27.299  28.812  1.00  0.00     0.074 A 
ATOM     34  C   UNL A   1      42.678  26.354  27.896  1.00  0.00     0.049 A 
ATOM     35  N   UNL A   1      40.894  28.566  28.980  1.00  0.00    -0.248 NA
ATOM     36  C   UNL A   1      39.311  26.933  29.383  1.00  0.00     0.031 C 
ATOM     37  C   UNL A   1      43.531  25.361  27.241  1.00  0.00     0.029 A 
ATOM     38  N   UNL A   1      43.495  27.427  28.108  1.00  0.00    -0.354 N 
ATOM     39  C   UNL A   1      39.776  29.149  29.585  1.00  0.00     0.074 A 
ATOM     40  C   UNL A   1      38.788  28.106  29.715  1.00  0.00     0.031 C 
ATOM     41  C   UNL A   1      44.737  25.896  27.037  1.00  0.00     0.029 A 
ATOM     42  C   UNL A   1      44.723  27.270  27.523  1.00  0.00     0.049 A 
ATOM     43  H   UNL A   1      43.231  28.223  28.622  1.00  0.00     0.167 HD
ATOM     44  C   UNL A   1      39.622  30.415  30.051  1.00  0.00     0.037 A 
ATOM     45  C   UNL A   1      45.719  28.153  27.359  1.00  0.00     0.037 A 
ATOM     46  C   UNL A   1      40.709  31.361  30.116  1.00  0.00     0.049 A 
ATOM     47  C   UNL A   1      45.562  29.523  27.934  1.00  0.00     0.074 A 
ATOM     48  C   UNL A   1      40.736  32.614  30.705  1.00  0.00     0.029 A 
ATOM     49  N   UNL A   1      41.980  31.125  29.615  1.00  0.00    -0.354 N 
ATOM     50  N   UNL A   1      44.507  30.073  28.484  1.00  0.00    -0.248 NA
ATOM     51  C   UNL A   1      46.747  30.384  27.898  1.00  0.00     0.031 C 
ATOM     52  C   UNL A   1      42.012  33.154  30.520  1.00  0.00     0.029 A 
ATOM     53  C   UNL A   1      42.794  32.216  29.862  1.00  0.00     0.049 A 
ATOM     54  H   UNL A   1      42.261  30.303  29.154  1.00  0.00     0.167 HD
ATOM     55  C   UNL A   1      44.905  31.338  28.883  1.00  0.00     0.074 A 
ATOM     56  C   UNL A   1      46.305  31.463  28.528  1.00  0.00     0.031 C 
ATOM     57  C   UNL A   1      44.181  32.311  29.489  1.00  0.00     0.037 A 
BRANCH  44  58
ATOM     58  C   UNL A   1      38.276  30.869  30.569  1.00  0.00     0.064 A 
ATOM     59  C   UNL A   1      37.976  30.963  31.936  1.00  0.00     0.173 A 
ATOM     60  C   UNL A   1      37.296  31.329  29.667  1.00  0.00     0.173 A 
ATOM     61  F   UNL A   1      38.870  30.563  32.854  1.00  0.00    -0.203 F 
ATOM     62  C   UNL A   1      36.748  31.460  32.379  1.00  0.00     0.198 A 
ATOM     63  C   UNL A   1      36.087  31.864  30.112  1.00  0.00     0.198 A 
ATOM     64  F   UNL A   1      37.525  31.292  28.345  1.00  0.00    -0.203 F 
ATOM     65  F   UNL A   1      36.476  31.497  33.691  1.00  0.00    -0.200 F 
ATOM     66  C   UNL A   1      35.810  31.921  31.467  1.00  0.00     0.200 A 
ATOM     67  F   UNL A   1      35.199  32.338  29.228  1.00  0.00    -0.200 F 
ATOM     68  F   UNL A   1      34.644  32.424  31.896  1.00  0.00    -0.200 F 
ENDBRANCH  44  58
BRANCH  45  69
ATOM     69  C   UNL A   1      46.949  27.698  26.677  1.00  0.00     0.064 A 
ATOM     70  C   UNL A   1      47.978  27.104  27.414  1.00  0.00     0.173 A 
ATOM     71  C   UNL A   1      47.057  27.713  25.279  1.00  0.00     0.173 A 
ATOM     72  F   UNL A   1      47.904  27.060  28.752  1.00  0.00    -0.203 F 
ATOM     73  C   UNL A   1      49.081  26.545  26.778  1.00  0.00     0.198 A 
ATOM     74  C   UNL A   1      48.147  27.128  24.642  1.00  0.00     0.198 A 
ATOM     75  F   UNL A   1      46.072  28.237  24.532  1.00  0.00    -0.203 F 
ATOM     76  F   UNL A   1      50.059  25.990  27.505  1.00  0.00    -0.200 F 
ATOM     77  C   UNL A   1      49.159  26.548  25.392  1.00  0.00     0.200 A 
ATOM     78  F   UNL A   1      48.203  27.100  23.304  1.00  0.00    -0.200 F 
ATOM     79  F   UNL A   1      50.206  25.978  24.780  1.00  0.00    -0.200 F 
ENDBRANCH  45  69
BRANCH  57  80
ATOM     80  C   UNL A   1      44.898  33.585  29.806  1.00  0.00     0.064 A 
ATOM     81  C   UNL A   1      44.916  34.652  28.897  1.00  0.00     0.173 A 
ATOM     82  C   UNL A   1      45.544  33.753  31.040  1.00  0.00     0.173 A 
ATOM     83  F   UNL A   1      44.322  34.530  27.700  1.00  0.00    -0.203 F 
ATOM     84  C   UNL A   1      45.585  35.833  29.199  1.00  0.00     0.198 A 
ATOM     85  C   UNL A   1      46.185  34.947  31.352  1.00  0.00     0.198 A 
ATOM     86  F   UNL A   1      45.545  32.762  31.944  1.00  0.00    -0.203 F 
ATOM     87  F   UNL A   1      45.636  36.821  28.296  1.00  0.00    -0.200 F 
ATOM     88  C   UNL A   1      46.211  35.982  30.428  1.00  0.00     0.200 A 
ATOM     89  F   UNL A   1      46.777  35.096  32.544  1.00  0.00    -0.200 F 
ATOM     90  F   UNL A   1      46.851  37.123  30.719  1.00  0.00    -0.200 F 
ENDBRANCH  57  80
ENDBRANCH  31  32
ENDBRANCH  24  26
ENDBRANCH  23  24
ENDBRANCH  22  23
ENDBRANCH  21  22
ENDBRANCH   1  21
TORSDOF 16
ENDMDL
MODEL 3
REMARK VINA RESULT:     -11.2      2.569      8.504
REMARK SMILES O=C(NCCOCC(=O)OCCOC(=O)c1ccc(-c2c3nc(c(-c4c(F)c(F)c(F)c(F)c4F)c4ccc([nH]4)c(-c4c(F)c(F)c(F)c(F)c4F)c4nc(c(-c5c(F)c(F)c(F)c(F)c5F)c5ccc2[nH]5)C=C4)C=C3)cc1)Nc1cccc(F)c1
REMARK SMILES IDX 10 1 8 2 9 3 7 4 6 5 5 6 4 7 3 8 1 9 2 10 79 11 80 14 81 15
REMARK SMILES IDX 86 16 82 17 84 18 83 19 85 20 11 21 12 22 13 23 14 24 15 25
REMARK SMILES IDX 16 26 17 27 78 28 18 29 77 30 19 31 20 32 21 33 71 34 22 35
REMARK SMILES IDX 76 36 70 37 72 38 23 39 75 40 69 41 68 42 24 44 56 45 36 46
REMARK SMILES IDX 55 47 37 48 40 49 54 50 73 51 38 52 39 53 53 55 74 56 41 57
REMARK SMILES IDX 25 58 26 59 34 60 27 61 28 62 32 63 35 64 29 65 30 66 33 67
REMARK SMILES IDX 31 68 57 69 58 70 66 71 59 72 60 73 64 74 67 75 61 76 62 77
REMARK SMILES IDX 65 78 63 79 42 80 43 81 51 82 44 83 45 84 49 85 52 86 46 87
REMARK SMILES IDX 47 88 50 89 48 90
REMARK H PARENT 3 12 79 13 72 43 40 54
REMARK Flexibility Score: inf
ROOT
ATOM      1  O   UNL A   1      34.582  33.722  28.124  1.00  0.00    -0.460 OA
ENDROOT
BRANCH   1   2
ATOM      2  C   UNL A   1      34.833  32.536  28.739  1.00  0.00     0.332 C 
ATOM      3  O   UNL A   1      34.494  32.271  29.890  1.00  0.00    -0.250 OA
BRANCH   2   4
ATOM      4  C   UNL A   1      35.492  31.475  27.828  1.00  0.00     0.282 C 
BRANCH   4   5
ATOM      5  O   UNL A   1      35.572  30.090  28.076  1.00  0.00    -0.368 OA
BRANCH   5   6
ATOM      6  C   UNL A   1      34.553  29.250  27.525  1.00  0.00     0.182 C 
BRANCH   6   7
ATOM      7  C   UNL A   1      34.324  29.353  26.002  1.00  0.00     0.146 C 
BRANCH   7   8
ATOM      8  N   UNL A   1      33.084  30.011  25.670  1.00  0.00    -0.336 N 
ATOM      9  O   UNL A   1      31.181  29.066  26.345  1.00  0.00    -0.249 OA
ATOM     10  C   UNL A   1      31.908  29.370  25.413  1.00  0.00     0.319 C 
ATOM     11  N   UNL A   1      31.575  29.421  24.080  1.00  0.00    -0.308 N 
ATOM     12  H   UNL A   1      33.088  30.994  25.624  1.00  0.00     0.165 HD
ATOM     13  H   UNL A   1      32.311  29.466  23.428  1.00  0.00     0.171 HD
BRANCH  11  14
ATOM     14  C   UNL A   1      30.256  29.414  23.576  1.00  0.00     0.045 A 
ATOM     15  C   UNL A   1      29.569  28.258  23.193  1.00  0.00     0.026 A 
ATOM     16  C   UNL A   1      29.567  30.628  23.607  1.00  0.00     0.065 A 
ATOM     17  C   UNL A   1      28.189  28.300  22.937  1.00  0.00     0.005 A 
ATOM     18  C   UNL A   1      28.186  30.648  23.412  1.00  0.00     0.125 A 
ATOM     19  C   UNL A   1      27.488  29.494  23.086  1.00  0.00     0.039 A 
ATOM     20  F   UNL A   1      27.514  31.784  23.637  1.00  0.00    -0.207 F 
ENDBRANCH  11  14
ENDBRANCH   7   8
ENDBRANCH   6   7
ENDBRANCH   5   6
ENDBRANCH   4   5
ENDBRANCH   2   4
ENDBRANCH   1   2
BRANCH   1  21
ATOM     21  C   UNL A   1      33.251  34.263  28.309  1.00  0.00     0.274 C 
BRANCH  21  22
ATOM     22  C   UNL A   1      33.215  35.383  29.366  1.00  0.00     0.275 C 
BRANCH  22  23
ATOM     23  O   UNL A   1      32.479  35.012  30.564  1.00  0.00    -0.458 OA
BRANCH  23  24
ATOM     24  C   UNL A   1      32.879  35.727  31.638  1.00  0.00     0.338 C 
ATOM     25  O   UNL A   1      32.458  36.832  31.917  1.00  0.00    -0.246 OA
BRANCH  24  26
ATOM     26  C   UNL A   1      33.916  35.140  32.506  1.00  0.00     0.060 A 
ATOM     27  C   UNL A   1      35.235  35.601  32.379  1.00  0.00     0.016 A 
ATOM     28  C   UNL A   1      33.677  33.881  33.042  1.00  0.00     0.016 A 
ATOM     29  C   UNL A   1      36.317  34.756  32.671  1.00  0.00     0.010 A 
ATOM     30  C   UNL A   1      34.759  33.044  33.345  1.00  0.00     0.010 A 
ATOM     31  C   UNL A   1      36.090  33.447  33.123  1.00  0.00    -0.014 A 
BRANCH  31  32
ATOM     32  C   UNL A   1      37.181  32.609  33.697  1.00  0.00     0.031 A 
ATOM     33  C   UNL A   1      37.931  32.908  34.966  1.00  0.00     0.074 A 
ATOM     34  C   UNL A   1      37.605  31.623  32.893  1.00  0.00     0.049 A 
ATOM     35  N   UNL A   1      39.146  32.577  35.335  1.00  0.00    -0.248 NA
ATOM     36  C   UNL A   1      37.225  33.695  35.966  1.00  0.00     0.031 C 
ATOM     37  C   UNL A   1      36.964  31.238  31.635  1.00  0.00     0.029 A 
ATOM     38  N   UNL A   1      38.710  30.825  32.977  1.00  0.00    -0.354 N 
ATOM     39  C   UNL A   1      39.364  33.210  36.564  1.00  0.00     0.074 A 
ATOM     40  C   UNL A   1      38.174  33.972  36.852  1.00  0.00     0.031 C 
ATOM     41  C   UNL A   1      37.725  30.327  31.023  1.00  0.00     0.029 A 
ATOM     42  C   UNL A   1      38.910  30.091  31.839  1.00  0.00     0.049 A 
ATOM     43  H   UNL A   1      39.296  30.782  33.766  1.00  0.00     0.167 HD
ATOM     44  C   UNL A   1      40.429  33.104  37.400  1.00  0.00     0.037 A 
ATOM     45  C   UNL A   1      39.958  29.340  31.471  1.00  0.00     0.037 A 
ATOM     46  C   UNL A   1      41.495  32.154  37.191  1.00  0.00     0.049 A 
ATOM     47  C   UNL A   1      41.094  29.179  32.428  1.00  0.00     0.074 A 
ATOM     48  C   UNL A   1      42.545  31.828  38.031  1.00  0.00     0.029 A 
ATOM     49  N   UNL A   1      41.606  31.339  36.074  1.00  0.00    -0.354 N 
ATOM     50  N   UNL A   1      41.305  29.786  33.570  1.00  0.00    -0.248 NA
ATOM     51  C   UNL A   1      42.120  28.199  32.062  1.00  0.00     0.031 C 
ATOM     52  C   UNL A   1      43.318  30.847  37.401  1.00  0.00     0.029 A 
ATOM     53  C   UNL A   1      42.718  30.525  36.193  1.00  0.00     0.049 A 
ATOM     54  H   UNL A   1      40.985  31.338  35.311  1.00  0.00     0.167 HD
ATOM     55  C   UNL A   1      42.477  29.247  34.074  1.00  0.00     0.074 A 
ATOM     56  C   UNL A   1      42.917  28.248  33.120  1.00  0.00     0.031 C 
ATOM     57  C   UNL A   1      43.132  29.547  35.222  1.00  0.00     0.037 A 
BRANCH  44  58
ATOM     58  C   UNL A   1      40.509  33.974  38.633  1.00  0.00     0.064 A 
ATOM     59  C   UNL A   1      41.153  35.221  38.648  1.00  0.00     0.173 A 
ATOM     60  C   UNL A   1      39.823  33.596  39.804  1.00  0.00     0.173 A 
ATOM     61  F   UNL A   1      41.810  35.655  37.560  1.00  0.00    -0.203 F 
ATOM     62  C   UNL A   1      41.141  36.033  39.783  1.00  0.00     0.198 A 
ATOM     63  C   UNL A   1      39.775  34.428  40.923  1.00  0.00     0.198 A 
ATOM     64  F   UNL A   1      39.163  32.429  39.853  1.00  0.00    -0.203 F 
ATOM     65  F   UNL A   1      41.802  37.199  39.779  1.00  0.00    -0.200 F 
ATOM     66  C   UNL A   1      40.442  35.641  40.915  1.00  0.00     0.200 A 
ATOM     67  F   UNL A   1      39.072  34.059  42.002  1.00  0.00    -0.200 F 
ATOM     68  F   UNL A   1      40.407  36.436  41.994  1.00  0.00    -0.200 F 
ENDBRANCH  44  58
BRANCH  45  69
ATOM     69  C   UNL A   1      39.899  28.655  30.162  1.00  0.00     0.064 A 
ATOM     70  C   UNL A   1      40.504  29.233  29.042  1.00  0.00     0.173 A 
ATOM     71  C   UNL A   1      39.373  27.361  30.039  1.00  0.00     0.173 A 
ATOM     72  F   UNL A   1      41.029  30.464  29.125  1.00  0.00    -0.203 F 
ATOM     73  C   UNL A   1      40.581  28.544  27.837  1.00  0.00     0.198 A 
ATOM     74  C   UNL A   1      39.475  26.661  28.840  1.00  0.00     0.198 A 
ATOM     75  F   UNL A   1      38.820  26.754  31.100  1.00  0.00    -0.203 F 
ATOM     76  F   UNL A   1      41.157  29.121  26.775  1.00  0.00    -0.200 F 
ATOM     77  C   UNL A   1      40.076  27.255  27.740  1.00  0.00     0.200 A 
ATOM     78  F   UNL A   1      39.020  25.404  28.759  1.00  0.00    -0.200 F 
ATOM     79  F   UNL A   1      40.181  26.579  26.587  1.00  0.00    -0.200 F 
ENDBRANCH  45  69
BRANCH  57  80
ATOM     80  C   UNL A   1      44.386  28.780  35.502  1.00  0.00     0.064 A 
ATOM     81  C   UNL A   1      44.354  27.580  36.226  1.00  0.00     0.173 A 
ATOM     82  C   UNL A   1      45.622  29.230  35.015  1.00  0.00     0.173 A 
ATOM     83  F   UNL A   1      43.195  27.120  36.721  1.00  0.00    -0.203 F 
ATOM     84  C   UNL A   1      45.524  26.873  36.481  1.00  0.00     0.198 A 
ATOM     85  C   UNL A   1      46.785  28.503  35.245  1.00  0.00     0.198 A 
ATOM     86  F   UNL A   1      45.699  30.368  34.310  1.00  0.00    -0.203 F 
ATOM     87  F   UNL A   1      45.480  25.757  37.221  1.00  0.00    -0.200 F 
ATOM     88  C   UNL A   1      46.735  27.330  35.985  1.00  0.00     0.200 A 
ATOM     89  F   UNL A   1      47.953  28.937  34.753  1.00  0.00    -0.200 F 
ATOM     90  F   UNL A   1      47.861  26.644  36.228  1.00  0.00    -0.200 F 
ENDBRANCH  57  80
ENDBRANCH  31  32
ENDBRANCH  24  26
ENDBRANCH  23  24
ENDBRANCH  22  23
ENDBRANCH  21  22
ENDBRANCH   1  21
TORSDOF 16
ENDMDL
