MODEL 1
REMARK VINA RESULT:     -12.3      0.000      0.000
REMARK SMILES COc1ccc(-c2c(C(=O)OCCOC(=O)c3ccc(-c4c5nc(c(-c6c(F)c(F)c(F)c(F)c6F)c6ccc([nH]6)c(-c6c(F)c(F)c(F)c(F)c6F)c6nc(c(-c7c(F)c(F)c(F)c(F)c7F)c7ccc4[nH]7)C=C6)C=C5)cc3)nnn2-c2ccc3c(c2)OCCO3)cc1
REMARK SMILES IDX 12 1 11 2 9 3 10 4 8 5 7 6 82 7 80 8 81 9 6 10 3 11 4 12
REMARK SMILES IDX 94 13 5 14 93 15 2 16 1 17 83 18 84 19 88 20 85 21 87 22
REMARK SMILES IDX 86 23 89 24 92 25 90 26 91 27 13 28 14 29 15 30 16 31 17 32
REMARK SMILES IDX 18 33 79 34 19 35 78 36 20 37 21 38 22 39 72 40 23 41 77 42
REMARK SMILES IDX 71 43 73 44 24 45 76 46 70 47 69 48 25 50 57 51 37 52 56 53
REMARK SMILES IDX 38 54 41 55 55 56 74 57 39 58 40 59 54 61 75 62 42 63 26 64
REMARK SMILES IDX 27 65 35 66 28 67 29 68 33 69 36 70 30 71 31 72 34 73 32 74
REMARK SMILES IDX 58 75 59 76 67 77 60 78 61 79 65 80 68 81 62 82 63 83 66 84
REMARK SMILES IDX 64 85 43 86 44 87 52 88 45 89 46 90 50 91 53 92 47 93 48 94
REMARK SMILES IDX 51 95 49 96
REMARK H PARENT 73 49 41 60
REMARK Flexibility Score: inf
ROOT
ATOM      1  C   UNL A   1      37.663  23.124  25.737  1.00  0.00     0.275 C 
ENDROOT
BRANCH   1   2
ATOM      2  O   UNL A   1      36.352  22.600  25.995  1.00  0.00    -0.457 OA
BRANCH   2   3
ATOM      3  C   UNL A   1      35.783  21.854  24.999  1.00  0.00     0.361 C 
ATOM      4  O   UNL A   1      35.767  20.626  25.000  1.00  0.00    -0.244 OA
BRANCH   3   5
ATOM      5  C   UNL A   1      35.112  22.657  23.985  1.00  0.00     0.198 A 
ATOM      6  C   UNL A   1      33.828  23.196  23.981  1.00  0.00     0.109 A 
ATOM      7  N   UNL A   1      33.793  23.913  22.778  1.00  0.00    -0.212 N 
ATOM      8  N   UNL A   1      35.732  22.951  22.792  1.00  0.00    -0.122 NA
ATOM      9  N   UNL A   1      34.922  23.703  22.067  1.00  0.00    -0.061 NA
BRANCH   6  10
ATOM     10  C   UNL A   1      32.765  23.196  24.999  1.00  0.00     0.003 A 
ATOM     11  C   UNL A   1      30.595  23.296  26.814  1.00  0.00     0.118 A 
ATOM     12  C   UNL A   1      30.692  22.266  25.882  1.00  0.00     0.047 A 
ATOM     13  C   UNL A   1      31.608  24.251  26.876  1.00  0.00     0.047 A 
ATOM     14  C   UNL A   1      31.769  22.210  24.991  1.00  0.00     0.014 A 
ATOM     15  C   UNL A   1      32.679  24.206  25.967  1.00  0.00     0.014 A 
BRANCH  11  16
ATOM     16  O   UNL A   1      29.496  23.244  27.626  1.00  0.00    -0.497 OA
ATOM     17  C   UNL A   1      28.564  22.203  27.352  1.00  0.00     0.278 C 
ENDBRANCH  11  16
ENDBRANCH   6  10
BRANCH   7  18
ATOM     18  C   UNL A   1      33.124  25.149  22.642  1.00  0.00     0.071 A 
ATOM     19  C   UNL A   1      31.734  25.169  22.491  1.00  0.00     0.032 A 
ATOM     20  C   UNL A   1      33.843  26.263  23.088  1.00  0.00     0.078 A 
ATOM     21  C   UNL A   1      31.034  26.288  22.939  1.00  0.00     0.052 A 
ATOM     22  C   UNL A   1      33.135  27.313  23.630  1.00  0.00     0.163 A 
ATOM     23  C   UNL A   1      31.736  27.297  23.600  1.00  0.00     0.161 A 
ATOM     24  O   UNL A   1      33.868  28.222  24.341  1.00  0.00    -0.486 OA
ATOM     25  O   UNL A   1      31.018  28.162  24.392  1.00  0.00    -0.486 OA
ATOM     26  C   UNL A   1      33.114  28.878  25.367  1.00  0.00     0.271 C 
ATOM     27  C   UNL A   1      31.749  28.251  25.627  1.00  0.00     0.271 C 
ENDBRANCH   7  18
ENDBRANCH   3   5
ENDBRANCH   2   3
ENDBRANCH   1   2
BRANCH   1  28
ATOM     28  C   UNL A   1      38.725  22.090  26.081  1.00  0.00     0.275 C 
BRANCH  28  29
ATOM     29  O   UNL A   1      39.752  22.666  26.884  1.00  0.00    -0.458 OA
BRANCH  29  30
ATOM     30  C   UNL A   1      40.957  22.778  26.280  1.00  0.00     0.338 C 
ATOM     31  O   UNL A   1      41.621  21.882  25.785  1.00  0.00    -0.246 OA
BRANCH  30  32
ATOM     32  C   UNL A   1      41.483  24.125  26.500  1.00  0.00     0.060 A 
ATOM     33  C   UNL A   1      42.458  24.280  27.492  1.00  0.00     0.016 A 
ATOM     34  C   UNL A   1      40.749  25.205  25.995  1.00  0.00     0.016 A 
ATOM     35  C   UNL A   1      42.556  25.499  28.126  1.00  0.00     0.010 A 
ATOM     36  C   UNL A   1      40.822  26.405  26.650  1.00  0.00     0.010 A 
ATOM     37  C   UNL A   1      41.670  26.511  27.752  1.00  0.00    -0.014 A 
BRANCH  37  38
ATOM     38  C   UNL A   1      41.649  27.740  28.514  1.00  0.00     0.031 A 
ATOM     39  C   UNL A   1      42.782  28.648  28.225  1.00  0.00     0.074 A 
ATOM     40  C   UNL A   1      40.567  28.070  29.245  1.00  0.00     0.049 A 
ATOM     41  N   UNL A   1      43.636  29.152  29.054  1.00  0.00    -0.248 NA
ATOM     42  C   UNL A   1      43.072  28.944  26.811  1.00  0.00     0.031 C 
ATOM     43  C   UNL A   1      39.278  27.373  29.310  1.00  0.00     0.029 A 
ATOM     44  N   UNL A   1      40.347  29.189  29.982  1.00  0.00    -0.354 N 
ATOM     45  C   UNL A   1      44.473  29.956  28.285  1.00  0.00     0.074 A 
ATOM     46  C   UNL A   1      44.193  29.654  26.910  1.00  0.00     0.031 C 
ATOM     47  C   UNL A   1      38.356  28.200  29.850  1.00  0.00     0.029 A 
ATOM     48  C   UNL A   1      39.010  29.433  30.258  1.00  0.00     0.049 A 
ATOM     49  H   UNL A   1      41.073  29.774  30.296  1.00  0.00     0.167 HD
ATOM     50  C   UNL A   1      45.158  30.993  28.837  1.00  0.00     0.037 A 
ATOM     51  C   UNL A   1      38.487  30.607  30.690  1.00  0.00     0.037 A 
ATOM     52  C   UNL A   1      45.279  30.837  30.262  1.00  0.00     0.049 A 
ATOM     53  C   UNL A   1      39.612  31.437  31.199  1.00  0.00     0.074 A 
ATOM     54  C   UNL A   1      45.842  29.878  31.082  1.00  0.00     0.029 A 
ATOM     55  N   UNL A   1      44.457  31.582  31.072  1.00  0.00    -0.354 N 
ATOM     56  N   UNL A   1      40.281  31.175  32.287  1.00  0.00    -0.248 NA
ATOM     57  C   UNL A   1      40.286  32.315  30.251  1.00  0.00     0.031 C 
ATOM     58  C   UNL A   1      44.975  29.797  32.210  1.00  0.00     0.029 A 
ATOM     59  C   UNL A   1      43.962  30.740  32.033  1.00  0.00     0.049 A 
ATOM     60  H   UNL A   1      44.260  32.542  30.978  1.00  0.00     0.167 HD
ATOM     61  C   UNL A   1      41.596  31.496  31.981  1.00  0.00     0.074 A 
ATOM     62  C   UNL A   1      41.525  32.278  30.751  1.00  0.00     0.031 C 
ATOM     63  C   UNL A   1      42.636  30.853  32.586  1.00  0.00     0.037 A 
BRANCH  50  64
ATOM     64  C   UNL A   1      45.375  32.316  28.144  1.00  0.00     0.064 A 
ATOM     65  C   UNL A   1      46.693  32.789  27.991  1.00  0.00     0.173 A 
ATOM     66  C   UNL A   1      44.358  33.268  27.908  1.00  0.00     0.173 A 
ATOM     67  F   UNL A   1      47.740  31.976  28.195  1.00  0.00    -0.203 F 
ATOM     68  C   UNL A   1      46.968  34.133  27.729  1.00  0.00     0.198 A 
ATOM     69  C   UNL A   1      44.636  34.594  27.588  1.00  0.00     0.198 A 
ATOM     70  F   UNL A   1      43.060  32.996  28.089  1.00  0.00    -0.203 F 
ATOM     71  F   UNL A   1      48.237  34.565  27.737  1.00  0.00    -0.200 F 
ATOM     72  C   UNL A   1      45.940  35.036  27.537  1.00  0.00     0.200 A 
ATOM     73  F   UNL A   1      43.623  35.457  27.420  1.00  0.00    -0.200 F 
ATOM     74  F   UNL A   1      46.199  36.338  27.358  1.00  0.00    -0.200 F 
ENDBRANCH  50  64
BRANCH  51  75
ATOM     75  C   UNL A   1      37.143  31.169  30.414  1.00  0.00     0.064 A 
ATOM     76  C   UNL A   1      36.297  31.571  31.461  1.00  0.00     0.173 A 
ATOM     77  C   UNL A   1      36.753  31.555  29.116  1.00  0.00     0.173 A 
ATOM     78  F   UNL A   1      36.616  31.288  32.732  1.00  0.00    -0.203 F 
ATOM     79  C   UNL A   1      35.141  32.324  31.224  1.00  0.00     0.198 A 
ATOM     80  C   UNL A   1      35.594  32.294  28.878  1.00  0.00     0.198 A 
ATOM     81  F   UNL A   1      37.536  31.304  28.057  1.00  0.00    -0.203 F 
ATOM     82  F   UNL A   1      34.389  32.737  32.254  1.00  0.00    -0.200 F 
ATOM     83  C   UNL A   1      34.794  32.688  29.933  1.00  0.00     0.200 A 
ATOM     84  F   UNL A   1      35.290  32.669  27.628  1.00  0.00    -0.200 F 
ATOM     85  F   UNL A   1      33.717  33.453  29.710  1.00  0.00    -0.200 F 
ENDBRANCH  51  75
BRANCH  63  86
ATOM     86  C   UNL A   1      42.325  29.980  33.767  1.00  0.00     0.064 A 
ATOM     87  C   UNL A   1      41.894  28.647  33.658  1.00  0.00     0.173 A 
ATOM     88  C   UNL A   1      42.627  30.458  35.049  1.00  0.00     0.173 A 
ATOM     89  F   UNL A   1      41.688  28.086  32.460  1.00  0.00    -0.203 F 
ATOM     90  C   UNL A   1      41.730  27.846  34.786  1.00  0.00     0.198 A 
ATOM     91  C   UNL A   1      42.499  29.644  36.169  1.00  0.00     0.198 A 
ATOM     92  F   UNL A   1      43.100  31.704  35.206  1.00  0.00    -0.203 F 
ATOM     93  F   UNL A   1      41.307  26.579  34.654  1.00  0.00    -0.200 F 
ATOM     94  C   UNL A   1      42.041  28.342  36.039  1.00  0.00     0.200 A 
ATOM     95  F   UNL A   1      42.850  30.112  37.376  1.00  0.00    -0.200 F 
ATOM     96  F   UNL A   1      41.927  27.558  37.120  1.00  0.00    -0.200 F 
ENDBRANCH  63  86
ENDBRANCH  37  38
ENDBRANCH  30  32
ENDBRANCH  29  30
ENDBRANCH  28  29
ENDBRANCH   1  28
TORSDOF 14
ENDMDL
MODEL 2
REMARK VINA RESULT:     -12.3      4.219      9.099
REMARK SMILES COc1ccc(-c2c(C(=O)OCCOC(=O)c3ccc(-c4c5nc(c(-c6c(F)c(F)c(F)c(F)c6F)c6ccc([nH]6)c(-c6c(F)c(F)c(F)c(F)c6F)c6nc(c(-c7c(F)c(F)c(F)c(F)c7F)c7ccc4[nH]7)C=C6)C=C5)cc3)nnn2-c2ccc3c(c2)OCCO3)cc1
REMARK SMILES IDX 12 1 11 2 9 3 10 4 8 5 7 6 82 7 80 8 81 9 6 10 3 11 4 12
REMARK SMILES IDX 94 13 5 14 93 15 2 16 1 17 83 18 84 19 88 20 85 21 87 22
REMARK SMILES IDX 86 23 89 24 92 25 90 26 91 27 13 28 14 29 15 30 16 31 17 32
REMARK SMILES IDX 18 33 79 34 19 35 78 36 20 37 21 38 22 39 72 40 23 41 77 42
REMARK SMILES IDX 71 43 73 44 24 45 76 46 70 47 69 48 25 50 57 51 37 52 56 53
REMARK SMILES IDX 38 54 41 55 55 56 74 57 39 58 40 59 54 61 75 62 42 63 26 64
REMARK SMILES IDX 27 65 35 66 28 67 29 68 33 69 36 70 30 71 31 72 34 73 32 74
REMARK SMILES IDX 58 75 59 76 67 77 60 78 61 79 65 80 68 81 62 82 63 83 66 84
REMARK SMILES IDX 64 85 43 86 44 87 52 88 45 89 46 90 50 91 53 92 47 93 48 94
REMARK SMILES IDX 51 95 49 96
REMARK H PARENT 73 49 41 60
REMARK Flexibility Score: inf
ROOT
ATOM      1  C   UNL A   1      34.610  30.037  27.229  1.00  0.00     0.275 C 
ENDROOT
BRANCH   1   2
ATOM      2  O   UNL A   1      33.285  30.226  26.714  1.00  0.00    -0.457 OA
BRANCH   2   3
ATOM      3  C   UNL A   1      32.916  29.432  25.662  1.00  0.00     0.361 C 
ATOM      4  O   UNL A   1      33.260  29.644  24.503  1.00  0.00    -0.244 OA
BRANCH   3   5
ATOM      5  C   UNL A   1      32.158  28.254  26.063  1.00  0.00     0.198 A 
ATOM      6  C   UNL A   1      31.867  27.095  25.348  1.00  0.00     0.109 A 
ATOM      7  N   UNL A   1      31.173  26.316  26.283  1.00  0.00    -0.212 N 
ATOM      8  N   UNL A   1      31.557  28.188  27.300  1.00  0.00    -0.122 NA
ATOM      9  N   UNL A   1      30.957  27.016  27.418  1.00  0.00    -0.061 NA
BRANCH   6  10
ATOM     10  C   UNL A   1      32.271  26.648  24.005  1.00  0.00     0.003 A 
ATOM     11  C   UNL A   1      32.954  25.601  21.466  1.00  0.00     0.118 A 
ATOM     12  C   UNL A   1      31.705  26.180  21.681  1.00  0.00     0.047 A 
ATOM     13  C   UNL A   1      33.883  25.589  22.504  1.00  0.00     0.047 A 
ATOM     14  C   UNL A   1      31.370  26.707  22.932  1.00  0.00     0.014 A 
ATOM     15  C   UNL A   1      33.539  26.100  23.767  1.00  0.00     0.014 A 
BRANCH  11  16
ATOM     16  O   UNL A   1      33.161  25.118  20.203  1.00  0.00    -0.497 OA
ATOM     17  C   UNL A   1      32.199  25.495  19.223  1.00  0.00     0.278 C 
ENDBRANCH  11  16
ENDBRANCH   6  10
BRANCH   7  18
ATOM     18  C   UNL A   1      31.312  24.914  26.365  1.00  0.00     0.071 A 
ATOM     19  C   UNL A   1      30.531  24.092  25.547  1.00  0.00     0.032 A 
ATOM     20  C   UNL A   1      32.506  24.471  26.945  1.00  0.00     0.078 A 
ATOM     21  C   UNL A   1      31.034  22.845  25.182  1.00  0.00     0.052 A 
ATOM     22  C   UNL A   1      33.044  23.287  26.490  1.00  0.00     0.163 A 
ATOM     23  C   UNL A   1      32.331  22.507  25.574  1.00  0.00     0.161 A 
ATOM     24  O   UNL A   1      34.347  23.055  26.834  1.00  0.00    -0.486 OA
ATOM     25  O   UNL A   1      32.965  21.501  24.882  1.00  0.00    -0.486 OA
ATOM     26  C   UNL A   1      35.041  22.230  25.891  1.00  0.00     0.271 C 
ATOM     27  C   UNL A   1      34.280  22.004  24.589  1.00  0.00     0.271 C 
ENDBRANCH   7  18
ENDBRANCH   3   5
ENDBRANCH   2   3
ENDBRANCH   1   2
BRANCH   1  28
ATOM     28  C   UNL A   1      35.080  31.290  27.955  1.00  0.00     0.275 C 
BRANCH  28  29
ATOM     29  O   UNL A   1      36.504  31.339  28.011  1.00  0.00    -0.458 OA
BRANCH  29  30
ATOM     30  C   UNL A   1      37.066  30.568  28.968  1.00  0.00     0.338 C 
ATOM     31  O   UNL A   1      36.780  30.535  30.154  1.00  0.00    -0.246 OA
BRANCH  30  32
ATOM     32  C   UNL A   1      38.256  29.914  28.423  1.00  0.00     0.060 A 
ATOM     33  C   UNL A   1      38.138  28.570  28.053  1.00  0.00     0.016 A 
ATOM     34  C   UNL A   1      39.497  30.525  28.641  1.00  0.00     0.016 A 
ATOM     35  C   UNL A   1      39.265  27.778  28.098  1.00  0.00     0.010 A 
ATOM     36  C   UNL A   1      40.609  29.731  28.720  1.00  0.00     0.010 A 
ATOM     37  C   UNL A   1      40.462  28.358  28.520  1.00  0.00    -0.014 A 
BRANCH  37  38
ATOM     38  C   UNL A   1      41.615  27.511  28.729  1.00  0.00     0.031 A 
ATOM     39  C   UNL A   1      42.212  27.627  30.079  1.00  0.00     0.074 A 
ATOM     40  C   UNL A   1      41.944  26.571  27.822  1.00  0.00     0.049 A 
ATOM     41  N   UNL A   1      43.432  27.911  30.394  1.00  0.00    -0.248 NA
ATOM     42  C   UNL A   1      41.302  27.525  31.234  1.00  0.00     0.031 C 
ATOM     43  C   UNL A   1      41.200  26.182  26.620  1.00  0.00     0.029 A 
ATOM     44  N   UNL A   1      42.953  25.664  27.864  1.00  0.00    -0.354 N 
ATOM     45  C   UNL A   1      43.480  27.865  31.784  1.00  0.00     0.074 A 
ATOM     46  C   UNL A   1      42.122  27.798  32.246  1.00  0.00     0.031 C 
ATOM     47  C   UNL A   1      41.653  24.983  26.189  1.00  0.00     0.029 A 
ATOM     48  C   UNL A   1      42.776  24.579  27.019  1.00  0.00     0.049 A 
ATOM     49  H   UNL A   1      43.742  25.767  28.443  1.00  0.00     0.167 HD
ATOM     50  C   UNL A   1      44.646  27.632  32.443  1.00  0.00     0.037 A 
ATOM     51  C   UNL A   1      43.447  23.402  27.082  1.00  0.00     0.037 A 
ATOM     52  C   UNL A   1      45.782  27.920  31.609  1.00  0.00     0.049 A 
ATOM     53  C   UNL A   1      44.654  23.619  27.924  1.00  0.00     0.074 A 
ATOM     54  C   UNL A   1      46.240  29.052  30.962  1.00  0.00     0.029 A 
ATOM     55  N   UNL A   1      46.456  26.868  31.040  1.00  0.00    -0.354 N 
ATOM     56  N   UNL A   1      45.677  24.341  27.562  1.00  0.00    -0.248 NA
ATOM     57  C   UNL A   1      44.526  23.396  29.358  1.00  0.00     0.031 C 
ATOM     58  C   UNL A   1      46.793  28.581  29.736  1.00  0.00     0.029 A 
ATOM     59  C   UNL A   1      46.679  27.191  29.727  1.00  0.00     0.049 A 
ATOM     60  H   UNL A   1      46.728  26.036  31.492  1.00  0.00     0.167 HD
ATOM     61  C   UNL A   1      46.070  25.003  28.717  1.00  0.00     0.074 A 
ATOM     62  C   UNL A   1      45.388  24.313  29.807  1.00  0.00     0.031 C 
ATOM     63  C   UNL A   1      46.674  26.225  28.656  1.00  0.00     0.037 A 
BRANCH  50  64
ATOM     64  C   UNL A   1      44.748  26.789  33.691  1.00  0.00     0.064 A 
ATOM     65  C   UNL A   1      44.295  25.456  33.645  1.00  0.00     0.173 A 
ATOM     66  C   UNL A   1      44.972  27.309  34.987  1.00  0.00     0.173 A 
ATOM     67  F   UNL A   1      44.043  24.860  32.469  1.00  0.00    -0.203 F 
ATOM     68  C   UNL A   1      43.990  24.740  34.804  1.00  0.00     0.198 A 
ATOM     69  C   UNL A   1      44.722  26.569  36.140  1.00  0.00     0.198 A 
ATOM     70  F   UNL A   1      45.327  28.580  35.202  1.00  0.00    -0.203 F 
ATOM     71  F   UNL A   1      43.425  23.529  34.706  1.00  0.00    -0.200 F 
ATOM     72  C   UNL A   1      44.195  25.301  36.051  1.00  0.00     0.200 A 
ATOM     73  F   UNL A   1      44.916  27.138  37.340  1.00  0.00    -0.200 F 
ATOM     74  F   UNL A   1      43.835  24.645  37.161  1.00  0.00    -0.200 F 
ENDBRANCH  50  64
BRANCH  51  75
ATOM     75  C   UNL A   1      42.959  22.048  26.723  1.00  0.00     0.064 A 
ATOM     76  C   UNL A   1      43.584  21.297  25.714  1.00  0.00     0.173 A 
ATOM     77  C   UNL A   1      42.026  21.360  27.524  1.00  0.00     0.173 A 
ATOM     78  F   UNL A   1      44.520  21.860  24.936  1.00  0.00    -0.203 F 
ATOM     79  C   UNL A   1      43.304  19.938  25.529  1.00  0.00     0.198 A 
ATOM     80  C   UNL A   1      41.737  20.009  27.330  1.00  0.00     0.198 A 
ATOM     81  F   UNL A   1      41.442  21.957  28.572  1.00  0.00    -0.203 F 
ATOM     82  F   UNL A   1      43.963  19.241  24.593  1.00  0.00    -0.200 F 
ATOM     83  C   UNL A   1      42.384  19.295  26.340  1.00  0.00     0.200 A 
ATOM     84  F   UNL A   1      40.870  19.392  28.146  1.00  0.00    -0.200 F 
ATOM     85  F   UNL A   1      42.154  17.983  26.198  1.00  0.00    -0.200 F 
ENDBRANCH  51  75
BRANCH  63  86
ATOM     86  C   UNL A   1      47.132  26.713  27.312  1.00  0.00     0.064 A 
ATOM     87  C   UNL A   1      48.410  26.459  26.787  1.00  0.00     0.173 A 
ATOM     88  C   UNL A   1      46.194  27.318  26.466  1.00  0.00     0.173 A 
ATOM     89  F   UNL A   1      49.327  25.790  27.497  1.00  0.00    -0.203 F 
ATOM     90  C   UNL A   1      48.746  26.836  25.488  1.00  0.00     0.198 A 
ATOM     91  C   UNL A   1      46.520  27.658  25.157  1.00  0.00     0.198 A 
ATOM     92  F   UNL A   1      44.940  27.528  26.895  1.00  0.00    -0.203 F 
ATOM     93  F   UNL A   1      49.977  26.590  25.015  1.00  0.00    -0.200 F 
ATOM     94  C   UNL A   1      47.797  27.427  24.672  1.00  0.00     0.200 A 
ATOM     95  F   UNL A   1      45.584  28.182  24.353  1.00  0.00    -0.200 F 
ATOM     96  F   UNL A   1      48.105  27.748  23.407  1.00  0.00    -0.200 F 
ENDBRANCH  63  86
ENDBRANCH  37  38
ENDBRANCH  30  32
ENDBRANCH  29  30
ENDBRANCH  28  29
ENDBRANCH   1  28
TORSDOF 14
ENDMDL
MODEL 3
REMARK VINA RESULT:     -12.2      3.916      8.940
REMARK SMILES COc1ccc(-c2c(C(=O)OCCOC(=O)c3ccc(-c4c5nc(c(-c6c(F)c(F)c(F)c(F)c6F)c6ccc([nH]6)c(-c6c(F)c(F)c(F)c(F)c6F)c6nc(c(-c7c(F)c(F)c(F)c(F)c7F)c7ccc4[nH]7)C=C6)C=C5)cc3)nnn2-c2ccc3c(c2)OCCO3)cc1
REMARK SMILES IDX 12 1 11 2 9 3 10 4 8 5 7 6 82 7 80 8 81 9 6 10 3 11 4 12
REMARK SMILES IDX 94 13 5 14 93 15 2 16 1 17 83 18 84 19 88 20 85 21 87 22
REMARK SMILES IDX 86 23 89 24 92 25 90 26 91 27 13 28 14 29 15 30 16 31 17 32
REMARK SMILES IDX 18 33 79 34 19 35 78 36 20 37 21 38 22 39 72 40 23 41 77 42
REMARK SMILES IDX 71 43 73 44 24 45 76 46 70 47 69 48 25 50 57 51 37 52 56 53
REMARK SMILES IDX 38 54 41 55 55 56 74 57 39 58 40 59 54 61 75 62 42 63 26 64
REMARK SMILES IDX 27 65 35 66 28 67 29 68 33 69 36 70 30 71 31 72 34 73 32 74
REMARK SMILES IDX 58 75 59 76 67 77 60 78 61 79 65 80 68 81 62 82 63 83 66 84
REMARK SMILES IDX 64 85 43 86 44 87 52 88 45 89 46 90 50 91 53 92 47 93 48 94
REMARK SMILES IDX 51 95 49 96
REMARK H PARENT 73 49 41 60
REMARK Flexibility Score: inf
ROOT
ATOM      1  C   UNL A   1      34.433  30.246  27.257  1.00  0.00     0.275 C 
ENDROOT
BRANCH   1   2
ATOM      2  O   UNL A   1      33.107  30.290  26.709  1.00  0.00    -0.457 OA
BRANCH   2   3
ATOM      3  C   UNL A   1      32.846  29.444  25.666  1.00  0.00     0.361 C 
ATOM      4  O   UNL A   1      33.260  29.631  24.525  1.00  0.00    -0.244 OA
BRANCH   3   5
ATOM      5  C   UNL A   1      32.112  28.248  26.059  1.00  0.00     0.198 A 
ATOM      6  C   UNL A   1      31.832  27.095  25.331  1.00  0.00     0.109 A 
ATOM      7  N   UNL A   1      31.162  26.291  26.262  1.00  0.00    -0.212 N 
ATOM      8  N   UNL A   1      31.527  28.155  27.301  1.00  0.00    -0.122 NA
ATOM      9  N   UNL A   1      30.948  26.971  27.409  1.00  0.00    -0.061 NA
BRANCH   6  10
ATOM     10  C   UNL A   1      32.228  26.674  23.976  1.00  0.00     0.003 A 
ATOM     11  C   UNL A   1      32.915  25.668  21.422  1.00  0.00     0.118 A 
ATOM     12  C   UNL A   1      31.626  26.131  21.678  1.00  0.00     0.047 A 
ATOM     13  C   UNL A   1      33.878  25.753  22.426  1.00  0.00     0.047 A 
ATOM     14  C   UNL A   1      31.289  26.638  22.937  1.00  0.00     0.014 A 
ATOM     15  C   UNL A   1      33.532  26.242  23.697  1.00  0.00     0.014 A 
BRANCH  11  16
ATOM     16  O   UNL A   1      33.121  25.194  20.156  1.00  0.00    -0.497 OA
ATOM     17  C   UNL A   1      32.159  25.578  19.179  1.00  0.00     0.278 C 
ENDBRANCH  11  16
ENDBRANCH   6  10
BRANCH   7  18
ATOM     18  C   UNL A   1      31.325  24.891  26.323  1.00  0.00     0.071 A 
ATOM     19  C   UNL A   1      30.588  24.071  25.463  1.00  0.00     0.032 A 
ATOM     20  C   UNL A   1      32.507  24.459  26.935  1.00  0.00     0.078 A 
ATOM     21  C   UNL A   1      31.127  22.840  25.093  1.00  0.00     0.052 A 
ATOM     22  C   UNL A   1      33.083  23.294  26.476  1.00  0.00     0.163 A 
ATOM     23  C   UNL A   1      32.417  22.518  25.522  1.00  0.00     0.161 A 
ATOM     24  O   UNL A   1      34.378  23.080  26.859  1.00  0.00    -0.486 OA
ATOM     25  O   UNL A   1      33.093  21.539  24.833  1.00  0.00    -0.486 OA
ATOM     26  C   UNL A   1      35.120  22.286  25.925  1.00  0.00     0.271 C 
ATOM     27  C   UNL A   1      34.407  22.072  24.594  1.00  0.00     0.271 C 
ENDBRANCH   7  18
ENDBRANCH   3   5
ENDBRANCH   2   3
ENDBRANCH   1   2
BRANCH   1  28
ATOM     28  C   UNL A   1      34.759  31.555  27.961  1.00  0.00     0.275 C 
BRANCH  28  29
ATOM     29  O   UNL A   1      36.165  31.688  28.158  1.00  0.00    -0.458 OA
BRANCH  29  30
ATOM     30  C   UNL A   1      36.667  30.981  29.196  1.00  0.00     0.338 C 
ATOM     31  O   UNL A   1      36.285  30.996  30.354  1.00  0.00    -0.246 OA
BRANCH  30  32
ATOM     32  C   UNL A   1      37.914  30.339  28.781  1.00  0.00     0.060 A 
ATOM     33  C   UNL A   1      37.836  29.020  28.320  1.00  0.00     0.016 A 
ATOM     34  C   UNL A   1      39.119  30.915  29.203  1.00  0.00     0.016 A 
ATOM     35  C   UNL A   1      38.938  28.208  28.473  1.00  0.00     0.010 A 
ATOM     36  C   UNL A   1      40.202  30.098  29.388  1.00  0.00     0.010 A 
ATOM     37  C   UNL A   1      40.072  28.742  29.088  1.00  0.00    -0.014 A 
BRANCH  37  38
ATOM     38  C   UNL A   1      41.176  27.864  29.403  1.00  0.00     0.031 A 
ATOM     39  C   UNL A   1      41.536  27.840  30.840  1.00  0.00     0.074 A 
ATOM     40  C   UNL A   1      41.657  27.013  28.477  1.00  0.00     0.049 A 
ATOM     41  N   UNL A   1      42.685  28.077  31.381  1.00  0.00    -0.248 NA
ATOM     42  C   UNL A   1      40.446  27.636  31.809  1.00  0.00     0.031 C 
ATOM     43  C   UNL A   1      41.127  26.752  27.134  1.00  0.00     0.029 A 
ATOM     44  N   UNL A   1      42.648  26.093  28.598  1.00  0.00    -0.354 N 
ATOM     45  C   UNL A   1      42.499  27.894  32.749  1.00  0.00     0.074 A 
ATOM     46  C   UNL A   1      41.083  27.800  32.967  1.00  0.00     0.031 C 
ATOM     47  C   UNL A   1      41.652  25.596  26.670  1.00  0.00     0.029 A 
ATOM     48  C   UNL A   1      42.621  25.099  27.632  1.00  0.00     0.049 A 
ATOM     49  H   UNL A   1      43.328  26.130  29.309  1.00  0.00     0.167 HD
ATOM     50  C   UNL A   1      43.538  27.584  33.568  1.00  0.00     0.037 A 
ATOM     51  C   UNL A   1      43.276  23.913  27.691  1.00  0.00     0.037 A 
ATOM     52  C   UNL A   1      44.797  27.938  32.968  1.00  0.00     0.049 A 
ATOM     53  C   UNL A   1      44.324  24.032  28.741  1.00  0.00     0.074 A 
ATOM     54  C   UNL A   1      45.353  29.122  32.522  1.00  0.00     0.029 A 
ATOM     55  N   UNL A   1      45.562  26.938  32.420  1.00  0.00    -0.354 N 
ATOM     56  N   UNL A   1      45.390  24.773  28.629  1.00  0.00    -0.248 NA
ATOM     57  C   UNL A   1      43.957  23.671  30.105  1.00  0.00     0.031 C 
ATOM     58  C   UNL A   1      46.106  28.766  31.366  1.00  0.00     0.029 A 
ATOM     59  C   UNL A   1      46.001  27.385  31.201  1.00  0.00     0.049 A 
ATOM     60  H   UNL A   1      45.758  26.063  32.827  1.00  0.00     0.167 HD
ATOM     61  C   UNL A   1      45.580  25.314  29.893  1.00  0.00     0.074 A 
ATOM     62  C   UNL A   1      44.727  24.530  30.780  1.00  0.00     0.031 C 
ATOM     63  C   UNL A   1      46.180  26.529  30.055  1.00  0.00     0.037 A 
BRANCH  50  64
ATOM     64  C   UNL A   1      43.432  26.622  34.726  1.00  0.00     0.064 A 
ATOM     65  C   UNL A   1      43.627  27.113  36.032  1.00  0.00     0.173 A 
ATOM     66  C   UNL A   1      43.461  25.215  34.597  1.00  0.00     0.173 A 
ATOM     67  F   UNL A   1      43.626  28.433  36.273  1.00  0.00    -0.203 F 
ATOM     68  C   UNL A   1      43.931  26.267  37.101  1.00  0.00     0.198 A 
ATOM     69  C   UNL A   1      43.706  24.371  35.678  1.00  0.00     0.198 A 
ATOM     70  F   UNL A   1      43.371  24.597  33.414  1.00  0.00    -0.203 F 
ATOM     71  F   UNL A   1      44.251  26.791  38.291  1.00  0.00    -0.200 F 
ATOM     72  C   UNL A   1      43.979  24.897  36.921  1.00  0.00     0.200 A 
ATOM     73  F   UNL A   1      43.762  23.046  35.478  1.00  0.00    -0.200 F 
ATOM     74  F   UNL A   1      44.342  24.090  37.925  1.00  0.00    -0.200 F 
ENDBRANCH  50  64
BRANCH  51  75
ATOM     75  C   UNL A   1      42.862  22.607  27.124  1.00  0.00     0.064 A 
ATOM     76  C   UNL A   1      43.603  21.994  26.100  1.00  0.00     0.173 A 
ATOM     77  C   UNL A   1      41.873  21.813  27.737  1.00  0.00     0.173 A 
ATOM     78  F   UNL A   1      44.596  22.661  25.495  1.00  0.00    -0.203 F 
ATOM     79  C   UNL A   1      43.378  20.664  25.725  1.00  0.00     0.198 A 
ATOM     80  C   UNL A   1      41.639  20.492  27.353  1.00  0.00     0.198 A 
ATOM     81  F   UNL A   1      41.172  22.269  28.785  1.00  0.00    -0.203 F 
ATOM     82  F   UNL A   1      44.144  20.096  24.784  1.00  0.00    -0.200 F 
ATOM     83  C   UNL A   1      42.399  19.914  26.356  1.00  0.00     0.200 A 
ATOM     84  F   UNL A   1      40.712  19.768  27.997  1.00  0.00    -0.200 F 
ATOM     85  F   UNL A   1      42.218  18.626  26.034  1.00  0.00    -0.200 F 
ENDBRANCH  51  75
BRANCH  63  86
ATOM     86  C   UNL A   1      46.856  27.139  28.862  1.00  0.00     0.064 A 
ATOM     87  C   UNL A   1      48.184  26.865  28.494  1.00  0.00     0.173 A 
ATOM     88  C   UNL A   1      46.085  27.901  27.974  1.00  0.00     0.173 A 
ATOM     89  F   UNL A   1      48.951  26.057  29.237  1.00  0.00    -0.203 F 
ATOM     90  C   UNL A   1      48.727  27.369  27.314  1.00  0.00     0.198 A 
ATOM     91  C   UNL A   1      46.617  28.370  26.778  1.00  0.00     0.198 A 
ATOM     92  F   UNL A   1      44.793  28.143  28.245  1.00  0.00    -0.203 F 
ATOM     93  F   UNL A   1      50.001  27.099  26.992  1.00  0.00    -0.200 F 
ATOM     94  C   UNL A   1      47.940  28.114  26.453  1.00  0.00     0.200 A 
ATOM     95  F   UNL A   1      45.838  29.047  25.922  1.00  0.00    -0.200 F 
ATOM     96  F   UNL A   1      48.447  28.560  25.295  1.00  0.00    -0.200 F 
ENDBRANCH  63  86
ENDBRANCH  37  38
ENDBRANCH  30  32
ENDBRANCH  29  30
ENDBRANCH  28  29
ENDBRANCH   1  28
TORSDOF 14
ENDMDL
