MODEL 1
REMARK VINA RESULT:     -10.1      0.000      0.000
REMARK SMILES O=C(OCCOC(=O)c1cc(Cl)cc(Cl)c1O)c1ccc(-c2c3nc(c(-c4c(F)c(F)c(F)c(F)c4F)c4ccc([nH]4)c(-c4c(F)c(F)c(F)c(F)c4F)c4nc(c(-c5c(F)c(F)c(F)c(F)c5F)c5ccc2[nH]5)C=C4)C=C3)cc1
REMARK SMILES IDX 4 1 3 2 2 3 1 4 18 5 19 6 80 7 20 8 79 9 21 10 22 11 23 12
REMARK SMILES IDX 73 13 24 14 78 15 72 16 74 17 25 18 77 19 71 20 70 21 26 23
REMARK SMILES IDX 58 24 38 25 57 26 39 27 42 28 56 29 75 30 40 31 41 32 55 34
REMARK SMILES IDX 76 35 43 36 27 37 28 38 36 39 29 40 30 41 34 42 37 43 31 44
REMARK SMILES IDX 32 45 35 46 33 47 59 48 60 49 68 50 61 51 62 52 66 53 69 54
REMARK SMILES IDX 63 55 64 56 67 57 65 58 44 59 45 60 53 61 46 62 47 63 51 64
REMARK SMILES IDX 54 65 48 66 49 67 52 68 50 69 5 70 6 71 7 72 8 73 9 74 10 75
REMARK SMILES IDX 16 76 11 77 14 78 12 79 13 80 15 81 17 82
REMARK H PARENT 74 22 42 33 17 83
REMARK Flexibility Score: inf
ROOT
ATOM      1  C   UNL A   1      34.603  33.121  28.328  1.00  0.00     0.275 C 
ENDROOT
BRANCH   1   2
ATOM      2  O   UNL A   1      33.908  31.923  27.939  1.00  0.00    -0.458 OA
BRANCH   2   3
ATOM      3  C   UNL A   1      34.349  30.653  27.788  1.00  0.00     0.338 C 
ATOM      4  O   UNL A   1      33.561  29.800  27.384  1.00  0.00    -0.246 OA
BRANCH   3   5
ATOM      5  C   UNL A   1      35.704  30.196  28.225  1.00  0.00     0.060 A 
ATOM      6  C   UNL A   1      36.038  29.743  29.501  1.00  0.00     0.016 A 
ATOM      7  C   UNL A   1      36.724  30.233  27.254  1.00  0.00     0.016 A 
ATOM      8  C   UNL A   1      37.314  29.256  29.784  1.00  0.00     0.010 A 
ATOM      9  C   UNL A   1      38.003  29.739  27.525  1.00  0.00     0.010 A 
ATOM     10  C   UNL A   1      38.302  29.248  28.800  1.00  0.00    -0.014 A 
BRANCH  10  11
ATOM     11  C   UNL A   1      39.683  28.891  29.179  1.00  0.00     0.031 A 
ATOM     12  C   UNL A   1      40.457  29.859  30.018  1.00  0.00     0.074 A 
ATOM     13  C   UNL A   1      40.198  27.690  28.863  1.00  0.00     0.049 A 
ATOM     14  N   UNL A   1      41.656  29.740  30.523  1.00  0.00    -0.248 NA
ATOM     15  C   UNL A   1      39.775  31.116  30.368  1.00  0.00     0.031 C 
ATOM     16  C   UNL A   1      39.488  26.629  28.153  1.00  0.00     0.029 A 
ATOM     17  N   UNL A   1      41.440  27.159  29.096  1.00  0.00    -0.354 N 
ATOM     18  C   UNL A   1      41.852  30.882  31.283  1.00  0.00     0.074 A 
ATOM     19  C   UNL A   1      40.685  31.719  31.115  1.00  0.00     0.031 C 
ATOM     20  C   UNL A   1      40.325  25.598  27.950  1.00  0.00     0.029 A 
ATOM     21  C   UNL A   1      41.629  25.933  28.506  1.00  0.00     0.049 A 
ATOM     22  H   UNL A   1      42.130  27.611  29.632  1.00  0.00     0.167 HD
ATOM     23  C   UNL A   1      42.899  31.184  32.083  1.00  0.00     0.037 A 
ATOM     24  C   UNL A   1      42.740  25.178  28.410  1.00  0.00     0.037 A 
ATOM     25  C   UNL A   1      44.065  30.354  32.216  1.00  0.00     0.049 A 
ATOM     26  C   UNL A   1      43.966  25.621  29.157  1.00  0.00     0.074 A 
ATOM     27  C   UNL A   1      45.190  30.562  32.989  1.00  0.00     0.029 A 
ATOM     28  N   UNL A   1      44.257  29.161  31.532  1.00  0.00    -0.354 N 
ATOM     29  N   UNL A   1      44.133  26.683  29.907  1.00  0.00    -0.248 NA
ATOM     30  C   UNL A   1      45.141  24.744  29.085  1.00  0.00     0.031 C 
ATOM     31  C   UNL A   1      46.092  29.525  32.725  1.00  0.00     0.029 A 
ATOM     32  C   UNL A   1      45.503  28.638  31.837  1.00  0.00     0.049 A 
ATOM     33  H   UNL A   1      43.606  28.747  30.921  1.00  0.00     0.167 HD
ATOM     34  C   UNL A   1      45.408  26.578  30.443  1.00  0.00     0.074 A 
ATOM     35  C   UNL A   1      45.974  25.349  29.920  1.00  0.00     0.031 C 
ATOM     36  C   UNL A   1      46.041  27.408  31.306  1.00  0.00     0.037 A 
BRANCH  23  37
ATOM     37  C   UNL A   1      42.822  32.476  32.839  1.00  0.00     0.064 A 
ATOM     38  C   UNL A   1      42.251  32.546  34.120  1.00  0.00     0.173 A 
ATOM     39  C   UNL A   1      43.296  33.663  32.266  1.00  0.00     0.173 A 
ATOM     40  F   UNL A   1      41.758  31.441  34.702  1.00  0.00    -0.203 F 
ATOM     41  C   UNL A   1      42.124  33.764  34.783  1.00  0.00     0.198 A 
ATOM     42  C   UNL A   1      43.195  34.876  32.944  1.00  0.00     0.198 A 
ATOM     43  F   UNL A   1      43.845  33.652  31.043  1.00  0.00    -0.203 F 
ATOM     44  F   UNL A   1      41.518  33.816  35.977  1.00  0.00    -0.200 F 
ATOM     45  C   UNL A   1      42.601  34.926  34.196  1.00  0.00     0.200 A 
ATOM     46  F   UNL A   1      43.660  35.998  32.377  1.00  0.00    -0.200 F 
ATOM     47  F   UNL A   1      42.474  36.100  34.831  1.00  0.00    -0.200 F 
ENDBRANCH  23  37
BRANCH  24  48
ATOM     48  C   UNL A   1      42.738  23.947  27.578  1.00  0.00     0.064 A 
ATOM     49  C   UNL A   1      42.419  22.694  28.117  1.00  0.00     0.173 A 
ATOM     50  C   UNL A   1      43.079  24.004  26.217  1.00  0.00     0.173 A 
ATOM     51  F   UNL A   1      42.107  22.585  29.416  1.00  0.00    -0.203 F 
ATOM     52  C   UNL A   1      42.459  21.542  27.332  1.00  0.00     0.198 A 
ATOM     53  C   UNL A   1      43.097  22.855  25.428  1.00  0.00     0.198 A 
ATOM     54  F   UNL A   1      43.400  25.178  25.655  1.00  0.00    -0.203 F 
ATOM     55  F   UNL A   1      42.191  20.350  27.883  1.00  0.00    -0.200 F 
ATOM     56  C   UNL A   1      42.794  21.623  25.989  1.00  0.00     0.200 A 
ATOM     57  F   UNL A   1      43.417  22.938  24.130  1.00  0.00    -0.200 F 
ATOM     58  F   UNL A   1      42.835  20.515  25.238  1.00  0.00    -0.200 F 
ENDBRANCH  24  48
BRANCH  36  59
ATOM     59  C   UNL A   1      47.400  26.990  31.783  1.00  0.00     0.064 A 
ATOM     60  C   UNL A   1      48.572  27.441  31.164  1.00  0.00     0.173 A 
ATOM     61  C   UNL A   1      47.524  26.160  32.909  1.00  0.00     0.173 A 
ATOM     62  F   UNL A   1      48.505  28.221  30.074  1.00  0.00    -0.203 F 
ATOM     63  C   UNL A   1      49.823  27.057  31.640  1.00  0.00     0.198 A 
ATOM     64  C   UNL A   1      48.775  25.808  33.403  1.00  0.00     0.198 A 
ATOM     65  F   UNL A   1      46.429  25.706  33.540  1.00  0.00    -0.203 F 
ATOM     66  F   UNL A   1      50.931  27.458  31.003  1.00  0.00    -0.200 F 
ATOM     67  C   UNL A   1      49.923  26.250  32.764  1.00  0.00     0.200 A 
ATOM     68  F   UNL A   1      48.869  25.042  34.499  1.00  0.00    -0.200 F 
ATOM     69  F   UNL A   1      51.128  25.892  33.228  1.00  0.00    -0.200 F 
ENDBRANCH  36  59
ENDBRANCH  10  11
ENDBRANCH   3   5
ENDBRANCH   2   3
ENDBRANCH   1   2
BRANCH   1  70
ATOM     70  C   UNL A   1      34.277  33.646  29.731  1.00  0.00     0.275 C 
BRANCH  70  71
ATOM     71  O   UNL A   1      34.408  32.686  30.793  1.00  0.00    -0.458 OA
BRANCH  71  72
ATOM     72  C   UNL A   1      34.545  33.222  32.031  1.00  0.00     0.342 C 
ATOM     73  O   UNL A   1      33.677  33.768  32.694  1.00  0.00    -0.246 OA
BRANCH  72  74
ATOM     74  C   UNL A   1      35.870  32.913  32.595  1.00  0.00     0.104 A 
ATOM     75  C   UNL A   1      36.292  31.588  32.737  1.00  0.00     0.040 A 
ATOM     76  C   UNL A   1      36.713  33.968  32.978  1.00  0.00     0.148 A 
ATOM     77  C   UNL A   1      37.549  31.327  33.283  1.00  0.00     0.043 A 
ATOM     78  C   UNL A   1      37.930  33.680  33.608  1.00  0.00     0.085 A 
ATOM     79  Cl  UNL A   1      38.142  29.712  33.329  1.00  0.00    -0.084 Cl
ATOM     80  C   UNL A   1      38.349  32.360  33.763  1.00  0.00     0.045 A 
ATOM     81  Cl  UNL A   1      38.939  34.937  34.230  1.00  0.00    -0.080 Cl
BRANCH  76  82
ATOM     82  O   UNL A   1      36.365  35.282  32.798  1.00  0.00    -0.505 OA
ATOM     83  H   UNL A   1      36.766  35.783  32.116  1.00  0.00     0.293 HD
ENDBRANCH  76  82
ENDBRANCH  72  74
ENDBRANCH  71  72
ENDBRANCH  70  71
ENDBRANCH   1  70
TORSDOF 12
ENDMDL
MODEL 2
REMARK VINA RESULT:     -10.1      0.220      1.694
REMARK SMILES O=C(OCCOC(=O)c1cc(Cl)cc(Cl)c1O)c1ccc(-c2c3nc(c(-c4c(F)c(F)c(F)c(F)c4F)c4ccc([nH]4)c(-c4c(F)c(F)c(F)c(F)c4F)c4nc(c(-c5c(F)c(F)c(F)c(F)c5F)c5ccc2[nH]5)C=C4)C=C3)cc1
REMARK SMILES IDX 4 1 3 2 2 3 1 4 18 5 19 6 80 7 20 8 79 9 21 10 22 11 23 12
REMARK SMILES IDX 73 13 24 14 78 15 72 16 74 17 25 18 77 19 71 20 70 21 26 23
REMARK SMILES IDX 58 24 38 25 57 26 39 27 42 28 56 29 75 30 40 31 41 32 55 34
REMARK SMILES IDX 76 35 43 36 27 37 28 38 36 39 29 40 30 41 34 42 37 43 31 44
REMARK SMILES IDX 32 45 35 46 33 47 59 48 60 49 68 50 61 51 62 52 66 53 69 54
REMARK SMILES IDX 63 55 64 56 67 57 65 58 44 59 45 60 53 61 46 62 47 63 51 64
REMARK SMILES IDX 54 65 48 66 49 67 52 68 50 69 5 70 6 71 7 72 8 73 9 74 10 75
REMARK SMILES IDX 16 76 11 77 14 78 12 79 13 80 15 81 17 82
REMARK H PARENT 74 22 42 33 17 83
REMARK Flexibility Score: inf
ROOT
ATOM      1  C   UNL A   1      34.436  33.136  28.133  1.00  0.00     0.275 C 
ENDROOT
BRANCH   1   2
ATOM      2  O   UNL A   1      33.760  31.875  27.986  1.00  0.00    -0.458 OA
BRANCH   2   3
ATOM      3  C   UNL A   1      34.242  30.636  27.737  1.00  0.00     0.338 C 
ATOM      4  O   UNL A   1      33.499  29.809  27.213  1.00  0.00    -0.246 OA
BRANCH   3   5
ATOM      5  C   UNL A   1      35.586  30.169  28.198  1.00  0.00     0.060 A 
ATOM      6  C   UNL A   1      35.890  29.701  29.477  1.00  0.00     0.016 A 
ATOM      7  C   UNL A   1      36.626  30.211  27.250  1.00  0.00     0.016 A 
ATOM      8  C   UNL A   1      37.158  29.207  29.782  1.00  0.00     0.010 A 
ATOM      9  C   UNL A   1      37.897  29.709  27.543  1.00  0.00     0.010 A 
ATOM     10  C   UNL A   1      38.167  29.204  28.819  1.00  0.00    -0.014 A 
BRANCH  10  11
ATOM     11  C   UNL A   1      39.539  28.838  29.224  1.00  0.00     0.031 A 
ATOM     12  C   UNL A   1      40.305  29.802  30.074  1.00  0.00     0.074 A 
ATOM     13  C   UNL A   1      40.050  27.632  28.920  1.00  0.00     0.049 A 
ATOM     14  N   UNL A   1      41.494  29.675  30.601  1.00  0.00    -0.248 NA
ATOM     15  C   UNL A   1      39.626  31.065  30.409  1.00  0.00     0.031 C 
ATOM     16  C   UNL A   1      39.345  26.575  28.200  1.00  0.00     0.029 A 
ATOM     17  N   UNL A   1      41.284  27.092  29.177  1.00  0.00    -0.354 N 
ATOM     18  C   UNL A   1      41.684  30.818  31.362  1.00  0.00     0.074 A 
ATOM     19  C   UNL A   1      40.527  31.663  31.170  1.00  0.00     0.031 C 
ATOM     20  C   UNL A   1      40.177  25.537  28.015  1.00  0.00     0.029 A 
ATOM     21  C   UNL A   1      41.473  25.863  28.593  1.00  0.00     0.049 A 
ATOM     22  H   UNL A   1      41.967  27.541  29.724  1.00  0.00     0.167 HD
ATOM     23  C   UNL A   1      42.719  31.114  32.180  1.00  0.00     0.037 A 
ATOM     24  C   UNL A   1      42.580  25.100  28.519  1.00  0.00     0.037 A 
ATOM     25  C   UNL A   1      43.876  30.276  32.336  1.00  0.00     0.049 A 
ATOM     26  C   UNL A   1      43.796  25.535  29.287  1.00  0.00     0.074 A 
ATOM     27  C   UNL A   1      44.988  30.476  33.128  1.00  0.00     0.029 A 
ATOM     28  N   UNL A   1      44.072  29.079  31.658  1.00  0.00    -0.354 N 
ATOM     29  N   UNL A   1      43.958  26.598  30.037  1.00  0.00    -0.248 NA
ATOM     30  C   UNL A   1      44.965  24.649  29.238  1.00  0.00     0.031 C 
ATOM     31  C   UNL A   1      45.887  29.432  32.884  1.00  0.00     0.029 A 
ATOM     32  C   UNL A   1      45.308  28.547  31.987  1.00  0.00     0.049 A 
ATOM     33  H   UNL A   1      43.428  28.669  31.036  1.00  0.00     0.167 HD
ATOM     34  C   UNL A   1      45.221  26.484  30.596  1.00  0.00     0.074 A 
ATOM     35  C   UNL A   1      45.788  25.250  30.087  1.00  0.00     0.031 C 
ATOM     36  C   UNL A   1      45.846  27.312  31.469  1.00  0.00     0.037 A 
BRANCH  23  37
ATOM     37  C   UNL A   1      42.638  32.408  32.932  1.00  0.00     0.064 A 
ATOM     38  C   UNL A   1      43.163  33.599  32.405  1.00  0.00     0.173 A 
ATOM     39  C   UNL A   1      42.059  32.454  34.206  1.00  0.00     0.173 A 
ATOM     40  F   UNL A   1      43.752  33.603  31.198  1.00  0.00    -0.203 F 
ATOM     41  C   UNL A   1      43.143  34.780  33.142  1.00  0.00     0.198 A 
ATOM     42  C   UNL A   1      42.013  33.643  34.930  1.00  0.00     0.198 A 
ATOM     43  F   UNL A   1      41.550  31.343  34.758  1.00  0.00    -0.203 F 
ATOM     44  F   UNL A   1      43.706  35.889  32.645  1.00  0.00    -0.200 F 
ATOM     45  C   UNL A   1      42.564  34.801  34.402  1.00  0.00     0.200 A 
ATOM     46  F   UNL A   1      41.450  33.663  36.146  1.00  0.00    -0.200 F 
ATOM     47  F   UNL A   1      42.549  35.936  35.115  1.00  0.00    -0.200 F 
ENDBRANCH  23  37
BRANCH  24  48
ATOM     48  C   UNL A   1      42.584  23.867  27.690  1.00  0.00     0.064 A 
ATOM     49  C   UNL A   1      42.248  22.618  28.226  1.00  0.00     0.173 A 
ATOM     50  C   UNL A   1      42.948  23.918  26.334  1.00  0.00     0.173 A 
ATOM     51  F   UNL A   1      41.914  22.513  29.521  1.00  0.00    -0.203 F 
ATOM     52  C   UNL A   1      42.293  21.463  27.445  1.00  0.00     0.198 A 
ATOM     53  C   UNL A   1      42.971  22.767  25.549  1.00  0.00     0.198 A 
ATOM     54  F   UNL A   1      43.286  25.088  25.775  1.00  0.00    -0.203 F 
ATOM     55  F   UNL A   1      42.008  20.274  27.994  1.00  0.00    -0.200 F 
ATOM     56  C   UNL A   1      42.650  21.539  26.107  1.00  0.00     0.200 A 
ATOM     57  F   UNL A   1      43.313  22.845  24.256  1.00  0.00    -0.200 F 
ATOM     58  F   UNL A   1      42.697  20.428  25.360  1.00  0.00    -0.200 F 
ENDBRANCH  24  48
BRANCH  36  59
ATOM     59  C   UNL A   1      47.192  26.885  31.971  1.00  0.00     0.064 A 
ATOM     60  C   UNL A   1      47.335  26.049  33.086  1.00  0.00     0.173 A 
ATOM     61  C   UNL A   1      48.354  27.285  31.292  1.00  0.00     0.173 A 
ATOM     62  F   UNL A   1      46.255  25.655  33.778  1.00  0.00    -0.203 F 
ATOM     63  C   UNL A   1      48.596  25.647  33.519  1.00  0.00     0.198 A 
ATOM     64  C   UNL A   1      49.609  26.852  31.706  1.00  0.00     0.198 A 
ATOM     65  F   UNL A   1      48.269  28.082  30.215  1.00  0.00    -0.203 F 
ATOM     66  F   UNL A   1      48.713  24.889  34.617  1.00  0.00    -0.200 F 
ATOM     67  C   UNL A   1      49.729  26.040  32.823  1.00  0.00     0.200 A 
ATOM     68  F   UNL A   1      50.701  27.220  31.022  1.00  0.00    -0.200 F 
ATOM     69  F   UNL A   1      50.941  25.642  33.234  1.00  0.00    -0.200 F 
ENDBRANCH  36  59
ENDBRANCH  10  11
ENDBRANCH   3   5
ENDBRANCH   2   3
ENDBRANCH   1   2
BRANCH   1  70
ATOM     70  C   UNL A   1      34.420  33.732  29.546  1.00  0.00     0.275 C 
BRANCH  70  71
ATOM     71  O   UNL A   1      34.432  32.774  30.617  1.00  0.00    -0.458 OA
BRANCH  71  72
ATOM     72  C   UNL A   1      34.513  33.311  31.860  1.00  0.00     0.342 C 
ATOM     73  O   UNL A   1      33.623  33.881  32.472  1.00  0.00    -0.246 OA
BRANCH  72  74
ATOM     74  C   UNL A   1      35.796  32.971  32.498  1.00  0.00     0.104 A 
ATOM     75  C   UNL A   1      36.183  31.636  32.651  1.00  0.00     0.040 A 
ATOM     76  C   UNL A   1      36.635  34.005  32.940  1.00  0.00     0.148 A 
ATOM     77  C   UNL A   1      37.400  31.345  33.267  1.00  0.00     0.043 A 
ATOM     78  C   UNL A   1      37.807  33.687  33.638  1.00  0.00     0.085 A 
ATOM     79  Cl  UNL A   1      37.958  29.718  33.331  1.00  0.00    -0.084 Cl
ATOM     80  C   UNL A   1      38.191  32.358  33.804  1.00  0.00     0.045 A 
ATOM     81  Cl  UNL A   1      38.801  34.917  34.332  1.00  0.00    -0.080 Cl
BRANCH  76  82
ATOM     82  O   UNL A   1      36.323  35.327  32.754  1.00  0.00    -0.505 OA
ATOM     83  H   UNL A   1      36.274  35.904  33.489  1.00  0.00     0.293 HD
ENDBRANCH  76  82
ENDBRANCH  72  74
ENDBRANCH  71  72
ENDBRANCH  70  71
ENDBRANCH   1  70
TORSDOF 12
ENDMDL
MODEL 3
REMARK VINA RESULT:     -10.1      4.534     10.477
REMARK SMILES O=C(OCCOC(=O)c1cc(Cl)cc(Cl)c1O)c1ccc(-c2c3nc(c(-c4c(F)c(F)c(F)c(F)c4F)c4ccc([nH]4)c(-c4c(F)c(F)c(F)c(F)c4F)c4nc(c(-c5c(F)c(F)c(F)c(F)c5F)c5ccc2[nH]5)C=C4)C=C3)cc1
REMARK SMILES IDX 4 1 3 2 2 3 1 4 18 5 19 6 80 7 20 8 79 9 21 10 22 11 23 12
REMARK SMILES IDX 73 13 24 14 78 15 72 16 74 17 25 18 77 19 71 20 70 21 26 23
REMARK SMILES IDX 58 24 38 25 57 26 39 27 42 28 56 29 75 30 40 31 41 32 55 34
REMARK SMILES IDX 76 35 43 36 27 37 28 38 36 39 29 40 30 41 34 42 37 43 31 44
REMARK SMILES IDX 32 45 35 46 33 47 59 48 60 49 68 50 61 51 62 52 66 53 69 54
REMARK SMILES IDX 63 55 64 56 67 57 65 58 44 59 45 60 53 61 46 62 47 63 51 64
REMARK SMILES IDX 54 65 48 66 49 67 52 68 50 69 5 70 6 71 7 72 8 73 9 74 10 75
REMARK SMILES IDX 16 76 11 77 14 78 12 79 13 80 15 81 17 82
REMARK H PARENT 74 22 42 33 17 83
REMARK Flexibility Score: inf
ROOT
ATOM      1  C   UNL A   1      40.868  21.186  27.176  1.00  0.00     0.275 C 
ENDROOT
BRANCH   1   2
ATOM      2  O   UNL A   1      39.794  21.554  26.293  1.00  0.00    -0.458 OA
BRANCH   2   3
ATOM      3  C   UNL A   1      38.976  22.632  26.294  1.00  0.00     0.338 C 
ATOM      4  O   UNL A   1      37.878  22.540  25.750  1.00  0.00    -0.246 OA
BRANCH   3   5
ATOM      5  C   UNL A   1      39.393  23.978  26.794  1.00  0.00     0.060 A 
ATOM      6  C   UNL A   1      40.122  24.924  26.074  1.00  0.00     0.016 A 
ATOM      7  C   UNL A   1      39.011  24.307  28.109  1.00  0.00     0.016 A 
ATOM      8  C   UNL A   1      40.387  26.187  26.602  1.00  0.00     0.010 A 
ATOM      9  C   UNL A   1      39.262  25.574  28.644  1.00  0.00     0.010 A 
ATOM     10  C   UNL A   1      39.957  26.522  27.886  1.00  0.00    -0.014 A 
BRANCH  10  11
ATOM     11  C   UNL A   1      40.403  27.798  28.478  1.00  0.00     0.031 A 
ATOM     12  C   UNL A   1      41.846  27.939  28.849  1.00  0.00     0.074 A 
ATOM     13  C   UNL A   1      39.560  28.840  28.590  1.00  0.00     0.049 A 
ATOM     14  N   UNL A   1      42.480  28.978  29.323  1.00  0.00    -0.248 NA
ATOM     15  C   UNL A   1      42.700  26.761  28.619  1.00  0.00     0.031 C 
ATOM     16  C   UNL A   1      38.167  28.847  28.150  1.00  0.00     0.029 A 
ATOM     17  N   UNL A   1      39.749  30.093  29.112  1.00  0.00    -0.354 N 
ATOM     18  C   UNL A   1      43.809  28.594  29.405  1.00  0.00     0.074 A 
ATOM     19  C   UNL A   1      43.884  27.206  29.008  1.00  0.00     0.031 C 
ATOM     20  C   UNL A   1      37.608  30.024  28.477  1.00  0.00     0.029 A 
ATOM     21  C   UNL A   1      38.600  30.844  29.159  1.00  0.00     0.049 A 
ATOM     22  H   UNL A   1      40.623  30.423  29.424  1.00  0.00     0.167 HD
ATOM     23  C   UNL A   1      44.877  29.349  29.746  1.00  0.00     0.037 A 
ATOM     24  C   UNL A   1      38.374  32.050  29.712  1.00  0.00     0.037 A 
ATOM     25  C   UNL A   1      44.782  30.720  30.167  1.00  0.00     0.049 A 
ATOM     26  C   UNL A   1      39.548  32.811  30.261  1.00  0.00     0.074 A 
ATOM     27  C   UNL A   1      45.793  31.581  30.544  1.00  0.00     0.029 A 
ATOM     28  N   UNL A   1      43.588  31.420  30.288  1.00  0.00    -0.354 N 
ATOM     29  N   UNL A   1      40.811  32.458  30.301  1.00  0.00    -0.248 NA
ATOM     30  C   UNL A   1      39.280  34.150  30.799  1.00  0.00     0.031 C 
ATOM     31  C   UNL A   1      45.206  32.784  30.952  1.00  0.00     0.029 A 
ATOM     32  C   UNL A   1      43.835  32.695  30.770  1.00  0.00     0.049 A 
ATOM     33  H   UNL A   1      42.698  31.063  30.063  1.00  0.00     0.167 HD
ATOM     34  C   UNL A   1      41.497  33.549  30.814  1.00  0.00     0.074 A 
ATOM     35  C   UNL A   1      40.505  34.572  31.080  1.00  0.00     0.031 C 
ATOM     36  C   UNL A   1      42.828  33.697  31.022  1.00  0.00     0.037 A 
BRANCH  23  37
ATOM     37  C   UNL A   1      46.220  28.684  29.697  1.00  0.00     0.064 A 
ATOM     38  C   UNL A   1      46.970  28.626  28.511  1.00  0.00     0.173 A 
ATOM     39  C   UNL A   1      46.749  28.069  30.839  1.00  0.00     0.173 A 
ATOM     40  F   UNL A   1      46.495  29.177  27.383  1.00  0.00    -0.203 F 
ATOM     41  C   UNL A   1      48.184  27.946  28.463  1.00  0.00     0.198 A 
ATOM     42  C   UNL A   1      47.978  27.415  30.795  1.00  0.00     0.198 A 
ATOM     43  F   UNL A   1      46.070  28.090  31.995  1.00  0.00    -0.203 F 
ATOM     44  F   UNL A   1      48.851  27.849  27.305  1.00  0.00    -0.200 F 
ATOM     45  C   UNL A   1      48.689  27.346  29.606  1.00  0.00     0.200 A 
ATOM     46  F   UNL A   1      48.466  26.838  31.902  1.00  0.00    -0.200 F 
ATOM     47  F   UNL A   1      49.854  26.685  29.559  1.00  0.00    -0.200 F 
ENDBRANCH  23  37
BRANCH  24  48
ATOM     48  C   UNL A   1      36.994  32.598  29.776  1.00  0.00     0.064 A 
ATOM     49  C   UNL A   1      36.448  33.342  28.723  1.00  0.00     0.173 A 
ATOM     50  C   UNL A   1      36.198  32.398  30.916  1.00  0.00     0.173 A 
ATOM     51  F   UNL A   1      37.176  33.578  27.623  1.00  0.00    -0.203 F 
ATOM     52  C   UNL A   1      35.165  33.882  28.814  1.00  0.00     0.198 A 
ATOM     53  C   UNL A   1      34.908  32.919  30.996  1.00  0.00     0.198 A 
ATOM     54  F   UNL A   1      36.678  31.699  31.955  1.00  0.00    -0.203 F 
ATOM     55  F   UNL A   1      34.682  34.626  27.809  1.00  0.00    -0.200 F 
ATOM     56  C   UNL A   1      34.395  33.667  29.947  1.00  0.00     0.200 A 
ATOM     57  F   UNL A   1      34.166  32.706  32.090  1.00  0.00    -0.200 F 
ATOM     58  F   UNL A   1      33.165  34.190  30.033  1.00  0.00    -0.200 F 
ENDBRANCH  24  48
BRANCH  36  59
ATOM     59  C   UNL A   1      43.297  35.033  31.514  1.00  0.00     0.064 A 
ATOM     60  C   UNL A   1      43.717  36.040  30.636  1.00  0.00     0.173 A 
ATOM     61  C   UNL A   1      43.278  35.321  32.889  1.00  0.00     0.173 A 
ATOM     62  F   UNL A   1      43.769  35.807  29.316  1.00  0.00    -0.203 F 
ATOM     63  C   UNL A   1      44.126  37.281  31.117  1.00  0.00     0.198 A 
ATOM     64  C   UNL A   1      43.653  36.573  33.362  1.00  0.00     0.198 A 
ATOM     65  F   UNL A   1      42.879  34.391  33.770  1.00  0.00    -0.203 F 
ATOM     66  F   UNL A   1      44.573  38.212  30.264  1.00  0.00    -0.200 F 
ATOM     67  C   UNL A   1      44.083  37.550  32.477  1.00  0.00     0.200 A 
ATOM     68  F   UNL A   1      43.595  36.835  34.675  1.00  0.00    -0.200 F 
ATOM     69  F   UNL A   1      44.466  38.749  32.937  1.00  0.00    -0.200 F 
ENDBRANCH  36  59
ENDBRANCH  10  11
ENDBRANCH   3   5
ENDBRANCH   2   3
ENDBRANCH   1   2
BRANCH   1  70
ATOM     70  C   UNL A   1      42.266  21.637  26.736  1.00  0.00     0.275 C 
BRANCH  70  71
ATOM     71  O   UNL A   1      42.353  22.149  25.395  1.00  0.00    -0.458 OA
BRANCH  71  72
ATOM     72  C   UNL A   1      43.614  22.250  24.905  1.00  0.00     0.342 C 
ATOM     73  O   UNL A   1      44.154  21.497  24.110  1.00  0.00    -0.246 OA
BRANCH  72  74
ATOM     74  C   UNL A   1      44.239  23.518  25.317  1.00  0.00     0.104 A 
ATOM     75  C   UNL A   1      43.639  24.742  25.005  1.00  0.00     0.040 A 
ATOM     76  C   UNL A   1      45.440  23.485  26.041  1.00  0.00     0.148 A 
ATOM     77  C   UNL A   1      44.259  25.927  25.401  1.00  0.00     0.043 A 
ATOM     78  C   UNL A   1      46.091  24.686  26.347  1.00  0.00     0.085 A 
ATOM     79  Cl  UNL A   1      43.463  27.432  25.154  1.00  0.00    -0.084 Cl
ATOM     80  C   UNL A   1      45.503  25.909  26.026  1.00  0.00     0.045 A 
ATOM     81  Cl  UNL A   1      47.642  24.700  27.107  1.00  0.00    -0.080 Cl
BRANCH  76  82
ATOM     82  O   UNL A   1      46.029  22.307  26.423  1.00  0.00    -0.505 OA
ATOM     83  H   UNL A   1      46.570  21.837  25.820  1.00  0.00     0.293 HD
ENDBRANCH  76  82
ENDBRANCH  72  74
ENDBRANCH  71  72
ENDBRANCH  70  71
ENDBRANCH   1  70
TORSDOF 12
ENDMDL
