MODEL 1
REMARK VINA RESULT:     -13.1      0.000      0.000
REMARK SMILES CCOC(=O)c1c(NC(=O)[C@@H]2[C@@H](C(=O)OCCOC(=O)c3ccc(-c4c5nc(c(-c6c(F)c(F)c(F)c(F)c6F)c6ccc([nH]6)c(-c6c(F)c(F)c(F)c(F)c6F)c6nc(c(-c7c(F)c(F)c(F)c(F)c7F)c7ccc4[nH]7)C=C6)C=C5)cc3)[C@@H]3C=C[C@H]2CC3)sc2c1CCC2
REMARK SMILES IDX 15 1 13 2 14 3 12 4 11 5 87 6 84 7 86 8 88 9 85 10 89 11
REMARK SMILES IDX 9 12 8 13 10 15 7 16 6 17 92 18 90 19 91 20 93 21 95 22
REMARK SMILES IDX 94 23 4 24 5 25 3 26 2 27 1 28 16 29 17 30 18 31 19 32 20 33
REMARK SMILES IDX 21 34 22 35 83 36 23 37 82 38 24 39 25 40 26 41 76 42 27 43
REMARK SMILES IDX 81 44 75 45 77 46 28 47 80 48 74 49 73 50 29 52 61 53 41 54
REMARK SMILES IDX 60 55 42 56 45 57 59 58 78 59 43 60 44 61 58 63 79 64 46 65
REMARK SMILES IDX 30 66 31 67 39 68 32 69 33 70 37 71 40 72 34 73 35 74 38 75
REMARK SMILES IDX 36 76 62 77 63 78 71 79 64 80 65 81 69 82 72 83 66 84 67 85
REMARK SMILES IDX 70 86 68 87 47 88 48 89 56 90 49 91 50 92 54 93 57 94 51 95
REMARK SMILES IDX 52 96 55 97 53 98
REMARK H PARENT 8 14 77 51 45 62
REMARK Flexibility Score: inf
ROOT
ATOM      1  O   UNL A   1      37.149  22.030  24.316  1.00  0.00    -0.462 OA
ENDROOT
BRANCH   1   2
ATOM      2  C   UNL A   1      36.231  22.970  24.679  1.00  0.00     0.310 C 
ATOM      3  O   UNL A   1      36.411  23.814  25.551  1.00  0.00    -0.252 OA
BRANCH   2   4
ATOM      4  C   UNL A   1      34.922  22.778  23.939  1.00  0.00     0.119 C 
ATOM      5  C   UNL A   1      33.909  24.001  24.143  1.00  0.00     0.100 C 
ATOM      6  C   UNL A   1      32.712  23.398  24.931  1.00  0.00     0.025 C 
ATOM      7  C   UNL A   1      34.294  21.441  24.455  1.00  0.00     0.026 C 
ATOM      8  C   UNL A   1      32.094  22.310  24.088  1.00  0.00    -0.027 C 
ATOM      9  C   UNL A   1      33.236  22.812  26.263  1.00  0.00     0.009 C 
ATOM     10  C   UNL A   1      32.929  21.300  23.810  1.00  0.00    -0.027 C 
ATOM     11  C   UNL A   1      34.015  21.523  25.978  1.00  0.00     0.009 C 
BRANCH   5  12
ATOM     12  C   UNL A   1      33.604  24.682  22.770  1.00  0.00     0.229 C 
ATOM     13  N   UNL A   1      33.139  25.955  22.564  1.00  0.00    -0.317 N 
ATOM     14  H   UNL A   1      33.031  26.204  21.617  1.00  0.00     0.170 HD
ATOM     15  O   UNL A   1      33.796  24.043  21.723  1.00  0.00    -0.274 OA
BRANCH  13  16
ATOM     16  C   UNL A   1      32.800  26.943  23.455  1.00  0.00     0.110 A 
ATOM     17  C   UNL A   1      31.615  27.137  24.166  1.00  0.00     0.098 A 
ATOM     18  C   UNL A   1      31.972  27.858  25.341  1.00  0.00    -0.017 A 
ATOM     19  S   UNL A   1      33.821  28.323  23.665  1.00  0.00    -0.122 S 
ATOM     20  C   UNL A   1      33.193  28.456  25.218  1.00  0.00     0.011 A 
ATOM     21  C   UNL A   1      31.437  28.000  26.719  1.00  0.00     0.038 C 
ATOM     22  C   UNL A   1      33.744  28.979  26.482  1.00  0.00     0.047 C 
ATOM     23  C   UNL A   1      32.474  28.964  27.387  1.00  0.00     0.010 C 
BRANCH  17  24
ATOM     24  C   UNL A   1      30.326  26.533  23.877  1.00  0.00     0.341 C 
ATOM     25  O   UNL A   1      30.171  25.369  23.547  1.00  0.00    -0.246 OA
BRANCH  24  26
ATOM     26  O   UNL A   1      29.350  27.488  23.897  1.00  0.00    -0.462 OA
BRANCH  26  27
ATOM     27  C   UNL A   1      29.311  28.444  22.827  1.00  0.00     0.230 C 
ATOM     28  C   UNL A   1      29.477  29.873  23.322  1.00  0.00     0.049 C 
ENDBRANCH  26  27
ENDBRANCH  24  26
ENDBRANCH  17  24
ENDBRANCH  13  16
ENDBRANCH   5  12
ENDBRANCH   2   4
ENDBRANCH   1   2
BRANCH   1  29
ATOM     29  C   UNL A   1      37.650  21.187  25.372  1.00  0.00     0.274 C 
BRANCH  29  30
ATOM     30  C   UNL A   1      39.087  21.507  25.780  1.00  0.00     0.275 C 
BRANCH  30  31
ATOM     31  O   UNL A   1      39.147  22.500  26.803  1.00  0.00    -0.458 OA
BRANCH  31  32
ATOM     32  C   UNL A   1      40.367  22.646  27.366  1.00  0.00     0.338 C 
ATOM     33  O   UNL A   1      41.030  21.785  27.917  1.00  0.00    -0.246 OA
BRANCH  32  34
ATOM     34  C   UNL A   1      40.769  24.056  27.343  1.00  0.00     0.060 A 
ATOM     35  C   UNL A   1      41.710  24.454  28.297  1.00  0.00     0.016 A 
ATOM     36  C   UNL A   1      40.048  24.988  26.582  1.00  0.00     0.016 A 
ATOM     37  C   UNL A   1      41.792  25.787  28.623  1.00  0.00     0.010 A 
ATOM     38  C   UNL A   1      40.125  26.323  26.916  1.00  0.00     0.010 A 
ATOM     39  C   UNL A   1      40.932  26.691  27.989  1.00  0.00    -0.014 A 
BRANCH  39  40
ATOM     40  C   UNL A   1      40.901  28.037  28.517  1.00  0.00     0.031 A 
ATOM     41  C   UNL A   1      41.998  28.911  28.048  1.00  0.00     0.074 A 
ATOM     42  C   UNL A   1      39.928  28.462  29.342  1.00  0.00     0.049 A 
ATOM     43  N   UNL A   1      42.942  29.448  28.747  1.00  0.00    -0.248 NA
ATOM     44  C   UNL A   1      42.112  29.126  26.599  1.00  0.00     0.031 C 
ATOM     45  C   UNL A   1      38.651  27.816  29.653  1.00  0.00     0.029 A 
ATOM     46  N   UNL A   1      39.856  29.640  30.017  1.00  0.00    -0.354 N 
ATOM     47  C   UNL A   1      43.691  30.200  27.850  1.00  0.00     0.074 A 
ATOM     48  C   UNL A   1      43.218  29.866  26.531  1.00  0.00     0.031 C 
ATOM     49  C   UNL A   1      37.846  28.710  30.273  1.00  0.00     0.029 A 
ATOM     50  C   UNL A   1      38.599  29.929  30.518  1.00  0.00     0.049 A 
ATOM     51  H   UNL A   1      40.630  30.235  30.137  1.00  0.00     0.167 HD
ATOM     52  C   UNL A   1      44.504  31.204  28.273  1.00  0.00     0.037 A 
ATOM     53  C   UNL A   1      38.199  31.126  31.007  1.00  0.00     0.037 A 
ATOM     54  C   UNL A   1      44.837  31.073  29.666  1.00  0.00     0.049 A 
ATOM     55  C   UNL A   1      39.416  31.895  31.373  1.00  0.00     0.074 A 
ATOM     56  C   UNL A   1      45.502  30.125  30.419  1.00  0.00     0.029 A 
ATOM     57  N   UNL A   1      44.174  31.864  30.570  1.00  0.00    -0.354 N 
ATOM     58  N   UNL A   1      40.211  31.588  32.361  1.00  0.00    -0.248 NA
ATOM     59  C   UNL A   1      39.988  32.782  30.370  1.00  0.00     0.031 C 
ATOM     60  C   UNL A   1      44.828  30.106  31.675  1.00  0.00     0.029 A 
ATOM     61  C   UNL A   1      43.814  31.063  31.623  1.00  0.00     0.049 A 
ATOM     62  H   UNL A   1      43.991  32.826  30.479  1.00  0.00     0.167 HD
ATOM     63  C   UNL A   1      41.485  31.887  31.898  1.00  0.00     0.074 A 
ATOM     64  C   UNL A   1      41.275  32.714  30.714  1.00  0.00     0.031 C 
ATOM     65  C   UNL A   1      42.578  31.208  32.354  1.00  0.00     0.037 A 
BRANCH  52  66
ATOM     66  C   UNL A   1      44.705  32.484  27.509  1.00  0.00     0.064 A 
ATOM     67  C   UNL A   1      45.881  32.663  26.758  1.00  0.00     0.173 A 
ATOM     68  C   UNL A   1      43.935  33.647  27.730  1.00  0.00     0.173 A 
ATOM     69  F   UNL A   1      46.700  31.628  26.513  1.00  0.00    -0.203 F 
ATOM     70  C   UNL A   1      46.290  33.926  26.322  1.00  0.00     0.198 A 
ATOM     71  C   UNL A   1      44.317  34.896  27.246  1.00  0.00     0.198 A 
ATOM     72  F   UNL A   1      42.852  33.645  28.517  1.00  0.00    -0.203 F 
ATOM     73  F   UNL A   1      47.478  34.069  25.720  1.00  0.00    -0.200 F 
ATOM     74  C   UNL A   1      45.510  35.041  26.570  1.00  0.00     0.200 A 
ATOM     75  F   UNL A   1      43.558  35.966  27.515  1.00  0.00    -0.200 F 
ATOM     76  F   UNL A   1      45.929  36.260  26.208  1.00  0.00    -0.200 F 
ENDBRANCH  52  66
BRANCH  53  77
ATOM     77  C   UNL A   1      36.876  31.766  30.827  1.00  0.00     0.064 A 
ATOM     78  C   UNL A   1      36.036  32.007  31.925  1.00  0.00     0.173 A 
ATOM     79  C   UNL A   1      36.529  32.404  29.619  1.00  0.00     0.173 A 
ATOM     80  F   UNL A   1      36.324  31.478  33.123  1.00  0.00    -0.203 F 
ATOM     81  C   UNL A   1      34.927  32.854  31.825  1.00  0.00     0.198 A 
ATOM     82  C   UNL A   1      35.417  33.240  29.519  1.00  0.00     0.198 A 
ATOM     83  F   UNL A   1      37.316  32.309  28.538  1.00  0.00    -0.203 F 
ATOM     84  F   UNL A   1      34.185  33.113  32.912  1.00  0.00    -0.200 F 
ATOM     85  C   UNL A   1      34.625  33.476  30.625  1.00  0.00     0.200 A 
ATOM     86  F   UNL A   1      35.159  33.865  28.361  1.00  0.00    -0.200 F 
ATOM     87  F   UNL A   1      33.599  34.336  30.546  1.00  0.00    -0.200 F 
ENDBRANCH  53  77
BRANCH  65  88
ATOM     88  C   UNL A   1      42.403  30.343  33.570  1.00  0.00     0.064 A 
ATOM     89  C   UNL A   1      42.540  30.809  34.889  1.00  0.00     0.173 A 
ATOM     90  C   UNL A   1      41.948  29.029  33.393  1.00  0.00     0.173 A 
ATOM     91  F   UNL A   1      42.870  32.082  35.139  1.00  0.00    -0.203 F 
ATOM     92  C   UNL A   1      42.284  29.977  35.978  1.00  0.00     0.198 A 
ATOM     93  C   UNL A   1      41.655  28.214  34.481  1.00  0.00     0.198 A 
ATOM     94  F   UNL A   1      41.742  28.550  32.156  1.00  0.00    -0.203 F 
ATOM     95  F   UNL A   1      42.440  30.438  37.228  1.00  0.00    -0.200 F 
ATOM     96  C   UNL A   1      41.835  28.683  35.773  1.00  0.00     0.200 A 
ATOM     97  F   UNL A   1      41.174  26.979  34.279  1.00  0.00    -0.200 F 
ATOM     98  F   UNL A   1      41.551  27.895  36.820  1.00  0.00    -0.200 F 
ENDBRANCH  65  88
ENDBRANCH  39  40
ENDBRANCH  32  34
ENDBRANCH  31  32
ENDBRANCH  30  31
ENDBRANCH  29  30
ENDBRANCH   1  29
TORSDOF 16
ENDMDL
MODEL 2
REMARK VINA RESULT:     -12.9      1.212      2.377
REMARK SMILES CCOC(=O)c1c(NC(=O)[C@@H]2[C@@H](C(=O)OCCOC(=O)c3ccc(-c4c5nc(c(-c6c(F)c(F)c(F)c(F)c6F)c6ccc([nH]6)c(-c6c(F)c(F)c(F)c(F)c6F)c6nc(c(-c7c(F)c(F)c(F)c(F)c7F)c7ccc4[nH]7)C=C6)C=C5)cc3)[C@@H]3C=C[C@H]2CC3)sc2c1CCC2
REMARK SMILES IDX 15 1 13 2 14 3 12 4 11 5 87 6 84 7 86 8 88 9 85 10 89 11
REMARK SMILES IDX 9 12 8 13 10 15 7 16 6 17 92 18 90 19 91 20 93 21 95 22
REMARK SMILES IDX 94 23 4 24 5 25 3 26 2 27 1 28 16 29 17 30 18 31 19 32 20 33
REMARK SMILES IDX 21 34 22 35 83 36 23 37 82 38 24 39 25 40 26 41 76 42 27 43
REMARK SMILES IDX 81 44 75 45 77 46 28 47 80 48 74 49 73 50 29 52 61 53 41 54
REMARK SMILES IDX 60 55 42 56 45 57 59 58 78 59 43 60 44 61 58 63 79 64 46 65
REMARK SMILES IDX 30 66 31 67 39 68 32 69 33 70 37 71 40 72 34 73 35 74 38 75
REMARK SMILES IDX 36 76 62 77 63 78 71 79 64 80 65 81 69 82 72 83 66 84 67 85
REMARK SMILES IDX 70 86 68 87 47 88 48 89 56 90 49 91 50 92 54 93 57 94 51 95
REMARK SMILES IDX 52 96 55 97 53 98
REMARK H PARENT 8 14 77 51 45 62
REMARK Flexibility Score: inf
ROOT
ATOM      1  O   UNL A   1      36.265  21.470  25.164  1.00  0.00    -0.462 OA
ENDROOT
BRANCH   1   2
ATOM      2  C   UNL A   1      35.519  22.575  24.872  1.00  0.00     0.310 C 
ATOM      3  O   UNL A   1      35.944  23.725  24.904  1.00  0.00    -0.252 OA
BRANCH   2   4
ATOM      4  C   UNL A   1      34.074  22.210  24.600  1.00  0.00     0.119 C 
ATOM      5  C   UNL A   1      33.138  23.493  24.395  1.00  0.00     0.100 C 
ATOM      6  C   UNL A   1      32.157  23.465  25.600  1.00  0.00     0.025 C 
ATOM      7  C   UNL A   1      33.582  21.347  25.809  1.00  0.00     0.026 C 
ATOM      8  C   UNL A   1      31.358  22.187  25.528  1.00  0.00    -0.027 C 
ATOM      9  C   UNL A   1      32.976  23.512  26.911  1.00  0.00     0.009 C 
ATOM     10  C   UNL A   1      32.104  21.077  25.604  1.00  0.00    -0.027 C 
ATOM     11  C   UNL A   1      33.667  22.160  27.127  1.00  0.00     0.009 C 
BRANCH   5  12
ATOM     12  C   UNL A   1      32.522  23.486  22.958  1.00  0.00     0.229 C 
ATOM     13  N   UNL A   1      31.770  24.473  22.377  1.00  0.00    -0.317 N 
ATOM     14  H   UNL A   1      31.492  24.285  21.450  1.00  0.00     0.170 HD
ATOM     15  O   UNL A   1      32.715  22.504  22.223  1.00  0.00    -0.274 OA
BRANCH  13  16
ATOM     16  C   UNL A   1      31.340  25.681  22.867  1.00  0.00     0.110 A 
ATOM     17  C   UNL A   1      31.969  26.927  22.850  1.00  0.00     0.098 A 
ATOM     18  C   UNL A   1      30.927  27.897  22.888  1.00  0.00    -0.017 A 
ATOM     19  S   UNL A   1      29.921  25.774  23.851  1.00  0.00    -0.122 S 
ATOM     20  C   UNL A   1      29.748  27.358  23.319  1.00  0.00     0.011 A 
ATOM     21  C   UNL A   1      30.746  29.299  22.434  1.00  0.00     0.038 C 
ATOM     22  C   UNL A   1      28.573  28.227  23.118  1.00  0.00     0.047 C 
ATOM     23  C   UNL A   1      29.263  29.597  22.838  1.00  0.00     0.010 C 
BRANCH  17  24
ATOM     24  C   UNL A   1      33.380  27.179  22.615  1.00  0.00     0.341 C 
ATOM     25  O   UNL A   1      33.989  26.806  21.626  1.00  0.00    -0.246 OA
BRANCH  24  26
ATOM     26  O   UNL A   1      33.937  27.766  23.715  1.00  0.00    -0.462 OA
BRANCH  26  27
ATOM     27  C   UNL A   1      34.023  27.000  24.926  1.00  0.00     0.230 C 
ATOM     28  C   UNL A   1      33.397  27.717  26.111  1.00  0.00     0.049 C 
ENDBRANCH  26  27
ENDBRANCH  24  26
ENDBRANCH  17  24
ENDBRANCH  13  16
ENDBRANCH   5  12
ENDBRANCH   2   4
ENDBRANCH   1   2
BRANCH   1  29
ATOM     29  C   UNL A   1      37.612  21.457  24.654  1.00  0.00     0.274 C 
BRANCH  29  30
ATOM     30  C   UNL A   1      38.677  21.352  25.743  1.00  0.00     0.275 C 
BRANCH  30  31
ATOM     31  O   UNL A   1      38.960  22.616  26.343  1.00  0.00    -0.458 OA
BRANCH  31  32
ATOM     32  C   UNL A   1      40.088  22.639  27.087  1.00  0.00     0.338 C 
ATOM     33  O   UNL A   1      40.594  21.705  27.685  1.00  0.00    -0.246 OA
BRANCH  32  34
ATOM     34  C   UNL A   1      40.593  24.011  27.196  1.00  0.00     0.060 A 
ATOM     35  C   UNL A   1      41.531  24.254  28.204  1.00  0.00     0.016 A 
ATOM     36  C   UNL A   1      39.967  25.056  26.501  1.00  0.00     0.016 A 
ATOM     37  C   UNL A   1      41.700  25.544  28.647  1.00  0.00     0.010 A 
ATOM     38  C   UNL A   1      40.132  26.348  26.951  1.00  0.00     0.010 A 
ATOM     39  C   UNL A   1      40.930  26.562  28.071  1.00  0.00    -0.014 A 
BRANCH  39  40
ATOM     40  C   UNL A   1      40.982  27.857  28.712  1.00  0.00     0.031 A 
ATOM     41  C   UNL A   1      42.138  28.694  28.325  1.00  0.00     0.074 A 
ATOM     42  C   UNL A   1      40.032  28.273  29.568  1.00  0.00     0.049 A 
ATOM     43  N   UNL A   1      43.108  29.106  29.070  1.00  0.00    -0.248 NA
ATOM     44  C   UNL A   1      42.279  29.024  26.899  1.00  0.00     0.031 C 
ATOM     45  C   UNL A   1      38.712  27.688  29.818  1.00  0.00     0.029 A 
ATOM     46  N   UNL A   1      40.030  29.391  30.341  1.00  0.00    -0.354 N 
ATOM     47  C   UNL A   1      43.913  29.882  28.244  1.00  0.00     0.074 A 
ATOM     48  C   UNL A   1      43.431  29.693  26.899  1.00  0.00     0.031 C 
ATOM     49  C   UNL A   1      37.961  28.576  30.510  1.00  0.00     0.029 A 
ATOM     50  C   UNL A   1      38.790  29.718  30.861  1.00  0.00     0.049 A 
ATOM     51  H   UNL A   1      40.840  29.921  30.515  1.00  0.00     0.167 HD
ATOM     52  C   UNL A   1      44.786  30.790  28.754  1.00  0.00     0.037 A 
ATOM     53  C   UNL A   1      38.465  30.893  31.450  1.00  0.00     0.037 A 
ATOM     54  C   UNL A   1      45.097  30.519  30.132  1.00  0.00     0.049 A 
ATOM     55  C   UNL A   1      39.726  31.546  31.884  1.00  0.00     0.074 A 
ATOM     56  C   UNL A   1      45.692  29.468  30.803  1.00  0.00     0.029 A 
ATOM     57  N   UNL A   1      44.479  31.271  31.098  1.00  0.00    -0.354 N 
ATOM     58  N   UNL A   1      40.490  31.104  32.845  1.00  0.00    -0.248 NA
ATOM     59  C   UNL A   1      40.363  32.476  30.963  1.00  0.00     0.031 C 
ATOM     60  C   UNL A   1      45.006  29.386  32.050  1.00  0.00     0.029 A 
ATOM     61  C   UNL A   1      44.058  30.408  32.077  1.00  0.00     0.049 A 
ATOM     62  H   UNL A   1      44.360  32.248  31.089  1.00  0.00     0.167 HD
ATOM     63  C   UNL A   1      41.785  31.357  32.414  1.00  0.00     0.074 A 
ATOM     64  C   UNL A   1      41.640  32.294  31.305  1.00  0.00     0.031 C 
ATOM     65  C   UNL A   1      42.827  30.572  32.813  1.00  0.00     0.037 A 
BRANCH  52  66
ATOM     66  C   UNL A   1      45.076  32.114  28.103  1.00  0.00     0.064 A 
ATOM     67  C   UNL A   1      44.048  33.067  27.986  1.00  0.00     0.173 A 
ATOM     68  C   UNL A   1      46.231  32.360  27.329  1.00  0.00     0.173 A 
ATOM     69  F   UNL A   1      42.896  32.916  28.658  1.00  0.00    -0.203 F 
ATOM     70  C   UNL A   1      44.143  34.147  27.105  1.00  0.00     0.198 A 
ATOM     71  C   UNL A   1      46.346  33.468  26.493  1.00  0.00     0.198 A 
ATOM     72  F   UNL A   1      47.242  31.484  27.259  1.00  0.00    -0.203 F 
ATOM     73  F   UNL A   1      43.092  34.959  26.931  1.00  0.00    -0.200 F 
ATOM     74  C   UNL A   1      45.290  34.344  26.356  1.00  0.00     0.200 A 
ATOM     75  F   UNL A   1      47.457  33.629  25.761  1.00  0.00    -0.200 F 
ATOM     76  F   UNL A   1      45.359  35.341  25.466  1.00  0.00    -0.200 F 
ENDBRANCH  52  66
BRANCH  53  77
ATOM     77  C   UNL A   1      37.187  31.631  31.321  1.00  0.00     0.064 A 
ATOM     78  C   UNL A   1      36.388  31.890  32.445  1.00  0.00     0.173 A 
ATOM     79  C   UNL A   1      36.865  32.337  30.145  1.00  0.00     0.173 A 
ATOM     80  F   UNL A   1      36.659  31.296  33.616  1.00  0.00    -0.203 F 
ATOM     81  C   UNL A   1      35.341  32.816  32.399  1.00  0.00     0.198 A 
ATOM     82  C   UNL A   1      35.815  33.253  30.098  1.00  0.00     0.198 A 
ATOM     83  F   UNL A   1      37.623  32.228  29.044  1.00  0.00    -0.203 F 
ATOM     84  F   UNL A   1      34.639  33.086  33.509  1.00  0.00    -0.200 F 
ATOM     85  C   UNL A   1      35.061  33.502  31.228  1.00  0.00     0.200 A 
ATOM     86  F   UNL A   1      35.580  33.937  28.969  1.00  0.00    -0.200 F 
ATOM     87  F   UNL A   1      34.099  34.435  31.202  1.00  0.00    -0.200 F 
ENDBRANCH  53  77
BRANCH  65  88
ATOM     88  C   UNL A   1      42.586  29.619  33.950  1.00  0.00     0.064 A 
ATOM     89  C   UNL A   1      41.947  28.375  33.807  1.00  0.00     0.173 A 
ATOM     90  C   UNL A   1      43.142  29.919  35.201  1.00  0.00     0.173 A 
ATOM     91  F   UNL A   1      41.482  27.972  32.618  1.00  0.00    -0.203 F 
ATOM     92  C   UNL A   1      41.826  27.498  34.884  1.00  0.00     0.198 A 
ATOM     93  C   UNL A   1      43.054  29.025  36.263  1.00  0.00     0.198 A 
ATOM     94  F   UNL A   1      43.815  31.067  35.380  1.00  0.00    -0.203 F 
ATOM     95  F   UNL A   1      41.196  26.325  34.728  1.00  0.00    -0.200 F 
ATOM     96  C   UNL A   1      42.386  27.821  36.109  1.00  0.00     0.200 A 
ATOM     97  F   UNL A   1      43.641  29.320  37.433  1.00  0.00    -0.200 F 
ATOM     98  F   UNL A   1      42.305  26.961  37.134  1.00  0.00    -0.200 F 
ENDBRANCH  65  88
ENDBRANCH  39  40
ENDBRANCH  32  34
ENDBRANCH  31  32
ENDBRANCH  30  31
ENDBRANCH  29  30
ENDBRANCH   1  29
TORSDOF 16
ENDMDL
MODEL 3
REMARK VINA RESULT:     -12.9      3.167      8.732
REMARK SMILES CCOC(=O)c1c(NC(=O)[C@@H]2[C@@H](C(=O)OCCOC(=O)c3ccc(-c4c5nc(c(-c6c(F)c(F)c(F)c(F)c6F)c6ccc([nH]6)c(-c6c(F)c(F)c(F)c(F)c6F)c6nc(c(-c7c(F)c(F)c(F)c(F)c7F)c7ccc4[nH]7)C=C6)C=C5)cc3)[C@@H]3C=C[C@H]2CC3)sc2c1CCC2
REMARK SMILES IDX 15 1 13 2 14 3 12 4 11 5 87 6 84 7 86 8 88 9 85 10 89 11
REMARK SMILES IDX 9 12 8 13 10 15 7 16 6 17 92 18 90 19 91 20 93 21 95 22
REMARK SMILES IDX 94 23 4 24 5 25 3 26 2 27 1 28 16 29 17 30 18 31 19 32 20 33
REMARK SMILES IDX 21 34 22 35 83 36 23 37 82 38 24 39 25 40 26 41 76 42 27 43
REMARK SMILES IDX 81 44 75 45 77 46 28 47 80 48 74 49 73 50 29 52 61 53 41 54
REMARK SMILES IDX 60 55 42 56 45 57 59 58 78 59 43 60 44 61 58 63 79 64 46 65
REMARK SMILES IDX 30 66 31 67 39 68 32 69 33 70 37 71 40 72 34 73 35 74 38 75
REMARK SMILES IDX 36 76 62 77 63 78 71 79 64 80 65 81 69 82 72 83 66 84 67 85
REMARK SMILES IDX 70 86 68 87 47 88 48 89 56 90 49 91 50 92 54 93 57 94 51 95
REMARK SMILES IDX 52 96 55 97 53 98
REMARK H PARENT 8 14 77 51 45 62
REMARK Flexibility Score: inf
ROOT
ATOM      1  O   UNL A   1      32.610  29.591  25.769  1.00  0.00    -0.462 OA
ENDROOT
BRANCH   1   2
ATOM      2  C   UNL A   1      32.647  28.228  25.740  1.00  0.00     0.310 C 
ATOM      3  O   UNL A   1      33.429  27.543  26.393  1.00  0.00    -0.252 OA
BRANCH   2   4
ATOM      4  C   UNL A   1      31.671  27.669  24.725  1.00  0.00     0.119 C 
ATOM      5  C   UNL A   1      31.923  26.120  24.409  1.00  0.00     0.100 C 
ATOM      6  C   UNL A   1      32.365  26.086  22.919  1.00  0.00     0.025 C 
ATOM      7  C   UNL A   1      31.810  28.534  23.428  1.00  0.00     0.026 C 
ATOM      8  C   UNL A   1      31.239  26.639  22.081  1.00  0.00    -0.027 C 
ATOM      9  C   UNL A   1      33.633  26.955  22.755  1.00  0.00     0.009 C 
ATOM     10  C   UNL A   1      30.924  27.910  22.367  1.00  0.00    -0.027 C 
ATOM     11  C   UNL A   1      33.250  28.436  22.862  1.00  0.00     0.009 C 
BRANCH   5  12
ATOM     12  C   UNL A   1      30.670  25.277  24.814  1.00  0.00     0.229 C 
ATOM     13  N   UNL A   1      30.585  23.912  24.898  1.00  0.00    -0.317 N 
ATOM     14  H   UNL A   1      29.708  23.573  25.193  1.00  0.00     0.170 HD
ATOM     15  O   UNL A   1      29.617  25.864  25.108  1.00  0.00    -0.274 OA
BRANCH  13  16
ATOM     16  C   UNL A   1      31.516  22.936  24.641  1.00  0.00     0.110 A 
ATOM     17  C   UNL A   1      32.442  22.337  25.498  1.00  0.00     0.098 A 
ATOM     18  C   UNL A   1      32.698  21.043  24.961  1.00  0.00    -0.017 A 
ATOM     19  S   UNL A   1      31.834  22.430  23.019  1.00  0.00    -0.122 S 
ATOM     20  C   UNL A   1      32.314  20.951  23.654  1.00  0.00     0.011 A 
ATOM     21  C   UNL A   1      33.126  19.725  25.493  1.00  0.00     0.038 C 
ATOM     22  C   UNL A   1      32.290  19.575  23.123  1.00  0.00     0.047 C 
ATOM     23  C   UNL A   1      33.114  18.823  24.213  1.00  0.00     0.010 C 
BRANCH  17  24
ATOM     24  C   UNL A   1      32.878  22.844  26.787  1.00  0.00     0.341 C 
ATOM     25  O   UNL A   1      32.131  23.077  27.723  1.00  0.00    -0.246 OA
BRANCH  24  26
ATOM     26  O   UNL A   1      34.211  23.142  26.742  1.00  0.00    -0.462 OA
BRANCH  26  27
ATOM     27  C   UNL A   1      34.626  24.290  25.988  1.00  0.00     0.230 C 
ATOM     28  C   UNL A   1      35.638  23.939  24.909  1.00  0.00     0.049 C 
ENDBRANCH  26  27
ENDBRANCH  24  26
ENDBRANCH  17  24
ENDBRANCH  13  16
ENDBRANCH   5  12
ENDBRANCH   2   4
ENDBRANCH   1   2
BRANCH   1  29
ATOM     29  C   UNL A   1      32.290  30.194  27.038  1.00  0.00     0.274 C 
BRANCH  29  30
ATOM     30  C   UNL A   1      33.226  31.337  27.425  1.00  0.00     0.275 C 
BRANCH  30  31
ATOM     31  O   UNL A   1      34.599  30.995  27.237  1.00  0.00    -0.458 OA
BRANCH  31  32
ATOM     32  C   UNL A   1      35.471  31.868  27.790  1.00  0.00     0.338 C 
ATOM     33  O   UNL A   1      35.523  33.071  27.605  1.00  0.00    -0.246 OA
BRANCH  32  34
ATOM     34  C   UNL A   1      36.471  31.148  28.584  1.00  0.00     0.060 A 
ATOM     35  C   UNL A   1      37.622  31.861  28.933  1.00  0.00     0.016 A 
ATOM     36  C   UNL A   1      36.384  29.758  28.746  1.00  0.00     0.016 A 
ATOM     37  C   UNL A   1      38.755  31.156  29.266  1.00  0.00     0.010 A 
ATOM     38  C   UNL A   1      37.522  29.053  29.072  1.00  0.00     0.010 A 
ATOM     39  C   UNL A   1      38.710  29.757  29.243  1.00  0.00    -0.014 A 
BRANCH  39  40
ATOM     40  C   UNL A   1      39.972  29.065  29.386  1.00  0.00     0.031 A 
ATOM     41  C   UNL A   1      40.401  28.839  30.782  1.00  0.00     0.074 A 
ATOM     42  C   UNL A   1      40.678  28.635  28.325  1.00  0.00     0.049 A 
ATOM     43  N   UNL A   1      41.437  29.318  31.385  1.00  0.00    -0.248 NA
ATOM     44  C   UNL A   1      39.498  28.063  31.644  1.00  0.00     0.031 C 
ATOM     45  C   UNL A   1      40.250  28.529  26.928  1.00  0.00     0.029 A 
ATOM     46  N   UNL A   1      41.930  28.106  28.309  1.00  0.00    -0.354 N 
ATOM     47  C   UNL A   1      41.409  28.782  32.667  1.00  0.00     0.074 A 
ATOM     48  C   UNL A   1      40.135  28.124  32.813  1.00  0.00     0.031 C 
ATOM     49  C   UNL A   1      41.142  27.770  26.250  1.00  0.00     0.029 A 
ATOM     50  C   UNL A   1      42.257  27.459  27.130  1.00  0.00     0.049 A 
ATOM     51  H   UNL A   1      42.549  28.177  29.070  1.00  0.00     0.167 HD
ATOM     52  C   UNL A   1      42.524  28.737  33.441  1.00  0.00     0.037 A 
ATOM     53  C   UNL A   1      43.326  26.649  26.943  1.00  0.00     0.037 A 
ATOM     54  C   UNL A   1      43.522  29.673  32.999  1.00  0.00     0.049 A 
ATOM     55  C   UNL A   1      44.320  26.959  28.002  1.00  0.00     0.074 A 
ATOM     56  C   UNL A   1      43.577  31.048  32.881  1.00  0.00     0.029 A 
ATOM     57  N   UNL A   1      44.582  29.198  32.268  1.00  0.00    -0.354 N 
ATOM     58  N   UNL A   1      44.990  28.076  28.078  1.00  0.00    -0.248 NA
ATOM     59  C   UNL A   1      44.268  26.182  29.232  1.00  0.00     0.031 C 
ATOM     60  C   UNL A   1      44.363  31.292  31.717  1.00  0.00     0.029 A 
ATOM     61  C   UNL A   1      44.765  30.055  31.214  1.00  0.00     0.049 A 
ATOM     62  H   UNL A   1      45.110  28.392  32.465  1.00  0.00     0.167 HD
ATOM     63  C   UNL A   1      45.079  28.346  29.436  1.00  0.00     0.074 A 
ATOM     64  C   UNL A   1      44.712  27.097  30.096  1.00  0.00     0.031 C 
ATOM     65  C   UNL A   1      45.170  29.627  29.896  1.00  0.00     0.037 A 
BRANCH  52  66
ATOM     66  C   UNL A   1      42.837  27.601  34.376  1.00  0.00     0.064 A 
ATOM     67  C   UNL A   1      43.284  26.375  33.850  1.00  0.00     0.173 A 
ATOM     68  C   UNL A   1      42.428  27.575  35.728  1.00  0.00     0.173 A 
ATOM     69  F   UNL A   1      43.671  26.283  32.568  1.00  0.00    -0.203 F 
ATOM     70  C   UNL A   1      43.257  25.198  34.602  1.00  0.00     0.198 A 
ATOM     71  C   UNL A   1      42.454  26.411  36.492  1.00  0.00     0.198 A 
ATOM     72  F   UNL A   1      41.879  28.640  36.326  1.00  0.00    -0.203 F 
ATOM     73  F   UNL A   1      43.572  24.032  34.023  1.00  0.00    -0.200 F 
ATOM     74  C   UNL A   1      42.838  25.217  35.920  1.00  0.00     0.200 A 
ATOM     75  F   UNL A   1      42.025  26.447  37.761  1.00  0.00    -0.200 F 
ATOM     76  F   UNL A   1      42.751  24.081  36.623  1.00  0.00    -0.200 F 
ENDBRANCH  52  66
BRANCH  53  77
ATOM     77  C   UNL A   1      43.370  25.400  26.149  1.00  0.00     0.064 A 
ATOM     78  C   UNL A   1      44.424  25.148  25.258  1.00  0.00     0.173 A 
ATOM     79  C   UNL A   1      42.531  24.309  26.454  1.00  0.00     0.173 A 
ATOM     80  F   UNL A   1      45.296  26.120  24.955  1.00  0.00    -0.203 F 
ATOM     81  C   UNL A   1      44.638  23.875  24.720  1.00  0.00     0.198 A 
ATOM     82  C   UNL A   1      42.740  23.042  25.908  1.00  0.00     0.198 A 
ATOM     83  F   UNL A   1      41.551  24.424  27.361  1.00  0.00    -0.203 F 
ATOM     84  F   UNL A   1      45.694  23.656  23.923  1.00  0.00    -0.200 F 
ATOM     85  C   UNL A   1      43.801  22.823  25.053  1.00  0.00     0.200 A 
ATOM     86  F   UNL A   1      41.945  22.025  26.269  1.00  0.00    -0.200 F 
ATOM     87  F   UNL A   1      44.044  21.589  24.587  1.00  0.00    -0.200 F 
ENDBRANCH  53  77
BRANCH  65  88
ATOM     88  C   UNL A   1      45.465  30.708  28.894  1.00  0.00     0.064 A 
ATOM     89  C   UNL A   1      46.763  31.102  28.526  1.00  0.00     0.173 A 
ATOM     90  C   UNL A   1      44.395  31.267  28.183  1.00  0.00     0.173 A 
ATOM     91  F   UNL A   1      47.839  30.536  29.086  1.00  0.00    -0.203 F 
ATOM     92  C   UNL A   1      46.973  32.053  27.529  1.00  0.00     0.198 A 
ATOM     93  C   UNL A   1      44.609  32.187  27.161  1.00  0.00     0.198 A 
ATOM     94  F   UNL A   1      43.136  30.884  28.451  1.00  0.00    -0.203 F 
ATOM     95  F   UNL A   1      48.220  32.427  27.208  1.00  0.00    -0.200 F 
ATOM     96  C   UNL A   1      45.896  32.589  26.843  1.00  0.00     0.200 A 
ATOM     97  F   UNL A   1      43.567  32.666  26.467  1.00  0.00    -0.200 F 
ATOM     98  F   UNL A   1      46.099  33.475  25.857  1.00  0.00    -0.200 F 
ENDBRANCH  65  88
ENDBRANCH  39  40
ENDBRANCH  32  34
ENDBRANCH  31  32
ENDBRANCH  30  31
ENDBRANCH  29  30
ENDBRANCH   1  29
TORSDOF 16
ENDMDL
