MODEL 1
REMARK VINA RESULT:      -9.7      0.000      0.000
REMARK SMILES CC[C@@H](C)Nc1cc(OC)c(C(=O)OCCOC(=O)c2ccc(-c3c4nc(c(-c5c(F)c(F)c(F)c(F)c5F)c5ccc([nH]5)c(-c5c(F)c(F)c(F)c(F)c5F)c5nc(c(-c6c(F)c(F)c(F)c(F)c6F)c6ccc3[nH]6)C=C5)C=C4)cc2)cc1Cl
REMARK SMILES IDX 15 1 14 2 12 3 13 4 11 5 6 6 7 7 84 8 8 9 83 10 85 11 5 12
REMARK SMILES IDX 3 14 4 15 2 16 1 17 9 18 10 19 16 20 17 21 18 22 19 23 20 24
REMARK SMILES IDX 21 25 82 26 22 27 81 28 23 29 24 30 25 31 75 32 26 33 80 34
REMARK SMILES IDX 74 35 76 36 27 37 79 38 73 39 72 40 28 42 60 43 40 44 59 45
REMARK SMILES IDX 41 46 44 47 58 48 77 49 42 50 43 51 57 53 78 54 45 55 29 56
REMARK SMILES IDX 30 57 38 58 31 59 32 60 36 61 39 62 33 63 34 64 37 65 35 66
REMARK SMILES IDX 61 67 62 68 70 69 63 70 64 71 68 72 71 73 65 74 66 75 69 76
REMARK SMILES IDX 67 77 46 78 47 79 55 80 48 81 49 82 53 83 56 84 50 85 51 86
REMARK SMILES IDX 54 87 52 88
REMARK H PARENT 5 13 76 41 44 52
REMARK Flexibility Score: inf
ROOT
ATOM      1  C   UNL A   1      33.910  34.112  28.137  1.00  0.00     0.275 C 
ENDROOT
BRANCH   1   2
ATOM      2  O   UNL A   1      34.634  34.070  29.378  1.00  0.00    -0.458 OA
BRANCH   2   3
ATOM      3  C   UNL A   1      33.993  34.547  30.469  1.00  0.00     0.342 C 
ATOM      4  O   UNL A   1      32.899  35.076  30.511  1.00  0.00    -0.246 OA
BRANCH   3   5
ATOM      5  C   UNL A   1      34.845  34.255  31.633  1.00  0.00     0.103 A 
ATOM      6  C   UNL A   1      36.485  33.422  33.791  1.00  0.00     0.057 A 
ATOM      7  C   UNL A   1      35.969  34.727  33.708  1.00  0.00     0.074 A 
ATOM      8  C   UNL A   1      36.165  32.537  32.749  1.00  0.00     0.065 A 
ATOM      9  C   UNL A   1      35.151  35.167  32.647  1.00  0.00     0.135 A 
ATOM     10  C   UNL A   1      35.352  32.946  31.690  1.00  0.00     0.042 A 
ATOM     11  Cl  UNL A   1      36.668  30.882  32.742  1.00  0.00    -0.082 Cl
BRANCH   6  12
ATOM     12  N   UNL A   1      37.330  33.121  34.858  1.00  0.00    -0.381 N 
ATOM     13  H   UNL A   1      36.956  33.005  35.761  1.00  0.00     0.160 HD
BRANCH  12  14
ATOM     14  C   UNL A   1      38.772  32.978  34.643  1.00  0.00     0.075 C 
ATOM     15  C   UNL A   1      39.412  32.464  35.933  1.00  0.00     0.031 C 
BRANCH  14  16
ATOM     16  C   UNL A   1      39.340  34.352  34.239  1.00  0.00     0.021 C 
ATOM     17  C   UNL A   1      39.667  34.455  32.757  1.00  0.00     0.006 C 
ENDBRANCH  14  16
ENDBRANCH  12  14
ENDBRANCH   6  12
BRANCH   9  18
ATOM     18  O   UNL A   1      34.762  36.464  32.830  1.00  0.00    -0.496 OA
ATOM     19  C   UNL A   1      33.663  36.790  33.663  1.00  0.00     0.278 C 
ENDBRANCH   9  18
ENDBRANCH   3   5
ENDBRANCH   2   3
ENDBRANCH   1   2
BRANCH   1  20
ATOM     20  C   UNL A   1      33.570  32.680  27.721  1.00  0.00     0.275 C 
BRANCH  20  21
ATOM     21  O   UNL A   1      34.299  31.738  28.534  1.00  0.00    -0.458 OA
BRANCH  21  22
ATOM     22  C   UNL A   1      34.480  30.511  27.985  1.00  0.00     0.338 C 
ATOM     23  O   UNL A   1      33.695  29.893  27.286  1.00  0.00    -0.246 OA
BRANCH  22  24
ATOM     24  C   UNL A   1      35.859  30.050  28.253  1.00  0.00     0.060 A 
ATOM     25  C   UNL A   1      36.134  29.497  29.509  1.00  0.00     0.016 A 
ATOM     26  C   UNL A   1      36.870  30.154  27.294  1.00  0.00     0.016 A 
ATOM     27  C   UNL A   1      37.412  29.022  29.800  1.00  0.00     0.010 A 
ATOM     28  C   UNL A   1      38.159  29.704  27.596  1.00  0.00     0.010 A 
ATOM     29  C   UNL A   1      38.436  29.139  28.852  1.00  0.00    -0.014 A 
BRANCH  29  30
ATOM     30  C   UNL A   1      39.820  28.759  29.213  1.00  0.00     0.031 A 
ATOM     31  C   UNL A   1      40.638  29.697  30.049  1.00  0.00     0.074 A 
ATOM     32  C   UNL A   1      40.332  27.584  28.808  1.00  0.00     0.049 A 
ATOM     33  N   UNL A   1      41.863  29.564  30.488  1.00  0.00    -0.248 NA
ATOM     34  C   UNL A   1      39.983  30.951  30.452  1.00  0.00     0.031 C 
ATOM     35  C   UNL A   1      39.616  26.578  28.028  1.00  0.00     0.029 A 
ATOM     36  N   UNL A   1      41.578  27.042  28.997  1.00  0.00    -0.354 N 
ATOM     37  C   UNL A   1      42.119  30.705  31.235  1.00  0.00     0.074 A 
ATOM     38  C   UNL A   1      40.934  31.535  31.163  1.00  0.00     0.031 C 
ATOM     39  C   UNL A   1      40.441  25.543  27.791  1.00  0.00     0.029 A 
ATOM     40  C   UNL A   1      41.747  25.825  28.384  1.00  0.00     0.049 A 
ATOM     41  H   UNL A   1      42.284  27.483  29.523  1.00  0.00     0.167 HD
ATOM     42  C   UNL A   1      43.242  31.030  31.918  1.00  0.00     0.037 A 
ATOM     43  C   UNL A   1      42.839  25.041  28.300  1.00  0.00     0.037 A 
ATOM     44  C   UNL A   1      44.434  30.225  31.946  1.00  0.00     0.049 A 
ATOM     45  C   UNL A   1      44.110  25.475  28.984  1.00  0.00     0.074 A 
ATOM     46  C   UNL A   1      45.631  30.475  32.592  1.00  0.00     0.029 A 
ATOM     47  N   UNL A   1      44.585  29.020  31.276  1.00  0.00    -0.354 N 
ATOM     48  N   UNL A   1      44.334  26.536  29.721  1.00  0.00    -0.248 NA
ATOM     49  C   UNL A   1      45.282  24.599  28.827  1.00  0.00     0.031 C 
ATOM     50  C   UNL A   1      46.523  29.447  32.270  1.00  0.00     0.029 A 
ATOM     51  C   UNL A   1      45.866  28.529  31.467  1.00  0.00     0.049 A 
ATOM     52  H   UNL A   1      43.884  28.577  30.744  1.00  0.00     0.167 HD
ATOM     53  C   UNL A   1      45.657  26.444  30.136  1.00  0.00     0.074 A 
ATOM     54  C   UNL A   1      46.184  25.216  29.578  1.00  0.00     0.031 C 
ATOM     55  C   UNL A   1      46.369  27.299  30.910  1.00  0.00     0.037 A 
BRANCH  42  56
ATOM     56  C   UNL A   1      43.236  32.335  32.656  1.00  0.00     0.064 A 
ATOM     57  C   UNL A   1      43.646  33.527  32.039  1.00  0.00     0.173 A 
ATOM     58  C   UNL A   1      42.818  32.395  33.992  1.00  0.00     0.173 A 
ATOM     59  F   UNL A   1      44.071  33.518  30.767  1.00  0.00    -0.203 F 
ATOM     60  C   UNL A   1      43.666  34.727  32.745  1.00  0.00     0.198 A 
ATOM     61  C   UNL A   1      42.816  33.601  34.687  1.00  0.00     0.198 A 
ATOM     62  F   UNL A   1      42.416  31.284  34.626  1.00  0.00    -0.203 F 
ATOM     63  F   UNL A   1      44.109  35.845  32.153  1.00  0.00    -0.200 F 
ATOM     64  C   UNL A   1      43.248  34.764  34.067  1.00  0.00     0.200 A 
ATOM     65  F   UNL A   1      42.404  33.636  35.963  1.00  0.00    -0.200 F 
ATOM     66  F   UNL A   1      43.271  35.919  34.747  1.00  0.00    -0.200 F 
ENDBRANCH  42  56
BRANCH  43  67
ATOM     67  C   UNL A   1      42.786  23.771  27.530  1.00  0.00     0.064 A 
ATOM     68  C   UNL A   1      43.152  23.726  26.178  1.00  0.00     0.173 A 
ATOM     69  C   UNL A   1      42.347  22.578  28.125  1.00  0.00     0.173 A 
ATOM     70  F   UNL A   1      43.553  24.845  25.556  1.00  0.00    -0.203 F 
ATOM     71  C   UNL A   1      43.066  22.543  25.446  1.00  0.00     0.198 A 
ATOM     72  C   UNL A   1      42.287  21.390  27.400  1.00  0.00     0.198 A 
ATOM     73  F   UNL A   1      41.980  22.567  29.415  1.00  0.00    -0.203 F 
ATOM     74  F   UNL A   1      43.378  22.539  24.143  1.00  0.00    -0.200 F 
ATOM     75  C   UNL A   1      42.639  21.375  26.059  1.00  0.00     0.200 A 
ATOM     76  F   UNL A   1      41.881  20.262  27.999  1.00  0.00    -0.200 F 
ATOM     77  F   UNL A   1      42.556  20.238  25.355  1.00  0.00    -0.200 F 
ENDBRANCH  43  67
BRANCH  55  78
ATOM     78  C   UNL A   1      47.788  26.925  31.228  1.00  0.00     0.064 A 
ATOM     79  C   UNL A   1      48.104  26.082  32.303  1.00  0.00     0.173 A 
ATOM     80  C   UNL A   1      48.839  27.368  30.409  1.00  0.00     0.173 A 
ATOM     81  F   UNL A   1      47.138  25.644  33.124  1.00  0.00    -0.203 F 
ATOM     82  C   UNL A   1      49.422  25.709  32.556  1.00  0.00     0.198 A 
ATOM     83  C   UNL A   1      50.150  26.972  30.648  1.00  0.00     0.198 A 
ATOM     84  F   UNL A   1      48.588  28.171  29.364  1.00  0.00    -0.203 F 
ATOM     85  F   UNL A   1      49.706  24.932  33.611  1.00  0.00    -0.200 F 
ATOM     86  C   UNL A   1      50.442  26.146  31.723  1.00  0.00     0.200 A 
ATOM     87  F   UNL A   1      51.132  27.383  29.834  1.00  0.00    -0.200 F 
ATOM     88  F   UNL A   1      51.708  25.775  31.961  1.00  0.00    -0.200 F 
ENDBRANCH  55  78
ENDBRANCH  29  30
ENDBRANCH  22  24
ENDBRANCH  21  22
ENDBRANCH  20  21
ENDBRANCH   1  20
TORSDOF 15
ENDMDL
MODEL 2
REMARK VINA RESULT:      -9.6      5.264     11.042
REMARK SMILES CC[C@@H](C)Nc1cc(OC)c(C(=O)OCCOC(=O)c2ccc(-c3c4nc(c(-c5c(F)c(F)c(F)c(F)c5F)c5ccc([nH]5)c(-c5c(F)c(F)c(F)c(F)c5F)c5nc(c(-c6c(F)c(F)c(F)c(F)c6F)c6ccc3[nH]6)C=C5)C=C4)cc2)cc1Cl
REMARK SMILES IDX 15 1 14 2 12 3 13 4 11 5 6 6 7 7 84 8 8 9 83 10 85 11 5 12
REMARK SMILES IDX 3 14 4 15 2 16 1 17 9 18 10 19 16 20 17 21 18 22 19 23 20 24
REMARK SMILES IDX 21 25 82 26 22 27 81 28 23 29 24 30 25 31 75 32 26 33 80 34
REMARK SMILES IDX 74 35 76 36 27 37 79 38 73 39 72 40 28 42 60 43 40 44 59 45
REMARK SMILES IDX 41 46 44 47 58 48 77 49 42 50 43 51 57 53 78 54 45 55 29 56
REMARK SMILES IDX 30 57 38 58 31 59 32 60 36 61 39 62 33 63 34 64 37 65 35 66
REMARK SMILES IDX 61 67 62 68 70 69 63 70 64 71 68 72 71 73 65 74 66 75 69 76
REMARK SMILES IDX 67 77 46 78 47 79 55 80 48 81 49 82 53 83 56 84 50 85 51 86
REMARK SMILES IDX 54 87 52 88
REMARK H PARENT 5 13 76 41 44 52
REMARK Flexibility Score: inf
ROOT
ATOM      1  C   UNL A   1      42.997  20.543  25.945  1.00  0.00     0.275 C 
ENDROOT
BRANCH   1   2
ATOM      2  O   UNL A   1      41.647  20.893  25.597  1.00  0.00    -0.458 OA
BRANCH   2   3
ATOM      3  C   UNL A   1      40.700  20.654  26.532  1.00  0.00     0.342 C 
ATOM      4  O   UNL A   1      40.790  19.936  27.509  1.00  0.00    -0.246 OA
BRANCH   3   5
ATOM      5  C   UNL A   1      39.530  21.477  26.184  1.00  0.00     0.103 A 
ATOM      6  C   UNL A   1      37.374  23.254  25.701  1.00  0.00     0.057 A 
ATOM      7  C   UNL A   1      37.414  21.962  25.147  1.00  0.00     0.074 A 
ATOM      8  C   UNL A   1      38.460  23.643  26.503  1.00  0.00     0.065 A 
ATOM      9  C   UNL A   1      38.472  21.059  25.372  1.00  0.00     0.135 A 
ATOM     10  C   UNL A   1      39.518  22.765  26.745  1.00  0.00     0.042 A 
ATOM     11  Cl  UNL A   1      38.526  25.173  27.307  1.00  0.00    -0.082 Cl
BRANCH   6  12
ATOM     12  N   UNL A   1      36.303  24.078  25.360  1.00  0.00    -0.381 N 
ATOM     13  H   UNL A   1      36.472  24.985  25.018  1.00  0.00     0.160 HD
BRANCH  12  14
ATOM     14  C   UNL A   1      34.926  23.601  25.510  1.00  0.00     0.075 C 
ATOM     15  C   UNL A   1      33.989  24.809  25.548  1.00  0.00     0.031 C 
BRANCH  14  16
ATOM     16  C   UNL A   1      34.837  22.777  26.809  1.00  0.00     0.021 C 
ATOM     17  C   UNL A   1      33.441  22.757  27.414  1.00  0.00     0.006 C 
ENDBRANCH  14  16
ENDBRANCH  12  14
ENDBRANCH   6  12
BRANCH   9  18
ATOM     18  O   UNL A   1      38.244  19.866  24.746  1.00  0.00    -0.496 OA
ATOM     19  C   UNL A   1      37.066  19.118  24.999  1.00  0.00     0.278 C 
ENDBRANCH   9  18
ENDBRANCH   3   5
ENDBRANCH   2   3
ENDBRANCH   1   2
BRANCH   1  20
ATOM     20  C   UNL A   1      43.942  21.584  25.345  1.00  0.00     0.275 C 
BRANCH  20  21
ATOM     21  O   UNL A   1      43.205  22.760  24.953  1.00  0.00    -0.458 OA
BRANCH  21  22
ATOM     22  C   UNL A   1      43.895  23.927  25.010  1.00  0.00     0.338 C 
ATOM     23  O   UNL A   1      44.774  24.301  24.251  1.00  0.00    -0.246 OA
BRANCH  22  24
ATOM     24  C   UNL A   1      43.338  24.776  26.083  1.00  0.00     0.060 A 
ATOM     25  C   UNL A   1      43.699  26.129  26.106  1.00  0.00     0.016 A 
ATOM     26  C   UNL A   1      42.472  24.264  27.054  1.00  0.00     0.016 A 
ATOM     27  C   UNL A   1      43.176  26.977  27.081  1.00  0.00     0.010 A 
ATOM     28  C   UNL A   1      41.970  25.109  28.049  1.00  0.00     0.010 A 
ATOM     29  C   UNL A   1      42.324  26.468  28.068  1.00  0.00    -0.014 A 
BRANCH  29  30
ATOM     30  C   UNL A   1      41.880  27.340  29.179  1.00  0.00     0.031 A 
ATOM     31  C   UNL A   1      42.633  27.307  30.475  1.00  0.00     0.074 A 
ATOM     32  C   UNL A   1      40.827  28.159  29.024  1.00  0.00     0.049 A 
ATOM     33  N   UNL A   1      42.427  27.990  31.572  1.00  0.00    -0.248 NA
ATOM     34  C   UNL A   1      43.779  26.387  30.540  1.00  0.00     0.031 C 
ATOM     35  C   UNL A   1      40.047  28.304  27.797  1.00  0.00     0.029 A 
ATOM     36  N   UNL A   1      40.230  29.022  29.908  1.00  0.00    -0.354 N 
ATOM     37  C   UNL A   1      43.427  27.597  32.450  1.00  0.00     0.074 A 
ATOM     38  C   UNL A   1      44.221  26.594  31.771  1.00  0.00     0.031 C 
ATOM     39  C   UNL A   1      39.062  29.195  28.010  1.00  0.00     0.029 A 
ATOM     40  C   UNL A   1      39.131  29.664  29.393  1.00  0.00     0.049 A 
ATOM     41  H   UNL A   1      40.559  29.169  30.824  1.00  0.00     0.167 HD
ATOM     42  C   UNL A   1      43.662  28.036  33.710  1.00  0.00     0.037 A 
ATOM     43  C   UNL A   1      38.270  30.518  29.981  1.00  0.00     0.037 A 
ATOM     44  C   UNL A   1      42.841  28.997  34.398  1.00  0.00     0.049 A 
ATOM     45  C   UNL A   1      38.494  30.912  31.419  1.00  0.00     0.074 A 
ATOM     46  C   UNL A   1      42.982  29.493  35.681  1.00  0.00     0.029 A 
ATOM     47  N   UNL A   1      41.709  29.592  33.861  1.00  0.00    -0.354 N 
ATOM     48  N   UNL A   1      39.463  30.567  32.232  1.00  0.00    -0.248 NA
ATOM     49  C   UNL A   1      37.503  31.817  32.021  1.00  0.00     0.031 C 
ATOM     50  C   UNL A   1      41.905  30.347  35.940  1.00  0.00     0.029 A 
ATOM     51  C   UNL A   1      41.123  30.426  34.800  1.00  0.00     0.049 A 
ATOM     52  H   UNL A   1      41.372  29.444  32.948  1.00  0.00     0.167 HD
ATOM     53  C   UNL A   1      39.217  31.231  33.428  1.00  0.00     0.074 A 
ATOM     54  C   UNL A   1      38.011  32.008  33.231  1.00  0.00     0.031 C 
ATOM     55  C   UNL A   1      39.926  31.199  34.582  1.00  0.00     0.037 A 
BRANCH  42  56
ATOM     56  C   UNL A   1      44.833  27.441  34.431  1.00  0.00     0.064 A 
ATOM     57  C   UNL A   1      46.093  28.060  34.418  1.00  0.00     0.173 A 
ATOM     58  C   UNL A   1      44.697  26.240  35.141  1.00  0.00     0.173 A 
ATOM     59  F   UNL A   1      46.278  29.201  33.738  1.00  0.00    -0.203 F 
ATOM     60  C   UNL A   1      47.181  27.480  35.065  1.00  0.00     0.198 A 
ATOM     61  C   UNL A   1      45.781  25.677  35.808  1.00  0.00     0.198 A 
ATOM     62  F   UNL A   1      43.514  25.611  35.184  1.00  0.00    -0.203 F 
ATOM     63  F   UNL A   1      48.387  28.061  34.998  1.00  0.00    -0.200 F 
ATOM     64  C   UNL A   1      47.023  26.291  35.762  1.00  0.00     0.200 A 
ATOM     65  F   UNL A   1      45.625  24.532  36.487  1.00  0.00    -0.200 F 
ATOM     66  F   UNL A   1      48.072  25.733  36.382  1.00  0.00    -0.200 F 
ENDBRANCH  42  56
BRANCH  43  67
ATOM     67  C   UNL A   1      37.112  31.051  29.218  1.00  0.00     0.064 A 
ATOM     68  C   UNL A   1      37.070  32.389  28.804  1.00  0.00     0.173 A 
ATOM     69  C   UNL A   1      36.011  30.238  28.906  1.00  0.00     0.173 A 
ATOM     70  F   UNL A   1      38.086  33.214  29.101  1.00  0.00    -0.203 F 
ATOM     71  C   UNL A   1      35.967  32.899  28.122  1.00  0.00     0.198 A 
ATOM     72  C   UNL A   1      34.920  30.742  28.201  1.00  0.00     0.198 A 
ATOM     73  F   UNL A   1      35.999  28.951  29.284  1.00  0.00    -0.203 F 
ATOM     74  F   UNL A   1      35.933  34.193  27.778  1.00  0.00    -0.200 F 
ATOM     75  C   UNL A   1      34.896  32.073  27.816  1.00  0.00     0.200 A 
ATOM     76  F   UNL A   1      33.891  29.938  27.900  1.00  0.00    -0.200 F 
ATOM     77  F   UNL A   1      33.834  32.564  27.160  1.00  0.00    -0.200 F 
ENDBRANCH  43  67
BRANCH  55  78
ATOM     78  C   UNL A   1      39.437  32.052  35.717  1.00  0.00     0.064 A 
ATOM     79  C   UNL A   1      39.853  33.382  35.871  1.00  0.00     0.173 A 
ATOM     80  C   UNL A   1      38.494  31.548  36.627  1.00  0.00     0.173 A 
ATOM     81  F   UNL A   1      40.765  33.905  35.038  1.00  0.00    -0.203 F 
ATOM     82  C   UNL A   1      39.355  34.172  36.904  1.00  0.00     0.198 A 
ATOM     83  C   UNL A   1      37.977  32.348  37.641  1.00  0.00     0.198 A 
ATOM     84  F   UNL A   1      38.059  30.283  36.519  1.00  0.00    -0.203 F 
ATOM     85  F   UNL A   1      39.794  35.429  37.055  1.00  0.00    -0.200 F 
ATOM     86  C   UNL A   1      38.411  33.658  37.781  1.00  0.00     0.200 A 
ATOM     87  F   UNL A   1      37.056  31.854  38.479  1.00  0.00    -0.200 F 
ATOM     88  F   UNL A   1      37.922  34.424  38.767  1.00  0.00    -0.200 F 
ENDBRANCH  55  78
ENDBRANCH  29  30
ENDBRANCH  22  24
ENDBRANCH  21  22
ENDBRANCH  20  21
ENDBRANCH   1  20
TORSDOF 15
ENDMDL
MODEL 3
REMARK VINA RESULT:      -9.6      4.373     10.084
REMARK SMILES CC[C@@H](C)Nc1cc(OC)c(C(=O)OCCOC(=O)c2ccc(-c3c4nc(c(-c5c(F)c(F)c(F)c(F)c5F)c5ccc([nH]5)c(-c5c(F)c(F)c(F)c(F)c5F)c5nc(c(-c6c(F)c(F)c(F)c(F)c6F)c6ccc3[nH]6)C=C5)C=C4)cc2)cc1Cl
REMARK SMILES IDX 15 1 14 2 12 3 13 4 11 5 6 6 7 7 84 8 8 9 83 10 85 11 5 12
REMARK SMILES IDX 3 14 4 15 2 16 1 17 9 18 10 19 16 20 17 21 18 22 19 23 20 24
REMARK SMILES IDX 21 25 82 26 22 27 81 28 23 29 24 30 25 31 75 32 26 33 80 34
REMARK SMILES IDX 74 35 76 36 27 37 79 38 73 39 72 40 28 42 60 43 40 44 59 45
REMARK SMILES IDX 41 46 44 47 58 48 77 49 42 50 43 51 57 53 78 54 45 55 29 56
REMARK SMILES IDX 30 57 38 58 31 59 32 60 36 61 39 62 33 63 34 64 37 65 35 66
REMARK SMILES IDX 61 67 62 68 70 69 63 70 64 71 68 72 71 73 65 74 66 75 69 76
REMARK SMILES IDX 67 77 46 78 47 79 55 80 48 81 49 82 53 83 56 84 50 85 51 86
REMARK SMILES IDX 54 87 52 88
REMARK H PARENT 5 13 76 41 44 52
REMARK Flexibility Score: inf
ROOT
ATOM      1  C   UNL A   1      31.675  28.841  24.769  1.00  0.00     0.275 C 
ENDROOT
BRANCH   1   2
ATOM      2  O   UNL A   1      32.782  27.995  25.123  1.00  0.00    -0.458 OA
BRANCH   2   3
ATOM      3  C   UNL A   1      33.654  27.694  24.134  1.00  0.00     0.342 C 
ATOM      4  O   UNL A   1      34.353  28.465  23.505  1.00  0.00    -0.246 OA
BRANCH   3   5
ATOM      5  C   UNL A   1      33.653  26.230  23.986  1.00  0.00     0.103 A 
ATOM      6  C   UNL A   1      33.704  23.394  23.981  1.00  0.00     0.057 A 
ATOM      7  C   UNL A   1      33.616  24.141  22.792  1.00  0.00     0.074 A 
ATOM      8  C   UNL A   1      33.755  24.112  25.187  1.00  0.00     0.065 A 
ATOM      9  C   UNL A   1      33.590  25.550  22.767  1.00  0.00     0.135 A 
ATOM     10  C   UNL A   1      33.736  25.508  25.189  1.00  0.00     0.042 A 
ATOM     11  Cl  UNL A   1      33.931  23.339  26.725  1.00  0.00    -0.082 Cl
BRANCH   6  12
ATOM     12  N   UNL A   1      33.664  22.005  23.883  1.00  0.00    -0.381 N 
ATOM     13  H   UNL A   1      34.502  21.495  23.800  1.00  0.00     0.160 HD
BRANCH  12  14
ATOM     14  C   UNL A   1      32.380  21.298  23.902  1.00  0.00     0.075 C 
ATOM     15  C   UNL A   1      32.186  20.672  25.283  1.00  0.00     0.031 C 
BRANCH  14  16
ATOM     16  C   UNL A   1      32.400  20.227  22.795  1.00  0.00     0.021 C 
ATOM     17  C   UNL A   1      32.439  18.805  23.334  1.00  0.00     0.006 C 
ENDBRANCH  14  16
ENDBRANCH  12  14
ENDBRANCH   6  12
BRANCH   9  18
ATOM     18  O   UNL A   1      33.535  26.019  21.484  1.00  0.00    -0.496 OA
ATOM     19  C   UNL A   1      32.482  25.649  20.611  1.00  0.00     0.278 C 
ENDBRANCH   9  18
ENDBRANCH   3   5
ENDBRANCH   2   3
ENDBRANCH   1   2
BRANCH   1  20
ATOM     20  C   UNL A   1      31.817  30.169  25.514  1.00  0.00     0.275 C 
BRANCH  20  21
ATOM     21  O   UNL A   1      33.172  30.337  25.980  1.00  0.00    -0.458 OA
BRANCH  21  22
ATOM     22  C   UNL A   1      33.344  31.273  26.947  1.00  0.00     0.338 C 
ATOM     23  O   UNL A   1      32.568  32.159  27.262  1.00  0.00    -0.246 OA
BRANCH  22  24
ATOM     24  C   UNL A   1      34.594  30.994  27.684  1.00  0.00     0.060 A 
ATOM     25  C   UNL A   1      34.840  29.676  28.087  1.00  0.00     0.016 A 
ATOM     26  C   UNL A   1      35.518  32.002  27.978  1.00  0.00     0.016 A 
ATOM     27  C   UNL A   1      36.019  29.357  28.759  1.00  0.00     0.010 A 
ATOM     28  C   UNL A   1      36.686  31.687  28.678  1.00  0.00     0.010 A 
ATOM     29  C   UNL A   1      36.940  30.363  29.074  1.00  0.00    -0.014 A 
BRANCH  29  30
ATOM     30  C   UNL A   1      38.123  30.046  29.906  1.00  0.00     0.031 A 
ATOM     31  C   UNL A   1      39.161  29.109  29.367  1.00  0.00     0.074 A 
ATOM     32  C   UNL A   1      38.270  30.600  31.121  1.00  0.00     0.049 A 
ATOM     33  N   UNL A   1      40.276  28.700  29.916  1.00  0.00    -0.248 NA
ATOM     34  C   UNL A   1      38.914  28.565  28.022  1.00  0.00     0.031 C 
ATOM     35  C   UNL A   1      37.346  31.555  31.728  1.00  0.00     0.029 A 
ATOM     36  N   UNL A   1      39.254  30.435  32.063  1.00  0.00    -0.354 N 
ATOM     37  C   UNL A   1      40.872  27.868  28.979  1.00  0.00     0.074 A 
ATOM     38  C   UNL A   1      39.982  27.804  27.839  1.00  0.00     0.031 C 
ATOM     39  C   UNL A   1      37.800  31.883  32.951  1.00  0.00     0.029 A 
ATOM     40  C   UNL A   1      39.033  31.144  33.218  1.00  0.00     0.049 A 
ATOM     41  H   UNL A   1      40.044  29.865  31.924  1.00  0.00     0.167 HD
ATOM     42  C   UNL A   1      42.057  27.218  29.064  1.00  0.00     0.037 A 
ATOM     43  C   UNL A   1      39.740  31.174  34.365  1.00  0.00     0.037 A 
ATOM     44  C   UNL A   1      42.914  27.245  30.218  1.00  0.00     0.049 A 
ATOM     45  C   UNL A   1      41.003  30.359  34.472  1.00  0.00     0.074 A 
ATOM     46  C   UNL A   1      44.125  26.605  30.411  1.00  0.00     0.029 A 
ATOM     47  N   UNL A   1      42.637  27.937  31.388  1.00  0.00    -0.354 N 
ATOM     48  N   UNL A   1      41.582  29.605  33.568  1.00  0.00    -0.248 NA
ATOM     49  C   UNL A   1      41.713  30.400  35.759  1.00  0.00     0.031 C 
ATOM     50  C   UNL A   1      44.554  26.867  31.716  1.00  0.00     0.029 A 
ATOM     51  C   UNL A   1      43.638  27.713  32.319  1.00  0.00     0.049 A 
ATOM     52  H   UNL A   1      41.846  28.504  31.535  1.00  0.00     0.167 HD
ATOM     53  C   UNL A   1      42.733  29.106  34.164  1.00  0.00     0.074 A 
ATOM     54  C   UNL A   1      42.778  29.651  35.506  1.00  0.00     0.031 C 
ATOM     55  C   UNL A   1      43.669  28.272  33.647  1.00  0.00     0.037 A 
BRANCH  42  56
ATOM     56  C   UNL A   1      42.464  26.390  27.882  1.00  0.00     0.064 A 
ATOM     57  C   UNL A   1      43.334  26.891  26.902  1.00  0.00     0.173 A 
ATOM     58  C   UNL A   1      41.980  25.083  27.729  1.00  0.00     0.173 A 
ATOM     59  F   UNL A   1      43.810  28.141  26.996  1.00  0.00    -0.203 F 
ATOM     60  C   UNL A   1      43.680  26.122  25.793  1.00  0.00     0.198 A 
ATOM     61  C   UNL A   1      42.348  24.309  26.631  1.00  0.00     0.198 A 
ATOM     62  F   UNL A   1      41.147  24.559  28.639  1.00  0.00    -0.203 F 
ATOM     63  F   UNL A   1      44.471  26.638  24.842  1.00  0.00    -0.200 F 
ATOM     64  C   UNL A   1      43.189  24.831  25.660  1.00  0.00     0.200 A 
ATOM     65  F   UNL A   1      41.879  23.060  26.509  1.00  0.00    -0.200 F 
ATOM     66  F   UNL A   1      43.520  24.094  24.591  1.00  0.00    -0.200 F 
ENDBRANCH  42  56
BRANCH  43  67
ATOM     67  C   UNL A   1      39.267  31.995  35.509  1.00  0.00     0.064 A 
ATOM     68  C   UNL A   1      39.683  33.324  35.671  1.00  0.00     0.173 A 
ATOM     69  C   UNL A   1      38.403  31.461  36.479  1.00  0.00     0.173 A 
ATOM     70  F   UNL A   1      40.530  33.872  34.786  1.00  0.00    -0.203 F 
ATOM     71  C   UNL A   1      39.269  34.081  36.765  1.00  0.00     0.198 A 
ATOM     72  C   UNL A   1      37.969  32.228  37.558  1.00  0.00     0.198 A 
ATOM     73  F   UNL A   1      37.978  30.193  36.374  1.00  0.00    -0.203 F 
ATOM     74  F   UNL A   1      39.720  35.333  36.920  1.00  0.00    -0.200 F 
ATOM     75  C   UNL A   1      38.408  33.535  37.704  1.00  0.00     0.200 A 
ATOM     76  F   UNL A   1      37.129  31.698  38.458  1.00  0.00    -0.200 F 
ATOM     77  F   UNL A   1      38.010  34.263  38.757  1.00  0.00    -0.200 F 
ENDBRANCH  43  67
BRANCH  55  78
ATOM     78  C   UNL A   1      44.839  27.920  34.519  1.00  0.00     0.064 A 
ATOM     79  C   UNL A   1      44.832  26.780  35.335  1.00  0.00     0.173 A 
ATOM     80  C   UNL A   1      46.005  28.701  34.491  1.00  0.00     0.173 A 
ATOM     81  F   UNL A   1      43.736  26.009  35.409  1.00  0.00    -0.203 F 
ATOM     82  C   UNL A   1      45.943  26.444  36.104  1.00  0.00     0.198 A 
ATOM     83  C   UNL A   1      47.123  28.348  35.239  1.00  0.00     0.198 A 
ATOM     84  F   UNL A   1      46.065  29.799  33.722  1.00  0.00    -0.203 F 
ATOM     85  F   UNL A   1      45.902  25.370  36.905  1.00  0.00    -0.200 F 
ATOM     86  C   UNL A   1      47.091  27.221  36.048  1.00  0.00     0.200 A 
ATOM     87  F   UNL A   1      48.235  29.093  35.173  1.00  0.00    -0.200 F 
ATOM     88  F   UNL A   1      48.164  26.889  36.778  1.00  0.00    -0.200 F 
ENDBRANCH  55  78
ENDBRANCH  29  30
ENDBRANCH  22  24
ENDBRANCH  21  22
ENDBRANCH  20  21
ENDBRANCH   1  20
TORSDOF 15
ENDMDL
