MODEL 1
REMARK VINA RESULT:      -9.5      0.000      0.000
REMARK SMILES [NH3+][C@@H](CC(=O)OCCOC(=O)c1ccc(-c2c3nc(c(-c4c(F)c(F)c(F)c(F)c4F)c4ccc([nH]4)c(-c4c(F)c(F)c(F)c(F)c4F)c4nc(c(-c5c(F)c(F)c(F)c(F)c5F)c5ccc2[nH]5)C=C4)C=C3)cc1)c1cc([N+](=O)[O-])ccc1Cl
REMARK SMILES IDX 7 1 6 2 4 3 5 4 3 5 2 6 1 7 75 11 76 12 83 13 77 14 82 15
REMARK SMILES IDX 84 16 81 17 78 18 79 19 80 20 8 21 9 22 10 23 11 24 12 25
REMARK SMILES IDX 13 26 74 27 14 28 73 29 15 30 16 31 17 32 67 33 18 34 72 35
REMARK SMILES IDX 66 36 68 37 19 38 71 39 65 40 64 41 20 43 52 44 32 45 51 46
REMARK SMILES IDX 33 47 36 48 50 49 69 50 34 51 35 52 49 54 70 55 37 56 21 57
REMARK SMILES IDX 22 58 30 59 23 60 24 61 28 62 31 63 25 64 26 65 29 66 27 67
REMARK SMILES IDX 53 68 54 69 62 70 55 71 56 72 60 73 63 74 57 75 58 76 61 77
REMARK SMILES IDX 59 78 38 79 39 80 47 81 40 82 41 83 45 84 48 85 42 86 43 87
REMARK SMILES IDX 46 88 44 89
REMARK H PARENT 1 8 1 9 1 10 68 42 36 53
REMARK Flexibility Score: inf
ROOT
ATOM      1  C   UNL A   1      33.284  36.448  30.241  1.00  0.00     0.274 C 
ENDROOT
BRANCH   1   2
ATOM      2  O   UNL A   1      33.160  35.669  31.451  1.00  0.00    -0.462 OA
BRANCH   2   3
ATOM      3  C   UNL A   1      34.294  35.576  32.193  1.00  0.00     0.312 C 
ATOM      4  O   UNL A   1      34.712  36.463  32.933  1.00  0.00    -0.252 OA
BRANCH   3   5
ATOM      5  C   UNL A   1      35.120  34.345  31.912  1.00  0.00     0.192 C 
BRANCH   5   6
ATOM      6  C   UNL A   1      34.830  33.022  32.646  1.00  0.00     0.225 C 
BRANCH   6   7
ATOM      7  N   UNL A   1      33.710  33.252  33.583  1.00  0.00    -0.351 N 
ATOM      8  H   UNL A   1      32.840  32.935  33.158  1.00  0.00     0.345 HD
ATOM      9  H   UNL A   1      33.642  34.248  33.794  1.00  0.00     0.345 HD
ATOM     10  H   UNL A   1      33.876  32.734  34.446  1.00  0.00     0.345 HD
ENDBRANCH   6   7
BRANCH   6  11
ATOM     11  C   UNL A   1      35.960  32.215  33.299  1.00  0.00     0.035 A 
ATOM     12  C   UNL A   1      36.344  30.981  32.710  1.00  0.00     0.097 A 
ATOM     13  C   UNL A   1      36.782  32.677  34.346  1.00  0.00     0.050 A 
ATOM     14  C   UNL A   1      37.410  30.219  33.213  1.00  0.00     0.270 A 
ATOM     15  C   UNL A   1      37.789  31.866  34.905  1.00  0.00     0.028 A 
ATOM     16  Cl  UNL A   1      36.781  34.314  34.890  1.00  0.00    -0.084 Cl
ATOM     17  C   UNL A   1      38.102  30.628  34.348  1.00  0.00     0.087 A 
BRANCH  14  18
ATOM     18  N   UNL A   1      37.859  29.027  32.487  1.00  0.00     0.062 N 
ATOM     19  O   UNL A   1      38.818  28.397  32.954  1.00  0.00    -0.258 OA
ATOM     20  O   UNL A   1      37.228  28.703  31.470  1.00  0.00    -0.258 OA
ENDBRANCH  14  18
ENDBRANCH   6  11
ENDBRANCH   5   6
ENDBRANCH   3   5
ENDBRANCH   2   3
ENDBRANCH   1   2
BRANCH   1  21
ATOM     21  C   UNL A   1      32.781  35.693  29.013  1.00  0.00     0.275 C 
BRANCH  21  22
ATOM     22  O   UNL A   1      33.884  35.160  28.261  1.00  0.00    -0.458 OA
BRANCH  22  23
ATOM     23  C   UNL A   1      33.848  33.829  28.039  1.00  0.00     0.338 C 
ATOM     24  O   UNL A   1      32.917  33.174  27.592  1.00  0.00    -0.246 OA
BRANCH  23  25
ATOM     25  C   UNL A   1      35.129  33.212  28.422  1.00  0.00     0.060 A 
ATOM     26  C   UNL A   1      35.161  31.957  29.030  1.00  0.00     0.016 A 
ATOM     27  C   UNL A   1      36.302  33.958  28.296  1.00  0.00     0.016 A 
ATOM     28  C   UNL A   1      36.348  31.488  29.590  1.00  0.00     0.010 A 
ATOM     29  C   UNL A   1      37.507  33.445  28.783  1.00  0.00     0.010 A 
ATOM     30  C   UNL A   1      37.538  32.220  29.469  1.00  0.00    -0.014 A 
BRANCH  30  31
ATOM     31  C   UNL A   1      38.809  31.723  30.061  1.00  0.00     0.031 A 
ATOM     32  C   UNL A   1      39.455  30.466  29.539  1.00  0.00     0.074 A 
ATOM     33  C   UNL A   1      39.381  32.385  31.084  1.00  0.00     0.049 A 
ATOM     34  N   UNL A   1      40.428  29.758  30.055  1.00  0.00    -0.248 NA
ATOM     35  C   UNL A   1      38.932  29.930  28.274  1.00  0.00     0.031 C 
ATOM     36  C   UNL A   1      38.896  33.638  31.661  1.00  0.00     0.029 A 
ATOM     37  N   UNL A   1      40.495  32.085  31.832  1.00  0.00    -0.354 N 
ATOM     38  C   UNL A   1      40.599  28.671  29.208  1.00  0.00     0.074 A 
ATOM     39  C   UNL A   1      39.634  28.812  28.139  1.00  0.00     0.031 C 
ATOM     40  C   UNL A   1      39.713  34.011  32.657  1.00  0.00     0.029 A 
ATOM     41  C   UNL A   1      40.727  32.979  32.847  1.00  0.00     0.049 A 
ATOM     42  H   UNL A   1      41.070  31.305  31.656  1.00  0.00     0.167 HD
ATOM     43  C   UNL A   1      41.480  27.647  29.319  1.00  0.00     0.037 A 
ATOM     44  C   UNL A   1      41.617  32.949  33.856  1.00  0.00     0.037 A 
ATOM     45  C   UNL A   1      42.474  27.533  30.354  1.00  0.00     0.049 A 
ATOM     46  C   UNL A   1      42.552  31.783  33.984  1.00  0.00     0.074 A 
ATOM     47  C   UNL A   1      43.429  26.547  30.531  1.00  0.00     0.029 A 
ATOM     48  N   UNL A   1      42.649  28.446  31.383  1.00  0.00    -0.354 N 
ATOM     49  N   UNL A   1      42.665  30.729  33.215  1.00  0.00    -0.248 NA
ATOM     50  C   UNL A   1      43.464  31.790  35.134  1.00  0.00     0.031 C 
ATOM     51  C   UNL A   1      44.162  26.846  31.684  1.00  0.00     0.029 A 
ATOM     52  C   UNL A   1      43.686  28.037  32.206  1.00  0.00     0.049 A 
ATOM     53  H   UNL A   1      42.115  29.263  31.511  1.00  0.00     0.167 HD
ATOM     54  C   UNL A   1      43.661  29.950  33.782  1.00  0.00     0.074 A 
ATOM     55  C   UNL A   1      44.134  30.660  34.953  1.00  0.00     0.031 C 
ATOM     56  C   UNL A   1      44.137  28.750  33.371  1.00  0.00     0.037 A 
BRANCH  43  57
ATOM     57  C   UNL A   1      41.399  26.541  28.309  1.00  0.00     0.064 A 
ATOM     58  C   UNL A   1      42.359  26.390  27.299  1.00  0.00     0.173 A 
ATOM     59  C   UNL A   1      40.384  25.575  28.403  1.00  0.00     0.173 A 
ATOM     60  F   UNL A   1      43.340  27.294  27.160  1.00  0.00    -0.203 F 
ATOM     61  C   UNL A   1      42.300  25.316  26.413  1.00  0.00     0.198 A 
ATOM     62  C   UNL A   1      40.342  24.493  27.530  1.00  0.00     0.198 A 
ATOM     63  F   UNL A   1      39.446  25.673  29.356  1.00  0.00    -0.203 F 
ATOM     64  F   UNL A   1      43.214  25.203  25.438  1.00  0.00    -0.200 F 
ATOM     65  C   UNL A   1      41.298  24.365  26.535  1.00  0.00     0.200 A 
ATOM     66  F   UNL A   1      39.378  23.569  27.655  1.00  0.00    -0.200 F 
ATOM     67  F   UNL A   1      41.253  23.325  25.690  1.00  0.00    -0.200 F 
ENDBRANCH  43  57
BRANCH  44  68
ATOM     68  C   UNL A   1      41.620  34.048  34.853  1.00  0.00     0.064 A 
ATOM     69  C   UNL A   1      42.229  35.276  34.570  1.00  0.00     0.173 A 
ATOM     70  C   UNL A   1      40.979  33.902  36.093  1.00  0.00     0.173 A 
ATOM     71  F   UNL A   1      42.874  35.451  33.408  1.00  0.00    -0.203 F 
ATOM     72  C   UNL A   1      42.195  36.322  35.490  1.00  0.00     0.198 A 
ATOM     73  C   UNL A   1      40.923  34.956  37.000  1.00  0.00     0.198 A 
ATOM     74  F   UNL A   1      40.382  32.744  36.408  1.00  0.00    -0.203 F 
ATOM     75  F   UNL A   1      42.805  37.480  35.206  1.00  0.00    -0.200 F 
ATOM     76  C   UNL A   1      41.533  36.165  36.699  1.00  0.00     0.200 A 
ATOM     77  F   UNL A   1      40.270  34.804  38.160  1.00  0.00    -0.200 F 
ATOM     78  F   UNL A   1      41.484  37.177  37.575  1.00  0.00    -0.200 F 
ENDBRANCH  44  68
BRANCH  56  79
ATOM     79  C   UNL A   1      45.235  28.139  34.188  1.00  0.00     0.064 A 
ATOM     80  C   UNL A   1      46.582  28.432  33.933  1.00  0.00     0.173 A 
ATOM     81  C   UNL A   1      44.935  27.271  35.248  1.00  0.00     0.173 A 
ATOM     82  F   UNL A   1      46.916  29.243  32.919  1.00  0.00    -0.203 F 
ATOM     83  C   UNL A   1      47.593  27.862  34.701  1.00  0.00     0.198 A 
ATOM     84  C   UNL A   1      45.947  26.720  36.026  1.00  0.00     0.198 A 
ATOM     85  F   UNL A   1      43.660  26.964  35.529  1.00  0.00    -0.203 F 
ATOM     86  F   UNL A   1      48.876  28.125  34.418  1.00  0.00    -0.200 F 
ATOM     87  C   UNL A   1      47.275  27.010  35.750  1.00  0.00     0.200 A 
ATOM     88  F   UNL A   1      45.639  25.901  37.042  1.00  0.00    -0.200 F 
ATOM     89  F   UNL A   1      48.250  26.462  36.488  1.00  0.00    -0.200 F 
ENDBRANCH  56  79
ENDBRANCH  30  31
ENDBRANCH  23  25
ENDBRANCH  22  23
ENDBRANCH  21  22
ENDBRANCH   1  21
TORSDOF 15
ENDMDL
MODEL 2
REMARK VINA RESULT:      -9.3      4.472      6.525
REMARK SMILES [NH3+][C@@H](CC(=O)OCCOC(=O)c1ccc(-c2c3nc(c(-c4c(F)c(F)c(F)c(F)c4F)c4ccc([nH]4)c(-c4c(F)c(F)c(F)c(F)c4F)c4nc(c(-c5c(F)c(F)c(F)c(F)c5F)c5ccc2[nH]5)C=C4)C=C3)cc1)c1cc([N+](=O)[O-])ccc1Cl
REMARK SMILES IDX 7 1 6 2 4 3 5 4 3 5 2 6 1 7 75 11 76 12 83 13 77 14 82 15
REMARK SMILES IDX 84 16 81 17 78 18 79 19 80 20 8 21 9 22 10 23 11 24 12 25
REMARK SMILES IDX 13 26 74 27 14 28 73 29 15 30 16 31 17 32 67 33 18 34 72 35
REMARK SMILES IDX 66 36 68 37 19 38 71 39 65 40 64 41 20 43 52 44 32 45 51 46
REMARK SMILES IDX 33 47 36 48 50 49 69 50 34 51 35 52 49 54 70 55 37 56 21 57
REMARK SMILES IDX 22 58 30 59 23 60 24 61 28 62 31 63 25 64 26 65 29 66 27 67
REMARK SMILES IDX 53 68 54 69 62 70 55 71 56 72 60 73 63 74 57 75 58 76 61 77
REMARK SMILES IDX 59 78 38 79 39 80 47 81 40 82 41 83 45 84 48 85 42 86 43 87
REMARK SMILES IDX 46 88 44 89
REMARK H PARENT 1 8 1 9 1 10 68 42 36 53
REMARK Flexibility Score: inf
ROOT
ATOM      1  C   UNL A   1      32.080  27.841  26.285  1.00  0.00     0.274 C 
ENDROOT
BRANCH   1   2
ATOM      2  O   UNL A   1      31.016  27.007  26.793  1.00  0.00    -0.462 OA
BRANCH   2   3
ATOM      3  C   UNL A   1      30.865  25.816  26.157  1.00  0.00     0.312 C 
ATOM      4  O   UNL A   1      30.337  24.827  26.657  1.00  0.00    -0.252 OA
BRANCH   3   5
ATOM      5  C   UNL A   1      31.559  25.735  24.819  1.00  0.00     0.192 C 
BRANCH   5   6
ATOM      6  C   UNL A   1      30.771  25.950  23.513  1.00  0.00     0.225 C 
BRANCH   6   7
ATOM      7  N   UNL A   1      31.402  25.131  22.456  1.00  0.00    -0.351 N 
ATOM      8  H   UNL A   1      30.807  24.330  22.247  1.00  0.00     0.345 HD
ATOM      9  H   UNL A   1      32.313  24.803  22.778  1.00  0.00     0.345 HD
ATOM     10  H   UNL A   1      31.522  25.694  21.615  1.00  0.00     0.345 HD
ENDBRANCH   6   7
BRANCH   6  11
ATOM     11  C   UNL A   1      30.436  27.361  23.014  1.00  0.00     0.035 A 
ATOM     12  C   UNL A   1      29.112  27.847  23.183  1.00  0.00     0.097 A 
ATOM     13  C   UNL A   1      31.379  28.300  22.552  1.00  0.00     0.050 A 
ATOM     14  C   UNL A   1      28.747  29.150  22.809  1.00  0.00     0.270 A 
ATOM     15  C   UNL A   1      30.988  29.573  22.092  1.00  0.00     0.028 A 
ATOM     16  Cl  UNL A   1      33.083  28.072  22.700  1.00  0.00    -0.084 Cl
ATOM     17  C   UNL A   1      29.668  30.001  22.209  1.00  0.00     0.087 A 
BRANCH  14  18
ATOM     18  N   UNL A   1      27.408  29.652  23.134  1.00  0.00     0.062 N 
ATOM     19  O   UNL A   1      27.230  30.877  23.097  1.00  0.00    -0.258 OA
ATOM     20  O   UNL A   1      26.528  28.817  23.390  1.00  0.00    -0.258 OA
ENDBRANCH  14  18
ENDBRANCH   6  11
ENDBRANCH   5   6
ENDBRANCH   3   5
ENDBRANCH   2   3
ENDBRANCH   1   2
BRANCH   1  21
ATOM     21  C   UNL A   1      31.755  29.328  26.396  1.00  0.00     0.275 C 
BRANCH  21  22
ATOM     22  O   UNL A   1      32.895  30.123  26.032  1.00  0.00    -0.458 OA
BRANCH  22  23
ATOM     23  C   UNL A   1      33.248  31.077  26.919  1.00  0.00     0.338 C 
ATOM     24  O   UNL A   1      32.601  32.061  27.249  1.00  0.00    -0.246 OA
BRANCH  23  25
ATOM     25  C   UNL A   1      34.580  30.790  27.475  1.00  0.00     0.060 A 
ATOM     26  C   UNL A   1      34.951  29.485  27.796  1.00  0.00     0.016 A 
ATOM     27  C   UNL A   1      35.418  31.857  27.807  1.00  0.00     0.016 A 
ATOM     28  C   UNL A   1      36.116  29.254  28.527  1.00  0.00     0.010 A 
ATOM     29  C   UNL A   1      36.626  31.612  28.464  1.00  0.00     0.010 A 
ATOM     30  C   UNL A   1      36.973  30.311  28.864  1.00  0.00    -0.014 A 
BRANCH  30  31
ATOM     31  C   UNL A   1      38.219  30.072  29.641  1.00  0.00     0.031 A 
ATOM     32  C   UNL A   1      39.311  29.198  29.082  1.00  0.00     0.074 A 
ATOM     33  C   UNL A   1      38.371  30.621  30.861  1.00  0.00     0.049 A 
ATOM     34  N   UNL A   1      40.360  28.695  29.683  1.00  0.00    -0.248 NA
ATOM     35  C   UNL A   1      39.206  28.835  27.661  1.00  0.00     0.031 C 
ATOM     36  C   UNL A   1      37.421  31.524  31.509  1.00  0.00     0.029 A 
ATOM     37  N   UNL A   1      39.381  30.486  31.783  1.00  0.00    -0.354 N 
ATOM     38  C   UNL A   1      41.009  27.919  28.732  1.00  0.00     0.074 A 
ATOM     39  C   UNL A   1      40.241  28.019  27.510  1.00  0.00     0.031 C 
ATOM     40  C   UNL A   1      37.897  31.878  32.711  1.00  0.00     0.029 A 
ATOM     41  C   UNL A   1      39.142  31.157  32.956  1.00  0.00     0.049 A 
ATOM     42  H   UNL A   1      40.197  29.960  31.617  1.00  0.00     0.167 HD
ATOM     43  C   UNL A   1      42.141  27.186  28.872  1.00  0.00     0.037 A 
ATOM     44  C   UNL A   1      39.814  31.154  34.122  1.00  0.00     0.037 A 
ATOM     45  C   UNL A   1      42.932  27.127  30.073  1.00  0.00     0.049 A 
ATOM     46  C   UNL A   1      41.039  30.300  34.267  1.00  0.00     0.074 A 
ATOM     47  C   UNL A   1      44.110  26.435  30.299  1.00  0.00     0.029 A 
ATOM     48  N   UNL A   1      42.632  27.797  31.249  1.00  0.00    -0.354 N 
ATOM     49  N   UNL A   1      41.610  29.521  33.383  1.00  0.00    -0.248 NA
ATOM     50  C   UNL A   1      41.696  30.305  35.580  1.00  0.00     0.031 C 
ATOM     51  C   UNL A   1      44.506  26.661  31.621  1.00  0.00     0.029 A 
ATOM     52  C   UNL A   1      43.593  27.522  32.209  1.00  0.00     0.049 A 
ATOM     53  H   UNL A   1      41.850  28.381  31.383  1.00  0.00     0.167 HD
ATOM     54  C   UNL A   1      42.695  28.946  34.027  1.00  0.00     0.074 A 
ATOM     55  C   UNL A   1      42.713  29.479  35.374  1.00  0.00     0.031 C 
ATOM     56  C   UNL A   1      43.592  28.053  33.546  1.00  0.00     0.037 A 
BRANCH  43  57
ATOM     57  C   UNL A   1      42.588  26.358  27.704  1.00  0.00     0.064 A 
ATOM     58  C   UNL A   1      43.557  26.815  26.801  1.00  0.00     0.173 A 
ATOM     59  C   UNL A   1      42.090  25.057  27.532  1.00  0.00     0.173 A 
ATOM     60  F   UNL A   1      44.054  28.057  26.915  1.00  0.00    -0.203 F 
ATOM     61  C   UNL A   1      44.006  26.002  25.762  1.00  0.00     0.198 A 
ATOM     62  C   UNL A   1      42.556  24.240  26.507  1.00  0.00     0.198 A 
ATOM     63  F   UNL A   1      41.165  24.572  28.374  1.00  0.00    -0.203 F 
ATOM     64  F   UNL A   1      44.915  26.467  24.894  1.00  0.00    -0.200 F 
ATOM     65  C   UNL A   1      43.512  24.713  25.622  1.00  0.00     0.200 A 
ATOM     66  F   UNL A   1      42.084  22.991  26.379  1.00  0.00    -0.200 F 
ATOM     67  F   UNL A   1      43.956  23.928  24.630  1.00  0.00    -0.200 F 
ENDBRANCH  43  57
BRANCH  44  68
ATOM     68  C   UNL A   1      39.298  31.956  35.259  1.00  0.00     0.064 A 
ATOM     69  C   UNL A   1      38.504  31.370  36.252  1.00  0.00     0.173 A 
ATOM     70  C   UNL A   1      39.622  33.315  35.391  1.00  0.00     0.173 A 
ATOM     71  F   UNL A   1      38.150  30.081  36.151  1.00  0.00    -0.203 F 
ATOM     72  C   UNL A   1      38.055  32.114  37.341  1.00  0.00     0.198 A 
ATOM     73  C   UNL A   1      39.194  34.050  36.493  1.00  0.00     0.198 A 
ATOM     74  F   UNL A   1      40.378  33.919  34.465  1.00  0.00    -0.203 F 
ATOM     75  F   UNL A   1      37.278  31.537  38.267  1.00  0.00    -0.200 F 
ATOM     76  C   UNL A   1      38.409  33.450  37.466  1.00  0.00     0.200 A 
ATOM     77  F   UNL A   1      39.550  35.336  36.618  1.00  0.00    -0.200 F 
ATOM     78  F   UNL A   1      37.992  34.158  38.523  1.00  0.00    -0.200 F 
ENDBRANCH  44  68
BRANCH  56  79
ATOM     79  C   UNL A   1      44.676  27.608  34.479  1.00  0.00     0.064 A 
ATOM     80  C   UNL A   1      44.527  26.463  35.275  1.00  0.00     0.173 A 
ATOM     81  C   UNL A   1      45.882  28.318  34.561  1.00  0.00     0.173 A 
ATOM     82  F   UNL A   1      43.384  25.762  35.242  1.00  0.00    -0.203 F 
ATOM     83  C   UNL A   1      45.542  26.056  36.136  1.00  0.00     0.198 A 
ATOM     84  C   UNL A   1      46.903  27.897  35.407  1.00  0.00     0.198 A 
ATOM     85  F   UNL A   1      46.069  29.418  33.816  1.00  0.00    -0.203 F 
ATOM     86  F   UNL A   1      45.366  24.981  36.916  1.00  0.00    -0.200 F 
ATOM     87  C   UNL A   1      46.731  26.770  36.197  1.00  0.00     0.200 A 
ATOM     88  F   UNL A   1      48.052  28.584  35.462  1.00  0.00    -0.200 F 
ATOM     89  F   UNL A   1      47.707  26.377  37.027  1.00  0.00    -0.200 F 
ENDBRANCH  56  79
ENDBRANCH  30  31
ENDBRANCH  23  25
ENDBRANCH  22  23
ENDBRANCH  21  22
ENDBRANCH   1  21
TORSDOF 15
ENDMDL
MODEL 3
REMARK VINA RESULT:      -9.3      4.416      6.394
REMARK SMILES [NH3+][C@@H](CC(=O)OCCOC(=O)c1ccc(-c2c3nc(c(-c4c(F)c(F)c(F)c(F)c4F)c4ccc([nH]4)c(-c4c(F)c(F)c(F)c(F)c4F)c4nc(c(-c5c(F)c(F)c(F)c(F)c5F)c5ccc2[nH]5)C=C4)C=C3)cc1)c1cc([N+](=O)[O-])ccc1Cl
REMARK SMILES IDX 7 1 6 2 4 3 5 4 3 5 2 6 1 7 75 11 76 12 83 13 77 14 82 15
REMARK SMILES IDX 84 16 81 17 78 18 79 19 80 20 8 21 9 22 10 23 11 24 12 25
REMARK SMILES IDX 13 26 74 27 14 28 73 29 15 30 16 31 17 32 67 33 18 34 72 35
REMARK SMILES IDX 66 36 68 37 19 38 71 39 65 40 64 41 20 43 52 44 32 45 51 46
REMARK SMILES IDX 33 47 36 48 50 49 69 50 34 51 35 52 49 54 70 55 37 56 21 57
REMARK SMILES IDX 22 58 30 59 23 60 24 61 28 62 31 63 25 64 26 65 29 66 27 67
REMARK SMILES IDX 53 68 54 69 62 70 55 71 56 72 60 73 63 74 57 75 58 76 61 77
REMARK SMILES IDX 59 78 38 79 39 80 47 81 40 82 41 83 45 84 48 85 42 86 43 87
REMARK SMILES IDX 46 88 44 89
REMARK H PARENT 1 8 1 9 1 10 68 42 36 53
REMARK Flexibility Score: inf
ROOT
ATOM      1  C   UNL A   1      31.842  28.825  26.451  1.00  0.00     0.274 C 
ENDROOT
BRANCH   1   2
ATOM      2  O   UNL A   1      32.214  28.218  25.195  1.00  0.00    -0.462 OA
BRANCH   2   3
ATOM      3  C   UNL A   1      31.419  27.191  24.796  1.00  0.00     0.312 C 
ATOM      4  O   UNL A   1      30.934  26.357  25.556  1.00  0.00    -0.252 OA
BRANCH   3   5
ATOM      5  C   UNL A   1      31.305  27.039  23.299  1.00  0.00     0.192 C 
BRANCH   5   6
ATOM      6  C   UNL A   1      30.921  28.241  22.416  1.00  0.00     0.225 C 
BRANCH   6   7
ATOM      7  N   UNL A   1      32.097  29.132  22.314  1.00  0.00    -0.351 N 
ATOM      8  H   UNL A   1      31.881  29.910  21.693  1.00  0.00     0.345 HD
ATOM      9  H   UNL A   1      32.888  28.607  21.939  1.00  0.00     0.345 HD
ATOM     10  H   UNL A   1      32.335  29.489  23.238  1.00  0.00     0.345 HD
ENDBRANCH   6   7
BRANCH   6  11
ATOM     11  C   UNL A   1      29.631  29.032  22.673  1.00  0.00     0.035 A 
ATOM     12  C   UNL A   1      29.523  30.347  22.148  1.00  0.00     0.097 A 
ATOM     13  C   UNL A   1      28.458  28.501  23.244  1.00  0.00     0.050 A 
ATOM     14  C   UNL A   1      28.351  31.107  22.288  1.00  0.00     0.270 A 
ATOM     15  C   UNL A   1      27.319  29.300  23.464  1.00  0.00     0.028 A 
ATOM     16  Cl  UNL A   1      28.230  26.814  23.526  1.00  0.00    -0.084 Cl
ATOM     17  C   UNL A   1      27.262  30.610  22.996  1.00  0.00     0.087 A 
BRANCH  14  18
ATOM     18  N   UNL A   1      28.237  32.400  21.606  1.00  0.00     0.062 N 
ATOM     19  O   UNL A   1      28.358  33.424  22.294  1.00  0.00    -0.258 OA
ATOM     20  O   UNL A   1      28.063  32.390  20.379  1.00  0.00    -0.258 OA
ENDBRANCH  14  18
ENDBRANCH   6  11
ENDBRANCH   5   6
ENDBRANCH   3   5
ENDBRANCH   2   3
ENDBRANCH   1   2
BRANCH   1  21
ATOM     21  C   UNL A   1      31.760  30.347  26.358  1.00  0.00     0.275 C 
BRANCH  21  22
ATOM     22  O   UNL A   1      33.072  30.915  26.209  1.00  0.00    -0.458 OA
BRANCH  22  23
ATOM     23  C   UNL A   1      33.459  31.754  27.192  1.00  0.00     0.338 C 
ATOM     24  O   UNL A   1      32.858  32.731  27.616  1.00  0.00    -0.246 OA
BRANCH  23  25
ATOM     25  C   UNL A   1      34.767  31.343  27.729  1.00  0.00     0.060 A 
ATOM     26  C   UNL A   1      34.990  30.027  28.131  1.00  0.00     0.016 A 
ATOM     27  C   UNL A   1      35.739  32.319  27.959  1.00  0.00     0.016 A 
ATOM     28  C   UNL A   1      36.145  29.705  28.843  1.00  0.00     0.010 A 
ATOM     29  C   UNL A   1      36.933  31.973  28.597  1.00  0.00     0.010 A 
ATOM     30  C   UNL A   1      37.135  30.669  29.079  1.00  0.00    -0.014 A 
BRANCH  30  31
ATOM     31  C   UNL A   1      38.372  30.331  29.834  1.00  0.00     0.031 A 
ATOM     32  C   UNL A   1      39.403  29.410  29.237  1.00  0.00     0.074 A 
ATOM     33  C   UNL A   1      38.568  30.832  31.068  1.00  0.00     0.049 A 
ATOM     34  N   UNL A   1      40.426  28.826  29.811  1.00  0.00    -0.248 NA
ATOM     35  C   UNL A   1      39.263  29.097  27.807  1.00  0.00     0.031 C 
ATOM     36  C   UNL A   1      37.681  31.772  31.753  1.00  0.00     0.029 A 
ATOM     37  N   UNL A   1      39.577  30.609  31.974  1.00  0.00    -0.354 N 
ATOM     38  C   UNL A   1      41.017  28.041  28.830  1.00  0.00     0.074 A 
ATOM     39  C   UNL A   1      40.245  28.225  27.620  1.00  0.00     0.031 C 
ATOM     40  C   UNL A   1      38.189  32.060  32.959  1.00  0.00     0.029 A 
ATOM     41  C   UNL A   1      39.390  31.257  33.169  1.00  0.00     0.049 A 
ATOM     42  H   UNL A   1      40.357  30.040  31.784  1.00  0.00     0.167 HD
ATOM     43  C   UNL A   1      42.103  27.238  28.935  1.00  0.00     0.037 A 
ATOM     44  C   UNL A   1      40.071  31.178  34.326  1.00  0.00     0.037 A 
ATOM     45  C   UNL A   1      42.901  27.094  30.125  1.00  0.00     0.049 A 
ATOM     46  C   UNL A   1      41.243  30.247  34.433  1.00  0.00     0.074 A 
ATOM     47  C   UNL A   1      44.036  26.326  30.318  1.00  0.00     0.029 A 
ATOM     48  N   UNL A   1      42.652  27.745  31.324  1.00  0.00    -0.354 N 
ATOM     49  N   UNL A   1      41.758  29.462  33.519  1.00  0.00    -0.248 NA
ATOM     50  C   UNL A   1      41.912  30.172  35.738  1.00  0.00     0.031 C 
ATOM     51  C   UNL A   1      44.458  26.488  31.641  1.00  0.00     0.029 A 
ATOM     52  C   UNL A   1      43.604  27.383  32.264  1.00  0.00     0.049 A 
ATOM     53  H   UNL A   1      41.910  28.371  31.484  1.00  0.00     0.167 HD
ATOM     54  C   UNL A   1      42.811  28.804  34.134  1.00  0.00     0.074 A 
ATOM     55  C   UNL A   1      42.874  29.293  35.496  1.00  0.00     0.031 C 
ATOM     56  C   UNL A   1      43.648  27.873  33.616  1.00  0.00     0.037 A 
BRANCH  43  57
ATOM     57  C   UNL A   1      42.488  26.420  27.738  1.00  0.00     0.064 A 
ATOM     58  C   UNL A   1      43.446  26.864  26.816  1.00  0.00     0.173 A 
ATOM     59  C   UNL A   1      41.942  25.140  27.556  1.00  0.00     0.173 A 
ATOM     60  F   UNL A   1      43.987  28.086  26.940  1.00  0.00    -0.203 F 
ATOM     61  C   UNL A   1      43.836  26.058  25.748  1.00  0.00     0.198 A 
ATOM     62  C   UNL A   1      42.351  24.330  26.501  1.00  0.00     0.198 A 
ATOM     63  F   UNL A   1      41.026  24.668  28.415  1.00  0.00    -0.203 F 
ATOM     64  F   UNL A   1      44.735  26.511  24.863  1.00  0.00    -0.200 F 
ATOM     65  C   UNL A   1      43.296  24.790  25.597  1.00  0.00     0.200 A 
ATOM     66  F   UNL A   1      41.834  23.100  26.362  1.00  0.00    -0.200 F 
ATOM     67  F   UNL A   1      43.685  24.011  24.577  1.00  0.00    -0.200 F 
ENDBRANCH  43  57
BRANCH  44  68
ATOM     68  C   UNL A   1      39.616  31.975  35.492  1.00  0.00     0.064 A 
ATOM     69  C   UNL A   1      40.102  33.269  35.714  1.00  0.00     0.173 A 
ATOM     70  C   UNL A   1      38.657  31.470  36.384  1.00  0.00     0.173 A 
ATOM     71  F   UNL A   1      41.038  33.781  34.902  1.00  0.00    -0.203 F 
ATOM     72  C   UNL A   1      39.643  34.033  36.785  1.00  0.00     0.198 A 
ATOM     73  C   UNL A   1      38.180  32.244  37.438  1.00  0.00     0.198 A 
ATOM     74  F   UNL A   1      38.164  30.236  36.212  1.00  0.00    -0.203 F 
ATOM     75  F   UNL A   1      40.140  35.259  36.991  1.00  0.00    -0.200 F 
ATOM     76  C   UNL A   1      38.675  33.524  37.640  1.00  0.00     0.200 A 
ATOM     77  F   UNL A   1      37.235  31.754  38.252  1.00  0.00    -0.200 F 
ATOM     78  F   UNL A   1      38.221  34.266  38.657  1.00  0.00    -0.200 F 
ENDBRANCH  44  68
BRANCH  56  79
ATOM     79  C   UNL A   1      44.712  27.334  34.524  1.00  0.00     0.064 A 
ATOM     80  C   UNL A   1      45.956  27.969  34.645  1.00  0.00     0.173 A 
ATOM     81  C   UNL A   1      44.475  26.189  35.297  1.00  0.00     0.173 A 
ATOM     82  F   UNL A   1      46.232  29.058  33.912  1.00  0.00    -0.203 F 
ATOM     83  C   UNL A   1      46.934  27.463  35.495  1.00  0.00     0.198 A 
ATOM     84  C   UNL A   1      45.448  25.697  36.161  1.00  0.00     0.198 A 
ATOM     85  F   UNL A   1      43.298  25.550  35.215  1.00  0.00    -0.203 F 
ATOM     86  F   UNL A   1      48.131  28.062  35.568  1.00  0.00    -0.200 F 
ATOM     87  C   UNL A   1      46.679  26.330  36.256  1.00  0.00     0.200 A 
ATOM     88  F   UNL A   1      45.199  24.606  36.899  1.00  0.00    -0.200 F 
ATOM     89  F   UNL A   1      47.623  25.845  37.073  1.00  0.00    -0.200 F 
ENDBRANCH  56  79
ENDBRANCH  30  31
ENDBRANCH  23  25
ENDBRANCH  22  23
ENDBRANCH  21  22
ENDBRANCH   1  21
TORSDOF 15
ENDMDL
