MODEL 1
REMARK VINA RESULT:     -12.0      0.000      0.000
REMARK SMILES Cn1ccc(Nc2nccc(C(=O)OCCOC(=O)c3ccc(-c4c5nc(c(-c6c(F)c(F)c(F)c(F)c6F)c6ccc([nH]6)c(-c6c(F)c(F)c(F)c(F)c6F)c6nc(c(-c7c(F)c(F)c(F)c(F)c7F)c7ccc4[nH]7)C=C6)C=C5)cc3)c2N)n1
REMARK SMILES IDX 15 1 14 2 12 3 13 4 11 5 7 6 8 7 83 8 9 9 10 10 6 11 5 13
REMARK SMILES IDX 1 14 2 15 3 16 85 17 4 18 84 19 16 22 17 23 18 24 19 25
REMARK SMILES IDX 20 26 21 27 82 28 22 29 81 30 23 31 24 32 25 33 75 34 26 35
REMARK SMILES IDX 80 36 74 37 76 38 27 39 79 40 73 41 72 42 28 44 60 45 40 46
REMARK SMILES IDX 59 47 41 48 44 49 58 50 77 51 42 52 43 53 57 55 78 56 45 57
REMARK SMILES IDX 29 58 30 59 38 60 31 61 32 62 36 63 39 64 33 65 34 66 37 67
REMARK SMILES IDX 35 68 61 69 62 70 70 71 63 72 64 73 68 74 71 75 65 76 66 77
REMARK SMILES IDX 69 78 67 79 46 80 47 81 55 82 48 83 49 84 53 85 56 86 50 87
REMARK SMILES IDX 51 88 54 89 52 90
REMARK H PARENT 6 12 84 20 84 21 76 43 44 54
REMARK Flexibility Score: inf
ROOT
ATOM      1  C   UNL A   1      31.927  28.204  27.627  1.00  0.00     0.275 C 
ENDROOT
BRANCH   1   2
ATOM      2  O   UNL A   1      31.036  27.165  27.174  1.00  0.00    -0.458 OA
BRANCH   2   3
ATOM      3  C   UNL A   1      31.579  26.155  26.453  1.00  0.00     0.340 C 
ATOM      4  O   UNL A   1      31.746  25.008  26.843  1.00  0.00    -0.246 OA
BRANCH   3   5
ATOM      5  C   UNL A   1      31.905  26.578  25.066  1.00  0.00     0.088 A 
ATOM      6  C   UNL A   1      31.382  27.453  22.899  1.00  0.00     0.155 A 
ATOM      7  N   UNL A   1      32.691  27.515  22.548  1.00  0.00    -0.237 NA
ATOM      8  C   UNL A   1      30.924  26.915  24.128  1.00  0.00     0.090 A 
ATOM      9  C   UNL A   1      33.594  27.191  23.487  1.00  0.00     0.114 A 
ATOM     10  C   UNL A   1      33.256  26.775  24.757  1.00  0.00     0.038 A 
BRANCH   6  11
ATOM     11  N   UNL A   1      30.510  28.101  22.001  1.00  0.00    -0.322 N 
ATOM     12  H   UNL A   1      30.288  27.629  21.166  1.00  0.00     0.170 HD
BRANCH  11  13
ATOM     13  C   UNL A   1      29.953  29.318  22.193  1.00  0.00     0.153 A 
ATOM     14  C   UNL A   1      28.029  32.043  21.189  1.00  0.00     0.173 C 
ATOM     15  N   UNL A   1      28.854  31.108  21.913  1.00  0.00    -0.274 N 
ATOM     16  C   UNL A   1      29.153  31.106  23.240  1.00  0.00     0.110 A 
ATOM     17  N   UNL A   1      29.385  30.078  21.251  1.00  0.00    -0.155 NA
ATOM     18  C   UNL A   1      29.857  29.941  23.458  1.00  0.00     0.068 A 
ENDBRANCH  11  13
ENDBRANCH   6  11
BRANCH   8  19
ATOM     19  N   UNL A   1      29.564  26.626  24.320  1.00  0.00    -0.395 N 
ATOM     20  H   UNL A   1      29.222  25.723  24.128  1.00  0.00     0.156 HD
ATOM     21  H   UNL A   1      28.954  27.324  24.647  1.00  0.00     0.156 HD
ENDBRANCH   8  19
ENDBRANCH   3   5
ENDBRANCH   2   3
ENDBRANCH   1   2
BRANCH   1  22
ATOM     22  C   UNL A   1      31.729  29.480  26.812  1.00  0.00     0.275 C 
BRANCH  22  23
ATOM     23  O   UNL A   1      33.003  30.028  26.433  1.00  0.00    -0.458 OA
BRANCH  23  24
ATOM     24  C   UNL A   1      33.374  31.148  27.090  1.00  0.00     0.338 C 
ATOM     25  O   UNL A   1      32.741  32.175  27.250  1.00  0.00    -0.246 OA
BRANCH  24  26
ATOM     26  C   UNL A   1      34.700  30.929  27.678  1.00  0.00     0.060 A 
ATOM     27  C   UNL A   1      35.074  29.628  28.004  1.00  0.00     0.016 A 
ATOM     28  C   UNL A   1      35.523  32.003  28.001  1.00  0.00     0.016 A 
ATOM     29  C   UNL A   1      36.244  29.385  28.713  1.00  0.00     0.010 A 
ATOM     30  C   UNL A   1      36.736  31.754  28.648  1.00  0.00     0.010 A 
ATOM     31  C   UNL A   1      37.096  30.446  29.029  1.00  0.00    -0.014 A 
BRANCH  31  32
ATOM     32  C   UNL A   1      38.346  30.211  29.792  1.00  0.00     0.031 A 
ATOM     33  C   UNL A   1      39.407  29.323  29.211  1.00  0.00     0.074 A 
ATOM     34  C   UNL A   1      38.527  30.770  31.003  1.00  0.00     0.049 A 
ATOM     35  N   UNL A   1      40.430  28.758  29.797  1.00  0.00    -0.248 NA
ATOM     36  C   UNL A   1      39.290  29.019  27.775  1.00  0.00     0.031 C 
ATOM     37  C   UNL A   1      37.614  31.717  31.647  1.00  0.00     0.029 A 
ATOM     38  N   UNL A   1      39.538  30.609  31.918  1.00  0.00    -0.354 N 
ATOM     39  C   UNL A   1      41.039  27.981  28.821  1.00  0.00     0.074 A 
ATOM     40  C   UNL A   1      40.282  28.158  27.600  1.00  0.00     0.031 C 
ATOM     41  C   UNL A   1      38.108  32.056  32.847  1.00  0.00     0.029 A 
ATOM     42  C   UNL A   1      39.320  31.283  33.095  1.00  0.00     0.049 A 
ATOM     43  H   UNL A   1      40.339  30.064  31.748  1.00  0.00     0.167 HD
ATOM     44  C   UNL A   1      42.124  27.182  28.947  1.00  0.00     0.037 A 
ATOM     45  C   UNL A   1      39.988  31.236  34.263  1.00  0.00     0.037 A 
ATOM     46  C   UNL A   1      42.895  27.056  30.155  1.00  0.00     0.049 A 
ATOM     47  C   UNL A   1      41.169  30.314  34.391  1.00  0.00     0.074 A 
ATOM     48  C   UNL A   1      44.009  26.270  30.394  1.00  0.00     0.029 A 
ATOM     49  N   UNL A   1      42.640  27.755  31.326  1.00  0.00    -0.354 N 
ATOM     50  N   UNL A   1      41.693  29.515  33.496  1.00  0.00    -0.248 NA
ATOM     51  C   UNL A   1      41.836  30.271  35.700  1.00  0.00     0.031 C 
ATOM     52  C   UNL A   1      44.411  26.475  31.718  1.00  0.00     0.029 A 
ATOM     53  C   UNL A   1      43.572  27.418  32.292  1.00  0.00     0.049 A 
ATOM     54  H   UNL A   1      41.903  28.398  31.452  1.00  0.00     0.167 HD
ATOM     55  C   UNL A   1      42.761  28.888  34.122  1.00  0.00     0.074 A 
ATOM     56  C   UNL A   1      42.816  29.406  35.473  1.00  0.00     0.031 C 
ATOM     57  C   UNL A   1      43.619  27.966  33.622  1.00  0.00     0.037 A 
BRANCH  44  58
ATOM     58  C   UNL A   1      42.513  26.346  27.765  1.00  0.00     0.064 A 
ATOM     59  C   UNL A   1      43.514  26.745  26.868  1.00  0.00     0.173 A 
ATOM     60  C   UNL A   1      41.891  25.107  27.546  1.00  0.00     0.173 A 
ATOM     61  F   UNL A   1      44.127  27.929  27.024  1.00  0.00    -0.203 F 
ATOM     62  C   UNL A   1      43.864  25.943  25.784  1.00  0.00     0.198 A 
ATOM     63  C   UNL A   1      42.261  24.296  26.477  1.00  0.00     0.198 A 
ATOM     64  F   UNL A   1      40.928  24.677  28.377  1.00  0.00    -0.203 F 
ATOM     65  F   UNL A   1      44.796  26.362  24.916  1.00  0.00    -0.200 F 
ATOM     66  C   UNL A   1      43.242  24.718  25.594  1.00  0.00     0.200 A 
ATOM     67  F   UNL A   1      41.666  23.108  26.300  1.00  0.00    -0.200 F 
ATOM     68  F   UNL A   1      43.586  23.945  24.555  1.00  0.00    -0.200 F 
ENDBRANCH  44  58
BRANCH  45  69
ATOM     69  C   UNL A   1      39.519  32.050  35.413  1.00  0.00     0.064 A 
ATOM     70  C   UNL A   1      39.962  33.368  35.591  1.00  0.00     0.173 A 
ATOM     71  C   UNL A   1      38.606  31.537  36.347  1.00  0.00     0.173 A 
ATOM     72  F   UNL A   1      40.853  33.894  34.739  1.00  0.00    -0.203 F 
ATOM     73  C   UNL A   1      39.512  34.138  36.661  1.00  0.00     0.198 A 
ATOM     74  C   UNL A   1      38.136  32.317  37.400  1.00  0.00     0.198 A 
ATOM     75  F   UNL A   1      38.153  30.280  36.222  1.00  0.00    -0.203 F 
ATOM     76  F   UNL A   1      39.977  35.383  36.828  1.00  0.00    -0.200 F 
ATOM     77  C   UNL A   1      38.594  33.616  37.560  1.00  0.00     0.200 A 
ATOM     78  F   UNL A   1      37.239  31.812  38.258  1.00  0.00    -0.200 F 
ATOM     79  F   UNL A   1      38.153  34.362  38.582  1.00  0.00    -0.200 F 
ENDBRANCH  45  69
BRANCH  57  80
ATOM     80  C   UNL A   1      44.721  27.497  34.521  1.00  0.00     0.064 A 
ATOM     81  C   UNL A   1      45.941  28.180  34.606  1.00  0.00     0.173 A 
ATOM     82  C   UNL A   1      44.524  26.383  35.352  1.00  0.00     0.173 A 
ATOM     83  F   UNL A   1      46.176  29.240  33.820  1.00  0.00    -0.203 F 
ATOM     84  C   UNL A   1      46.933  27.757  35.487  1.00  0.00     0.198 A 
ATOM     85  C   UNL A   1      45.510  25.977  36.245  1.00  0.00     0.198 A 
ATOM     86  F   UNL A   1      43.370  25.701  35.307  1.00  0.00    -0.203 F 
ATOM     87  F   UNL A   1      48.104  28.407  35.533  1.00  0.00    -0.200 F 
ATOM     88  C   UNL A   1      46.714  26.662  36.310  1.00  0.00     0.200 A 
ATOM     89  F   UNL A   1      45.294  24.925  37.046  1.00  0.00    -0.200 F 
ATOM     90  F   UNL A   1      47.667  26.264  37.164  1.00  0.00    -0.200 F 
ENDBRANCH  57  80
ENDBRANCH  31  32
ENDBRANCH  24  26
ENDBRANCH  23  24
ENDBRANCH  22  23
ENDBRANCH   1  22
TORSDOF 14
ENDMDL
MODEL 2
REMARK VINA RESULT:     -12.0      5.437     10.450
REMARK SMILES Cn1ccc(Nc2nccc(C(=O)OCCOC(=O)c3ccc(-c4c5nc(c(-c6c(F)c(F)c(F)c(F)c6F)c6ccc([nH]6)c(-c6c(F)c(F)c(F)c(F)c6F)c6nc(c(-c7c(F)c(F)c(F)c(F)c7F)c7ccc4[nH]7)C=C6)C=C5)cc3)c2N)n1
REMARK SMILES IDX 15 1 14 2 12 3 13 4 11 5 7 6 8 7 83 8 9 9 10 10 6 11 5 13
REMARK SMILES IDX 1 14 2 15 3 16 85 17 4 18 84 19 16 22 17 23 18 24 19 25
REMARK SMILES IDX 20 26 21 27 82 28 22 29 81 30 23 31 24 32 25 33 75 34 26 35
REMARK SMILES IDX 80 36 74 37 76 38 27 39 79 40 73 41 72 42 28 44 60 45 40 46
REMARK SMILES IDX 59 47 41 48 44 49 58 50 77 51 42 52 43 53 57 55 78 56 45 57
REMARK SMILES IDX 29 58 30 59 38 60 31 61 32 62 36 63 39 64 33 65 34 66 37 67
REMARK SMILES IDX 35 68 61 69 62 70 70 71 63 72 64 73 68 74 71 75 65 76 66 77
REMARK SMILES IDX 69 78 67 79 46 80 47 81 55 82 48 83 49 84 53 85 56 86 50 87
REMARK SMILES IDX 51 88 54 89 52 90
REMARK H PARENT 6 12 84 20 84 21 76 43 44 54
REMARK Flexibility Score: inf
ROOT
ATOM      1  C   UNL A   1      36.884  22.683  23.655  1.00  0.00     0.275 C 
ENDROOT
BRANCH   1   2
ATOM      2  O   UNL A   1      36.405  23.734  24.518  1.00  0.00    -0.458 OA
BRANCH   2   3
ATOM      3  C   UNL A   1      35.075  23.992  24.499  1.00  0.00     0.340 C 
ATOM      4  O   UNL A   1      34.518  24.828  23.802  1.00  0.00    -0.246 OA
BRANCH   3   5
ATOM      5  C   UNL A   1      34.322  23.079  25.398  1.00  0.00     0.088 A 
ATOM      6  C   UNL A   1      32.912  21.202  25.876  1.00  0.00     0.155 A 
ATOM      7  N   UNL A   1      33.107  21.327  27.212  1.00  0.00    -0.237 NA
ATOM      8  C   UNL A   1      33.438  22.106  24.919  1.00  0.00     0.090 A 
ATOM      9  C   UNL A   1      33.973  22.269  27.621  1.00  0.00     0.114 A 
ATOM     10  C   UNL A   1      34.635  23.118  26.761  1.00  0.00     0.038 A 
BRANCH   6  11
ATOM     11  N   UNL A   1      32.259  20.013  25.494  1.00  0.00    -0.322 N 
ATOM     12  H   UNL A   1      31.288  20.060  25.342  1.00  0.00     0.170 HD
BRANCH  11  13
ATOM     13  C   UNL A   1      32.858  18.813  25.320  1.00  0.00     0.153 A 
ATOM     14  C   UNL A   1      32.905  15.330  25.379  1.00  0.00     0.173 C 
ATOM     15  N   UNL A   1      33.226  16.728  25.230  1.00  0.00    -0.274 N 
ATOM     16  C   UNL A   1      34.286  17.281  24.582  1.00  0.00     0.110 A 
ATOM     17  N   UNL A   1      32.390  17.635  25.743  1.00  0.00    -0.155 NA
ATOM     18  C   UNL A   1      34.068  18.642  24.609  1.00  0.00     0.068 A 
ENDBRANCH  11  13
ENDBRANCH   6  11
BRANCH   8  19
ATOM     19  N   UNL A   1      32.980  22.089  23.592  1.00  0.00    -0.395 N 
ATOM     20  H   UNL A   1      33.624  22.024  22.850  1.00  0.00     0.156 HD
ATOM     21  H   UNL A   1      32.016  22.139  23.403  1.00  0.00     0.156 HD
ENDBRANCH   8  19
ENDBRANCH   3   5
ENDBRANCH   2   3
ENDBRANCH   1   2
BRANCH   1  22
ATOM     22  C   UNL A   1      37.361  21.486  24.474  1.00  0.00     0.275 C 
BRANCH  22  23
ATOM     23  O   UNL A   1      37.766  21.914  25.786  1.00  0.00    -0.458 OA
BRANCH  23  24
ATOM     24  C   UNL A   1      39.032  21.599  26.136  1.00  0.00     0.338 C 
ATOM     25  O   UNL A   1      39.609  20.535  26.006  1.00  0.00    -0.246 OA
BRANCH  24  26
ATOM     26  C   UNL A   1      39.683  22.800  26.669  1.00  0.00     0.060 A 
ATOM     27  C   UNL A   1      39.321  24.038  26.145  1.00  0.00     0.016 A 
ATOM     28  C   UNL A   1      40.712  22.699  27.600  1.00  0.00     0.016 A 
ATOM     29  C   UNL A   1      40.023  25.186  26.494  1.00  0.00     0.010 A 
ATOM     30  C   UNL A   1      41.369  23.862  28.010  1.00  0.00     0.010 A 
ATOM     31  C   UNL A   1      41.046  25.112  27.443  1.00  0.00    -0.014 A 
BRANCH  31  32
ATOM     32  C   UNL A   1      41.813  26.323  27.825  1.00  0.00     0.031 A 
ATOM     33  C   UNL A   1      41.148  27.385  28.648  1.00  0.00     0.074 A 
ATOM     34  C   UNL A   1      43.088  26.482  27.424  1.00  0.00     0.049 A 
ATOM     35  N   UNL A   1      41.513  28.623  28.858  1.00  0.00    -0.248 NA
ATOM     36  C   UNL A   1      39.891  27.006  29.314  1.00  0.00     0.031 C 
ATOM     37  C   UNL A   1      43.879  25.491  26.691  1.00  0.00     0.029 A 
ATOM     38  N   UNL A   1      43.941  27.548  27.566  1.00  0.00    -0.354 N 
ATOM     39  C   UNL A   1      40.501  29.189  29.623  1.00  0.00     0.074 A 
ATOM     40  C   UNL A   1      39.514  28.156  29.854  1.00  0.00     0.031 C 
ATOM     41  C   UNL A   1      45.100  25.993  26.453  1.00  0.00     0.029 A 
ATOM     42  C   UNL A   1      45.146  27.370  26.933  1.00  0.00     0.049 A 
ATOM     43  H   UNL A   1      43.710  28.361  28.070  1.00  0.00     0.167 HD
ATOM     44  C   UNL A   1      40.407  30.461  30.073  1.00  0.00     0.037 A 
ATOM     45  C   UNL A   1      46.152  28.237  26.711  1.00  0.00     0.037 A 
ATOM     46  C   UNL A   1      41.422  31.462  29.877  1.00  0.00     0.049 A 
ATOM     47  C   UNL A   1      46.010  29.656  27.189  1.00  0.00     0.074 A 
ATOM     48  C   UNL A   1      41.425  32.784  30.286  1.00  0.00     0.029 A 
ATOM     49  N   UNL A   1      42.628  31.240  29.228  1.00  0.00    -0.354 N 
ATOM     50  N   UNL A   1      45.017  30.213  27.836  1.00  0.00    -0.248 NA
ATOM     51  C   UNL A   1      47.119  30.571  26.884  1.00  0.00     0.031 C 
ATOM     52  C   UNL A   1      42.623  33.368  29.861  1.00  0.00     0.029 A 
ATOM     53  C   UNL A   1      43.383  32.400  29.223  1.00  0.00     0.049 A 
ATOM     54  H   UNL A   1      42.907  30.383  28.830  1.00  0.00     0.167 HD
ATOM     55  C   UNL A   1      45.386  31.536  28.035  1.00  0.00     0.074 A 
ATOM     56  C   UNL A   1      46.698  31.697  27.446  1.00  0.00     0.031 C 
ATOM     57  C   UNL A   1      44.697  32.528  28.650  1.00  0.00     0.037 A 
BRANCH  44  58
ATOM     58  C   UNL A   1      39.146  30.857  30.780  1.00  0.00     0.064 A 
ATOM     59  C   UNL A   1      38.036  31.369  30.093  1.00  0.00     0.173 A 
ATOM     60  C   UNL A   1      39.038  30.690  32.170  1.00  0.00     0.173 A 
ATOM     61  F   UNL A   1      38.095  31.563  28.766  1.00  0.00    -0.203 F 
ATOM     62  C   UNL A   1      36.872  31.717  30.774  1.00  0.00     0.198 A 
ATOM     63  C   UNL A   1      37.864  31.014  32.844  1.00  0.00     0.198 A 
ATOM     64  F   UNL A   1      40.071  30.201  32.874  1.00  0.00    -0.203 F 
ATOM     65  F   UNL A   1      35.837  32.241  30.103  1.00  0.00    -0.200 F 
ATOM     66  C   UNL A   1      36.785  31.532  32.146  1.00  0.00     0.200 A 
ATOM     67  F   UNL A   1      37.778  30.826  34.168  1.00  0.00    -0.200 F 
ATOM     68  F   UNL A   1      35.660  31.861  32.797  1.00  0.00    -0.200 F 
ENDBRANCH  44  58
BRANCH  45  69
ATOM     69  C   UNL A   1      47.353  27.796  25.957  1.00  0.00     0.064 A 
ATOM     70  C   UNL A   1      48.502  27.355  26.628  1.00  0.00     0.173 A 
ATOM     71  C   UNL A   1      47.373  27.788  24.554  1.00  0.00     0.173 A 
ATOM     72  F   UNL A   1      48.541  27.368  27.968  1.00  0.00    -0.203 F 
ATOM     73  C   UNL A   1      49.626  26.927  25.923  1.00  0.00     0.198 A 
ATOM     74  C   UNL A   1      48.485  27.334  23.851  1.00  0.00     0.198 A 
ATOM     75  F   UNL A   1      46.298  28.203  23.866  1.00  0.00    -0.203 F 
ATOM     76  F   UNL A   1      50.723  26.542  26.587  1.00  0.00    -0.200 F 
ATOM     77  C   UNL A   1      49.614  26.909  24.536  1.00  0.00     0.200 A 
ATOM     78  F   UNL A   1      48.464  27.306  22.512  1.00  0.00    -0.200 F 
ATOM     79  F   UNL A   1      50.690  26.486  23.859  1.00  0.00    -0.200 F 
ENDBRANCH  45  69
BRANCH  57  80
ATOM     80  C   UNL A   1      45.371  33.861  28.764  1.00  0.00     0.064 A 
ATOM     81  C   UNL A   1      46.186  34.181  29.857  1.00  0.00     0.173 A 
ATOM     82  C   UNL A   1      45.244  34.802  27.732  1.00  0.00     0.173 A 
ATOM     83  F   UNL A   1      46.323  33.316  30.873  1.00  0.00    -0.203 F 
ATOM     84  C   UNL A   1      46.844  35.406  29.919  1.00  0.00     0.198 A 
ATOM     85  C   UNL A   1      45.921  36.016  27.787  1.00  0.00     0.198 A 
ATOM     86  F   UNL A   1      44.478  34.537  26.663  1.00  0.00    -0.203 F 
ATOM     87  F   UNL A   1      47.597  35.706  30.986  1.00  0.00    -0.200 F 
ATOM     88  C   UNL A   1      46.718  36.319  28.881  1.00  0.00     0.200 A 
ATOM     89  F   UNL A   1      45.805  36.893  26.781  1.00  0.00    -0.200 F 
ATOM     90  F   UNL A   1      47.362  37.493  28.939  1.00  0.00    -0.200 F 
ENDBRANCH  57  80
ENDBRANCH  31  32
ENDBRANCH  24  26
ENDBRANCH  23  24
ENDBRANCH  22  23
ENDBRANCH   1  22
TORSDOF 14
ENDMDL
MODEL 3
REMARK VINA RESULT:     -11.9      2.280      3.698
REMARK SMILES Cn1ccc(Nc2nccc(C(=O)OCCOC(=O)c3ccc(-c4c5nc(c(-c6c(F)c(F)c(F)c(F)c6F)c6ccc([nH]6)c(-c6c(F)c(F)c(F)c(F)c6F)c6nc(c(-c7c(F)c(F)c(F)c(F)c7F)c7ccc4[nH]7)C=C6)C=C5)cc3)c2N)n1
REMARK SMILES IDX 15 1 14 2 12 3 13 4 11 5 7 6 8 7 83 8 9 9 10 10 6 11 5 13
REMARK SMILES IDX 1 14 2 15 3 16 85 17 4 18 84 19 16 22 17 23 18 24 19 25
REMARK SMILES IDX 20 26 21 27 82 28 22 29 81 30 23 31 24 32 25 33 75 34 26 35
REMARK SMILES IDX 80 36 74 37 76 38 27 39 79 40 73 41 72 42 28 44 60 45 40 46
REMARK SMILES IDX 59 47 41 48 44 49 58 50 77 51 42 52 43 53 57 55 78 56 45 57
REMARK SMILES IDX 29 58 30 59 38 60 31 61 32 62 36 63 39 64 33 65 34 66 37 67
REMARK SMILES IDX 35 68 61 69 62 70 70 71 63 72 64 73 68 74 71 75 65 76 66 77
REMARK SMILES IDX 69 78 67 79 46 80 47 81 55 82 48 83 49 84 53 85 56 86 50 87
REMARK SMILES IDX 51 88 54 89 52 90
REMARK H PARENT 6 12 84 20 84 21 76 43 44 54
REMARK Flexibility Score: inf
ROOT
ATOM      1  C   UNL A   1      31.402  28.815  25.089  1.00  0.00     0.275 C 
ENDROOT
BRANCH   1   2
ATOM      2  O   UNL A   1      31.779  27.424  25.066  1.00  0.00    -0.458 OA
BRANCH   2   3
ATOM      3  C   UNL A   1      31.671  26.735  26.228  1.00  0.00     0.340 C 
ATOM      4  O   UNL A   1      31.052  27.096  27.218  1.00  0.00    -0.246 OA
BRANCH   3   5
ATOM      5  C   UNL A   1      32.352  25.416  26.155  1.00  0.00     0.088 A 
ATOM      6  C   UNL A   1      32.417  23.023  26.079  1.00  0.00     0.155 A 
ATOM      7  N   UNL A   1      33.748  23.013  25.820  1.00  0.00    -0.237 NA
ATOM      8  C   UNL A   1      31.676  24.205  26.335  1.00  0.00     0.090 A 
ATOM      9  C   UNL A   1      34.349  24.201  25.645  1.00  0.00     0.114 A 
ATOM     10  C   UNL A   1      33.691  25.408  25.747  1.00  0.00     0.038 A 
BRANCH   6  11
ATOM     11  N   UNL A   1      31.788  21.770  25.934  1.00  0.00    -0.322 N 
ATOM     12  H   UNL A   1      31.013  21.584  26.512  1.00  0.00     0.170 HD
BRANCH  11  13
ATOM     13  C   UNL A   1      32.163  20.803  25.066  1.00  0.00     0.153 A 
ATOM     14  C   UNL A   1      32.911  17.505  24.229  1.00  0.00     0.173 C 
ATOM     15  N   UNL A   1      32.669  18.927  24.221  1.00  0.00    -0.274 N 
ATOM     16  C   UNL A   1      32.524  19.748  23.146  1.00  0.00     0.110 A 
ATOM     17  N   UNL A   1      32.525  19.558  25.389  1.00  0.00    -0.155 NA
ATOM     18  C   UNL A   1      32.177  20.977  23.664  1.00  0.00     0.068 A 
ENDBRANCH  11  13
ENDBRANCH   6  11
BRANCH   8  19
ATOM     19  N   UNL A   1      30.379  24.136  26.864  1.00  0.00    -0.395 N 
ATOM     20  H   UNL A   1      29.651  23.739  26.334  1.00  0.00     0.156 HD
ATOM     21  H   UNL A   1      30.197  24.482  27.767  1.00  0.00     0.156 HD
ENDBRANCH   8  19
ENDBRANCH   3   5
ENDBRANCH   2   3
ENDBRANCH   1   2
BRANCH   1  22
ATOM     22  C   UNL A   1      32.616  29.700  25.361  1.00  0.00     0.275 C 
BRANCH  22  23
ATOM     23  O   UNL A   1      32.796  29.871  26.778  1.00  0.00    -0.458 OA
BRANCH  23  24
ATOM     24  C   UNL A   1      33.292  31.067  27.162  1.00  0.00     0.338 C 
ATOM     25  O   UNL A   1      32.756  32.159  27.111  1.00  0.00    -0.246 OA
BRANCH  24  26
ATOM     26  C   UNL A   1      34.622  30.859  27.743  1.00  0.00     0.060 A 
ATOM     27  C   UNL A   1      34.993  29.565  28.102  1.00  0.00     0.016 A 
ATOM     28  C   UNL A   1      35.453  31.937  28.029  1.00  0.00     0.016 A 
ATOM     29  C   UNL A   1      36.168  29.337  28.807  1.00  0.00     0.010 A 
ATOM     30  C   UNL A   1      36.671  31.701  28.671  1.00  0.00     0.010 A 
ATOM     31  C   UNL A   1      37.029  30.403  29.086  1.00  0.00    -0.014 A 
BRANCH  31  32
ATOM     32  C   UNL A   1      38.285  30.183  29.844  1.00  0.00     0.031 A 
ATOM     33  C   UNL A   1      39.347  29.296  29.265  1.00  0.00     0.074 A 
ATOM     34  C   UNL A   1      38.469  30.756  31.048  1.00  0.00     0.049 A 
ATOM     35  N   UNL A   1      40.377  28.743  29.851  1.00  0.00    -0.248 NA
ATOM     36  C   UNL A   1      39.224  28.976  27.834  1.00  0.00     0.031 C 
ATOM     37  C   UNL A   1      37.554  31.703  31.688  1.00  0.00     0.029 A 
ATOM     38  N   UNL A   1      39.486  30.610  31.958  1.00  0.00    -0.354 N 
ATOM     39  C   UNL A   1      40.986  27.959  28.880  1.00  0.00     0.074 A 
ATOM     40  C   UNL A   1      40.220  28.119  27.662  1.00  0.00     0.031 C 
ATOM     41  C   UNL A   1      38.053  32.058  32.881  1.00  0.00     0.029 A 
ATOM     42  C   UNL A   1      39.272  31.295  33.129  1.00  0.00     0.049 A 
ATOM     43  H   UNL A   1      40.290  30.068  31.789  1.00  0.00     0.167 HD
ATOM     44  C   UNL A   1      42.076  27.168  29.008  1.00  0.00     0.037 A 
ATOM     45  C   UNL A   1      39.946  31.264  34.294  1.00  0.00     0.037 A 
ATOM     46  C   UNL A   1      42.855  27.060  30.212  1.00  0.00     0.049 A 
ATOM     47  C   UNL A   1      41.133  30.351  34.425  1.00  0.00     0.074 A 
ATOM     48  C   UNL A   1      43.975  26.283  30.453  1.00  0.00     0.029 A 
ATOM     49  N   UNL A   1      42.602  27.769  31.377  1.00  0.00    -0.354 N 
ATOM     50  N   UNL A   1      41.657  29.545  33.535  1.00  0.00    -0.248 NA
ATOM     51  C   UNL A   1      41.809  30.325  35.730  1.00  0.00     0.031 C 
ATOM     52  C   UNL A   1      44.383  26.504  31.772  1.00  0.00     0.029 A 
ATOM     53  C   UNL A   1      43.542  27.447  32.341  1.00  0.00     0.049 A 
ATOM     54  H   UNL A   1      41.862  28.408  31.501  1.00  0.00     0.167 HD
ATOM     55  C   UNL A   1      42.733  28.932  34.160  1.00  0.00     0.074 A 
ATOM     56  C   UNL A   1      42.792  29.464  35.506  1.00  0.00     0.031 C 
ATOM     57  C   UNL A   1      43.593  28.010  33.665  1.00  0.00     0.037 A 
BRANCH  44  58
ATOM     58  C   UNL A   1      42.463  26.322  27.832  1.00  0.00     0.064 A 
ATOM     59  C   UNL A   1      41.842  25.096  27.560  1.00  0.00     0.173 A 
ATOM     60  C   UNL A   1      43.456  26.767  26.944  1.00  0.00     0.173 A 
ATOM     61  F   UNL A   1      40.899  24.619  28.388  1.00  0.00    -0.203 F 
ATOM     62  C   UNL A   1      42.212  24.336  26.453  1.00  0.00     0.198 A 
ATOM     63  C   UNL A   1      43.806  26.018  25.825  1.00  0.00     0.198 A 
ATOM     64  F   UNL A   1      44.080  27.936  27.158  1.00  0.00    -0.203 F 
ATOM     65  F   UNL A   1      41.633  23.147  26.233  1.00  0.00    -0.200 F 
ATOM     66  C   UNL A   1      43.188  24.801  25.584  1.00  0.00     0.200 A 
ATOM     67  F   UNL A   1      44.742  26.473  24.980  1.00  0.00    -0.200 F 
ATOM     68  F   UNL A   1      43.538  24.071  24.515  1.00  0.00    -0.200 F 
ENDBRANCH  44  58
BRANCH  45  69
ATOM     69  C   UNL A   1      39.479  32.087  35.438  1.00  0.00     0.064 A 
ATOM     70  C   UNL A   1      39.897  33.416  35.587  1.00  0.00     0.173 A 
ATOM     71  C   UNL A   1      38.592  31.570  36.395  1.00  0.00     0.173 A 
ATOM     72  F   UNL A   1      40.764  33.947  34.712  1.00  0.00    -0.203 F 
ATOM     73  C   UNL A   1      39.449  34.195  36.653  1.00  0.00     0.198 A 
ATOM     74  C   UNL A   1      38.123  32.358  37.443  1.00  0.00     0.198 A 
ATOM     75  F   UNL A   1      38.164  30.303  36.298  1.00  0.00    -0.203 F 
ATOM     76  F   UNL A   1      39.890  35.452  36.791  1.00  0.00    -0.200 F 
ATOM     77  C   UNL A   1      38.556  33.669  37.575  1.00  0.00     0.200 A 
ATOM     78  F   UNL A   1      37.251  31.849  38.324  1.00  0.00    -0.200 F 
ATOM     79  F   UNL A   1      38.117  34.423  38.592  1.00  0.00    -0.200 F 
ENDBRANCH  45  69
BRANCH  57  80
ATOM     80  C   UNL A   1      44.703  27.556  34.563  1.00  0.00     0.064 A 
ATOM     81  C   UNL A   1      45.919  28.248  34.633  1.00  0.00     0.173 A 
ATOM     82  C   UNL A   1      44.519  26.450  35.405  1.00  0.00     0.173 A 
ATOM     83  F   UNL A   1      46.144  29.302  33.835  1.00  0.00    -0.203 F 
ATOM     84  C   UNL A   1      46.919  27.840  35.512  1.00  0.00     0.198 A 
ATOM     85  C   UNL A   1      45.512  26.059  36.297  1.00  0.00     0.198 A 
ATOM     86  F   UNL A   1      43.369  25.760  35.375  1.00  0.00    -0.203 F 
ATOM     87  F   UNL A   1      48.087  28.498  35.546  1.00  0.00    -0.200 F 
ATOM     88  C   UNL A   1      46.712  26.752  36.348  1.00  0.00     0.200 A 
ATOM     89  F   UNL A   1      45.307  25.014  37.110  1.00  0.00    -0.200 F 
ATOM     90  F   UNL A   1      47.673  26.369  37.200  1.00  0.00    -0.200 F 
ENDBRANCH  57  80
ENDBRANCH  31  32
ENDBRANCH  24  26
ENDBRANCH  23  24
ENDBRANCH  22  23
ENDBRANCH   1  22
TORSDOF 14
ENDMDL
