MODEL 1
REMARK VINA RESULT:     -13.3      0.000      0.000
REMARK SMILES Cc1nnc(SCC2=C(C(=O)OCCOC(=O)c3ccc(-c4c5nc(c(-c6c(F)c(F)c(F)c(F)c6F)c6ccc([nH]6)c(-c6c(F)c(F)c(F)c(F)c6F)c6nc(c(-c7c(F)c(F)c(F)c(F)c7F)c7ccc4[nH]7)C=C6)C=C5)cc3)N3C(=O)[C@H](NC(=O)c4ccc(F)cc4F)[C@H]3SC2)s1
REMARK SMILES IDX 13 1 12 2 10 3 11 4 9 5 8 6 98 7 81 8 97 9 82 10 96 11 83 12
REMARK SMILES IDX 84 13 7 14 6 15 5 16 1 17 2 18 3 19 99 20 4 21 85 22 86 23
REMARK SMILES IDX 87 25 88 26 89 27 94 28 90 29 93 30 95 31 91 32 92 33 14 34
REMARK SMILES IDX 15 35 16 36 17 37 18 38 19 39 80 40 20 41 79 42 21 43 22 44
REMARK SMILES IDX 23 45 73 46 24 47 78 48 72 49 74 50 25 51 77 52 71 53 70 54
REMARK SMILES IDX 26 56 58 57 38 58 57 59 39 60 42 61 56 62 75 63 40 64 41 65
REMARK SMILES IDX 55 67 76 68 43 69 27 70 28 71 36 72 29 73 30 74 34 75 37 76
REMARK SMILES IDX 31 77 32 78 35 79 33 80 59 81 60 82 68 83 61 84 62 85 66 86
REMARK SMILES IDX 69 87 63 88 64 89 67 90 65 91 44 92 45 93 53 94 46 95 47 96
REMARK SMILES IDX 51 97 54 98 48 99 49 100 52 101 50 102
REMARK H PARENT 85 24 74 55 42 66
REMARK Flexibility Score: inf
ROOT
ATOM      1  C   UNL A   1      31.812  28.451  27.660  1.00  0.00     0.275 C 
ENDROOT
BRANCH   1   2
ATOM      2  O   UNL A   1      32.596  27.684  26.720  1.00  0.00    -0.457 OA
BRANCH   2   3
ATOM      3  C   UNL A   1      31.952  26.621  26.183  1.00  0.00     0.355 C 
ATOM      4  O   UNL A   1      31.298  25.785  26.792  1.00  0.00    -0.244 OA
BRANCH   3   5
ATOM      5  C   UNL A   1      32.165  26.493  24.710  1.00  0.00     0.132 C 
ATOM      6  C   UNL A   1      32.989  25.585  24.128  1.00  0.00    -0.019 C 
ATOM      7  C   UNL A   1      33.109  25.417  22.611  1.00  0.00     0.106 C 
ATOM      8  N   UNL A   1      31.294  27.178  23.932  1.00  0.00    -0.289 N 
ATOM      9  S   UNL A   1      32.087  26.503  21.564  1.00  0.00    -0.129 SA
ATOM     10  C   UNL A   1      30.660  28.361  23.895  1.00  0.00     0.253 C 
ATOM     11  C   UNL A   1      30.722  26.607  22.747  1.00  0.00     0.181 C 
ATOM     12  O   UNL A   1      30.776  29.370  24.543  1.00  0.00    -0.272 OA
ATOM     13  C   UNL A   1      29.824  27.884  22.641  1.00  0.00     0.206 C 
BRANCH   6  14
ATOM     14  C   UNL A   1      33.929  24.676  24.903  1.00  0.00     0.111 C 
BRANCH  14  15
ATOM     15  S   UNL A   1      34.820  23.514  23.826  1.00  0.00    -0.089 SA
BRANCH  15  16
ATOM     16  C   UNL A   1      33.949  22.026  24.097  1.00  0.00     0.174 A 
ATOM     17  C   UNL A   1      32.839  18.574  25.342  1.00  0.00     0.081 C 
ATOM     18  C   UNL A   1      33.101  19.907  24.743  1.00  0.00     0.115 A 
ATOM     19  N   UNL A   1      32.315  20.514  23.882  1.00  0.00    -0.143 NA
ATOM     20  S   UNL A   1      34.500  20.809  25.171  1.00  0.00    -0.091 S 
ATOM     21  N   UNL A   1      32.807  21.748  23.510  1.00  0.00    -0.132 NA
ENDBRANCH  15  16
ENDBRANCH  14  15
ENDBRANCH   6  14
BRANCH  13  22
ATOM     22  N   UNL A   1      28.366  27.739  22.940  1.00  0.00    -0.338 N 
ATOM     23  C   UNL A   1      27.407  28.710  23.094  1.00  0.00     0.254 C 
ATOM     24  H   UNL A   1      28.047  26.813  23.041  1.00  0.00     0.164 HD
ATOM     25  O   UNL A   1      26.250  28.430  23.384  1.00  0.00    -0.269 OA
BRANCH  23  26
ATOM     26  C   UNL A   1      27.792  30.113  22.937  1.00  0.00     0.075 A 
ATOM     27  C   UNL A   1      27.949  30.920  24.065  1.00  0.00     0.020 A 
ATOM     28  C   UNL A   1      27.984  30.634  21.659  1.00  0.00     0.138 A 
ATOM     29  C   UNL A   1      28.364  32.242  23.897  1.00  0.00     0.040 A 
ATOM     30  C   UNL A   1      28.422  31.940  21.490  1.00  0.00     0.079 A 
ATOM     31  F   UNL A   1      27.803  29.868  20.574  1.00  0.00    -0.206 F 
ATOM     32  C   UNL A   1      28.614  32.731  22.615  1.00  0.00     0.126 A 
ATOM     33  F   UNL A   1      29.047  33.989  22.465  1.00  0.00    -0.207 F 
ENDBRANCH  23  26
ENDBRANCH  13  22
ENDBRANCH   3   5
ENDBRANCH   2   3
ENDBRANCH   1   2
BRANCH   1  34
ATOM     34  C   UNL A   1      31.746  29.923  27.268  1.00  0.00     0.275 C 
BRANCH  34  35
ATOM     35  O   UNL A   1      33.012  30.326  26.722  1.00  0.00    -0.458 OA
BRANCH  35  36
ATOM     36  C   UNL A   1      33.612  31.385  27.311  1.00  0.00     0.338 C 
ATOM     37  O   UNL A   1      33.122  32.485  27.509  1.00  0.00    -0.246 OA
BRANCH  36  38
ATOM     38  C   UNL A   1      34.992  31.028  27.713  1.00  0.00     0.060 A 
ATOM     39  C   UNL A   1      35.346  29.700  27.932  1.00  0.00     0.016 A 
ATOM     40  C   UNL A   1      35.904  32.036  28.021  1.00  0.00     0.016 A 
ATOM     41  C   UNL A   1      36.520  29.391  28.612  1.00  0.00     0.010 A 
ATOM     42  C   UNL A   1      37.141  31.710  28.594  1.00  0.00     0.010 A 
ATOM     43  C   UNL A   1      37.435  30.387  28.970  1.00  0.00    -0.014 A 
BRANCH  43  44
ATOM     44  C   UNL A   1      38.620  30.064  29.825  1.00  0.00     0.031 A 
ATOM     45  C   UNL A   1      39.759  29.246  29.259  1.00  0.00     0.074 A 
ATOM     46  C   UNL A   1      38.742  30.545  31.079  1.00  0.00     0.049 A 
ATOM     47  N   UNL A   1      40.741  28.645  29.885  1.00  0.00    -0.248 NA
ATOM     48  C   UNL A   1      39.787  29.065  27.799  1.00  0.00     0.031 C 
ATOM     49  C   UNL A   1      37.788  31.424  31.754  1.00  0.00     0.029 A 
ATOM     50  N   UNL A   1      39.746  30.382  32.005  1.00  0.00    -0.354 N 
ATOM     51  C   UNL A   1      41.432  27.931  28.912  1.00  0.00     0.074 A 
ATOM     52  C   UNL A   1      40.777  28.196  27.649  1.00  0.00     0.031 C 
ATOM     53  C   UNL A   1      38.289  31.793  32.940  1.00  0.00     0.029 A 
ATOM     54  C   UNL A   1      39.534  31.073  33.173  1.00  0.00     0.049 A 
ATOM     55  H   UNL A   1      40.542  29.825  31.845  1.00  0.00     0.167 HD
ATOM     56  C   UNL A   1      42.507  27.122  29.066  1.00  0.00     0.037 A 
ATOM     57  C   UNL A   1      40.227  31.085  34.328  1.00  0.00     0.037 A 
ATOM     58  C   UNL A   1      43.229  26.953  30.300  1.00  0.00     0.049 A 
ATOM     59  C   UNL A   1      41.422  30.188  34.478  1.00  0.00     0.074 A 
ATOM     60  C   UNL A   1      44.334  26.160  30.556  1.00  0.00     0.029 A 
ATOM     61  N   UNL A   1      42.943  27.629  31.476  1.00  0.00    -0.354 N 
ATOM     62  N   UNL A   1      41.975  29.392  33.597  1.00  0.00    -0.248 NA
ATOM     63  C   UNL A   1      42.061  30.157  35.801  1.00  0.00     0.031 C 
ATOM     64  C   UNL A   1      44.707  26.342  31.893  1.00  0.00     0.029 A 
ATOM     65  C   UNL A   1      43.853  27.273  32.460  1.00  0.00     0.049 A 
ATOM     66  H   UNL A   1      42.203  28.268  31.596  1.00  0.00     0.167 HD
ATOM     67  C   UNL A   1      43.015  28.758  34.260  1.00  0.00     0.074 A 
ATOM     68  C   UNL A   1      43.042  29.288  35.606  1.00  0.00     0.031 C 
ATOM     69  C   UNL A   1      43.861  27.805  33.797  1.00  0.00     0.037 A 
BRANCH  56  70
ATOM     70  C   UNL A   1      42.947  26.314  27.880  1.00  0.00     0.064 A 
ATOM     71  C   UNL A   1      42.430  25.041  27.605  1.00  0.00     0.173 A 
ATOM     72  C   UNL A   1      43.877  26.855  26.976  1.00  0.00     0.173 A 
ATOM     73  F   UNL A   1      41.548  24.476  28.443  1.00  0.00    -0.203 F 
ATOM     74  C   UNL A   1      42.842  24.330  26.480  1.00  0.00     0.198 A 
ATOM     75  C   UNL A   1      44.266  26.153  25.838  1.00  0.00     0.198 A 
ATOM     76  F   UNL A   1      44.396  28.074  27.189  1.00  0.00    -0.203 F 
ATOM     77  F   UNL A   1      42.362  23.099  26.255  1.00  0.00    -0.200 F 
ATOM     78  C   UNL A   1      43.753  24.889  25.595  1.00  0.00     0.200 A 
ATOM     79  F   UNL A   1      45.136  26.702  24.978  1.00  0.00    -0.200 F 
ATOM     80  F   UNL A   1      44.139  24.207  24.507  1.00  0.00    -0.200 F 
ENDBRANCH  56  70
BRANCH  57  81
ATOM     81  C   UNL A   1      39.759  31.926  35.462  1.00  0.00     0.064 A 
ATOM     82  C   UNL A   1      40.300  33.199  35.688  1.00  0.00     0.173 A 
ATOM     83  C   UNL A   1      38.757  31.478  36.337  1.00  0.00     0.173 A 
ATOM     84  F   UNL A   1      41.291  33.654  34.907  1.00  0.00    -0.203 F 
ATOM     85  C   UNL A   1      39.855  33.992  36.744  1.00  0.00     0.198 A 
ATOM     86  C   UNL A   1      38.290  32.284  37.371  1.00  0.00     0.198 A 
ATOM     87  F   UNL A   1      38.216  30.262  36.173  1.00  0.00    -0.203 F 
ATOM     88  F   UNL A   1      40.418  35.187  36.966  1.00  0.00    -0.200 F 
ATOM     89  C   UNL A   1      38.842  33.538  37.578  1.00  0.00     0.200 A 
ATOM     90  F   UNL A   1      37.305  31.845  38.167  1.00  0.00    -0.200 F 
ATOM     91  F   UNL A   1      38.408  34.305  38.586  1.00  0.00    -0.200 F 
ENDBRANCH  57  81
BRANCH  69  92
ATOM     92  C   UNL A   1      44.886  27.284  34.758  1.00  0.00     0.064 A 
ATOM     93  C   UNL A   1      44.634  26.153  35.548  1.00  0.00     0.173 A 
ATOM     94  C   UNL A   1      46.133  27.911  34.881  1.00  0.00     0.173 A 
ATOM     95  F   UNL A   1      43.447  25.530  35.477  1.00  0.00    -0.203 F 
ATOM     96  C   UNL A   1      45.587  25.683  36.446  1.00  0.00     0.198 A 
ATOM     97  C   UNL A   1      47.092  27.426  35.765  1.00  0.00     0.198 A 
ATOM     98  F   UNL A   1      46.421  28.996  34.145  1.00  0.00    -0.203 F 
ATOM     99  F   UNL A   1      45.310  24.627  37.224  1.00  0.00    -0.200 F 
ATOM    100  C   UNL A   1      46.817  26.317  36.551  1.00  0.00     0.200 A 
ATOM    101  F   UNL A   1      48.282  28.035  35.861  1.00  0.00    -0.200 F 
ATOM    102  F   UNL A   1      47.732  25.865  37.418  1.00  0.00    -0.200 F 
ENDBRANCH  69  92
ENDBRANCH  43  44
ENDBRANCH  36  38
ENDBRANCH  35  36
ENDBRANCH  34  35
ENDBRANCH   1  34
TORSDOF 16
ENDMDL
MODEL 2
REMARK VINA RESULT:     -13.2      2.601      5.761
REMARK SMILES Cc1nnc(SCC2=C(C(=O)OCCOC(=O)c3ccc(-c4c5nc(c(-c6c(F)c(F)c(F)c(F)c6F)c6ccc([nH]6)c(-c6c(F)c(F)c(F)c(F)c6F)c6nc(c(-c7c(F)c(F)c(F)c(F)c7F)c7ccc4[nH]7)C=C6)C=C5)cc3)N3C(=O)[C@H](NC(=O)c4ccc(F)cc4F)[C@H]3SC2)s1
REMARK SMILES IDX 13 1 12 2 10 3 11 4 9 5 8 6 98 7 81 8 97 9 82 10 96 11 83 12
REMARK SMILES IDX 84 13 7 14 6 15 5 16 1 17 2 18 3 19 99 20 4 21 85 22 86 23
REMARK SMILES IDX 87 25 88 26 89 27 94 28 90 29 93 30 95 31 91 32 92 33 14 34
REMARK SMILES IDX 15 35 16 36 17 37 18 38 19 39 80 40 20 41 79 42 21 43 22 44
REMARK SMILES IDX 23 45 73 46 24 47 78 48 72 49 74 50 25 51 77 52 71 53 70 54
REMARK SMILES IDX 26 56 58 57 38 58 57 59 39 60 42 61 56 62 75 63 40 64 41 65
REMARK SMILES IDX 55 67 76 68 43 69 27 70 28 71 36 72 29 73 30 74 34 75 37 76
REMARK SMILES IDX 31 77 32 78 35 79 33 80 59 81 60 82 68 83 61 84 62 85 66 86
REMARK SMILES IDX 69 87 63 88 64 89 67 90 65 91 44 92 45 93 53 94 46 95 47 96
REMARK SMILES IDX 51 97 54 98 48 99 49 100 52 101 50 102
REMARK H PARENT 85 24 74 55 42 66
REMARK Flexibility Score: inf
ROOT
ATOM      1  C   UNL A   1      31.773  28.526  27.625  1.00  0.00     0.275 C 
ENDROOT
BRANCH   1   2
ATOM      2  O   UNL A   1      31.357  27.311  26.964  1.00  0.00    -0.457 OA
BRANCH   2   3
ATOM      3  C   UNL A   1      32.347  26.653  26.317  1.00  0.00     0.355 C 
ATOM      4  O   UNL A   1      33.550  26.830  26.457  1.00  0.00    -0.244 OA
BRANCH   3   5
ATOM      5  C   UNL A   1      31.837  25.678  25.306  1.00  0.00     0.132 C 
ATOM      6  C   UNL A   1      31.200  26.023  24.158  1.00  0.00    -0.019 C 
ATOM      7  C   UNL A   1      30.778  25.002  23.098  1.00  0.00     0.106 C 
ATOM      8  N   UNL A   1      32.258  24.400  25.461  1.00  0.00    -0.289 N 
ATOM      9  S   UNL A   1      31.157  23.250  23.422  1.00  0.00    -0.129 SA
ATOM     10  C   UNL A   1      32.490  23.506  26.435  1.00  0.00     0.253 C 
ATOM     11  C   UNL A   1      32.672  23.596  24.348  1.00  0.00     0.181 C 
ATOM     12  O   UNL A   1      32.242  23.500  27.615  1.00  0.00    -0.272 OA
ATOM     13  C   UNL A   1      33.105  22.503  25.380  1.00  0.00     0.206 C 
BRANCH   6  14
ATOM     14  C   UNL A   1      30.781  27.444  23.817  1.00  0.00     0.111 C 
BRANCH  14  15
ATOM     15  S   UNL A   1      28.996  27.585  23.502  1.00  0.00    -0.089 SA
BRANCH  15  16
ATOM     16  C   UNL A   1      28.909  29.055  22.564  1.00  0.00     0.174 A 
ATOM     17  C   UNL A   1      27.864  32.439  21.095  1.00  0.00     0.081 C 
ATOM     18  C   UNL A   1      28.422  31.133  21.529  1.00  0.00     0.115 A 
ATOM     19  N   UNL A   1      29.510  30.578  21.041  1.00  0.00    -0.143 NA
ATOM     20  S   UNL A   1      27.670  30.220  22.776  1.00  0.00    -0.091 S 
ATOM     21  N   UNL A   1      29.794  29.372  21.647  1.00  0.00    -0.132 NA
ENDBRANCH  15  16
ENDBRANCH  14  15
ENDBRANCH   6  14
BRANCH  13  22
ATOM     22  N   UNL A   1      34.569  22.275  25.584  1.00  0.00    -0.338 N 
ATOM     23  C   UNL A   1      35.309  21.134  25.394  1.00  0.00     0.254 C 
ATOM     24  H   UNL A   1      35.077  23.058  25.902  1.00  0.00     0.164 HD
ATOM     25  O   UNL A   1      36.506  21.094  25.651  1.00  0.00    -0.269 OA
BRANCH  23  26
ATOM     26  C   UNL A   1      34.636  19.932  24.902  1.00  0.00     0.075 A 
ATOM     27  C   UNL A   1      33.258  19.947  24.682  1.00  0.00     0.020 A 
ATOM     28  C   UNL A   1      35.379  18.774  24.673  1.00  0.00     0.138 A 
ATOM     29  C   UNL A   1      32.644  18.806  24.166  1.00  0.00     0.040 A 
ATOM     30  C   UNL A   1      34.775  17.646  24.136  1.00  0.00     0.079 A 
ATOM     31  F   UNL A   1      36.697  18.749  24.914  1.00  0.00    -0.206 F 
ATOM     32  C   UNL A   1      33.410  17.676  23.882  1.00  0.00     0.126 A 
ATOM     33  F   UNL A   1      32.820  16.597  23.353  1.00  0.00    -0.207 F 
ENDBRANCH  23  26
ENDBRANCH  13  22
ENDBRANCH   3   5
ENDBRANCH   2   3
ENDBRANCH   1   2
BRANCH   1  34
ATOM     34  C   UNL A   1      31.623  29.741  26.715  1.00  0.00     0.275 C 
BRANCH  34  35
ATOM     35  O   UNL A   1      32.926  30.241  26.375  1.00  0.00    -0.458 OA
BRANCH  35  36
ATOM     36  C   UNL A   1      33.406  31.242  27.147  1.00  0.00     0.338 C 
ATOM     37  O   UNL A   1      32.811  32.251  27.489  1.00  0.00    -0.246 OA
BRANCH  36  38
ATOM     38  C   UNL A   1      34.800  30.947  27.552  1.00  0.00     0.060 A 
ATOM     39  C   UNL A   1      35.236  29.632  27.685  1.00  0.00     0.016 A 
ATOM     40  C   UNL A   1      35.639  31.988  27.949  1.00  0.00     0.016 A 
ATOM     41  C   UNL A   1      36.417  29.352  28.368  1.00  0.00     0.010 A 
ATOM     42  C   UNL A   1      36.885  31.702  28.524  1.00  0.00     0.010 A 
ATOM     43  C   UNL A   1      37.259  30.377  28.812  1.00  0.00    -0.014 A 
BRANCH  43  44
ATOM     44  C   UNL A   1      38.448  30.071  29.668  1.00  0.00     0.031 A 
ATOM     45  C   UNL A   1      39.590  29.254  29.108  1.00  0.00     0.074 A 
ATOM     46  C   UNL A   1      38.571  30.567  30.916  1.00  0.00     0.049 A 
ATOM     47  N   UNL A   1      40.578  28.666  29.739  1.00  0.00    -0.248 NA
ATOM     48  C   UNL A   1      39.615  29.056  27.650  1.00  0.00     0.031 C 
ATOM     49  C   UNL A   1      37.612  31.448  31.584  1.00  0.00     0.029 A 
ATOM     50  N   UNL A   1      39.578  30.422  31.841  1.00  0.00    -0.354 N 
ATOM     51  C   UNL A   1      41.270  27.945  28.772  1.00  0.00     0.074 A 
ATOM     52  C   UNL A   1      40.610  28.191  27.508  1.00  0.00     0.031 C 
ATOM     53  C   UNL A   1      38.115  31.834  32.765  1.00  0.00     0.029 A 
ATOM     54  C   UNL A   1      39.365  31.124  33.002  1.00  0.00     0.049 A 
ATOM     55  H   UNL A   1      40.376  29.867  31.686  1.00  0.00     0.167 HD
ATOM     56  C   UNL A   1      42.351  27.144  28.932  1.00  0.00     0.037 A 
ATOM     57  C   UNL A   1      40.061  31.154  34.155  1.00  0.00     0.037 A 
ATOM     58  C   UNL A   1      43.077  26.995  30.167  1.00  0.00     0.049 A 
ATOM     59  C   UNL A   1      41.261  30.266  34.312  1.00  0.00     0.074 A 
ATOM     60  C   UNL A   1      44.188  26.211  30.429  1.00  0.00     0.029 A 
ATOM     61  N   UNL A   1      42.791  27.682  31.335  1.00  0.00    -0.354 N 
ATOM     62  N   UNL A   1      41.817  29.463  33.439  1.00  0.00    -0.248 NA
ATOM     63  C   UNL A   1      41.904  30.254  35.634  1.00  0.00     0.031 C 
ATOM     64  C   UNL A   1      44.563  26.411  31.762  1.00  0.00     0.029 A 
ATOM     65  C   UNL A   1      43.706  27.343  32.320  1.00  0.00     0.049 A 
ATOM     66  H   UNL A   1      42.047  28.317  31.449  1.00  0.00     0.167 HD
ATOM     67  C   UNL A   1      42.863  28.843  34.105  1.00  0.00     0.074 A 
ATOM     68  C   UNL A   1      42.890  29.389  35.446  1.00  0.00     0.031 C 
ATOM     69  C   UNL A   1      43.713  27.890  33.651  1.00  0.00     0.037 A 
BRANCH  56  70
ATOM     70  C   UNL A   1      42.793  26.326  27.754  1.00  0.00     0.064 A 
ATOM     71  C   UNL A   1      42.245  25.068  27.466  1.00  0.00     0.173 A 
ATOM     72  C   UNL A   1      43.756  26.841  26.871  1.00  0.00     0.173 A 
ATOM     73  F   UNL A   1      41.331  24.528  28.285  1.00  0.00    -0.203 F 
ATOM     74  C   UNL A   1      42.661  24.347  26.349  1.00  0.00     0.198 A 
ATOM     75  C   UNL A   1      44.149  26.130  25.741  1.00  0.00     0.198 A 
ATOM     76  F   UNL A   1      44.305  28.044  27.097  1.00  0.00    -0.203 F 
ATOM     77  F   UNL A   1      42.151  23.131  26.112  1.00  0.00    -0.200 F 
ATOM     78  C   UNL A   1      43.605  24.881  25.484  1.00  0.00     0.200 A 
ATOM     79  F   UNL A   1      45.052  26.654  24.900  1.00  0.00    -0.200 F 
ATOM     80  F   UNL A   1      43.995  24.190  24.404  1.00  0.00    -0.200 F 
ENDBRANCH  56  70
BRANCH  57  81
ATOM     81  C   UNL A   1      39.590  32.005  35.280  1.00  0.00     0.064 A 
ATOM     82  C   UNL A   1      40.029  33.329  35.416  1.00  0.00     0.173 A 
ATOM     83  C   UNL A   1      38.689  31.515  36.238  1.00  0.00     0.173 A 
ATOM     84  F   UNL A   1      40.924  33.830  34.552  1.00  0.00    -0.203 F 
ATOM     85  C   UNL A   1      39.581  34.131  36.464  1.00  0.00     0.198 A 
ATOM     86  C   UNL A   1      38.217  32.326  37.265  1.00  0.00     0.198 A 
ATOM     87  F   UNL A   1      38.250  30.250  36.162  1.00  0.00    -0.203 F 
ATOM     88  F   UNL A   1      40.047  35.380  36.597  1.00  0.00    -0.200 F 
ATOM     89  C   UNL A   1      38.667  33.632  37.381  1.00  0.00     0.200 A 
ATOM     90  F   UNL A   1      37.326  31.843  38.143  1.00  0.00    -0.200 F 
ATOM     91  F   UNL A   1      38.228  34.406  38.383  1.00  0.00    -0.200 F 
ENDBRANCH  57  81
BRANCH  69  92
ATOM     92  C   UNL A   1      44.744  27.386  34.615  1.00  0.00     0.064 A 
ATOM     93  C   UNL A   1      45.978  28.034  34.764  1.00  0.00     0.173 A 
ATOM     94  C   UNL A   1      44.490  26.257  35.406  1.00  0.00     0.173 A 
ATOM     95  F   UNL A   1      46.272  29.109  34.015  1.00  0.00    -0.203 F 
ATOM     96  C   UNL A   1      46.935  27.553  35.653  1.00  0.00     0.198 A 
ATOM     97  C   UNL A   1      45.441  25.791  36.310  1.00  0.00     0.198 A 
ATOM     98  F   UNL A   1      43.322  25.604  35.301  1.00  0.00    -0.203 F 
ATOM     99  F   UNL A   1      48.127  28.160  35.747  1.00  0.00    -0.200 F 
ATOM    100  C   UNL A   1      46.664  26.434  36.428  1.00  0.00     0.200 A 
ATOM    101  F   UNL A   1      45.176  24.714  37.063  1.00  0.00    -0.200 F 
ATOM    102  F   UNL A   1      47.586  25.970  37.282  1.00  0.00    -0.200 F 
ENDBRANCH  69  92
ENDBRANCH  43  44
ENDBRANCH  36  38
ENDBRANCH  35  36
ENDBRANCH  34  35
ENDBRANCH   1  34
TORSDOF 16
ENDMDL
MODEL 3
REMARK VINA RESULT:     -13.0      4.340      9.106
REMARK SMILES Cc1nnc(SCC2=C(C(=O)OCCOC(=O)c3ccc(-c4c5nc(c(-c6c(F)c(F)c(F)c(F)c6F)c6ccc([nH]6)c(-c6c(F)c(F)c(F)c(F)c6F)c6nc(c(-c7c(F)c(F)c(F)c(F)c7F)c7ccc4[nH]7)C=C6)C=C5)cc3)N3C(=O)[C@H](NC(=O)c4ccc(F)cc4F)[C@H]3SC2)s1
REMARK SMILES IDX 13 1 12 2 10 3 11 4 9 5 8 6 98 7 81 8 97 9 82 10 96 11 83 12
REMARK SMILES IDX 84 13 7 14 6 15 5 16 1 17 2 18 3 19 99 20 4 21 85 22 86 23
REMARK SMILES IDX 87 25 88 26 89 27 94 28 90 29 93 30 95 31 91 32 92 33 14 34
REMARK SMILES IDX 15 35 16 36 17 37 18 38 19 39 80 40 20 41 79 42 21 43 22 44
REMARK SMILES IDX 23 45 73 46 24 47 78 48 72 49 74 50 25 51 77 52 71 53 70 54
REMARK SMILES IDX 26 56 58 57 38 58 57 59 39 60 42 61 56 62 75 63 40 64 41 65
REMARK SMILES IDX 55 67 76 68 43 69 27 70 28 71 36 72 29 73 30 74 34 75 37 76
REMARK SMILES IDX 31 77 32 78 35 79 33 80 59 81 60 82 68 83 61 84 62 85 66 86
REMARK SMILES IDX 69 87 63 88 64 89 67 90 65 91 44 92 45 93 53 94 46 95 47 96
REMARK SMILES IDX 51 97 54 98 48 99 49 100 52 101 50 102
REMARK H PARENT 85 24 74 55 42 66
REMARK Flexibility Score: inf
ROOT
ATOM      1  C   UNL A   1      36.718  22.433  23.767  1.00  0.00     0.275 C 
ENDROOT
BRANCH   1   2
ATOM      2  O   UNL A   1      35.586  23.132  24.329  1.00  0.00    -0.457 OA
BRANCH   2   3
ATOM      3  C   UNL A   1      34.457  23.070  23.584  1.00  0.00     0.355 C 
ATOM      4  O   UNL A   1      34.393  23.077  22.362  1.00  0.00    -0.244 OA
BRANCH   3   5
ATOM      5  C   UNL A   1      33.212  23.061  24.410  1.00  0.00     0.132 C 
ATOM      6  C   UNL A   1      32.756  21.986  25.101  1.00  0.00    -0.019 C 
ATOM      7  C   UNL A   1      31.530  22.040  26.016  1.00  0.00     0.106 C 
ATOM      8  N   UNL A   1      32.661  24.275  24.650  1.00  0.00    -0.289 N 
ATOM      9  S   UNL A   1      30.660  23.635  26.161  1.00  0.00    -0.129 SA
ATOM     10  C   UNL A   1      32.421  25.437  24.021  1.00  0.00     0.253 C 
ATOM     11  C   UNL A   1      32.151  24.636  25.941  1.00  0.00     0.181 C 
ATOM     12  O   UNL A   1      32.504  25.774  22.867  1.00  0.00    -0.272 OA
ATOM     13  C   UNL A   1      31.927  26.079  25.378  1.00  0.00     0.206 C 
BRANCH   6  14
ATOM     14  C   UNL A   1      33.366  20.597  25.005  1.00  0.00     0.111 C 
BRANCH  14  15
ATOM     15  S   UNL A   1      32.984  19.777  23.429  1.00  0.00    -0.089 SA
BRANCH  15  16
ATOM     16  C   UNL A   1      33.129  18.090  23.853  1.00  0.00     0.174 A 
ATOM     17  C   UNL A   1      32.978  14.713  25.662  1.00  0.00     0.081 C 
ATOM     18  C   UNL A   1      33.130  15.920  24.811  1.00  0.00     0.115 A 
ATOM     19  N   UNL A   1      33.662  15.932  23.608  1.00  0.00    -0.143 NA
ATOM     20  S   UNL A   1      32.574  17.456  25.345  1.00  0.00    -0.091 S 
ATOM     21  N   UNL A   1      33.656  17.194  23.050  1.00  0.00    -0.132 NA
ENDBRANCH  15  16
ENDBRANCH  14  15
ENDBRANCH   6  14
BRANCH  13  22
ATOM     22  N   UNL A   1      32.830  27.167  25.866  1.00  0.00    -0.338 N 
ATOM     23  C   UNL A   1      32.940  28.467  25.436  1.00  0.00     0.254 C 
ATOM     24  H   UNL A   1      33.435  26.914  26.601  1.00  0.00     0.164 HD
ATOM     25  O   UNL A   1      33.769  29.233  25.912  1.00  0.00    -0.269 OA
BRANCH  23  26
ATOM     26  C   UNL A   1      32.062  28.931  24.362  1.00  0.00     0.075 A 
ATOM     27  C   UNL A   1      30.749  29.307  24.650  1.00  0.00     0.020 A 
ATOM     28  C   UNL A   1      32.543  28.977  23.054  1.00  0.00     0.138 A 
ATOM     29  C   UNL A   1      29.944  29.793  23.620  1.00  0.00     0.040 A 
ATOM     30  C   UNL A   1      31.753  29.484  22.032  1.00  0.00     0.079 A 
ATOM     31  F   UNL A   1      33.793  28.586  22.771  1.00  0.00    -0.206 F 
ATOM     32  C   UNL A   1      30.459  29.894  22.328  1.00  0.00     0.126 A 
ATOM     33  F   UNL A   1      29.693  30.395  21.352  1.00  0.00    -0.207 F 
ENDBRANCH  23  26
ENDBRANCH  13  22
ENDBRANCH   3   5
ENDBRANCH   2   3
ENDBRANCH   1   2
BRANCH   1  34
ATOM     34  C   UNL A   1      37.083  21.201  24.589  1.00  0.00     0.275 C 
BRANCH  34  35
ATOM     35  O   UNL A   1      37.584  21.616  25.869  1.00  0.00    -0.458 OA
BRANCH  35  36
ATOM     36  C   UNL A   1      38.926  21.584  26.030  1.00  0.00     0.338 C 
ATOM     37  O   UNL A   1      39.684  20.697  25.671  1.00  0.00    -0.246 OA
BRANCH  36  38
ATOM     38  C   UNL A   1      39.385  22.815  26.714  1.00  0.00     0.060 A 
ATOM     39  C   UNL A   1      38.870  24.058  26.359  1.00  0.00     0.016 A 
ATOM     40  C   UNL A   1      40.448  22.749  27.613  1.00  0.00     0.016 A 
ATOM     41  C   UNL A   1      39.518  25.224  26.756  1.00  0.00     0.010 A 
ATOM     42  C   UNL A   1      41.020  23.929  28.109  1.00  0.00     0.010 A 
ATOM     43  C   UNL A   1      40.613  25.186  27.627  1.00  0.00    -0.014 A 
BRANCH  43  44
ATOM     44  C   UNL A   1      41.389  26.428  27.932  1.00  0.00     0.031 A 
ATOM     45  C   UNL A   1      40.791  27.492  28.824  1.00  0.00     0.074 A 
ATOM     46  C   UNL A   1      42.652  26.602  27.491  1.00  0.00     0.049 A 
ATOM     47  N   UNL A   1      41.173  28.733  29.007  1.00  0.00    -0.248 NA
ATOM     48  C   UNL A   1      39.596  27.118  29.597  1.00  0.00     0.031 C 
ATOM     49  C   UNL A   1      43.420  25.641  26.698  1.00  0.00     0.029 A 
ATOM     50  N   UNL A   1      43.528  27.645  27.676  1.00  0.00    -0.354 N 
ATOM     51  C   UNL A   1      40.207  29.311  29.824  1.00  0.00     0.074 A 
ATOM     52  C   UNL A   1      39.238  28.280  30.126  1.00  0.00     0.031 C 
ATOM     53  C   UNL A   1      44.671  26.096  26.543  1.00  0.00     0.029 A 
ATOM     54  C   UNL A   1      44.759  27.439  27.103  1.00  0.00     0.049 A 
ATOM     55  H   UNL A   1      43.295  28.463  28.172  1.00  0.00     0.167 HD
ATOM     56  C   UNL A   1      40.136  30.588  30.270  1.00  0.00     0.037 A 
ATOM     57  C   UNL A   1      45.825  28.254  26.986  1.00  0.00     0.037 A 
ATOM     58  C   UNL A   1      41.161  31.579  30.067  1.00  0.00     0.049 A 
ATOM     59  C   UNL A   1      45.732  29.664  27.493  1.00  0.00     0.074 A 
ATOM     60  C   UNL A   1      41.184  32.899  30.484  1.00  0.00     0.029 A 
ATOM     61  N   UNL A   1      42.369  31.341  29.430  1.00  0.00    -0.354 N 
ATOM     62  N   UNL A   1      44.747  30.252  28.126  1.00  0.00    -0.248 NA
ATOM     63  C   UNL A   1      46.883  30.538  27.226  1.00  0.00     0.031 C 
ATOM     64  C   UNL A   1      42.400  33.466  30.083  1.00  0.00     0.029 A 
ATOM     65  C   UNL A   1      43.146  32.489  29.445  1.00  0.00     0.049 A 
ATOM     66  H   UNL A   1      42.636  30.484  29.026  1.00  0.00     0.167 HD
ATOM     67  C   UNL A   1      45.152  31.564  28.322  1.00  0.00     0.074 A 
ATOM     68  C   UNL A   1      46.488  31.678  27.774  1.00  0.00     0.031 C 
ATOM     69  C   UNL A   1      44.469  32.588  28.888  1.00  0.00     0.037 A 
BRANCH  56  70
ATOM     70  C   UNL A   1      38.885  31.008  30.984  1.00  0.00     0.064 A 
ATOM     71  C   UNL A   1      37.758  31.490  30.304  1.00  0.00     0.173 A 
ATOM     72  C   UNL A   1      38.804  30.879  32.380  1.00  0.00     0.173 A 
ATOM     73  F   UNL A   1      37.789  31.644  28.971  1.00  0.00    -0.203 F 
ATOM     74  C   UNL A   1      36.604  31.847  30.997  1.00  0.00     0.198 A 
ATOM     75  C   UNL A   1      37.639  31.211  33.067  1.00  0.00     0.198 A 
ATOM     76  F   UNL A   1      39.851  30.414  33.078  1.00  0.00    -0.203 F 
ATOM     77  F   UNL A   1      35.551  32.341  30.331  1.00  0.00    -0.200 F 
ATOM     78  C   UNL A   1      36.543  31.700  32.375  1.00  0.00     0.200 A 
ATOM     79  F   UNL A   1      37.579  31.054  34.397  1.00  0.00    -0.200 F 
ATOM     80  F   UNL A   1      35.426  32.034  33.039  1.00  0.00    -0.200 F 
ENDBRANCH  56  70
BRANCH  57  81
ATOM     81  C   UNL A   1      47.049  27.773  26.291  1.00  0.00     0.064 A 
ATOM     82  C   UNL A   1      48.134  27.259  27.013  1.00  0.00     0.173 A 
ATOM     83  C   UNL A   1      47.157  27.813  24.892  1.00  0.00     0.173 A 
ATOM     84  F   UNL A   1      48.098  27.241  28.354  1.00  0.00    -0.203 F 
ATOM     85  C   UNL A   1      49.278  26.800  26.363  1.00  0.00     0.198 A 
ATOM     86  C   UNL A   1      48.286  27.324  24.242  1.00  0.00     0.198 A 
ATOM     87  F   UNL A   1      46.153  28.310  24.155  1.00  0.00    -0.203 F 
ATOM     88  F   UNL A   1      50.319  26.351  27.077  1.00  0.00    -0.200 F 
ATOM     89  C   UNL A   1      49.348  26.822  24.977  1.00  0.00     0.200 A 
ATOM     90  F   UNL A   1      48.344  27.339  22.903  1.00  0.00    -0.200 F 
ATOM     91  F   UNL A   1      50.443  26.371  24.352  1.00  0.00    -0.200 F 
ENDBRANCH  57  81
BRANCH  69  92
ATOM     92  C   UNL A   1      45.162  33.915  28.945  1.00  0.00     0.064 A 
ATOM     93  C   UNL A   1      45.989  34.258  30.024  1.00  0.00     0.173 A 
ATOM     94  C   UNL A   1      45.008  34.846  27.908  1.00  0.00     0.173 A 
ATOM     95  F   UNL A   1      46.152  33.406  31.048  1.00  0.00    -0.203 F 
ATOM     96  C   UNL A   1      46.620  35.498  30.075  1.00  0.00     0.198 A 
ATOM     97  C   UNL A   1      45.657  36.077  27.952  1.00  0.00     0.198 A 
ATOM     98  F   UNL A   1      44.227  34.563  26.854  1.00  0.00    -0.203 F 
ATOM     99  F   UNL A   1      47.371  35.824  31.136  1.00  0.00    -0.200 F 
ATOM    100  C   UNL A   1      46.456  36.404  29.037  1.00  0.00     0.200 A 
ATOM    101  F   UNL A   1      45.503  36.950  26.947  1.00  0.00    -0.200 F 
ATOM    102  F   UNL A   1      47.061  37.599  29.088  1.00  0.00    -0.200 F 
ENDBRANCH  69  92
ENDBRANCH  43  44
ENDBRANCH  36  38
ENDBRANCH  35  36
ENDBRANCH  34  35
ENDBRANCH   1  34
TORSDOF 16
ENDMDL
