MODEL 1
REMARK VINA RESULT:     -11.0      0.000      0.000
REMARK SMILES CCCCCCCNC(=O)Oc1cccc(-c2ccc([C@@H](C)C(=O)OCCOC(=O)c3ccc(-c4c5nc(c(-c6c(F)c(F)c(F)c(F)c6F)c6ccc([nH]6)c(-c6c(F)c(F)c(F)c(F)c6F)c6nc(c(-c7c(F)c(F)c(F)c(F)c7F)c7ccc4[nH]7)C=C6)C=C5)cc3)cc2F)c1
REMARK SMILES IDX 17 1 18 2 19 3 20 4 94 5 95 6 96 7 16 8 12 9 13 10 97 11
REMARK SMILES IDX 14 12 15 13 11 14 9 15 8 16 10 18 7 19 6 20 5 21 4 22 3 23
REMARK SMILES IDX 2 24 1 25 21 26 22 27 23 28 24 29 25 30 26 31 27 32 28 33
REMARK SMILES IDX 29 34 30 35 31 36 32 37 93 38 33 39 92 40 34 41 35 42 36 43
REMARK SMILES IDX 86 44 37 45 91 46 85 47 87 48 38 49 90 50 84 51 83 52 39 54
REMARK SMILES IDX 71 55 51 56 70 57 52 58 55 59 69 60 88 61 53 62 54 63 68 65
REMARK SMILES IDX 89 66 56 67 40 68 41 69 49 70 42 71 43 72 47 73 50 74 44 75
REMARK SMILES IDX 45 76 48 77 46 78 72 79 73 80 81 81 74 82 75 83 79 84 82 85
REMARK SMILES IDX 76 86 77 87 80 88 78 89 57 90 58 91 66 92 59 93 60 94 64 95
REMARK SMILES IDX 67 96 61 97 62 98 65 99 63 100
REMARK H PARENT 8 17 87 53 55 64
REMARK Flexibility Score: inf
ROOT
ATOM      1  C   UNL A   1      33.972  29.525  26.916  1.00  0.00     0.018 A 
ATOM      2  C   UNL A   1      35.278  29.601  27.426  1.00  0.00     0.012 A 
ATOM      3  C   UNL A   1      35.712  30.715  28.157  1.00  0.00     0.005 A 
ATOM      4  C   UNL A   1      34.854  31.797  28.395  1.00  0.00    -0.031 A 
ATOM      5  C   UNL A   1      33.554  31.733  27.874  1.00  0.00     0.044 A 
ATOM      6  C   UNL A   1      33.130  30.620  27.147  1.00  0.00     0.131 A 
ATOM      7  F   UNL A   1      31.864  30.610  26.698  1.00  0.00    -0.206 F 
ENDROOT
BRANCH   1   8
ATOM      8  C   UNL A   1      33.513  28.322  26.200  1.00  0.00    -0.012 A 
ATOM      9  C   UNL A   1      32.279  26.234  26.111  1.00  0.00     0.133 A 
ATOM     10  C   UNL A   1      32.689  26.013  24.798  1.00  0.00     0.047 A 
ATOM     11  C   UNL A   1      32.691  27.365  26.818  1.00  0.00     0.056 A 
ATOM     12  C   UNL A   1      33.503  26.950  24.173  1.00  0.00     0.004 A 
ATOM     13  C   UNL A   1      33.910  28.091  24.868  1.00  0.00     0.009 A 
BRANCH   9  14
ATOM     14  O   UNL A   1      31.540  25.210  26.723  1.00  0.00    -0.410 OA
BRANCH  14  15
ATOM     15  C   UNL A   1      30.343  24.833  26.135  1.00  0.00     0.412 C 
ATOM     16  N   UNL A   1      30.284  23.495  25.856  1.00  0.00    -0.321 N 
ATOM     17  H   UNL A   1      29.448  23.166  25.452  1.00  0.00     0.167 HD
ATOM     18  O   UNL A   1      29.409  25.573  25.854  1.00  0.00    -0.224 OA
BRANCH  16  19
ATOM     19  C   UNL A   1      31.321  22.508  26.089  1.00  0.00     0.119 C 
BRANCH  19  20
ATOM     20  C   UNL A   1      32.207  22.300  24.861  1.00  0.00     0.021 C 
BRANCH  20  21
ATOM     21  C   UNL A   1      33.310  21.249  25.031  1.00  0.00     0.002 C 
BRANCH  21  22
ATOM     22  C   UNL A   1      34.607  21.750  25.676  1.00  0.00     0.000 C 
BRANCH  22  23
ATOM     23  C   UNL A   1      34.719  23.272  25.826  1.00  0.00    -0.000 C 
BRANCH  23  24
ATOM     24  C   UNL A   1      35.739  23.947  24.906  1.00  0.00    -0.003 C 
ATOM     25  C   UNL A   1      35.886  23.259  23.557  1.00  0.00     0.004 C 
ENDBRANCH  23  24
ENDBRANCH  22  23
ENDBRANCH  21  22
ENDBRANCH  20  21
ENDBRANCH  19  20
ENDBRANCH  16  19
ENDBRANCH  14  15
ENDBRANCH   9  14
ENDBRANCH   1   8
BRANCH   4  26
ATOM     26  C   UNL A   1      35.294  33.013  29.197  1.00  0.00     0.126 C 
ATOM     27  C   UNL A   1      36.413  33.793  28.514  1.00  0.00     0.025 C 
BRANCH  26  28
ATOM     28  C   UNL A   1      34.182  33.962  29.628  1.00  0.00     0.313 C 
ATOM     29  O   UNL A   1      33.621  34.710  28.832  1.00  0.00    -0.252 OA
BRANCH  28  30
ATOM     30  O   UNL A   1      33.858  33.863  30.943  1.00  0.00    -0.462 OA
BRANCH  30  31
ATOM     31  C   UNL A   1      34.921  34.061  31.894  1.00  0.00     0.274 C 
BRANCH  31  32
ATOM     32  C   UNL A   1      34.807  33.085  33.068  1.00  0.00     0.275 C 
BRANCH  32  33
ATOM     33  O   UNL A   1      35.595  31.901  32.842  1.00  0.00    -0.458 OA
BRANCH  33  34
ATOM     34  C   UNL A   1      36.807  31.896  33.442  1.00  0.00     0.338 C 
ATOM     35  O   UNL A   1      37.064  32.151  34.604  1.00  0.00    -0.246 OA
BRANCH  34  36
ATOM     36  C   UNL A   1      37.815  31.396  32.499  1.00  0.00     0.060 A 
ATOM     37  C   UNL A   1      38.942  30.756  33.019  1.00  0.00     0.016 A 
ATOM     38  C   UNL A   1      37.700  31.628  31.129  1.00  0.00     0.016 A 
ATOM     39  C   UNL A   1      39.969  30.351  32.175  1.00  0.00     0.010 A 
ATOM     40  C   UNL A   1      38.728  31.214  30.277  1.00  0.00     0.010 A 
ATOM     41  C   UNL A   1      39.873  30.583  30.797  1.00  0.00    -0.014 A 
BRANCH  41  42
ATOM     42  C   UNL A   1      40.993  30.200  29.907  1.00  0.00     0.031 A 
ATOM     43  C   UNL A   1      41.032  28.828  29.304  1.00  0.00     0.074 A 
ATOM     44  C   UNL A   1      41.961  31.092  29.630  1.00  0.00     0.049 A 
ATOM     45  N   UNL A   1      41.965  28.267  28.579  1.00  0.00    -0.248 NA
ATOM     46  C   UNL A   1      39.860  27.971  29.549  1.00  0.00     0.031 C 
ATOM     47  C   UNL A   1      42.002  32.470  30.118  1.00  0.00     0.029 A 
ATOM     48  N   UNL A   1      43.098  30.969  28.872  1.00  0.00    -0.354 N 
ATOM     49  C   UNL A   1      41.506  26.987  28.298  1.00  0.00     0.074 A 
ATOM     50  C   UNL A   1      40.217  26.848  28.941  1.00  0.00     0.031 C 
ATOM     51  C   UNL A   1      43.111  33.066  29.649  1.00  0.00     0.029 A 
ATOM     52  C   UNL A   1      43.878  32.098  28.870  1.00  0.00     0.049 A 
ATOM     53  H   UNL A   1      43.331  30.150  28.378  1.00  0.00     0.167 HD
ATOM     54  C   UNL A   1      42.111  26.020  27.567  1.00  0.00     0.037 A 
ATOM     55  C   UNL A   1      45.090  32.316  28.325  1.00  0.00     0.037 A 
ATOM     56  C   UNL A   1      43.386  26.170  26.917  1.00  0.00     0.049 A 
ATOM     57  C   UNL A   1      45.766  31.204  27.570  1.00  0.00     0.074 A 
ATOM     58  C   UNL A   1      44.078  25.252  26.146  1.00  0.00     0.029 A 
ATOM     59  N   UNL A   1      44.163  27.320  26.962  1.00  0.00    -0.354 N 
ATOM     60  N   UNL A   1      45.333  29.992  27.320  1.00  0.00    -0.248 NA
ATOM     61  C   UNL A   1      47.103  31.487  27.030  1.00  0.00     0.031 C 
ATOM     62  C   UNL A   1      45.290  25.834  25.756  1.00  0.00     0.029 A 
ATOM     63  C   UNL A   1      45.335  27.127  26.249  1.00  0.00     0.049 A 
ATOM     64  H   UNL A   1      43.917  28.150  27.432  1.00  0.00     0.167 HD
ATOM     65  C   UNL A   1      46.331  29.376  26.579  1.00  0.00     0.074 A 
ATOM     66  C   UNL A   1      47.388  30.351  26.408  1.00  0.00     0.031 C 
ATOM     67  C   UNL A   1      46.372  28.113  26.086  1.00  0.00     0.037 A 
BRANCH  54  68
ATOM     68  C   UNL A   1      41.410  24.699  27.456  1.00  0.00     0.064 A 
ATOM     69  C   UNL A   1      40.307  24.519  26.608  1.00  0.00     0.173 A 
ATOM     70  C   UNL A   1      41.874  23.589  28.177  1.00  0.00     0.173 A 
ATOM     71  F   UNL A   1      39.818  25.553  25.907  1.00  0.00    -0.203 F 
ATOM     72  C   UNL A   1      39.681  23.280  26.505  1.00  0.00     0.198 A 
ATOM     73  C   UNL A   1      41.260  22.347  28.053  1.00  0.00     0.198 A 
ATOM     74  F   UNL A   1      42.928  23.709  28.997  1.00  0.00    -0.203 F 
ATOM     75  F   UNL A   1      38.605  23.138  25.719  1.00  0.00    -0.200 F 
ATOM     76  C   UNL A   1      40.162  22.194  27.221  1.00  0.00     0.200 A 
ATOM     77  F   UNL A   1      41.731  21.295  28.738  1.00  0.00    -0.200 F 
ATOM     78  F   UNL A   1      39.561  21.000  27.116  1.00  0.00    -0.200 F 
ENDBRANCH  54  68
BRANCH  55  79
ATOM     79  C   UNL A   1      45.753  33.633  28.498  1.00  0.00     0.064 A 
ATOM     80  C   UNL A   1      45.607  34.645  27.540  1.00  0.00     0.173 A 
ATOM     81  C   UNL A   1      46.548  33.905  29.621  1.00  0.00     0.173 A 
ATOM     82  F   UNL A   1      44.879  34.422  26.436  1.00  0.00    -0.203 F 
ATOM     83  C   UNL A   1      46.243  35.875  27.694  1.00  0.00     0.198 A 
ATOM     84  C   UNL A   1      47.161  35.144  29.786  1.00  0.00     0.198 A 
ATOM     85  F   UNL A   1      46.721  32.968  30.564  1.00  0.00    -0.203 F 
ATOM     86  F   UNL A   1      46.121  36.812  26.743  1.00  0.00    -0.200 F 
ATOM     87  C   UNL A   1      47.013  36.126  28.819  1.00  0.00     0.200 A 
ATOM     88  F   UNL A   1      47.896  35.386  30.880  1.00  0.00    -0.200 F 
ATOM     89  F   UNL A   1      47.621  37.311  28.967  1.00  0.00    -0.200 F 
ENDBRANCH  55  79
BRANCH  67  90
ATOM     90  C   UNL A   1      47.584  27.726  25.294  1.00  0.00     0.064 A 
ATOM     91  C   UNL A   1      47.607  27.821  23.896  1.00  0.00     0.173 A 
ATOM     92  C   UNL A   1      48.749  27.294  25.946  1.00  0.00     0.173 A 
ATOM     93  F   UNL A   1      46.511  28.212  23.228  1.00  0.00    -0.203 F 
ATOM     94  C   UNL A   1      48.748  27.476  23.175  1.00  0.00     0.198 A 
ATOM     95  C   UNL A   1      49.896  26.976  25.224  1.00  0.00     0.198 A 
ATOM     96  F   UNL A   1      48.779  27.193  27.283  1.00  0.00    -0.203 F 
ATOM     97  F   UNL A   1      48.735  27.536  21.836  1.00  0.00    -0.200 F 
ATOM     98  C   UNL A   1      49.892  27.061  23.839  1.00  0.00     0.200 A 
ATOM     99  F   UNL A   1      51.003  26.583  25.867  1.00  0.00    -0.200 F 
ATOM    100  F   UNL A   1      50.991  26.736  23.144  1.00  0.00    -0.200 F 
ENDBRANCH  67  90
ENDBRANCH  41  42
ENDBRANCH  34  36
ENDBRANCH  33  34
ENDBRANCH  32  33
ENDBRANCH  31  32
ENDBRANCH  30  31
ENDBRANCH  28  30
ENDBRANCH  26  28
ENDBRANCH   4  26
TORSDOF 21
ENDMDL
MODEL 2
REMARK VINA RESULT:     -10.9      1.323      7.317
REMARK SMILES CCCCCCCNC(=O)Oc1cccc(-c2ccc([C@@H](C)C(=O)OCCOC(=O)c3ccc(-c4c5nc(c(-c6c(F)c(F)c(F)c(F)c6F)c6ccc([nH]6)c(-c6c(F)c(F)c(F)c(F)c6F)c6nc(c(-c7c(F)c(F)c(F)c(F)c7F)c7ccc4[nH]7)C=C6)C=C5)cc3)cc2F)c1
REMARK SMILES IDX 17 1 18 2 19 3 20 4 94 5 95 6 96 7 16 8 12 9 13 10 97 11
REMARK SMILES IDX 14 12 15 13 11 14 9 15 8 16 10 18 7 19 6 20 5 21 4 22 3 23
REMARK SMILES IDX 2 24 1 25 21 26 22 27 23 28 24 29 25 30 26 31 27 32 28 33
REMARK SMILES IDX 29 34 30 35 31 36 32 37 93 38 33 39 92 40 34 41 35 42 36 43
REMARK SMILES IDX 86 44 37 45 91 46 85 47 87 48 38 49 90 50 84 51 83 52 39 54
REMARK SMILES IDX 71 55 51 56 70 57 52 58 55 59 69 60 88 61 53 62 54 63 68 65
REMARK SMILES IDX 89 66 56 67 40 68 41 69 49 70 42 71 43 72 47 73 50 74 44 75
REMARK SMILES IDX 45 76 48 77 46 78 72 79 73 80 81 81 74 82 75 83 79 84 82 85
REMARK SMILES IDX 76 86 77 87 80 88 78 89 57 90 58 91 66 92 59 93 60 94 64 95
REMARK SMILES IDX 67 96 61 97 62 98 65 99 63 100
REMARK H PARENT 8 17 87 53 55 64
REMARK Flexibility Score: inf
ROOT
ATOM      1  C   UNL A   1      32.921  31.181  27.115  1.00  0.00     0.018 A 
ATOM      2  C   UNL A   1      34.125  31.322  27.825  1.00  0.00     0.012 A 
ATOM      3  C   UNL A   1      34.475  32.533  28.434  1.00  0.00     0.005 A 
ATOM      4  C   UNL A   1      33.635  33.652  28.346  1.00  0.00    -0.031 A 
ATOM      5  C   UNL A   1      32.439  33.521  27.625  1.00  0.00     0.044 A 
ATOM      6  C   UNL A   1      32.097  32.310  27.021  1.00  0.00     0.131 A 
ATOM      7  F   UNL A   1      30.926  32.245  26.367  1.00  0.00    -0.206 F 
ENDROOT
BRANCH   1   8
ATOM      8  C   UNL A   1      32.540  29.883  26.530  1.00  0.00    -0.012 A 
ATOM      9  C   UNL A   1      32.270  28.396  24.631  1.00  0.00     0.133 A 
ATOM     10  C   UNL A   1      31.762  27.392  25.451  1.00  0.00     0.047 A 
ATOM     11  C   UNL A   1      32.645  29.637  25.152  1.00  0.00     0.056 A 
ATOM     12  C   UNL A   1      31.650  27.621  26.818  1.00  0.00     0.004 A 
ATOM     13  C   UNL A   1      32.035  28.854  27.350  1.00  0.00     0.009 A 
BRANCH   9  14
ATOM     14  O   UNL A   1      32.269  28.146  23.250  1.00  0.00    -0.410 OA
BRANCH  14  15
ATOM     15  C   UNL A   1      31.301  27.292  22.747  1.00  0.00     0.412 C 
ATOM     16  N   UNL A   1      31.827  26.182  22.146  1.00  0.00    -0.321 N 
ATOM     17  H   UNL A   1      31.183  25.530  21.785  1.00  0.00     0.167 HD
ATOM     18  O   UNL A   1      30.088  27.467  22.788  1.00  0.00    -0.224 OA
BRANCH  16  19
ATOM     19  C   UNL A   1      33.232  25.862  21.984  1.00  0.00     0.119 C 
BRANCH  19  20
ATOM     20  C   UNL A   1      33.637  24.622  22.782  1.00  0.00     0.021 C 
BRANCH  20  21
ATOM     21  C   UNL A   1      32.601  23.491  22.788  1.00  0.00     0.002 C 
BRANCH  21  22
ATOM     22  C   UNL A   1      32.186  22.983  24.172  1.00  0.00     0.000 C 
BRANCH  22  23
ATOM     23  C   UNL A   1      30.840  23.507  24.687  1.00  0.00    -0.000 C 
BRANCH  23  24
ATOM     24  C   UNL A   1      30.810  23.897  26.167  1.00  0.00    -0.003 C 
ATOM     25  C   UNL A   1      32.171  23.816  26.841  1.00  0.00     0.004 C 
ENDBRANCH  23  24
ENDBRANCH  22  23
ENDBRANCH  21  22
ENDBRANCH  20  21
ENDBRANCH  19  20
ENDBRANCH  16  19
ENDBRANCH  14  15
ENDBRANCH   9  14
ENDBRANCH   1   8
BRANCH   4  26
ATOM     26  C   UNL A   1      33.983  34.975  29.009  1.00  0.00     0.126 C 
ATOM     27  C   UNL A   1      34.416  36.039  28.005  1.00  0.00     0.025 C 
BRANCH  26  28
ATOM     28  C   UNL A   1      32.928  35.544  29.952  1.00  0.00     0.313 C 
ATOM     29  O   UNL A   1      32.163  36.439  29.606  1.00  0.00    -0.252 OA
BRANCH  28  30
ATOM     30  O   UNL A   1      32.900  34.941  31.168  1.00  0.00    -0.462 OA
BRANCH  30  31
ATOM     31  C   UNL A   1      34.169  34.601  31.759  1.00  0.00     0.274 C 
BRANCH  31  32
ATOM     32  C   UNL A   1      34.081  33.300  32.560  1.00  0.00     0.275 C 
BRANCH  32  33
ATOM     33  O   UNL A   1      35.028  32.326  32.083  1.00  0.00    -0.458 OA
BRANCH  33  34
ATOM     34  C   UNL A   1      36.116  32.153  32.868  1.00  0.00     0.338 C 
ATOM     35  O   UNL A   1      36.205  32.334  34.068  1.00  0.00    -0.246 OA
BRANCH  34  36
ATOM     36  C   UNL A   1      37.204  31.570  32.072  1.00  0.00     0.060 A 
ATOM     37  C   UNL A   1      38.214  30.879  32.745  1.00  0.00     0.016 A 
ATOM     38  C   UNL A   1      37.277  31.772  30.694  1.00  0.00     0.016 A 
ATOM     39  C   UNL A   1      39.313  30.392  32.047  1.00  0.00     0.010 A 
ATOM     40  C   UNL A   1      38.377  31.275  29.989  1.00  0.00     0.010 A 
ATOM     41  C   UNL A   1      39.407  30.593  30.664  1.00  0.00    -0.014 A 
BRANCH  41  42
ATOM     42  C   UNL A   1      40.605  30.121  29.933  1.00  0.00     0.031 A 
ATOM     43  C   UNL A   1      41.757  31.054  29.705  1.00  0.00     0.074 A 
ATOM     44  C   UNL A   1      40.662  28.851  29.493  1.00  0.00     0.049 A 
ATOM     45  N   UNL A   1      42.851  30.867  29.013  1.00  0.00    -0.248 NA
ATOM     46  C   UNL A   1      41.665  32.376  30.345  1.00  0.00     0.031 C 
ATOM     47  C   UNL A   1      39.625  27.840  29.700  1.00  0.00     0.029 A 
ATOM     48  N   UNL A   1      41.632  28.197  28.776  1.00  0.00    -0.354 N 
ATOM     49  C   UNL A   1      43.568  32.051  29.114  1.00  0.00     0.074 A 
ATOM     50  C   UNL A   1      42.781  32.956  29.924  1.00  0.00     0.031 C 
ATOM     51  C   UNL A   1      40.014  26.693  29.121  1.00  0.00     0.029 A 
ATOM     52  C   UNL A   1      41.301  26.902  28.463  1.00  0.00     0.049 A 
ATOM     53  H   UNL A   1      42.483  28.615  28.513  1.00  0.00     0.167 HD
ATOM     54  C   UNL A   1      44.775  32.350  28.578  1.00  0.00     0.037 A 
ATOM     55  C   UNL A   1      41.950  25.998  27.705  1.00  0.00     0.037 A 
ATOM     56  C   UNL A   1      45.561  31.440  27.786  1.00  0.00     0.049 A 
ATOM     57  C   UNL A   1      43.261  26.378  27.072  1.00  0.00     0.074 A 
ATOM     58  C   UNL A   1      46.800  31.645  27.207  1.00  0.00     0.029 A 
ATOM     59  N   UNL A   1      45.178  30.145  27.464  1.00  0.00    -0.354 N 
ATOM     60  N   UNL A   1      43.927  27.503  27.160  1.00  0.00    -0.248 NA
ATOM     61  C   UNL A   1      43.905  25.364  26.225  1.00  0.00     0.031 C 
ATOM     62  C   UNL A   1      47.152  30.488  26.503  1.00  0.00     0.029 A 
ATOM     63  C   UNL A   1      46.150  29.547  26.677  1.00  0.00     0.049 A 
ATOM     64  H   UNL A   1      44.341  29.715  27.751  1.00  0.00     0.167 HD
ATOM     65  C   UNL A   1      45.075  27.328  26.401  1.00  0.00     0.074 A 
ATOM     66  C   UNL A   1      45.022  25.982  25.867  1.00  0.00     0.031 C 
ATOM     67  C   UNL A   1      46.081  28.204  26.162  1.00  0.00     0.037 A 
BRANCH  54  68
ATOM     68  C   UNL A   1      45.310  33.732  28.807  1.00  0.00     0.064 A 
ATOM     69  C   UNL A   1      46.173  34.021  29.874  1.00  0.00     0.173 A 
ATOM     70  C   UNL A   1      44.985  34.771  27.923  1.00  0.00     0.173 A 
ATOM     71  F   UNL A   1      46.503  33.063  30.754  1.00  0.00    -0.203 F 
ATOM     72  C   UNL A   1      46.673  35.307  30.060  1.00  0.00     0.198 A 
ATOM     73  C   UNL A   1      45.506  36.050  28.099  1.00  0.00     0.198 A 
ATOM     74  F   UNL A   1      44.167  34.546  26.885  1.00  0.00    -0.203 F 
ATOM     75  F   UNL A   1      47.466  35.571  31.108  1.00  0.00    -0.200 F 
ATOM     76  C   UNL A   1      46.345  36.318  29.169  1.00  0.00     0.200 A 
ATOM     77  F   UNL A   1      45.196  37.025  27.232  1.00  0.00    -0.200 F 
ATOM     78  F   UNL A   1      46.833  37.554  29.346  1.00  0.00    -0.200 F 
ENDBRANCH  54  68
BRANCH  55  79
ATOM     79  C   UNL A   1      41.356  24.656  27.483  1.00  0.00     0.064 A 
ATOM     80  C   UNL A   1      40.215  24.496  26.686  1.00  0.00     0.173 A 
ATOM     81  C   UNL A   1      41.912  23.509  28.067  1.00  0.00     0.173 A 
ATOM     82  F   UNL A   1      39.631  25.567  26.129  1.00  0.00    -0.203 F 
ATOM     83  C   UNL A   1      39.647  23.238  26.491  1.00  0.00     0.198 A 
ATOM     84  C   UNL A   1      41.359  22.250  27.850  1.00  0.00     0.198 A 
ATOM     85  F   UNL A   1      43.002  23.611  28.841  1.00  0.00    -0.203 F 
ATOM     86  F   UNL A   1      38.531  23.117  25.757  1.00  0.00    -0.200 F 
ATOM     87  C   UNL A   1      40.223  22.116  27.067  1.00  0.00     0.200 A 
ATOM     88  F   UNL A   1      41.925  21.166  28.400  1.00  0.00    -0.200 F 
ATOM     89  F   UNL A   1      39.677  20.908  26.876  1.00  0.00    -0.200 F 
ENDBRANCH  55  79
BRANCH  67  90
ATOM     90  C   UNL A   1      47.218  27.725  25.310  1.00  0.00     0.064 A 
ATOM     91  C   UNL A   1      48.305  27.033  25.862  1.00  0.00     0.173 A 
ATOM     92  C   UNL A   1      47.199  27.926  23.922  1.00  0.00     0.173 A 
ATOM     93  F   UNL A   1      48.377  26.832  27.187  1.00  0.00    -0.203 F 
ATOM     94  C   UNL A   1      49.345  26.576  25.055  1.00  0.00     0.198 A 
ATOM     95  C   UNL A   1      48.227  27.445  23.116  1.00  0.00     0.198 A 
ATOM     96  F   UNL A   1      46.177  28.577  23.346  1.00  0.00    -0.203 F 
ATOM     97  F   UNL A   1      50.395  25.952  25.608  1.00  0.00    -0.200 F 
ATOM     98  C   UNL A   1      49.301  26.776  23.683  1.00  0.00     0.200 A 
ATOM     99  F   UNL A   1      48.179  27.631  21.790  1.00  0.00    -0.200 F 
ATOM    100  F   UNL A   1      50.299  26.330  22.909  1.00  0.00    -0.200 F 
ENDBRANCH  67  90
ENDBRANCH  41  42
ENDBRANCH  34  36
ENDBRANCH  33  34
ENDBRANCH  32  33
ENDBRANCH  31  32
ENDBRANCH  30  31
ENDBRANCH  28  30
ENDBRANCH  26  28
ENDBRANCH   4  26
TORSDOF 21
ENDMDL
MODEL 3
REMARK VINA RESULT:     -10.8      1.985      7.706
REMARK SMILES CCCCCCCNC(=O)Oc1cccc(-c2ccc([C@@H](C)C(=O)OCCOC(=O)c3ccc(-c4c5nc(c(-c6c(F)c(F)c(F)c(F)c6F)c6ccc([nH]6)c(-c6c(F)c(F)c(F)c(F)c6F)c6nc(c(-c7c(F)c(F)c(F)c(F)c7F)c7ccc4[nH]7)C=C6)C=C5)cc3)cc2F)c1
REMARK SMILES IDX 17 1 18 2 19 3 20 4 94 5 95 6 96 7 16 8 12 9 13 10 97 11
REMARK SMILES IDX 14 12 15 13 11 14 9 15 8 16 10 18 7 19 6 20 5 21 4 22 3 23
REMARK SMILES IDX 2 24 1 25 21 26 22 27 23 28 24 29 25 30 26 31 27 32 28 33
REMARK SMILES IDX 29 34 30 35 31 36 32 37 93 38 33 39 92 40 34 41 35 42 36 43
REMARK SMILES IDX 86 44 37 45 91 46 85 47 87 48 38 49 90 50 84 51 83 52 39 54
REMARK SMILES IDX 71 55 51 56 70 57 52 58 55 59 69 60 88 61 53 62 54 63 68 65
REMARK SMILES IDX 89 66 56 67 40 68 41 69 49 70 42 71 43 72 47 73 50 74 44 75
REMARK SMILES IDX 45 76 48 77 46 78 72 79 73 80 81 81 74 82 75 83 79 84 82 85
REMARK SMILES IDX 76 86 77 87 80 88 78 89 57 90 58 91 66 92 59 93 60 94 64 95
REMARK SMILES IDX 67 96 61 97 62 98 65 99 63 100
REMARK H PARENT 8 17 87 53 55 64
REMARK Flexibility Score: inf
ROOT
ATOM      1  C   UNL A   1      33.065  30.941  27.274  1.00  0.00     0.018 A 
ATOM      2  C   UNL A   1      34.269  31.175  27.959  1.00  0.00     0.012 A 
ATOM      3  C   UNL A   1      34.589  32.445  28.457  1.00  0.00     0.005 A 
ATOM      4  C   UNL A   1      33.719  33.528  28.279  1.00  0.00    -0.031 A 
ATOM      5  C   UNL A   1      32.522  33.303  27.582  1.00  0.00     0.044 A 
ATOM      6  C   UNL A   1      32.210  32.035  27.089  1.00  0.00     0.131 A 
ATOM      7  F   UNL A   1      31.037  31.882  26.454  1.00  0.00    -0.206 F 
ENDROOT
BRANCH   1   8
ATOM      8  C   UNL A   1      32.715  29.588  26.809  1.00  0.00    -0.012 A 
ATOM      9  C   UNL A   1      32.815  27.807  25.163  1.00  0.00     0.133 A 
ATOM     10  C   UNL A   1      31.989  27.000  25.942  1.00  0.00     0.047 A 
ATOM     11  C   UNL A   1      33.169  29.093  25.575  1.00  0.00     0.056 A 
ATOM     12  C   UNL A   1      31.531  27.475  27.166  1.00  0.00     0.004 A 
ATOM     13  C   UNL A   1      31.890  28.756  27.593  1.00  0.00     0.009 A 
BRANCH   9  14
ATOM     14  O   UNL A   1      33.166  27.314  23.897  1.00  0.00    -0.410 OA
BRANCH  14  15
ATOM     15  C   UNL A   1      33.187  28.206  22.837  1.00  0.00     0.412 C 
ATOM     16  N   UNL A   1      32.019  28.214  22.123  1.00  0.00    -0.321 N 
ATOM     17  H   UNL A   1      31.971  28.843  21.367  1.00  0.00     0.167 HD
ATOM     18  O   UNL A   1      34.125  28.924  22.511  1.00  0.00    -0.224 OA
BRANCH  16  19
ATOM     19  C   UNL A   1      30.847  27.395  22.360  1.00  0.00     0.119 C 
BRANCH  19  20
ATOM     20  C   UNL A   1      29.883  28.042  23.355  1.00  0.00     0.021 C 
BRANCH  20  21
ATOM     21  C   UNL A   1      29.501  29.493  23.034  1.00  0.00     0.002 C 
BRANCH  21  22
ATOM     22  C   UNL A   1      28.949  29.733  21.625  1.00  0.00     0.000 C 
BRANCH  22  23
ATOM     23  C   UNL A   1      28.494  31.168  21.334  1.00  0.00    -0.000 C 
BRANCH  23  24
ATOM     24  C   UNL A   1      28.652  32.154  22.495  1.00  0.00    -0.003 C 
ATOM     25  C   UNL A   1      27.647  31.936  23.615  1.00  0.00     0.004 C 
ENDBRANCH  23  24
ENDBRANCH  22  23
ENDBRANCH  21  22
ENDBRANCH  20  21
ENDBRANCH  19  20
ENDBRANCH  16  19
ENDBRANCH  14  15
ENDBRANCH   9  14
ENDBRANCH   1   8
BRANCH   4  26
ATOM     26  C   UNL A   1      34.034  34.914  28.821  1.00  0.00     0.126 C 
ATOM     27  C   UNL A   1      34.403  35.905  27.721  1.00  0.00     0.025 C 
BRANCH  26  28
ATOM     28  C   UNL A   1      32.984  35.522  29.743  1.00  0.00     0.313 C 
ATOM     29  O   UNL A   1      32.237  36.423  29.372  1.00  0.00    -0.252 OA
BRANCH  28  30
ATOM     30  O   UNL A   1      32.937  34.947  30.972  1.00  0.00    -0.462 OA
BRANCH  30  31
ATOM     31  C   UNL A   1      34.196  34.621  31.591  1.00  0.00     0.274 C 
BRANCH  31  32
ATOM     32  C   UNL A   1      34.080  33.375  32.470  1.00  0.00     0.275 C 
BRANCH  32  33
ATOM     33  O   UNL A   1      34.994  32.347  32.045  1.00  0.00    -0.458 OA
BRANCH  33  34
ATOM     34  C   UNL A   1      36.081  32.186  32.835  1.00  0.00     0.338 C 
ATOM     35  O   UNL A   1      36.166  32.373  34.034  1.00  0.00    -0.246 OA
BRANCH  34  36
ATOM     36  C   UNL A   1      37.175  31.605  32.045  1.00  0.00     0.060 A 
ATOM     37  C   UNL A   1      38.149  30.864  32.717  1.00  0.00     0.016 A 
ATOM     38  C   UNL A   1      37.289  31.855  30.678  1.00  0.00     0.016 A 
ATOM     39  C   UNL A   1      39.254  30.375  32.029  1.00  0.00     0.010 A 
ATOM     40  C   UNL A   1      38.395  31.357  29.983  1.00  0.00     0.010 A 
ATOM     41  C   UNL A   1      39.389  30.624  30.658  1.00  0.00    -0.014 A 
BRANCH  41  42
ATOM     42  C   UNL A   1      40.594  30.149  29.940  1.00  0.00     0.031 A 
ATOM     43  C   UNL A   1      41.749  31.081  29.722  1.00  0.00     0.074 A 
ATOM     44  C   UNL A   1      40.655  28.878  29.505  1.00  0.00     0.049 A 
ATOM     45  N   UNL A   1      42.850  30.891  29.041  1.00  0.00    -0.248 NA
ATOM     46  C   UNL A   1      41.652  32.405  30.356  1.00  0.00     0.031 C 
ATOM     47  C   UNL A   1      39.615  27.868  29.704  1.00  0.00     0.029 A 
ATOM     48  N   UNL A   1      41.632  28.221  28.800  1.00  0.00    -0.354 N 
ATOM     49  C   UNL A   1      43.567  32.075  29.145  1.00  0.00     0.074 A 
ATOM     50  C   UNL A   1      42.773  32.983  29.945  1.00  0.00     0.031 C 
ATOM     51  C   UNL A   1      40.009  26.719  29.132  1.00  0.00     0.029 A 
ATOM     52  C   UNL A   1      41.302  26.926  28.487  1.00  0.00     0.049 A 
ATOM     53  H   UNL A   1      42.485  28.638  28.544  1.00  0.00     0.167 HD
ATOM     54  C   UNL A   1      44.780  32.371  28.621  1.00  0.00     0.037 A 
ATOM     55  C   UNL A   1      41.959  26.019  27.739  1.00  0.00     0.037 A 
ATOM     56  C   UNL A   1      45.573  31.458  27.840  1.00  0.00     0.049 A 
ATOM     57  C   UNL A   1      43.276  26.395  27.117  1.00  0.00     0.074 A 
ATOM     58  C   UNL A   1      46.818  31.661  27.272  1.00  0.00     0.029 A 
ATOM     59  N   UNL A   1      45.192  30.162  27.517  1.00  0.00    -0.354 N 
ATOM     60  N   UNL A   1      43.942  27.521  27.209  1.00  0.00    -0.248 NA
ATOM     61  C   UNL A   1      43.928  25.379  26.280  1.00  0.00     0.031 C 
ATOM     62  C   UNL A   1      47.175  30.501  26.575  1.00  0.00     0.029 A 
ATOM     63  C   UNL A   1      46.172  29.561  26.742  1.00  0.00     0.049 A 
ATOM     64  H   UNL A   1      44.352  29.734  27.798  1.00  0.00     0.167 HD
ATOM     65  C   UNL A   1      45.097  27.342  26.461  1.00  0.00     0.074 A 
ATOM     66  C   UNL A   1      45.048  25.995  25.932  1.00  0.00     0.031 C 
ATOM     67  C   UNL A   1      46.107  28.217  26.230  1.00  0.00     0.037 A 
BRANCH  54  68
ATOM     68  C   UNL A   1      45.313  33.753  28.851  1.00  0.00     0.064 A 
ATOM     69  C   UNL A   1      44.942  34.832  28.035  1.00  0.00     0.173 A 
ATOM     70  C   UNL A   1      46.177  34.008  29.926  1.00  0.00     0.173 A 
ATOM     71  F   UNL A   1      44.129  34.637  26.986  1.00  0.00    -0.203 F 
ATOM     72  C   UNL A   1      45.435  36.112  28.276  1.00  0.00     0.198 A 
ATOM     73  C   UNL A   1      46.649  35.293  30.177  1.00  0.00     0.198 A 
ATOM     74  F   UNL A   1      46.559  33.011  30.738  1.00  0.00    -0.203 F 
ATOM     75  F   UNL A   1      45.099  37.122  27.461  1.00  0.00    -0.200 F 
ATOM     76  C   UNL A   1      46.282  36.343  29.350  1.00  0.00     0.200 A 
ATOM     77  F   UNL A   1      47.459  35.517  31.222  1.00  0.00    -0.200 F 
ATOM     78  F   UNL A   1      46.750  37.577  29.584  1.00  0.00    -0.200 F 
ENDBRANCH  54  68
BRANCH  55  79
ATOM     79  C   UNL A   1      41.366  24.677  27.515  1.00  0.00     0.064 A 
ATOM     80  C   UNL A   1      41.930  23.533  28.095  1.00  0.00     0.173 A 
ATOM     81  C   UNL A   1      40.226  24.509  26.714  1.00  0.00     0.173 A 
ATOM     82  F   UNL A   1      43.035  23.639  28.846  1.00  0.00    -0.203 F 
ATOM     83  C   UNL A   1      41.383  22.271  27.871  1.00  0.00     0.198 A 
ATOM     84  C   UNL A   1      39.666  23.252  26.512  1.00  0.00     0.198 A 
ATOM     85  F   UNL A   1      39.652  25.573  26.133  1.00  0.00    -0.203 F 
ATOM     86  F   UNL A   1      41.966  21.187  28.403  1.00  0.00    -0.200 F 
ATOM     87  C   UNL A   1      40.248  22.132  27.086  1.00  0.00     0.200 A 
ATOM     88  F   UNL A   1      38.563  23.122  25.761  1.00  0.00    -0.200 F 
ATOM     89  F   UNL A   1      39.722  20.918  26.875  1.00  0.00    -0.200 F 
ENDBRANCH  55  79
BRANCH  67  90
ATOM     90  C   UNL A   1      47.252  27.734  25.392  1.00  0.00     0.064 A 
ATOM     91  C   UNL A   1      48.364  27.104  25.965  1.00  0.00     0.173 A 
ATOM     92  C   UNL A   1      47.215  27.869  23.995  1.00  0.00     0.173 A 
ATOM     93  F   UNL A   1      48.452  26.967  27.297  1.00  0.00    -0.203 F 
ATOM     94  C   UNL A   1      49.412  26.642  25.171  1.00  0.00     0.198 A 
ATOM     95  C   UNL A   1      48.252  27.384  23.203  1.00  0.00     0.198 A 
ATOM     96  F   UNL A   1      46.169  28.461  23.400  1.00  0.00    -0.203 F 
ATOM     97  F   UNL A   1      50.485  26.077  25.742  1.00  0.00    -0.200 F 
ATOM     98  C   UNL A   1      49.351  26.776  23.791  1.00  0.00     0.200 A 
ATOM     99  F   UNL A   1      48.188  27.506  21.871  1.00  0.00    -0.200 F 
ATOM    100  F   UNL A   1      50.357  26.326  23.029  1.00  0.00    -0.200 F 
ENDBRANCH  67  90
ENDBRANCH  41  42
ENDBRANCH  34  36
ENDBRANCH  33  34
ENDBRANCH  32  33
ENDBRANCH  31  32
ENDBRANCH  30  31
ENDBRANCH  28  30
ENDBRANCH  26  28
ENDBRANCH   4  26
TORSDOF 21
ENDMDL
