MODEL 1
REMARK VINA RESULT:     -12.9      0.000      0.000
REMARK SMILES COC(=O)c1ccc(-c2ccc(C(=O)OCCOC(=O)c3ccc(-c4c5nc(c(-c6c(F)c(F)c(F)c(F)c6F)c6ccc([nH]6)c(-c6c(F)c(F)c(F)c(F)c6F)c6nc(c(-c7c(F)c(F)c(F)c(F)c7F)c7ccc4[nH]7)C=C6)C=C5)cc3)cc2O)cc1F
REMARK SMILES IDX 16 1 15 2 13 3 14 4 12 5 9 6 10 7 85 8 11 9 84 10 8 11 5 12
REMARK SMILES IDX 6 13 88 14 7 15 87 16 89 17 3 18 4 19 2 20 1 21 86 22 17 24
REMARK SMILES IDX 18 25 19 26 20 27 21 28 22 29 83 30 23 31 82 32 24 33 25 34
REMARK SMILES IDX 26 35 76 36 27 37 81 38 75 39 77 40 28 41 80 42 74 43 73 44
REMARK SMILES IDX 29 46 61 47 41 48 60 49 42 50 45 51 59 52 78 53 43 54 44 55
REMARK SMILES IDX 58 57 79 58 46 59 30 60 31 61 39 62 32 63 33 64 37 65 40 66
REMARK SMILES IDX 34 67 35 68 38 69 36 70 62 71 63 72 71 73 64 74 65 75 69 76
REMARK SMILES IDX 72 77 66 78 67 79 70 80 68 81 47 82 48 83 56 84 49 85 50 86
REMARK SMILES IDX 54 87 57 88 51 89 52 90 55 91 53 92
REMARK H PARENT 86 23 77 45 45 56
REMARK Flexibility Score: inf
ROOT
ATOM      1  C   UNL A   1      31.841  29.324  24.789  1.00  0.00     0.275 C 
ENDROOT
BRANCH   1   2
ATOM      2  O   UNL A   1      33.229  28.928  24.804  1.00  0.00    -0.458 OA
BRANCH   2   3
ATOM      3  C   UNL A   1      33.705  28.396  23.652  1.00  0.00     0.338 C 
ATOM      4  O   UNL A   1      34.199  29.011  22.720  1.00  0.00    -0.246 OA
BRANCH   3   5
ATOM      5  C   UNL A   1      33.658  26.913  23.690  1.00  0.00     0.063 A 
ATOM      6  C   UNL A   1      33.589  24.097  23.903  1.00  0.00     0.024 A 
ATOM      7  C   UNL A   1      33.738  24.898  25.041  1.00  0.00     0.013 A 
ATOM      8  C   UNL A   1      33.500  24.740  22.653  1.00  0.00     0.124 A 
ATOM      9  C   UNL A   1      33.818  26.281  24.928  1.00  0.00     0.016 A 
ATOM     10  C   UNL A   1      33.505  26.137  22.540  1.00  0.00     0.062 A 
BRANCH   6  11
ATOM     11  C   UNL A   1      33.594  22.638  24.075  1.00  0.00    -0.012 A 
ATOM     12  C   UNL A   1      33.565  19.871  24.587  1.00  0.00     0.095 A 
ATOM     13  C   UNL A   1      32.402  20.512  24.148  1.00  0.00     0.019 A 
ATOM     14  C   UNL A   1      34.738  20.604  24.746  1.00  0.00     0.138 A 
ATOM     15  C   UNL A   1      32.417  21.887  23.903  1.00  0.00     0.010 A 
ATOM     16  C   UNL A   1      34.757  21.973  24.494  1.00  0.00     0.049 A 
ATOM     17  F   UNL A   1      35.879  20.015  25.132  1.00  0.00    -0.206 F 
BRANCH  12  18
ATOM     18  C   UNL A   1      33.514  18.422  24.844  1.00  0.00     0.340 C 
ATOM     19  O   UNL A   1      32.837  17.926  25.726  1.00  0.00    -0.246 OA
BRANCH  18  20
ATOM     20  O   UNL A   1      34.395  17.779  24.040  1.00  0.00    -0.465 OA
ATOM     21  C   UNL A   1      33.897  16.551  23.506  1.00  0.00     0.282 C 
ENDBRANCH  18  20
ENDBRANCH  12  18
ENDBRANCH   6  11
BRANCH   8  22
ATOM     22  O   UNL A   1      33.420  23.974  21.522  1.00  0.00    -0.507 OA
ATOM     23  H   UNL A   1      32.945  23.165  21.535  1.00  0.00     0.293 HD
ENDBRANCH   8  22
ENDBRANCH   3   5
ENDBRANCH   2   3
ENDBRANCH   1   2
BRANCH   1  24
ATOM     24  C   UNL A   1      31.563  30.470  25.766  1.00  0.00     0.275 C 
BRANCH  24  25
ATOM     25  O   UNL A   1      32.423  30.397  26.919  1.00  0.00    -0.458 OA
BRANCH  25  26
ATOM     26  C   UNL A   1      33.073  31.543  27.212  1.00  0.00     0.338 C 
ATOM     27  O   UNL A   1      32.609  32.670  27.263  1.00  0.00    -0.246 OA
BRANCH  26  28
ATOM     28  C   UNL A   1      34.467  31.270  27.587  1.00  0.00     0.060 A 
ATOM     29  C   UNL A   1      34.811  29.946  27.825  1.00  0.00     0.016 A 
ATOM     30  C   UNL A   1      35.342  32.290  27.941  1.00  0.00     0.016 A 
ATOM     31  C   UNL A   1      35.947  29.635  28.562  1.00  0.00     0.010 A 
ATOM     32  C   UNL A   1      36.560  31.964  28.556  1.00  0.00     0.010 A 
ATOM     33  C   UNL A   1      36.855  30.637  28.928  1.00  0.00    -0.014 A 
BRANCH  33  34
ATOM     34  C   UNL A   1      38.076  30.301  29.722  1.00  0.00     0.031 A 
ATOM     35  C   UNL A   1      39.159  29.435  29.124  1.00  0.00     0.074 A 
ATOM     36  C   UNL A   1      38.239  30.788  30.971  1.00  0.00     0.049 A 
ATOM     37  N   UNL A   1      40.192  28.877  29.707  1.00  0.00    -0.248 NA
ATOM     38  C   UNL A   1      39.064  29.145  27.683  1.00  0.00     0.031 C 
ATOM     39  C   UNL A   1      37.313  31.690  31.659  1.00  0.00     0.029 A 
ATOM     40  N   UNL A   1      39.249  30.602  31.886  1.00  0.00    -0.354 N 
ATOM     41  C   UNL A   1      40.835  28.136  28.722  1.00  0.00     0.074 A 
ATOM     42  C   UNL A   1      40.068  28.296  27.506  1.00  0.00     0.031 C 
ATOM     43  C   UNL A   1      37.818  32.018  32.856  1.00  0.00     0.029 A 
ATOM     44  C   UNL A   1      39.045  31.262  33.075  1.00  0.00     0.049 A 
ATOM     45  H   UNL A   1      40.043  30.048  31.707  1.00  0.00     0.167 HD
ATOM     46  C   UNL A   1      41.965  27.396  28.823  1.00  0.00     0.037 A 
ATOM     47  C   UNL A   1      39.731  31.229  34.234  1.00  0.00     0.037 A 
ATOM     48  C   UNL A   1      42.755  27.283  30.023  1.00  0.00     0.049 A 
ATOM     49  C   UNL A   1      40.938  30.341  34.342  1.00  0.00     0.074 A 
ATOM     50  C   UNL A   1      43.915  26.554  30.224  1.00  0.00     0.029 A 
ATOM     51  N   UNL A   1      42.478  27.934  31.217  1.00  0.00    -0.354 N 
ATOM     52  N   UNL A   1      41.497  29.591  33.424  1.00  0.00    -0.248 NA
ATOM     53  C   UNL A   1      41.601  30.278  35.652  1.00  0.00     0.031 C 
ATOM     54  C   UNL A   1      44.314  26.725  31.552  1.00  0.00     0.029 A 
ATOM     55  C   UNL A   1      43.440  27.612  32.161  1.00  0.00     0.049 A 
ATOM     56  H   UNL A   1      41.714  28.534  31.371  1.00  0.00     0.167 HD
ATOM     57  C   UNL A   1      42.591  28.994  34.034  1.00  0.00     0.074 A 
ATOM     58  C   UNL A   1      42.626  29.478  35.398  1.00  0.00     0.031 C 
ATOM     59  C   UNL A   1      43.482  28.122  33.507  1.00  0.00     0.037 A 
BRANCH  46  60
ATOM     60  C   UNL A   1      42.430  26.631  27.615  1.00  0.00     0.064 A 
ATOM     61  C   UNL A   1      41.995  25.314  27.402  1.00  0.00     0.173 A 
ATOM     62  C   UNL A   1      43.381  27.157  26.729  1.00  0.00     0.173 A 
ATOM     63  F   UNL A   1      41.093  24.757  28.224  1.00  0.00    -0.203 F 
ATOM     64  C   UNL A   1      42.512  24.544  26.362  1.00  0.00     0.198 A 
ATOM     65  C   UNL A   1      43.873  26.395  25.671  1.00  0.00     0.198 A 
ATOM     66  F   UNL A   1      43.823  28.415  26.881  1.00  0.00    -0.203 F 
ATOM     67  F   UNL A   1      42.115  23.274  26.209  1.00  0.00    -0.200 F 
ATOM     68  C   UNL A   1      43.449  25.086  25.497  1.00  0.00     0.200 A 
ATOM     69  F   UNL A   1      44.762  26.928  24.822  1.00  0.00    -0.200 F 
ATOM     70  F   UNL A   1      43.946  24.347  24.496  1.00  0.00    -0.200 F 
ENDBRANCH  46  60
BRANCH  47  71
ATOM     71  C   UNL A   1      39.272  32.043  35.394  1.00  0.00     0.064 A 
ATOM     72  C   UNL A   1      39.643  33.389  35.541  1.00  0.00     0.173 A 
ATOM     73  C   UNL A   1      38.456  31.482  36.386  1.00  0.00     0.173 A 
ATOM     74  F   UNL A   1      40.421  33.977  34.621  1.00  0.00    -0.203 F 
ATOM     75  C   UNL A   1      39.239  34.132  36.649  1.00  0.00     0.198 A 
ATOM     76  C   UNL A   1      38.022  32.238  37.474  1.00  0.00     0.198 A 
ATOM     77  F   UNL A   1      38.052  30.208  36.280  1.00  0.00    -0.203 F 
ATOM     78  F   UNL A   1      39.645  35.402  36.784  1.00  0.00    -0.200 F 
ATOM     79  C   UNL A   1      38.422  33.559  37.610  1.00  0.00     0.200 A 
ATOM     80  F   UNL A   1      37.205  31.690  38.384  1.00  0.00    -0.200 F 
ATOM     81  F   UNL A   1      38.016  34.280  38.662  1.00  0.00    -0.200 F 
ENDBRANCH  47  71
BRANCH  59  82
ATOM     82  C   UNL A   1      44.616  27.667  34.381  1.00  0.00     0.064 A 
ATOM     83  C   UNL A   1      45.828  28.376  34.388  1.00  0.00     0.173 A 
ATOM     84  C   UNL A   1      44.536  26.495  35.145  1.00  0.00     0.173 A 
ATOM     85  F   UNL A   1      45.957  29.501  33.668  1.00  0.00    -0.203 F 
ATOM     86  C   UNL A   1      46.924  27.915  35.110  1.00  0.00     0.198 A 
ATOM     87  C   UNL A   1      45.625  26.055  35.893  1.00  0.00     0.198 A 
ATOM     88  F   UNL A   1      43.395  25.790  35.184  1.00  0.00    -0.203 F 
ATOM     89  F   UNL A   1      48.083  28.586  35.066  1.00  0.00    -0.200 F 
ATOM     90  C   UNL A   1      46.820  26.758  35.865  1.00  0.00     0.200 A 
ATOM     91  F   UNL A   1      45.515  24.950  36.644  1.00  0.00    -0.200 F 
ATOM     92  F   UNL A   1      47.874  26.320  36.568  1.00  0.00    -0.200 F 
ENDBRANCH  59  82
ENDBRANCH  33  34
ENDBRANCH  26  28
ENDBRANCH  25  26
ENDBRANCH  24  25
ENDBRANCH   1  24
TORSDOF 15
ENDMDL
MODEL 2
REMARK VINA RESULT:     -12.8      0.298      1.972
REMARK SMILES COC(=O)c1ccc(-c2ccc(C(=O)OCCOC(=O)c3ccc(-c4c5nc(c(-c6c(F)c(F)c(F)c(F)c6F)c6ccc([nH]6)c(-c6c(F)c(F)c(F)c(F)c6F)c6nc(c(-c7c(F)c(F)c(F)c(F)c7F)c7ccc4[nH]7)C=C6)C=C5)cc3)cc2O)cc1F
REMARK SMILES IDX 16 1 15 2 13 3 14 4 12 5 9 6 10 7 85 8 11 9 84 10 8 11 5 12
REMARK SMILES IDX 6 13 88 14 7 15 87 16 89 17 3 18 4 19 2 20 1 21 86 22 17 24
REMARK SMILES IDX 18 25 19 26 20 27 21 28 22 29 83 30 23 31 82 32 24 33 25 34
REMARK SMILES IDX 26 35 76 36 27 37 81 38 75 39 77 40 28 41 80 42 74 43 73 44
REMARK SMILES IDX 29 46 61 47 41 48 60 49 42 50 45 51 59 52 78 53 43 54 44 55
REMARK SMILES IDX 58 57 79 58 46 59 30 60 31 61 39 62 32 63 33 64 37 65 40 66
REMARK SMILES IDX 34 67 35 68 38 69 36 70 62 71 63 72 71 73 64 74 65 75 69 76
REMARK SMILES IDX 72 77 66 78 67 79 70 80 68 81 47 82 48 83 56 84 49 85 50 86
REMARK SMILES IDX 54 87 57 88 51 89 52 90 55 91 53 92
REMARK H PARENT 86 23 77 45 45 56
REMARK Flexibility Score: inf
ROOT
ATOM      1  C   UNL A   1      31.926  29.286  24.852  1.00  0.00     0.275 C 
ENDROOT
BRANCH   1   2
ATOM      2  O   UNL A   1      33.280  28.788  24.910  1.00  0.00    -0.458 OA
BRANCH   2   3
ATOM      3  C   UNL A   1      33.759  28.243  23.765  1.00  0.00     0.338 C 
ATOM      4  O   UNL A   1      34.279  28.845  22.839  1.00  0.00    -0.246 OA
BRANCH   3   5
ATOM      5  C   UNL A   1      33.680  26.762  23.805  1.00  0.00     0.063 A 
ATOM      6  C   UNL A   1      33.543  23.949  24.024  1.00  0.00     0.024 A 
ATOM      7  C   UNL A   1      33.674  24.750  25.164  1.00  0.00     0.013 A 
ATOM      8  C   UNL A   1      33.507  24.589  22.770  1.00  0.00     0.124 A 
ATOM      9  C   UNL A   1      33.788  26.131  25.050  1.00  0.00     0.016 A 
ATOM     10  C   UNL A   1      33.546  25.985  22.654  1.00  0.00     0.062 A 
BRANCH   6  11
ATOM     11  C   UNL A   1      33.512  22.490  24.200  1.00  0.00    -0.012 A 
ATOM     12  C   UNL A   1      33.431  19.726  24.723  1.00  0.00     0.095 A 
ATOM     13  C   UNL A   1      32.256  20.409  24.394  1.00  0.00     0.019 A 
ATOM     14  C   UNL A   1      34.640  20.416  24.767  1.00  0.00     0.138 A 
ATOM     15  C   UNL A   1      32.297  21.783  24.143  1.00  0.00     0.010 A 
ATOM     16  C   UNL A   1      34.684  21.784  24.509  1.00  0.00     0.049 A 
ATOM     17  F   UNL A   1      35.790  19.786  25.046  1.00  0.00    -0.206 F 
BRANCH  12  18
ATOM     18  C   UNL A   1      33.352  18.281  24.989  1.00  0.00     0.340 C 
ATOM     19  O   UNL A   1      32.777  17.811  25.954  1.00  0.00    -0.246 OA
BRANCH  18  20
ATOM     20  O   UNL A   1      34.091  17.602  24.078  1.00  0.00    -0.465 OA
ATOM     21  C   UNL A   1      33.400  17.338  22.857  1.00  0.00     0.282 C 
ENDBRANCH  18  20
ENDBRANCH  12  18
ENDBRANCH   6  11
BRANCH   8  22
ATOM     22  O   UNL A   1      33.445  23.821  21.639  1.00  0.00    -0.507 OA
ATOM     23  H   UNL A   1      34.213  23.689  21.119  1.00  0.00     0.293 HD
ENDBRANCH   8  22
ENDBRANCH   3   5
ENDBRANCH   2   3
ENDBRANCH   1   2
BRANCH   1  24
ATOM     24  C   UNL A   1      31.727  30.508  25.754  1.00  0.00     0.275 C 
BRANCH  24  25
ATOM     25  O   UNL A   1      32.546  30.425  26.937  1.00  0.00    -0.458 OA
BRANCH  25  26
ATOM     26  C   UNL A   1      33.212  31.559  27.241  1.00  0.00     0.338 C 
ATOM     27  O   UNL A   1      32.769  32.694  27.284  1.00  0.00    -0.246 OA
BRANCH  26  28
ATOM     28  C   UNL A   1      34.594  31.259  27.641  1.00  0.00     0.060 A 
ATOM     29  C   UNL A   1      34.898  29.935  27.923  1.00  0.00     0.016 A 
ATOM     30  C   UNL A   1      35.493  32.266  27.973  1.00  0.00     0.016 A 
ATOM     31  C   UNL A   1      36.017  29.616  28.682  1.00  0.00     0.010 A 
ATOM     32  C   UNL A   1      36.695  31.926  28.613  1.00  0.00     0.010 A 
ATOM     33  C   UNL A   1      36.949  30.603  29.028  1.00  0.00    -0.014 A 
BRANCH  33  34
ATOM     34  C   UNL A   1      38.151  30.259  29.845  1.00  0.00     0.031 A 
ATOM     35  C   UNL A   1      39.229  29.365  29.278  1.00  0.00     0.074 A 
ATOM     36  C   UNL A   1      38.304  30.762  31.090  1.00  0.00     0.049 A 
ATOM     37  N   UNL A   1      40.243  28.799  29.885  1.00  0.00    -0.248 NA
ATOM     38  C   UNL A   1      39.151  29.055  27.840  1.00  0.00     0.031 C 
ATOM     39  C   UNL A   1      37.383  31.690  31.750  1.00  0.00     0.029 A 
ATOM     40  N   UNL A   1      39.296  30.572  32.024  1.00  0.00    -0.354 N 
ATOM     41  C   UNL A   1      40.888  28.032  28.922  1.00  0.00     0.074 A 
ATOM     42  C   UNL A   1      40.143  28.187  27.691  1.00  0.00     0.031 C 
ATOM     43  C   UNL A   1      37.875  32.027  32.950  1.00  0.00     0.029 A 
ATOM     44  C   UNL A   1      39.085  31.254  33.199  1.00  0.00     0.049 A 
ATOM     45  H   UNL A   1      40.083  30.002  31.866  1.00  0.00     0.167 HD
ATOM     46  C   UNL A   1      42.003  27.274  29.052  1.00  0.00     0.037 A 
ATOM     47  C   UNL A   1      39.752  31.227  34.369  1.00  0.00     0.037 A 
ATOM     48  C   UNL A   1      42.772  27.166  30.265  1.00  0.00     0.049 A 
ATOM     49  C   UNL A   1      40.942  30.319  34.509  1.00  0.00     0.074 A 
ATOM     50  C   UNL A   1      43.916  26.421  30.496  1.00  0.00     0.029 A 
ATOM     51  N   UNL A   1      42.489  27.839  31.445  1.00  0.00    -0.354 N 
ATOM     52  N   UNL A   1      41.502  29.547  33.611  1.00  0.00    -0.248 NA
ATOM     53  C   UNL A   1      41.583  30.265  35.831  1.00  0.00     0.031 C 
ATOM     54  C   UNL A   1      44.298  26.605  31.827  1.00  0.00     0.029 A 
ATOM     55  C   UNL A   1      43.431  27.516  32.409  1.00  0.00     0.049 A 
ATOM     56  H   UNL A   1      41.733  28.455  31.578  1.00  0.00     0.167 HD
ATOM     57  C   UNL A   1      42.576  28.940  34.247  1.00  0.00     0.074 A 
ATOM     58  C   UNL A   1      42.598  29.444  35.604  1.00  0.00     0.031 C 
ATOM     59  C   UNL A   1      43.461  28.045  33.748  1.00  0.00     0.037 A 
BRANCH  46  60
ATOM     60  C   UNL A   1      42.474  26.484  27.862  1.00  0.00     0.064 A 
ATOM     61  C   UNL A   1      43.379  27.050  26.951  1.00  0.00     0.173 A 
ATOM     62  C   UNL A   1      41.957  25.215  27.567  1.00  0.00     0.173 A 
ATOM     63  F   UNL A   1      43.899  28.266  27.180  1.00  0.00    -0.203 F 
ATOM     64  C   UNL A   1      43.729  26.387  25.777  1.00  0.00     0.198 A 
ATOM     65  C   UNL A   1      42.333  24.540  26.407  1.00  0.00     0.198 A 
ATOM     66  F   UNL A   1      41.097  24.623  28.410  1.00  0.00    -0.203 F 
ATOM     67  F   UNL A   1      44.558  26.970  24.901  1.00  0.00    -0.200 F 
ATOM     68  C   UNL A   1      43.208  25.132  25.508  1.00  0.00     0.200 A 
ATOM     69  F   UNL A   1      41.846  23.317  26.159  1.00  0.00    -0.200 F 
ATOM     70  F   UNL A   1      43.545  24.493  24.379  1.00  0.00    -0.200 F 
ENDBRANCH  46  60
BRANCH  47  71
ATOM     71  C   UNL A   1      39.290  32.065  35.510  1.00  0.00     0.064 A 
ATOM     72  C   UNL A   1      38.427  31.557  36.493  1.00  0.00     0.173 A 
ATOM     73  C   UNL A   1      39.699  33.400  35.631  1.00  0.00     0.173 A 
ATOM     74  F   UNL A   1      38.005  30.286  36.428  1.00  0.00    -0.203 F 
ATOM     75  C   UNL A   1      37.970  32.361  37.536  1.00  0.00     0.198 A 
ATOM     76  C   UNL A   1      39.271  34.191  36.696  1.00  0.00     0.198 A 
ATOM     77  F   UNL A   1      40.543  33.926  34.732  1.00  0.00    -0.203 F 
ATOM     78  F   UNL A   1      37.111  31.861  38.436  1.00  0.00    -0.200 F 
ATOM     79  C   UNL A   1      38.398  33.674  37.642  1.00  0.00     0.200 A 
ATOM     80  F   UNL A   1      39.713  35.450  36.813  1.00  0.00    -0.200 F 
ATOM     81  F   UNL A   1      37.976  34.438  38.657  1.00  0.00    -0.200 F 
ENDBRANCH  47  71
BRANCH  59  82
ATOM     82  C   UNL A   1      44.572  27.585  34.646  1.00  0.00     0.064 A 
ATOM     83  C   UNL A   1      44.394  26.460  35.468  1.00  0.00     0.173 A 
ATOM     84  C   UNL A   1      45.775  28.296  34.758  1.00  0.00     0.173 A 
ATOM     85  F   UNL A   1      43.257  25.749  35.404  1.00  0.00    -0.203 F 
ATOM     86  C   UNL A   1      45.370  26.078  36.381  1.00  0.00     0.198 A 
ATOM     87  C   UNL A   1      46.764  27.890  35.650  1.00  0.00     0.198 A 
ATOM     88  F   UNL A   1      45.999  29.369  33.985  1.00  0.00    -0.203 F 
ATOM     89  F   UNL A   1      45.159  25.026  37.185  1.00  0.00    -0.200 F 
ATOM     90  C   UNL A   1      46.555  26.790  36.469  1.00  0.00     0.200 A 
ATOM     91  F   UNL A   1      47.920  28.564  35.715  1.00  0.00    -0.200 F 
ATOM     92  F   UNL A   1      47.500  26.416  37.343  1.00  0.00    -0.200 F 
ENDBRANCH  59  82
ENDBRANCH  33  34
ENDBRANCH  26  28
ENDBRANCH  25  26
ENDBRANCH  24  25
ENDBRANCH   1  24
TORSDOF 15
ENDMDL
MODEL 3
REMARK VINA RESULT:     -12.5      1.065      1.705
REMARK SMILES COC(=O)c1ccc(-c2ccc(C(=O)OCCOC(=O)c3ccc(-c4c5nc(c(-c6c(F)c(F)c(F)c(F)c6F)c6ccc([nH]6)c(-c6c(F)c(F)c(F)c(F)c6F)c6nc(c(-c7c(F)c(F)c(F)c(F)c7F)c7ccc4[nH]7)C=C6)C=C5)cc3)cc2O)cc1F
REMARK SMILES IDX 16 1 15 2 13 3 14 4 12 5 9 6 10 7 85 8 11 9 84 10 8 11 5 12
REMARK SMILES IDX 6 13 88 14 7 15 87 16 89 17 3 18 4 19 2 20 1 21 86 22 17 24
REMARK SMILES IDX 18 25 19 26 20 27 21 28 22 29 83 30 23 31 82 32 24 33 25 34
REMARK SMILES IDX 26 35 76 36 27 37 81 38 75 39 77 40 28 41 80 42 74 43 73 44
REMARK SMILES IDX 29 46 61 47 41 48 60 49 42 50 45 51 59 52 78 53 43 54 44 55
REMARK SMILES IDX 58 57 79 58 46 59 30 60 31 61 39 62 32 63 33 64 37 65 40 66
REMARK SMILES IDX 34 67 35 68 38 69 36 70 62 71 63 72 71 73 64 74 65 75 69 76
REMARK SMILES IDX 72 77 66 78 67 79 70 80 68 81 47 82 48 83 56 84 49 85 50 86
REMARK SMILES IDX 54 87 57 88 51 89 52 90 55 91 53 92
REMARK H PARENT 86 23 77 45 45 56
REMARK Flexibility Score: inf
ROOT
ATOM      1  C   UNL A   1      31.389  29.780  25.147  1.00  0.00     0.275 C 
ENDROOT
BRANCH   1   2
ATOM      2  O   UNL A   1      31.832  28.570  25.799  1.00  0.00    -0.458 OA
BRANCH   2   3
ATOM      3  C   UNL A   1      32.961  28.009  25.299  1.00  0.00     0.338 C 
ATOM      4  O   UNL A   1      34.035  28.565  25.134  1.00  0.00    -0.246 OA
BRANCH   3   5
ATOM      5  C   UNL A   1      32.775  26.555  25.067  1.00  0.00     0.063 A 
ATOM      6  C   UNL A   1      32.554  23.783  24.571  1.00  0.00     0.024 A 
ATOM      7  C   UNL A   1      33.732  24.472  24.266  1.00  0.00     0.013 A 
ATOM      8  C   UNL A   1      31.480  24.519  25.108  1.00  0.00     0.124 A 
ATOM      9  C   UNL A   1      33.822  25.845  24.468  1.00  0.00     0.016 A 
ATOM     10  C   UNL A   1      31.591  25.889  25.384  1.00  0.00     0.062 A 
BRANCH   6  11
ATOM     11  C   UNL A   1      32.487  22.349  24.259  1.00  0.00    -0.012 A 
ATOM     12  C   UNL A   1      32.540  19.613  23.603  1.00  0.00     0.095 A 
ATOM     13  C   UNL A   1      32.837  20.023  24.906  1.00  0.00     0.019 A 
ATOM     14  C   UNL A   1      32.198  20.561  22.641  1.00  0.00     0.138 A 
ATOM     15  C   UNL A   1      32.818  21.383  25.227  1.00  0.00     0.010 A 
ATOM     16  C   UNL A   1      32.171  21.915  22.962  1.00  0.00     0.049 A 
ATOM     17  F   UNL A   1      31.875  20.198  21.392  1.00  0.00    -0.206 F 
BRANCH  12  18
ATOM     18  C   UNL A   1      32.576  18.173  23.295  1.00  0.00     0.340 C 
ATOM     19  O   UNL A   1      32.557  17.734  22.159  1.00  0.00    -0.246 OA
BRANCH  18  20
ATOM     20  O   UNL A   1      32.523  17.454  24.442  1.00  0.00    -0.465 OA
ATOM     21  C   UNL A   1      33.276  16.241  24.397  1.00  0.00     0.282 C 
ENDBRANCH  18  20
ENDBRANCH  12  18
ENDBRANCH   6  11
BRANCH   8  22
ATOM     22  O   UNL A   1      30.296  23.877  25.353  1.00  0.00    -0.507 OA
ATOM     23  H   UNL A   1      30.186  22.982  25.096  1.00  0.00     0.293 HD
ENDBRANCH   8  22
ENDBRANCH   3   5
ENDBRANCH   2   3
ENDBRANCH   1   2
BRANCH   1  24
ATOM     24  C   UNL A   1      31.443  30.989  26.086  1.00  0.00     0.275 C 
BRANCH  24  25
ATOM     25  O   UNL A   1      32.450  30.819  27.102  1.00  0.00    -0.458 OA
BRANCH  25  26
ATOM     26  C   UNL A   1      33.191  31.920  27.351  1.00  0.00     0.338 C 
ATOM     27  O   UNL A   1      32.815  33.080  27.373  1.00  0.00    -0.246 OA
BRANCH  26  28
ATOM     28  C   UNL A   1      34.565  31.551  27.715  1.00  0.00     0.060 A 
ATOM     29  C   UNL A   1      34.801  30.219  28.029  1.00  0.00     0.016 A 
ATOM     30  C   UNL A   1      35.532  32.512  27.988  1.00  0.00     0.016 A 
ATOM     31  C   UNL A   1      35.925  29.857  28.762  1.00  0.00     0.010 A 
ATOM     32  C   UNL A   1      36.733  32.120  28.600  1.00  0.00     0.010 A 
ATOM     33  C   UNL A   1      36.923  30.798  29.047  1.00  0.00    -0.014 A 
BRANCH  33  34
ATOM     34  C   UNL A   1      38.130  30.407  29.837  1.00  0.00     0.031 A 
ATOM     35  C   UNL A   1      39.187  29.519  29.225  1.00  0.00     0.074 A 
ATOM     36  C   UNL A   1      38.304  30.861  31.097  1.00  0.00     0.049 A 
ATOM     37  N   UNL A   1      40.201  28.917  29.798  1.00  0.00    -0.248 NA
ATOM     38  C   UNL A   1      39.088  29.264  27.777  1.00  0.00     0.031 C 
ATOM     39  C   UNL A   1      37.404  31.777  31.802  1.00  0.00     0.029 A 
ATOM     40  N   UNL A   1      39.304  30.624  32.012  1.00  0.00    -0.354 N 
ATOM     41  C   UNL A   1      40.823  28.177  28.799  1.00  0.00     0.074 A 
ATOM     42  C   UNL A   1      40.066  28.388  27.584  1.00  0.00     0.031 C 
ATOM     43  C   UNL A   1      37.915  32.063  33.008  1.00  0.00     0.029 A 
ATOM     44  C   UNL A   1      39.117  31.265  33.213  1.00  0.00     0.049 A 
ATOM     45  H   UNL A   1      40.081  30.049  31.823  1.00  0.00     0.167 HD
ATOM     46  C   UNL A   1      41.929  27.400  28.888  1.00  0.00     0.037 A 
ATOM     47  C   UNL A   1      39.797  31.185  34.374  1.00  0.00     0.037 A 
ATOM     48  C   UNL A   1      42.711  27.237  30.087  1.00  0.00     0.049 A 
ATOM     49  C   UNL A   1      40.975  30.257  34.466  1.00  0.00     0.074 A 
ATOM     50  C   UNL A   1      43.846  26.468  30.276  1.00  0.00     0.029 A 
ATOM     51  N   UNL A   1      42.451  27.870  31.294  1.00  0.00    -0.354 N 
ATOM     52  N   UNL A   1      41.514  29.510  33.533  1.00  0.00    -0.248 NA
ATOM     53  C   UNL A   1      41.631  30.145  35.776  1.00  0.00     0.031 C 
ATOM     54  C   UNL A   1      44.246  26.598  31.608  1.00  0.00     0.029 A 
ATOM     55  C   UNL A   1      43.399  27.498  32.234  1.00  0.00     0.049 A 
ATOM     56  H   UNL A   1      41.705  28.491  31.459  1.00  0.00     0.167 HD
ATOM     57  C   UNL A   1      42.586  28.866  34.133  1.00  0.00     0.074 A 
ATOM     58  C   UNL A   1      42.632  29.319  35.507  1.00  0.00     0.031 C 
ATOM     59  C   UNL A   1      43.452  27.977  33.590  1.00  0.00     0.037 A 
BRANCH  46  60
ATOM     60  C   UNL A   1      42.375  26.648  27.665  1.00  0.00     0.064 A 
ATOM     61  C   UNL A   1      41.903  25.347  27.425  1.00  0.00     0.173 A 
ATOM     62  C   UNL A   1      43.340  27.165  26.790  1.00  0.00     0.173 A 
ATOM     63  F   UNL A   1      40.985  24.799  28.235  1.00  0.00    -0.203 F 
ATOM     64  C   UNL A   1      42.400  24.585  26.370  1.00  0.00     0.198 A 
ATOM     65  C   UNL A   1      43.813  26.411  25.718  1.00  0.00     0.198 A 
ATOM     66  F   UNL A   1      43.817  28.406  26.968  1.00  0.00    -0.203 F 
ATOM     67  F   UNL A   1      41.969  23.329  26.191  1.00  0.00    -0.200 F 
ATOM     68  C   UNL A   1      43.353  25.118  25.517  1.00  0.00     0.200 A 
ATOM     69  F   UNL A   1      44.717  26.936  24.880  1.00  0.00    -0.200 F 
ATOM     70  F   UNL A   1      43.830  24.385  24.501  1.00  0.00    -0.200 F 
ENDBRANCH  46  60
BRANCH  47  71
ATOM     71  C   UNL A   1      39.360  31.988  35.550  1.00  0.00     0.064 A 
ATOM     72  C   UNL A   1      38.471  31.469  36.504  1.00  0.00     0.173 A 
ATOM     73  C   UNL A   1      39.820  33.298  35.735  1.00  0.00     0.173 A 
ATOM     74  F   UNL A   1      38.000  30.220  36.377  1.00  0.00    -0.203 F 
ATOM     75  C   UNL A   1      38.038  32.240  37.581  1.00  0.00     0.198 A 
ATOM     76  C   UNL A   1      39.416  34.055  36.834  1.00  0.00     0.198 A 
ATOM     77  F   UNL A   1      40.691  33.832  34.866  1.00  0.00    -0.203 F 
ATOM     78  F   UNL A   1      37.155  31.733  38.452  1.00  0.00    -0.200 F 
ATOM     79  C   UNL A   1      38.517  33.529  37.750  1.00  0.00     0.200 A 
ATOM     80  F   UNL A   1      39.907  35.289  37.012  1.00  0.00    -0.200 F 
ATOM     81  F   UNL A   1      38.119  34.262  38.798  1.00  0.00    -0.200 F 
ENDBRANCH  47  71
BRANCH  59  82
ATOM     82  C   UNL A   1      44.567  27.469  34.458  1.00  0.00     0.064 A 
ATOM     83  C   UNL A   1      45.797  28.147  34.493  1.00  0.00     0.173 A 
ATOM     84  C   UNL A   1      44.453  26.277  35.186  1.00  0.00     0.173 A 
ATOM     85  F   UNL A   1      45.959  29.289  33.808  1.00  0.00    -0.203 F 
ATOM     86  C   UNL A   1      46.876  27.637  35.208  1.00  0.00     0.198 A 
ATOM     87  C   UNL A   1      45.525  25.788  35.928  1.00  0.00     0.198 A 
ATOM     88  F   UNL A   1      43.295  25.601  35.196  1.00  0.00    -0.203 F 
ATOM     89  F   UNL A   1      48.052  28.280  35.191  1.00  0.00    -0.200 F 
ATOM     90  C   UNL A   1      46.738  26.462  35.928  1.00  0.00     0.200 A 
ATOM     91  F   UNL A   1      45.383  24.665  36.645  1.00  0.00    -0.200 F 
ATOM     92  F   UNL A   1      47.775  25.976  36.625  1.00  0.00    -0.200 F 
ENDBRANCH  59  82
ENDBRANCH  33  34
ENDBRANCH  26  28
ENDBRANCH  25  26
ENDBRANCH  24  25
ENDBRANCH   1  24
TORSDOF 15
ENDMDL
