MODEL 1
REMARK VINA RESULT:     -11.6      0.000      0.000
REMARK SMILES CC[C@@]1(CO)CCCN(c2nc(-c3ccc(C)s3)ccc2C(=O)OCCOC(=O)c2ccc(-c3c4nc(c(-c5c(F)c(F)c(F)c(F)c5F)c5ccc([nH]5)c(-c5c(F)c(F)c(F)c(F)c5F)c5nc(c(-c6c(F)c(F)c(F)c(F)c6F)c6ccc3[nH]6)C=C5)C=C4)cc2)C1
REMARK SMILES IDX 25 1 24 2 22 3 23 4 21 5 10 6 11 7 12 8 20 9 19 10 9 11 3 12
REMARK SMILES IDX 6 13 93 14 7 15 8 16 2 17 1 18 4 19 5 20 13 22 14 23 18 24
REMARK SMILES IDX 15 25 16 26 17 27 26 28 27 29 28 30 29 31 30 32 31 33 92 34
REMARK SMILES IDX 32 35 91 36 33 37 34 38 35 39 85 40 36 41 90 42 84 43 86 44
REMARK SMILES IDX 37 45 89 46 83 47 82 48 38 50 70 51 50 52 69 53 51 54 54 55
REMARK SMILES IDX 68 56 87 57 52 58 53 59 67 61 88 62 55 63 39 64 40 65 48 66
REMARK SMILES IDX 41 67 42 68 46 69 49 70 43 71 44 72 47 73 45 74 71 75 72 76
REMARK SMILES IDX 80 77 73 78 74 79 78 80 81 81 75 82 76 83 79 84 77 85 56 86
REMARK SMILES IDX 57 87 65 88 58 89 59 90 63 91 66 92 60 93 61 94 64 95 62 96
REMARK H PARENT 5 21 86 49 54 60
REMARK Flexibility Score: inf
ROOT
ATOM      1  C   UNL A   1      34.615  22.283  23.506  1.00  0.00     0.275 C 
ENDROOT
BRANCH   1   2
ATOM      2  O   UNL A   1      33.479  23.002  24.031  1.00  0.00    -0.458 OA
BRANCH   2   3
ATOM      3  C   UNL A   1      33.197  24.200  23.448  1.00  0.00     0.342 C 
ATOM      4  O   UNL A   1      32.970  24.383  22.267  1.00  0.00    -0.246 OA
BRANCH   3   5
ATOM      5  C   UNL A   1      33.321  25.278  24.453  1.00  0.00     0.102 A 
ATOM      6  C   UNL A   1      32.471  26.383  24.464  1.00  0.00     0.143 A 
ATOM      7  N   UNL A   1      32.695  27.418  25.296  1.00  0.00    -0.229 NA
ATOM      8  C   UNL A   1      33.759  27.419  26.116  1.00  0.00     0.083 A 
ATOM      9  C   UNL A   1      34.416  25.269  25.338  1.00  0.00     0.022 A 
ATOM     10  C   UNL A   1      34.647  26.362  26.177  1.00  0.00     0.031 A 
BRANCH   6  11
ATOM     11  N   UNL A   1      31.328  26.530  23.677  1.00  0.00    -0.355 N 
ATOM     12  C   UNL A   1      30.052  28.682  23.069  1.00  0.00     0.011 C 
ATOM     13  C   UNL A   1      28.823  27.771  23.011  1.00  0.00     0.013 C 
ATOM     14  C   UNL A   1      31.317  27.804  22.952  1.00  0.00     0.127 C 
ATOM     15  C   UNL A   1      28.826  26.614  23.999  1.00  0.00     0.022 C 
ATOM     16  C   UNL A   1      30.159  25.961  24.326  1.00  0.00     0.118 C 
BRANCH  12  17
ATOM     17  C   UNL A   1      30.091  29.708  21.868  1.00  0.00     0.008 C 
ATOM     18  C   UNL A   1      28.808  30.444  21.520  1.00  0.00     0.004 C 
ENDBRANCH  12  17
BRANCH  12  19
ATOM     19  C   UNL A   1      30.006  29.597  24.326  1.00  0.00     0.164 C 
BRANCH  19  20
ATOM     20  O   UNL A   1      30.637  30.853  24.268  1.00  0.00    -0.396 OA
ATOM     21  H   UNL A   1      31.249  30.941  25.015  1.00  0.00     0.210 HD
ENDBRANCH  19  20
ENDBRANCH  12  19
ENDBRANCH   6  11
BRANCH   8  22
ATOM     22  C   UNL A   1      33.944  28.693  26.795  1.00  0.00     0.053 A 
ATOM     23  C   UNL A   1      35.105  29.235  27.307  1.00  0.00     0.022 A 
ATOM     24  S   UNL A   1      32.639  29.797  26.900  1.00  0.00    -0.139 S 
ATOM     25  C   UNL A   1      34.937  30.597  27.698  1.00  0.00     0.016 A 
ATOM     26  C   UNL A   1      33.648  31.044  27.493  1.00  0.00     0.002 A 
ATOM     27  C   UNL A   1      33.093  32.411  27.695  1.00  0.00     0.056 C 
ENDBRANCH   8  22
ENDBRANCH   3   5
ENDBRANCH   2   3
ENDBRANCH   1   2
BRANCH   1  28
ATOM     28  C   UNL A   1      35.502  21.760  24.633  1.00  0.00     0.275 C 
BRANCH  28  29
ATOM     29  O   UNL A   1      36.880  22.062  24.348  1.00  0.00    -0.458 OA
BRANCH  29  30
ATOM     30  C   UNL A   1      37.798  21.568  25.210  1.00  0.00     0.338 C 
ATOM     31  O   UNL A   1      38.124  20.398  25.353  1.00  0.00    -0.246 OA
BRANCH  30  32
ATOM     32  C   UNL A   1      38.428  22.666  25.975  1.00  0.00     0.060 A 
ATOM     33  C   UNL A   1      37.790  23.893  26.063  1.00  0.00     0.016 A 
ATOM     34  C   UNL A   1      39.740  22.543  26.449  1.00  0.00     0.016 A 
ATOM     35  C   UNL A   1      38.509  25.004  26.502  1.00  0.00     0.010 A 
ATOM     36  C   UNL A   1      40.421  23.657  26.985  1.00  0.00     0.010 A 
ATOM     37  C   UNL A   1      39.847  24.936  26.962  1.00  0.00    -0.014 A 
BRANCH  37  38
ATOM     38  C   UNL A   1      40.616  26.210  27.283  1.00  0.00     0.031 A 
ATOM     39  C   UNL A   1      40.130  27.240  28.304  1.00  0.00     0.074 A 
ATOM     40  C   UNL A   1      41.874  26.380  26.812  1.00  0.00     0.049 A 
ATOM     41  N   UNL A   1      40.725  28.343  28.714  1.00  0.00    -0.248 NA
ATOM     42  C   UNL A   1      38.843  27.006  28.974  1.00  0.00     0.031 C 
ATOM     43  C   UNL A   1      42.555  25.460  25.905  1.00  0.00     0.029 A 
ATOM     44  N   UNL A   1      42.846  27.314  27.109  1.00  0.00    -0.354 N 
ATOM     45  C   UNL A   1      39.867  28.944  29.634  1.00  0.00     0.074 A 
ATOM     46  C   UNL A   1      38.735  28.057  29.776  1.00  0.00     0.031 C 
ATOM     47  C   UNL A   1      43.861  25.743  25.891  1.00  0.00     0.029 A 
ATOM     48  C   UNL A   1      44.087  26.998  26.601  1.00  0.00     0.049 A 
ATOM     49  H   UNL A   1      42.669  28.129  27.633  1.00  0.00     0.167 HD
ATOM     50  C   UNL A   1      39.979  30.139  30.268  1.00  0.00     0.037 A 
ATOM     51  C   UNL A   1      45.273  27.644  26.639  1.00  0.00     0.037 A 
ATOM     52  C   UNL A   1      41.091  31.049  30.136  1.00  0.00     0.049 A 
ATOM     53  C   UNL A   1      45.339  29.014  27.246  1.00  0.00     0.074 A 
ATOM     54  C   UNL A   1      41.232  32.325  30.662  1.00  0.00     0.029 A 
ATOM     55  N   UNL A   1      42.251  30.787  29.428  1.00  0.00    -0.354 N 
ATOM     56  N   UNL A   1      44.455  29.634  27.984  1.00  0.00    -0.248 NA
ATOM     57  C   UNL A   1      46.538  29.812  26.945  1.00  0.00     0.031 C 
ATOM     58  C   UNL A   1      42.438  32.864  30.200  1.00  0.00     0.029 A 
ATOM     59  C   UNL A   1      43.081  31.899  29.445  1.00  0.00     0.049 A 
ATOM     60  H   UNL A   1      42.457  29.936  28.978  1.00  0.00     0.167 HD
ATOM     61  C   UNL A   1      44.955  30.915  28.178  1.00  0.00     0.074 A 
ATOM     62  C   UNL A   1      46.260  30.957  27.554  1.00  0.00     0.031 C 
ATOM     63  C   UNL A   1      44.355  31.971  28.777  1.00  0.00     0.037 A 
BRANCH  50  64
ATOM     64  C   UNL A   1      38.793  30.621  31.061  1.00  0.00     0.064 A 
ATOM     65  C   UNL A   1      38.703  30.497  32.453  1.00  0.00     0.173 A 
ATOM     66  C   UNL A   1      37.738  31.269  30.393  1.00  0.00     0.173 A 
ATOM     67  F   UNL A   1      39.674  29.879  33.141  1.00  0.00    -0.203 F 
ATOM     68  C   UNL A   1      37.592  30.984  33.144  1.00  0.00     0.198 A 
ATOM     69  C   UNL A   1      36.646  31.779  31.088  1.00  0.00     0.198 A 
ATOM     70  F   UNL A   1      37.779  31.425  29.061  1.00  0.00    -0.203 F 
ATOM     71  F   UNL A   1      37.505  30.821  34.472  1.00  0.00    -0.200 F 
ATOM     72  C   UNL A   1      36.569  31.629  32.463  1.00  0.00     0.200 A 
ATOM     73  F   UNL A   1      35.669  32.414  30.426  1.00  0.00    -0.200 F 
ATOM     74  F   UNL A   1      35.506  32.100  33.129  1.00  0.00    -0.200 F 
ENDBRANCH  50  64
BRANCH  51  75
ATOM     75  C   UNL A   1      46.465  27.045  25.970  1.00  0.00     0.064 A 
ATOM     76  C   UNL A   1      46.805  27.376  24.651  1.00  0.00     0.173 A 
ATOM     77  C   UNL A   1      47.314  26.158  26.652  1.00  0.00     0.173 A 
ATOM     78  F   UNL A   1      46.001  28.167  23.927  1.00  0.00    -0.203 F 
ATOM     79  C   UNL A   1      47.968  26.877  24.063  1.00  0.00     0.198 A 
ATOM     80  C   UNL A   1      48.504  25.712  26.087  1.00  0.00     0.198 A 
ATOM     81  F   UNL A   1      47.015  25.767  27.901  1.00  0.00    -0.203 F 
ATOM     82  F   UNL A   1      48.257  27.182  22.789  1.00  0.00    -0.200 F 
ATOM     83  C   UNL A   1      48.831  26.071  24.791  1.00  0.00     0.200 A 
ATOM     84  F   UNL A   1      49.341  24.956  26.810  1.00  0.00    -0.200 F 
ATOM     85  F   UNL A   1      49.974  25.637  24.243  1.00  0.00    -0.200 F 
ENDBRANCH  51  75
BRANCH  63  86
ATOM     86  C   UNL A   1      45.062  33.295  28.711  1.00  0.00     0.064 A 
ATOM     87  C   UNL A   1      46.030  33.640  29.669  1.00  0.00     0.173 A 
ATOM     88  C   UNL A   1      44.808  34.211  27.680  1.00  0.00     0.173 A 
ATOM     89  F   UNL A   1      46.301  32.804  30.684  1.00  0.00    -0.203 F 
ATOM     90  C   UNL A   1      46.696  34.861  29.612  1.00  0.00     0.198 A 
ATOM     91  C   UNL A   1      45.497  35.420  27.611  1.00  0.00     0.198 A 
ATOM     92  F   UNL A   1      43.898  33.931  26.735  1.00  0.00    -0.203 F 
ATOM     93  F   UNL A   1      47.581  35.184  30.565  1.00  0.00    -0.200 F 
ATOM     94  C   UNL A   1      46.433  35.747  28.580  1.00  0.00     0.200 A 
ATOM     95  F   UNL A   1      45.252  36.272  26.605  1.00  0.00    -0.200 F 
ATOM     96  F   UNL A   1      47.078  36.921  28.523  1.00  0.00    -0.200 F 
ENDBRANCH  63  86
ENDBRANCH  37  38
ENDBRANCH  30  32
ENDBRANCH  29  30
ENDBRANCH  28  29
ENDBRANCH   1  28
TORSDOF 16
ENDMDL
MODEL 2
REMARK VINA RESULT:     -11.2      1.119      3.230
REMARK SMILES CC[C@@]1(CO)CCCN(c2nc(-c3ccc(C)s3)ccc2C(=O)OCCOC(=O)c2ccc(-c3c4nc(c(-c5c(F)c(F)c(F)c(F)c5F)c5ccc([nH]5)c(-c5c(F)c(F)c(F)c(F)c5F)c5nc(c(-c6c(F)c(F)c(F)c(F)c6F)c6ccc3[nH]6)C=C5)C=C4)cc2)C1
REMARK SMILES IDX 25 1 24 2 22 3 23 4 21 5 10 6 11 7 12 8 20 9 19 10 9 11 3 12
REMARK SMILES IDX 6 13 93 14 7 15 8 16 2 17 1 18 4 19 5 20 13 22 14 23 18 24
REMARK SMILES IDX 15 25 16 26 17 27 26 28 27 29 28 30 29 31 30 32 31 33 92 34
REMARK SMILES IDX 32 35 91 36 33 37 34 38 35 39 85 40 36 41 90 42 84 43 86 44
REMARK SMILES IDX 37 45 89 46 83 47 82 48 38 50 70 51 50 52 69 53 51 54 54 55
REMARK SMILES IDX 68 56 87 57 52 58 53 59 67 61 88 62 55 63 39 64 40 65 48 66
REMARK SMILES IDX 41 67 42 68 46 69 49 70 43 71 44 72 47 73 45 74 71 75 72 76
REMARK SMILES IDX 80 77 73 78 74 79 78 80 81 81 75 82 76 83 79 84 77 85 56 86
REMARK SMILES IDX 57 87 65 88 58 89 59 90 63 91 66 92 60 93 61 94 64 95 62 96
REMARK H PARENT 5 21 86 49 54 60
REMARK Flexibility Score: inf
ROOT
ATOM      1  C   UNL A   1      35.543  23.182  24.038  1.00  0.00     0.275 C 
ENDROOT
BRANCH   1   2
ATOM      2  O   UNL A   1      34.103  23.075  24.048  1.00  0.00    -0.458 OA
BRANCH   2   3
ATOM      3  C   UNL A   1      33.453  23.741  25.041  1.00  0.00     0.342 C 
ATOM      4  O   UNL A   1      33.683  23.649  26.233  1.00  0.00    -0.246 OA
BRANCH   3   5
ATOM      5  C   UNL A   1      32.336  24.519  24.463  1.00  0.00     0.102 A 
ATOM      6  C   UNL A   1      32.400  25.903  24.305  1.00  0.00     0.143 A 
ATOM      7  N   UNL A   1      31.318  26.604  23.912  1.00  0.00    -0.229 NA
ATOM      8  C   UNL A   1      30.147  25.985  23.689  1.00  0.00     0.083 A 
ATOM      9  C   UNL A   1      31.115  23.873  24.195  1.00  0.00     0.022 A 
ATOM     10  C   UNL A   1      29.997  24.617  23.812  1.00  0.00     0.031 A 
BRANCH   6  11
ATOM     11  N   UNL A   1      33.539  26.686  24.496  1.00  0.00    -0.355 N 
ATOM     12  C   UNL A   1      33.863  28.715  26.047  1.00  0.00     0.011 C 
ATOM     13  C   UNL A   1      34.874  29.181  24.996  1.00  0.00     0.013 C 
ATOM     14  C   UNL A   1      33.633  27.199  25.866  1.00  0.00     0.127 C 
ATOM     15  C   UNL A   1      34.536  28.808  23.560  1.00  0.00     0.022 C 
ATOM     16  C   UNL A   1      33.844  27.476  23.315  1.00  0.00     0.118 C 
BRANCH  12  17
ATOM     17  C   UNL A   1      34.392  28.928  27.520  1.00  0.00     0.008 C 
ATOM     18  C   UNL A   1      35.783  29.514  27.698  1.00  0.00     0.004 C 
ENDBRANCH  12  17
BRANCH  12  19
ATOM     19  C   UNL A   1      32.572  29.582  25.997  1.00  0.00     0.164 C 
BRANCH  19  20
ATOM     20  O   UNL A   1      31.345  28.947  25.729  1.00  0.00    -0.396 OA
ATOM     21  H   UNL A   1      31.216  28.887  24.769  1.00  0.00     0.210 HD
ENDBRANCH  19  20
ENDBRANCH  12  19
ENDBRANCH   6  11
BRANCH   8  22
ATOM     22  C   UNL A   1      29.054  26.919  23.462  1.00  0.00     0.053 A 
ATOM     23  C   UNL A   1      27.727  26.796  23.824  1.00  0.00     0.022 A 
ATOM     24  S   UNL A   1      29.378  28.460  22.788  1.00  0.00    -0.139 S 
ATOM     25  C   UNL A   1      27.002  28.010  23.633  1.00  0.00     0.016 A 
ATOM     26  C   UNL A   1      27.791  29.013  23.110  1.00  0.00     0.002 A 
ATOM     27  C   UNL A   1      27.436  30.433  22.841  1.00  0.00     0.056 C 
ENDBRANCH   8  22
ENDBRANCH   3   5
ENDBRANCH   2   3
ENDBRANCH   1   2
BRANCH   1  28
ATOM     28  C   UNL A   1      36.195  21.824  24.290  1.00  0.00     0.275 C 
BRANCH  28  29
ATOM     29  O   UNL A   1      36.744  21.786  25.620  1.00  0.00    -0.458 OA
BRANCH  29  30
ATOM     30  C   UNL A   1      38.084  21.635  25.716  1.00  0.00     0.338 C 
ATOM     31  O   UNL A   1      38.759  20.719  25.268  1.00  0.00    -0.246 OA
BRANCH  30  32
ATOM     32  C   UNL A   1      38.682  22.785  26.429  1.00  0.00     0.060 A 
ATOM     33  C   UNL A   1      38.042  24.013  26.404  1.00  0.00     0.016 A 
ATOM     34  C   UNL A   1      39.974  22.699  26.964  1.00  0.00     0.016 A 
ATOM     35  C   UNL A   1      38.742  25.154  26.795  1.00  0.00     0.010 A 
ATOM     36  C   UNL A   1      40.632  23.849  27.449  1.00  0.00     0.010 A 
ATOM     37  C   UNL A   1      40.061  25.122  27.313  1.00  0.00    -0.014 A 
BRANCH  37  38
ATOM     38  C   UNL A   1      40.816  26.417  27.576  1.00  0.00     0.031 A 
ATOM     39  C   UNL A   1      40.317  27.489  28.546  1.00  0.00     0.074 A 
ATOM     40  C   UNL A   1      42.074  26.577  27.102  1.00  0.00     0.049 A 
ATOM     41  N   UNL A   1      40.900  28.616  28.905  1.00  0.00    -0.248 NA
ATOM     42  C   UNL A   1      39.030  27.274  29.223  1.00  0.00     0.031 C 
ATOM     43  C   UNL A   1      42.767  25.622  26.241  1.00  0.00     0.029 A 
ATOM     44  N   UNL A   1      43.036  27.533  27.357  1.00  0.00    -0.354 N 
ATOM     45  C   UNL A   1      40.033  29.250  29.794  1.00  0.00     0.074 A 
ATOM     46  C   UNL A   1      38.909  28.361  29.974  1.00  0.00     0.031 C 
ATOM     47  C   UNL A   1      44.071  25.917  26.217  1.00  0.00     0.029 A 
ATOM     48  C   UNL A   1      44.283  27.206  26.868  1.00  0.00     0.049 A 
ATOM     49  H   UNL A   1      42.849  28.370  27.841  1.00  0.00     0.167 HD
ATOM     50  C   UNL A   1      40.131  30.476  30.370  1.00  0.00     0.037 A 
ATOM     51  C   UNL A   1      45.461  27.864  26.880  1.00  0.00     0.037 A 
ATOM     52  C   UNL A   1      41.235  31.389  30.200  1.00  0.00     0.049 A 
ATOM     53  C   UNL A   1      45.512  29.262  27.422  1.00  0.00     0.074 A 
ATOM     54  C   UNL A   1      41.362  32.690  30.665  1.00  0.00     0.029 A 
ATOM     55  N   UNL A   1      42.400  31.105  29.508  1.00  0.00    -0.354 N 
ATOM     56  N   UNL A   1      44.620  29.907  28.127  1.00  0.00    -0.248 NA
ATOM     57  C   UNL A   1      46.705  30.056  27.087  1.00  0.00     0.031 C 
ATOM     58  C   UNL A   1      42.565  33.218  30.182  1.00  0.00     0.029 A 
ATOM     59  C   UNL A   1      43.219  32.225  29.475  1.00  0.00     0.049 A 
ATOM     60  H   UNL A   1      42.616  30.236  29.099  1.00  0.00     0.167 HD
ATOM     61  C   UNL A   1      45.107  31.201  28.262  1.00  0.00     0.074 A 
ATOM     62  C   UNL A   1      46.413  31.225  27.641  1.00  0.00     0.031 C 
ATOM     63  C   UNL A   1      44.495  32.278  28.808  1.00  0.00     0.037 A 
BRANCH  50  64
ATOM     64  C   UNL A   1      38.938  30.983  31.136  1.00  0.00     0.064 A 
ATOM     65  C   UNL A   1      37.837  31.593  30.520  1.00  0.00     0.173 A 
ATOM     66  C   UNL A   1      38.889  30.801  32.529  1.00  0.00     0.173 A 
ATOM     67  F   UNL A   1      37.833  31.802  29.195  1.00  0.00    -0.203 F 
ATOM     68  C   UNL A   1      36.743  32.022  31.274  1.00  0.00     0.198 A 
ATOM     69  C   UNL A   1      37.785  31.203  33.274  1.00  0.00     0.198 A 
ATOM     70  F   UNL A   1      39.911  30.211  33.168  1.00  0.00    -0.203 F 
ATOM     71  F   UNL A   1      35.716  32.640  30.673  1.00  0.00    -0.200 F 
ATOM     72  C   UNL A   1      36.715  31.821  32.647  1.00  0.00     0.200 A 
ATOM     73  F   UNL A   1      37.757  30.993  34.597  1.00  0.00    -0.200 F 
ATOM     74  F   UNL A   1      35.662  32.230  33.367  1.00  0.00    -0.200 F 
ENDBRANCH  50  64
BRANCH  51  75
ATOM     75  C   UNL A   1      46.661  27.246  26.243  1.00  0.00     0.064 A 
ATOM     76  C   UNL A   1      46.936  27.419  24.880  1.00  0.00     0.173 A 
ATOM     77  C   UNL A   1      47.584  26.501  26.997  1.00  0.00     0.173 A 
ATOM     78  F   UNL A   1      46.063  28.065  24.094  1.00  0.00    -0.203 F 
ATOM     79  C   UNL A   1      48.104  26.909  24.311  1.00  0.00     0.198 A 
ATOM     80  C   UNL A   1      48.776  26.048  26.444  1.00  0.00     0.198 A 
ATOM     81  F   UNL A   1      47.352  26.261  28.297  1.00  0.00    -0.203 F 
ATOM     82  F   UNL A   1      48.331  27.059  22.998  1.00  0.00    -0.200 F 
ATOM     83  C   UNL A   1      49.037  26.251  25.100  1.00  0.00     0.200 A 
ATOM     84  F   UNL A   1      49.680  25.437  27.222  1.00  0.00    -0.200 F 
ATOM     85  F   UNL A   1      50.182  25.809  24.565  1.00  0.00    -0.200 F 
ENDBRANCH  51  75
BRANCH  63  86
ATOM     86  C   UNL A   1      45.189  33.604  28.682  1.00  0.00     0.064 A 
ATOM     87  C   UNL A   1      44.872  34.482  27.632  1.00  0.00     0.173 A 
ATOM     88  C   UNL A   1      46.145  34.023  29.618  1.00  0.00     0.173 A 
ATOM     89  F   UNL A   1      43.974  34.125  26.701  1.00  0.00    -0.203 F 
ATOM     90  C   UNL A   1      45.505  35.716  27.511  1.00  0.00     0.198 A 
ATOM     91  C   UNL A   1      46.755  35.271  29.509  1.00  0.00     0.198 A 
ATOM     92  F   UNL A   1      46.481  33.227  30.644  1.00  0.00    -0.203 F 
ATOM     93  F   UNL A   1      45.218  36.515  26.474  1.00  0.00    -0.200 F 
ATOM     94  C   UNL A   1      46.441  36.112  28.453  1.00  0.00     0.200 A 
ATOM     95  F   UNL A   1      47.652  35.658  30.427  1.00  0.00    -0.200 F 
ATOM     96  F   UNL A   1      47.047  37.302  28.338  1.00  0.00    -0.200 F 
ENDBRANCH  63  86
ENDBRANCH  37  38
ENDBRANCH  30  32
ENDBRANCH  29  30
ENDBRANCH  28  29
ENDBRANCH   1  28
TORSDOF 16
ENDMDL
MODEL 3
REMARK VINA RESULT:     -11.1      7.654     15.241
REMARK SMILES CC[C@@]1(CO)CCCN(c2nc(-c3ccc(C)s3)ccc2C(=O)OCCOC(=O)c2ccc(-c3c4nc(c(-c5c(F)c(F)c(F)c(F)c5F)c5ccc([nH]5)c(-c5c(F)c(F)c(F)c(F)c5F)c5nc(c(-c6c(F)c(F)c(F)c(F)c6F)c6ccc3[nH]6)C=C5)C=C4)cc2)C1
REMARK SMILES IDX 25 1 24 2 22 3 23 4 21 5 10 6 11 7 12 8 20 9 19 10 9 11 3 12
REMARK SMILES IDX 6 13 93 14 7 15 8 16 2 17 1 18 4 19 5 20 13 22 14 23 18 24
REMARK SMILES IDX 15 25 16 26 17 27 26 28 27 29 28 30 29 31 30 32 31 33 92 34
REMARK SMILES IDX 32 35 91 36 33 37 34 38 35 39 85 40 36 41 90 42 84 43 86 44
REMARK SMILES IDX 37 45 89 46 83 47 82 48 38 50 70 51 50 52 69 53 51 54 54 55
REMARK SMILES IDX 68 56 87 57 52 58 53 59 67 61 88 62 55 63 39 64 40 65 48 66
REMARK SMILES IDX 41 67 42 68 46 69 49 70 43 71 44 72 47 73 45 74 71 75 72 76
REMARK SMILES IDX 80 77 73 78 74 79 78 80 81 81 75 82 76 83 79 84 77 85 56 86
REMARK SMILES IDX 57 87 65 88 58 89 59 90 63 91 66 92 60 93 61 94 64 95 62 96
REMARK H PARENT 5 21 86 49 54 60
REMARK Flexibility Score: inf
ROOT
ATOM      1  C   UNL A   1      45.299  40.748  26.086  1.00  0.00     0.275 C 
ENDROOT
BRANCH   1   2
ATOM      2  O   UNL A   1      44.203  41.109  25.217  1.00  0.00    -0.458 OA
BRANCH   2   3
ATOM      3  C   UNL A   1      44.069  42.433  24.931  1.00  0.00     0.342 C 
ATOM      4  O   UNL A   1      44.266  43.354  25.701  1.00  0.00    -0.246 OA
BRANCH   3   5
ATOM      5  C   UNL A   1      43.531  42.588  23.562  1.00  0.00     0.102 A 
ATOM      6  C   UNL A   1      44.335  42.968  22.488  1.00  0.00     0.143 A 
ATOM      7  N   UNL A   1      43.795  43.242  21.284  1.00  0.00    -0.229 NA
ATOM      8  C   UNL A   1      42.466  43.180  21.101  1.00  0.00     0.083 A 
ATOM      9  C   UNL A   1      42.142  42.493  23.355  1.00  0.00     0.022 A 
ATOM     10  C   UNL A   1      41.597  42.804  22.107  1.00  0.00     0.031 A 
BRANCH   6  11
ATOM     11  N   UNL A   1      45.726  43.075  22.519  1.00  0.00    -0.355 N 
ATOM     12  C   UNL A   1      47.277  44.412  20.959  1.00  0.00     0.011 C 
ATOM     13  C   UNL A   1      48.301  43.317  21.267  1.00  0.00     0.013 C 
ATOM     14  C   UNL A   1      46.189  44.386  22.054  1.00  0.00     0.127 C 
ATOM     15  C   UNL A   1      47.720  41.927  21.482  1.00  0.00     0.022 C 
ATOM     16  C   UNL A   1      46.364  41.820  22.160  1.00  0.00     0.118 C 
BRANCH  12  17
ATOM     17  C   UNL A   1      47.921  45.855  20.984  1.00  0.00     0.008 C 
ATOM     18  C   UNL A   1      47.049  47.014  21.436  1.00  0.00     0.004 C 
ENDBRANCH  12  17
BRANCH  12  19
ATOM     19  C   UNL A   1      46.744  44.279  19.504  1.00  0.00     0.164 C 
BRANCH  19  20
ATOM     20  O   UNL A   1      47.087  45.271  18.567  1.00  0.00    -0.396 OA
ATOM     21  H   UNL A   1      48.052  45.363  18.535  1.00  0.00     0.210 HD
ENDBRANCH  19  20
ENDBRANCH  12  19
ENDBRANCH   6  11
BRANCH   8  22
ATOM     22  C   UNL A   1      42.054  43.692  19.802  1.00  0.00     0.053 A 
ATOM     23  C   UNL A   1      40.792  43.709  19.244  1.00  0.00     0.022 A 
ATOM     24  S   UNL A   1      43.183  44.526  18.820  1.00  0.00    -0.139 S 
ATOM     25  C   UNL A   1      40.740  44.494  18.054  1.00  0.00     0.016 A 
ATOM     26  C   UNL A   1      41.968  45.031  17.728  1.00  0.00     0.002 A 
ATOM     27  C   UNL A   1      42.313  45.961  16.618  1.00  0.00     0.056 C 
ENDBRANCH   8  22
ENDBRANCH   3   5
ENDBRANCH   2   3
ENDBRANCH   1   2
BRANCH   1  28
ATOM     28  C   UNL A   1      44.828  39.825  27.208  1.00  0.00     0.275 C 
BRANCH  28  29
ATOM     29  O   UNL A   1      45.794  38.778  27.415  1.00  0.00    -0.458 OA
BRANCH  29  30
ATOM     30  C   UNL A   1      45.771  38.166  28.620  1.00  0.00     0.338 C 
ATOM     31  O   UNL A   1      45.752  38.699  29.721  1.00  0.00    -0.246 OA
BRANCH  30  32
ATOM     32  C   UNL A   1      45.730  36.697  28.450  1.00  0.00     0.060 A 
ATOM     33  C   UNL A   1      45.319  36.159  27.241  1.00  0.00     0.016 A 
ATOM     34  C   UNL A   1      45.917  35.847  29.547  1.00  0.00     0.016 A 
ATOM     35  C   UNL A   1      44.979  34.808  27.177  1.00  0.00     0.010 A 
ATOM     36  C   UNL A   1      45.665  34.462  29.438  1.00  0.00     0.010 A 
ATOM     37  C   UNL A   1      45.121  33.915  28.268  1.00  0.00    -0.014 A 
BRANCH  37  38
ATOM     38  C   UNL A   1      44.589  32.492  28.171  1.00  0.00     0.031 A 
ATOM     39  C   UNL A   1      45.410  31.334  27.601  1.00  0.00     0.074 A 
ATOM     40  C   UNL A   1      43.425  32.160  28.778  1.00  0.00     0.049 A 
ATOM     41  N   UNL A   1      45.093  30.057  27.518  1.00  0.00    -0.248 NA
ATOM     42  C   UNL A   1      46.758  31.620  27.088  1.00  0.00     0.031 C 
ATOM     43  C   UNL A   1      42.545  33.102  29.463  1.00  0.00     0.029 A 
ATOM     44  N   UNL A   1      42.833  30.937  29.018  1.00  0.00    -0.354 N 
ATOM     45  C   UNL A   1      46.167  29.416  26.904  1.00  0.00     0.074 A 
ATOM     46  C   UNL A   1      47.178  30.426  26.689  1.00  0.00     0.031 C 
ATOM     47  C   UNL A   1      41.669  32.423  30.210  1.00  0.00     0.029 A 
ATOM     48  C   UNL A   1      41.767  31.002  29.890  1.00  0.00     0.049 A 
ATOM     49  H   UNL A   1      43.141  30.097  28.605  1.00  0.00     0.167 HD
ATOM     50  C   UNL A   1      46.292  28.123  26.509  1.00  0.00     0.037 A 
ATOM     51  C   UNL A   1      40.918  30.060  30.354  1.00  0.00     0.037 A 
ATOM     52  C   UNL A   1      45.296  27.096  26.700  1.00  0.00     0.049 A 
ATOM     53  C   UNL A   1      41.009  28.664  29.813  1.00  0.00     0.074 A 
ATOM     54  C   UNL A   1      45.302  25.788  26.237  1.00  0.00     0.029 A 
ATOM     55  N   UNL A   1      44.116  27.257  27.405  1.00  0.00    -0.354 N 
ATOM     56  N   UNL A   1      41.957  28.114  29.100  1.00  0.00    -0.248 NA
ATOM     57  C   UNL A   1      39.859  27.782  30.068  1.00  0.00     0.031 C 
ATOM     58  C   UNL A   1      44.088  25.188  26.590  1.00  0.00     0.029 A 
ATOM     59  C   UNL A   1      43.356  26.097  27.333  1.00  0.00     0.049 A 
ATOM     60  H   UNL A   1      43.854  28.073  27.888  1.00  0.00     0.167 HD
ATOM     61  C   UNL A   1      41.491  26.851  28.761  1.00  0.00     0.074 A 
ATOM     62  C   UNL A   1      40.214  26.682  29.419  1.00  0.00     0.031 C 
ATOM     63  C   UNL A   1      42.057  25.939  27.934  1.00  0.00     0.037 A 
BRANCH  50  64
ATOM     64  C   UNL A   1      47.499  27.758  25.686  1.00  0.00     0.064 A 
ATOM     65  C   UNL A   1      48.719  27.365  26.251  1.00  0.00     0.173 A 
ATOM     66  C   UNL A   1      47.401  27.764  24.283  1.00  0.00     0.173 A 
ATOM     67  F   UNL A   1      48.874  27.351  27.584  1.00  0.00    -0.203 F 
ATOM     68  C   UNL A   1      49.801  27.012  25.443  1.00  0.00     0.198 A 
ATOM     69  C   UNL A   1      48.471  27.383  23.481  1.00  0.00     0.198 A 
ATOM     70  F   UNL A   1      46.251  28.121  23.690  1.00  0.00    -0.203 F 
ATOM     71  F   UNL A   1      50.973  26.676  26.001  1.00  0.00    -0.200 F 
ATOM     72  C   UNL A   1      49.674  27.015  24.060  1.00  0.00     0.200 A 
ATOM     73  F   UNL A   1      48.338  27.374  22.147  1.00  0.00    -0.200 F 
ATOM     74  F   UNL A   1      50.713  26.671  23.287  1.00  0.00    -0.200 F 
ENDBRANCH  50  64
BRANCH  51  75
ATOM     75  C   UNL A   1      39.829  30.446  31.299  1.00  0.00     0.064 A 
ATOM     76  C   UNL A   1      39.970  30.284  32.683  1.00  0.00     0.173 A 
ATOM     77  C   UNL A   1      38.635  31.025  30.836  1.00  0.00     0.173 A 
ATOM     78  F   UNL A   1      41.058  29.680  33.182  1.00  0.00    -0.203 F 
ATOM     79  C   UNL A   1      38.982  30.725  33.564  1.00  0.00     0.198 A 
ATOM     80  C   UNL A   1      37.680  31.522  31.716  1.00  0.00     0.198 A 
ATOM     81  F   UNL A   1      38.420  31.163  29.519  1.00  0.00    -0.203 F 
ATOM     82  F   UNL A   1      39.125  30.531  34.883  1.00  0.00    -0.200 F 
ATOM     83  C   UNL A   1      37.853  31.371  33.081  1.00  0.00     0.200 A 
ATOM     84  F   UNL A   1      36.606  32.166  31.239  1.00  0.00    -0.200 F 
ATOM     85  F   UNL A   1      36.930  31.843  33.930  1.00  0.00    -0.200 F 
ENDBRANCH  51  75
BRANCH  63  86
ATOM     86  C   UNL A   1      41.259  24.707  27.617  1.00  0.00     0.064 A 
ATOM     87  C   UNL A   1      40.167  24.768  26.735  1.00  0.00     0.173 A 
ATOM     88  C   UNL A   1      41.593  23.458  28.158  1.00  0.00     0.173 A 
ATOM     89  F   UNL A   1      39.797  25.942  26.198  1.00  0.00    -0.203 F 
ATOM     90  C   UNL A   1      39.426  23.630  26.428  1.00  0.00     0.198 A 
ATOM     91  C   UNL A   1      40.866  22.316  27.826  1.00  0.00     0.198 A 
ATOM     92  F   UNL A   1      42.630  23.341  29.001  1.00  0.00    -0.203 F 
ATOM     93  F   UNL A   1      38.361  23.724  25.620  1.00  0.00    -0.200 F 
ATOM     94  C   UNL A   1      39.780  22.404  26.969  1.00  0.00     0.200 A 
ATOM     95  F   UNL A   1      41.216  21.129  28.341  1.00  0.00    -0.200 F 
ATOM     96  F   UNL A   1      39.069  21.308  26.670  1.00  0.00    -0.200 F 
ENDBRANCH  63  86
ENDBRANCH  37  38
ENDBRANCH  30  32
ENDBRANCH  29  30
ENDBRANCH  28  29
ENDBRANCH   1  28
TORSDOF 16
ENDMDL
