MODEL 1
REMARK VINA RESULT:     -11.2      0.000      0.000
REMARK SMILES O=C(C[C@@H]1CN(C(=O)[C@H]2C[C@H](O)C[NH2+]2)CCO1)OCCOC(=O)c1ccc(-c2c3nc(c(-c4c(F)c(F)c(F)c(F)c4F)c4ccc([nH]4)c(-c4c(F)c(F)c(F)c(F)c4F)c4nc(c(-c5c(F)c(F)c(F)c(F)c5F)c5ccc2[nH]5)C=C4)C=C3)cc1
REMARK SMILES IDX 19 1 18 2 2 3 1 4 3 5 4 6 5 7 17 8 6 9 16 10 15 11 7 12 8 13
REMARK SMILES IDX 9 14 10 15 14 16 11 17 13 18 12 21 20 23 21 24 22 25 23 26
REMARK SMILES IDX 24 27 25 28 86 29 26 30 85 31 27 32 28 33 29 34 79 35 30 36
REMARK SMILES IDX 84 37 78 38 80 39 31 40 83 41 77 42 76 43 32 45 64 46 44 47
REMARK SMILES IDX 63 48 45 49 48 50 62 51 81 52 46 53 47 54 61 56 82 57 49 58
REMARK SMILES IDX 33 59 34 60 42 61 35 62 36 63 40 64 43 65 37 66 38 67 41 68
REMARK SMILES IDX 39 69 65 70 66 71 74 72 67 73 68 74 72 75 75 76 69 77 70 78
REMARK SMILES IDX 73 79 71 80 50 81 51 82 59 83 52 84 53 85 57 86 60 87 54 88
REMARK SMILES IDX 55 89 58 90 56 91
REMARK H PARENT 14 19 14 20 12 22 80 44 48 55
REMARK Flexibility Score: inf
ROOT
ATOM      1  C   UNL A   1      31.886  31.577  26.636  1.00  0.00     0.274 C 
ENDROOT
BRANCH   1   2
ATOM      2  O   UNL A   1      32.674  30.866  27.620  1.00  0.00    -0.462 OA
BRANCH   2   3
ATOM      3  C   UNL A   1      33.762  30.107  27.369  1.00  0.00     0.308 C 
ATOM      4  O   UNL A   1      34.866  30.635  27.250  1.00  0.00    -0.252 OA
BRANCH   3   5
ATOM      5  C   UNL A   1      33.641  28.608  27.376  1.00  0.00     0.156 C 
BRANCH   5   6
ATOM      6  C   UNL A   1      33.404  28.038  25.988  1.00  0.00     0.148 C 
ATOM      7  C   UNL A   1      32.002  28.339  25.432  1.00  0.00     0.152 C 
ATOM      8  O   UNL A   1      33.594  26.606  26.053  1.00  0.00    -0.374 OA
ATOM      9  N   UNL A   1      31.916  27.794  24.083  1.00  0.00    -0.333 N 
ATOM     10  C   UNL A   1      33.485  26.008  24.745  1.00  0.00     0.182 C 
ATOM     11  C   UNL A   1      32.150  26.345  24.059  1.00  0.00     0.148 C 
BRANCH   9  12
ATOM     12  C   UNL A   1      31.787  28.491  22.891  1.00  0.00     0.281 C 
ATOM     13  O   UNL A   1      32.788  28.960  22.336  1.00  0.00    -0.268 OA
BRANCH  12  14
ATOM     14  C   UNL A   1      30.401  28.724  22.239  1.00  0.00     0.275 C 
ATOM     15  C   UNL A   1      29.177  28.500  23.126  1.00  0.00     0.113 C 
ATOM     16  N   UNL A   1      30.278  30.079  21.627  1.00  0.00    -0.334 N 
ATOM     17  C   UNL A   1      28.294  29.723  22.899  1.00  0.00     0.175 C 
ATOM     18  C   UNL A   1      28.831  30.329  21.606  1.00  0.00     0.293 C 
ATOM     19  H   UNL A   1      30.661  30.085  20.683  1.00  0.00     0.347 HD
ATOM     20  H   UNL A   1      30.792  30.790  22.146  1.00  0.00     0.347 HD
BRANCH  17  21
ATOM     21  O   UNL A   1      26.932  29.347  22.797  1.00  0.00    -0.387 OA
ATOM     22  H   UNL A   1      26.387  30.139  22.668  1.00  0.00     0.211 HD
ENDBRANCH  17  21
ENDBRANCH  12  14
ENDBRANCH   9  12
ENDBRANCH   5   6
ENDBRANCH   3   5
ENDBRANCH   2   3
ENDBRANCH   1   2
BRANCH   1  23
ATOM     23  C   UNL A   1      31.785  33.062  26.979  1.00  0.00     0.275 C 
BRANCH  23  24
ATOM     24  O   UNL A   1      33.108  33.579  27.194  1.00  0.00    -0.458 OA
BRANCH  24  25
ATOM     25  C   UNL A   1      33.273  34.316  28.323  1.00  0.00     0.338 C 
ATOM     26  O   UNL A   1      32.528  35.173  28.748  1.00  0.00    -0.246 OA
BRANCH  25  27
ATOM     27  C   UNL A   1      34.413  33.754  29.087  1.00  0.00     0.060 A 
ATOM     28  C   UNL A   1      35.695  34.238  28.796  1.00  0.00     0.016 A 
ATOM     29  C   UNL A   1      34.230  32.814  30.109  1.00  0.00     0.016 A 
ATOM     30  C   UNL A   1      36.799  33.749  29.492  1.00  0.00     0.010 A 
ATOM     31  C   UNL A   1      35.336  32.330  30.812  1.00  0.00     0.010 A 
ATOM     32  C   UNL A   1      36.627  32.769  30.479  1.00  0.00    -0.014 A 
BRANCH  32  33
ATOM     33  C   UNL A   1      37.816  32.075  31.025  1.00  0.00     0.031 A 
ATOM     34  C   UNL A   1      38.292  32.453  32.400  1.00  0.00     0.074 A 
ATOM     35  C   UNL A   1      38.438  31.106  30.332  1.00  0.00     0.049 A 
ATOM     36  N   UNL A   1      39.255  31.937  33.118  1.00  0.00    -0.248 NA
ATOM     37  C   UNL A   1      37.584  33.568  33.051  1.00  0.00     0.031 C 
ATOM     38  C   UNL A   1      38.078  30.661  28.988  1.00  0.00     0.029 A 
ATOM     39  N   UNL A   1      39.511  30.321  30.673  1.00  0.00    -0.354 N 
ATOM     40  C   UNL A   1      39.248  32.643  34.313  1.00  0.00     0.074 A 
ATOM     41  C   UNL A   1      38.230  33.664  34.202  1.00  0.00     0.031 C 
ATOM     42  C   UNL A   1      38.923  29.683  28.613  1.00  0.00     0.029 A 
ATOM     43  C   UNL A   1      39.879  29.437  29.691  1.00  0.00     0.049 A 
ATOM     44  H   UNL A   1      39.972  30.387  31.540  1.00  0.00     0.167 HD
ATOM     45  C   UNL A   1      40.005  32.442  35.418  1.00  0.00     0.037 A 
ATOM     46  C   UNL A   1      40.877  28.531  29.674  1.00  0.00     0.037 A 
ATOM     47  C   UNL A   1      41.036  31.446  35.521  1.00  0.00     0.049 A 
ATOM     48  C   UNL A   1      41.738  28.357  30.899  1.00  0.00     0.074 A 
ATOM     49  C   UNL A   1      41.865  31.167  36.592  1.00  0.00     0.029 A 
ATOM     50  N   UNL A   1      41.385  30.570  34.503  1.00  0.00    -0.354 N 
ATOM     51  N   UNL A   1      41.685  28.987  32.048  1.00  0.00    -0.248 NA
ATOM     52  C   UNL A   1      42.785  27.327  30.831  1.00  0.00     0.031 C 
ATOM     53  C   UNL A   1      42.741  30.144  36.210  1.00  0.00     0.029 A 
ATOM     54  C   UNL A   1      42.429  29.759  34.916  1.00  0.00     0.049 A 
ATOM     55  H   UNL A   1      40.955  30.532  33.619  1.00  0.00     0.167 HD
ATOM     56  C   UNL A   1      42.670  28.417  32.844  1.00  0.00     0.074 A 
ATOM     57  C   UNL A   1      43.293  27.374  32.055  1.00  0.00     0.031 C 
ATOM     58  C   UNL A   1      43.032  28.726  34.114  1.00  0.00     0.037 A 
BRANCH  45  59
ATOM     59  C   UNL A   1      39.734  33.323  36.600  1.00  0.00     0.064 A 
ATOM     60  C   UNL A   1      38.819  32.942  37.594  1.00  0.00     0.173 A 
ATOM     61  C   UNL A   1      40.397  34.547  36.749  1.00  0.00     0.173 A 
ATOM     62  F   UNL A   1      38.143  31.788  37.484  1.00  0.00    -0.203 F 
ATOM     63  C   UNL A   1      38.562  33.769  38.684  1.00  0.00     0.198 A 
ATOM     64  C   UNL A   1      40.156  35.360  37.854  1.00  0.00     0.198 A 
ATOM     65  F   UNL A   1      41.278  34.958  35.824  1.00  0.00    -0.203 F 
ATOM     66  F   UNL A   1      37.650  33.407  39.597  1.00  0.00    -0.200 F 
ATOM     67  C   UNL A   1      39.234  34.973  38.816  1.00  0.00     0.200 A 
ATOM     68  F   UNL A   1      40.811  36.523  37.984  1.00  0.00    -0.200 F 
ATOM     69  F   UNL A   1      38.988  35.768  39.867  1.00  0.00    -0.200 F 
ENDBRANCH  45  59
BRANCH  46  70
ATOM     70  C   UNL A   1      41.113  27.705  28.462  1.00  0.00     0.064 A 
ATOM     71  C   UNL A   1      42.000  28.122  27.460  1.00  0.00     0.173 A 
ATOM     72  C   UNL A   1      40.426  26.498  28.265  1.00  0.00     0.173 A 
ATOM     73  F   UNL A   1      42.660  29.282  27.591  1.00  0.00    -0.203 F 
ATOM     74  C   UNL A   1      42.171  27.376  26.295  1.00  0.00     0.198 A 
ATOM     75  C   UNL A   1      40.618  25.740  27.111  1.00  0.00     0.198 A 
ATOM     76  F   UNL A   1      39.564  26.056  29.193  1.00  0.00    -0.203 F 
ATOM     77  F   UNL A   1      42.985  27.825  25.330  1.00  0.00    -0.200 F 
ATOM     78  C   UNL A   1      41.483  26.185  26.123  1.00  0.00     0.200 A 
ATOM     79  F   UNL A   1      39.957  24.585  26.953  1.00  0.00    -0.200 F 
ATOM     80  F   UNL A   1      41.644  25.471  25.001  1.00  0.00    -0.200 F 
ENDBRANCH  46  70
BRANCH  58  81
ATOM     81  C   UNL A   1      44.133  27.915  34.732  1.00  0.00     0.064 A 
ATOM     82  C   UNL A   1      45.476  28.305  34.632  1.00  0.00     0.173 A 
ATOM     83  C   UNL A   1      43.838  26.750  35.456  1.00  0.00     0.173 A 
ATOM     84  F   UNL A   1      45.810  29.404  33.938  1.00  0.00    -0.203 F 
ATOM     85  C   UNL A   1      46.487  27.541  35.208  1.00  0.00     0.198 A 
ATOM     86  C   UNL A   1      44.849  26.004  36.055  1.00  0.00     0.198 A 
ATOM     87  F   UNL A   1      42.568  26.339  35.589  1.00  0.00    -0.203 F 
ATOM     88  F   UNL A   1      47.768  27.905  35.057  1.00  0.00    -0.200 F 
ATOM     89  C   UNL A   1      46.173  26.395  35.923  1.00  0.00     0.200 A 
ATOM     90  F   UNL A   1      44.542  24.904  36.757  1.00  0.00    -0.200 F 
ATOM     91  F   UNL A   1      47.147  25.662  36.479  1.00  0.00    -0.200 F 
ENDBRANCH  58  81
ENDBRANCH  32  33
ENDBRANCH  25  27
ENDBRANCH  24  25
ENDBRANCH  23  24
ENDBRANCH   1  23
TORSDOF 15
ENDMDL
MODEL 2
REMARK VINA RESULT:     -11.1      2.721      4.147
REMARK SMILES O=C(C[C@@H]1CN(C(=O)[C@H]2C[C@H](O)C[NH2+]2)CCO1)OCCOC(=O)c1ccc(-c2c3nc(c(-c4c(F)c(F)c(F)c(F)c4F)c4ccc([nH]4)c(-c4c(F)c(F)c(F)c(F)c4F)c4nc(c(-c5c(F)c(F)c(F)c(F)c5F)c5ccc2[nH]5)C=C4)C=C3)cc1
REMARK SMILES IDX 19 1 18 2 2 3 1 4 3 5 4 6 5 7 17 8 6 9 16 10 15 11 7 12 8 13
REMARK SMILES IDX 9 14 10 15 14 16 11 17 13 18 12 21 20 23 21 24 22 25 23 26
REMARK SMILES IDX 24 27 25 28 86 29 26 30 85 31 27 32 28 33 29 34 79 35 30 36
REMARK SMILES IDX 84 37 78 38 80 39 31 40 83 41 77 42 76 43 32 45 64 46 44 47
REMARK SMILES IDX 63 48 45 49 48 50 62 51 81 52 46 53 47 54 61 56 82 57 49 58
REMARK SMILES IDX 33 59 34 60 42 61 35 62 36 63 40 64 43 65 37 66 38 67 41 68
REMARK SMILES IDX 39 69 65 70 66 71 74 72 67 73 68 74 72 75 75 76 69 77 70 78
REMARK SMILES IDX 73 79 71 80 50 81 51 82 59 83 52 84 53 85 57 86 60 87 54 88
REMARK SMILES IDX 55 89 58 90 56 91
REMARK H PARENT 14 19 14 20 12 22 80 44 48 55
REMARK Flexibility Score: inf
ROOT
ATOM      1  C   UNL A   1      32.009  29.804  25.390  1.00  0.00     0.274 C 
ENDROOT
BRANCH   1   2
ATOM      2  O   UNL A   1      31.402  28.598  25.910  1.00  0.00    -0.462 OA
BRANCH   2   3
ATOM      3  C   UNL A   1      31.979  27.721  26.759  1.00  0.00     0.308 C 
ATOM      4  O   UNL A   1      31.596  27.652  27.926  1.00  0.00    -0.252 OA
BRANCH   3   5
ATOM      5  C   UNL A   1      32.988  26.736  26.238  1.00  0.00     0.156 C 
BRANCH   5   6
ATOM      6  C   UNL A   1      32.479  25.305  26.280  1.00  0.00     0.148 C 
ATOM      7  C   UNL A   1      32.904  24.468  25.062  1.00  0.00     0.152 C 
ATOM      8  O   UNL A   1      31.037  25.344  26.351  1.00  0.00    -0.374 OA
ATOM      9  N   UNL A   1      32.409  23.109  25.243  1.00  0.00    -0.333 N 
ATOM     10  C   UNL A   1      30.487  24.018  26.498  1.00  0.00     0.182 C 
ATOM     11  C   UNL A   1      30.947  23.070  25.376  1.00  0.00     0.148 C 
BRANCH   9  12
ATOM     12  C   UNL A   1      33.149  21.952  25.433  1.00  0.00     0.281 C 
ATOM     13  O   UNL A   1      34.341  22.024  25.752  1.00  0.00    -0.268 OA
BRANCH  12  14
ATOM     14  C   UNL A   1      32.520  20.550  25.229  1.00  0.00     0.275 C 
ATOM     15  C   UNL A   1      32.528  19.992  23.807  1.00  0.00     0.113 C 
ATOM     16  N   UNL A   1      33.120  19.520  26.126  1.00  0.00    -0.334 N 
ATOM     17  C   UNL A   1      33.039  18.561  23.945  1.00  0.00     0.175 C 
ATOM     18  C   UNL A   1      32.866  18.252  25.429  1.00  0.00     0.293 C 
ATOM     19  H   UNL A   1      32.668  19.528  27.040  1.00  0.00     0.347 HD
ATOM     20  H   UNL A   1      34.112  19.681  26.299  1.00  0.00     0.347 HD
BRANCH  17  21
ATOM     21  O   UNL A   1      32.297  17.683  23.118  1.00  0.00    -0.387 OA
ATOM     22  H   UNL A   1      32.363  16.779  23.465  1.00  0.00     0.211 HD
ENDBRANCH  17  21
ENDBRANCH  12  14
ENDBRANCH   9  12
ENDBRANCH   5   6
ENDBRANCH   3   5
ENDBRANCH   2   3
ENDBRANCH   1   2
BRANCH   1  23
ATOM     23  C   UNL A   1      31.811  30.978  26.348  1.00  0.00     0.275 C 
BRANCH  23  24
ATOM     24  O   UNL A   1      32.762  30.866  27.420  1.00  0.00    -0.458 OA
BRANCH  24  25
ATOM     25  C   UNL A   1      33.543  31.958  27.626  1.00  0.00     0.338 C 
ATOM     26  O   UNL A   1      33.192  33.118  27.607  1.00  0.00    -0.246 OA
BRANCH  25  27
ATOM     27  C   UNL A   1      34.871  31.499  28.102  1.00  0.00     0.060 A 
ATOM     28  C   UNL A   1      35.044  30.128  28.330  1.00  0.00     0.016 A 
ATOM     29  C   UNL A   1      35.945  32.382  28.269  1.00  0.00     0.016 A 
ATOM     30  C   UNL A   1      36.276  29.645  28.768  1.00  0.00     0.010 A 
ATOM     31  C   UNL A   1      37.181  31.897  28.702  1.00  0.00     0.010 A 
ATOM     32  C   UNL A   1      37.339  30.531  28.989  1.00  0.00    -0.014 A 
BRANCH  32  33
ATOM     33  C   UNL A   1      38.548  30.051  29.694  1.00  0.00     0.031 A 
ATOM     34  C   UNL A   1      38.805  30.552  31.088  1.00  0.00     0.074 A 
ATOM     35  C   UNL A   1      39.380  29.161  29.126  1.00  0.00     0.049 A 
ATOM     36  N   UNL A   1      39.747  30.220  31.931  1.00  0.00    -0.248 NA
ATOM     37  C   UNL A   1      37.872  31.571  31.597  1.00  0.00     0.031 C 
ATOM     38  C   UNL A   1      39.243  28.613  27.780  1.00  0.00     0.029 A 
ATOM     39  N   UNL A   1      40.512  28.565  29.622  1.00  0.00    -0.354 N 
ATOM     40  C   UNL A   1      39.502  30.963  33.077  1.00  0.00     0.074 A 
ATOM     41  C   UNL A   1      38.363  31.811  32.802  1.00  0.00     0.031 C 
ATOM     42  C   UNL A   1      40.260  27.761  27.552  1.00  0.00     0.029 A 
ATOM     43  C   UNL A   1      41.116  27.708  28.737  1.00  0.00     0.049 A 
ATOM     44  H   UNL A   1      40.858  28.736  30.528  1.00  0.00     0.167 HD
ATOM     45  C   UNL A   1      40.152  30.926  34.264  1.00  0.00     0.037 A 
ATOM     46  C   UNL A   1      42.232  26.967  28.875  1.00  0.00     0.037 A 
ATOM     47  C   UNL A   1      41.301  30.105  34.532  1.00  0.00     0.049 A 
ATOM     48  C   UNL A   1      42.966  26.976  30.192  1.00  0.00     0.074 A 
ATOM     49  C   UNL A   1      42.036  30.000  35.698  1.00  0.00     0.029 A 
ATOM     50  N   UNL A   1      41.887  29.253  33.608  1.00  0.00    -0.354 N 
ATOM     51  N   UNL A   1      42.692  27.636  31.291  1.00  0.00    -0.248 NA
ATOM     52  C   UNL A   1      44.155  26.117  30.293  1.00  0.00     0.031 C 
ATOM     53  C   UNL A   1      43.092  29.109  35.469  1.00  0.00     0.029 A 
ATOM     54  C   UNL A   1      42.986  28.628  34.173  1.00  0.00     0.049 A 
ATOM     55  H   UNL A   1      41.569  29.113  32.687  1.00  0.00     0.167 HD
ATOM     56  C   UNL A   1      43.655  27.256  32.218  1.00  0.00     0.074 A 
ATOM     57  C   UNL A   1      44.509  26.291  31.558  1.00  0.00     0.031 C 
ATOM     58  C   UNL A   1      43.822  27.669  33.499  1.00  0.00     0.037 A 
BRANCH  45  59
ATOM     59  C   UNL A   1      39.622  31.802  35.360  1.00  0.00     0.064 A 
ATOM     60  C   UNL A   1      40.082  33.118  35.522  1.00  0.00     0.173 A 
ATOM     61  C   UNL A   1      38.643  31.331  36.244  1.00  0.00     0.173 A 
ATOM     62  F   UNL A   1      41.033  33.606  34.713  1.00  0.00    -0.203 F 
ATOM     63  C   UNL A   1      39.595  33.923  36.548  1.00  0.00     0.198 A 
ATOM     64  C   UNL A   1      38.141  32.149  37.254  1.00  0.00     0.198 A 
ATOM     65  F   UNL A   1      38.174  30.079  36.132  1.00  0.00    -0.203 F 
ATOM     66  F   UNL A   1      40.081  35.161  36.715  1.00  0.00    -0.200 F 
ATOM     67  C   UNL A   1      38.621  33.441  37.408  1.00  0.00     0.200 A 
ATOM     68  F   UNL A   1      37.195  31.682  38.082  1.00  0.00    -0.200 F 
ATOM     69  F   UNL A   1      38.152  34.217  38.395  1.00  0.00    -0.200 F 
ENDBRANCH  45  59
BRANCH  46  70
ATOM     70  C   UNL A   1      42.722  26.138  27.744  1.00  0.00     0.064 A 
ATOM     71  C   UNL A   1      43.704  26.616  26.866  1.00  0.00     0.173 A 
ATOM     72  C   UNL A   1      42.189  24.864  27.496  1.00  0.00     0.173 A 
ATOM     73  F   UNL A   1      44.225  27.839  27.045  1.00  0.00    -0.203 F 
ATOM     74  C   UNL A   1      44.116  25.863  25.768  1.00  0.00     0.198 A 
ATOM     75  C   UNL A   1      42.621  24.101  26.414  1.00  0.00     0.198 A 
ATOM     76  F   UNL A   1      41.245  24.363  28.307  1.00  0.00    -0.203 F 
ATOM     77  F   UNL A   1      45.018  26.366  24.914  1.00  0.00    -0.200 F 
ATOM     78  C   UNL A   1      43.577  24.605  25.545  1.00  0.00     0.200 A 
ATOM     79  F   UNL A   1      42.103  22.883  26.207  1.00  0.00    -0.200 F 
ATOM     80  F   UNL A   1      43.970  23.883  24.487  1.00  0.00    -0.200 F 
ENDBRANCH  46  70
BRANCH  58  81
ATOM     81  C   UNL A   1      44.955  27.062  34.273  1.00  0.00     0.064 A 
ATOM     82  C   UNL A   1      46.222  27.660  34.310  1.00  0.00     0.173 A 
ATOM     83  C   UNL A   1      44.761  25.883  35.011  1.00  0.00     0.173 A 
ATOM     84  F   UNL A   1      46.461  28.780  33.611  1.00  0.00    -0.203 F 
ATOM     85  C   UNL A   1      47.264  27.084  35.031  1.00  0.00     0.198 A 
ATOM     86  C   UNL A   1      45.798  25.326  35.754  1.00  0.00     0.198 A 
ATOM     87  F   UNL A   1      43.564  25.276  35.016  1.00  0.00    -0.203 F 
ATOM     88  F   UNL A   1      48.481  27.645  35.012  1.00  0.00    -0.200 F 
ATOM     89  C   UNL A   1      47.050  25.921  35.756  1.00  0.00     0.200 A 
ATOM     90  F   UNL A   1      45.585  24.209  36.465  1.00  0.00    -0.200 F 
ATOM     91  F   UNL A   1      48.054  25.368  36.452  1.00  0.00    -0.200 F 
ENDBRANCH  58  81
ENDBRANCH  32  33
ENDBRANCH  25  27
ENDBRANCH  24  25
ENDBRANCH  23  24
ENDBRANCH   1  23
TORSDOF 15
ENDMDL
MODEL 3
REMARK VINA RESULT:     -11.1      1.443      2.233
REMARK SMILES O=C(C[C@@H]1CN(C(=O)[C@H]2C[C@H](O)C[NH2+]2)CCO1)OCCOC(=O)c1ccc(-c2c3nc(c(-c4c(F)c(F)c(F)c(F)c4F)c4ccc([nH]4)c(-c4c(F)c(F)c(F)c(F)c4F)c4nc(c(-c5c(F)c(F)c(F)c(F)c5F)c5ccc2[nH]5)C=C4)C=C3)cc1
REMARK SMILES IDX 19 1 18 2 2 3 1 4 3 5 4 6 5 7 17 8 6 9 16 10 15 11 7 12 8 13
REMARK SMILES IDX 9 14 10 15 14 16 11 17 13 18 12 21 20 23 21 24 22 25 23 26
REMARK SMILES IDX 24 27 25 28 86 29 26 30 85 31 27 32 28 33 29 34 79 35 30 36
REMARK SMILES IDX 84 37 78 38 80 39 31 40 83 41 77 42 76 43 32 45 64 46 44 47
REMARK SMILES IDX 63 48 45 49 48 50 62 51 81 52 46 53 47 54 61 56 82 57 49 58
REMARK SMILES IDX 33 59 34 60 42 61 35 62 36 63 40 64 43 65 37 66 38 67 41 68
REMARK SMILES IDX 39 69 65 70 66 71 74 72 67 73 68 74 72 75 75 76 69 77 70 78
REMARK SMILES IDX 73 79 71 80 50 81 51 82 59 83 52 84 53 85 57 86 60 87 54 88
REMARK SMILES IDX 55 89 58 90 56 91
REMARK H PARENT 14 19 14 20 12 22 80 44 48 55
REMARK Flexibility Score: inf
ROOT
ATOM      1  C   UNL A   1      31.621  31.169  26.338  1.00  0.00     0.274 C 
ENDROOT
BRANCH   1   2
ATOM      2  O   UNL A   1      32.820  30.358  26.338  1.00  0.00    -0.462 OA
BRANCH   2   3
ATOM      3  C   UNL A   1      32.893  29.049  26.658  1.00  0.00     0.308 C 
ATOM      4  O   UNL A   1      32.490  28.660  27.753  1.00  0.00    -0.252 OA
BRANCH   3   5
ATOM      5  C   UNL A   1      33.337  28.053  25.622  1.00  0.00     0.156 C 
BRANCH   5   6
ATOM      6  C   UNL A   1      32.495  28.115  24.359  1.00  0.00     0.148 C 
ATOM      7  C   UNL A   1      31.069  27.570  24.545  1.00  0.00     0.152 C 
ATOM      8  O   UNL A   1      33.168  27.349  23.334  1.00  0.00    -0.374 OA
ATOM      9  N   UNL A   1      30.347  27.734  23.290  1.00  0.00    -0.333 N 
ATOM     10  C   UNL A   1      32.474  27.449  22.072  1.00  0.00     0.182 C 
ATOM     11  C   UNL A   1      31.000  27.024  22.183  1.00  0.00     0.148 C 
BRANCH   9  12
ATOM     12  C   UNL A   1      29.261  28.557  23.035  1.00  0.00     0.281 C 
ATOM     13  O   UNL A   1      28.110  28.112  23.125  1.00  0.00    -0.268 OA
BRANCH  12  14
ATOM     14  C   UNL A   1      29.452  30.036  22.611  1.00  0.00     0.275 C 
ATOM     15  C   UNL A   1      28.429  30.608  21.631  1.00  0.00     0.113 C 
ATOM     16  N   UNL A   1      29.529  30.960  23.779  1.00  0.00    -0.334 N 
ATOM     17  C   UNL A   1      28.019  31.952  22.225  1.00  0.00     0.175 C 
ATOM     18  C   UNL A   1      29.125  32.260  23.231  1.00  0.00     0.293 C 
ATOM     19  H   UNL A   1      30.479  31.000  24.146  1.00  0.00     0.347 HD
ATOM     20  H   UNL A   1      28.939  30.659  24.555  1.00  0.00     0.347 HD
BRANCH  17  21
ATOM     21  O   UNL A   1      27.917  32.937  21.212  1.00  0.00    -0.387 OA
ATOM     22  H   UNL A   1      28.596  32.778  20.537  1.00  0.00     0.211 HD
ENDBRANCH  17  21
ENDBRANCH  12  14
ENDBRANCH   9  12
ENDBRANCH   5   6
ENDBRANCH   3   5
ENDBRANCH   2   3
ENDBRANCH   1   2
BRANCH   1  23
ATOM     23  C   UNL A   1      31.905  32.572  26.871  1.00  0.00     0.275 C 
BRANCH  23  24
ATOM     24  O   UNL A   1      32.844  32.476  27.954  1.00  0.00    -0.458 OA
BRANCH  24  25
ATOM     25  C   UNL A   1      33.850  33.387  27.940  1.00  0.00     0.338 C 
ATOM     26  O   UNL A   1      33.747  34.582  27.759  1.00  0.00    -0.246 OA
BRANCH  25  27
ATOM     27  C   UNL A   1      35.092  32.722  28.404  1.00  0.00     0.060 A 
ATOM     28  C   UNL A   1      34.998  31.388  28.822  1.00  0.00     0.016 A 
ATOM     29  C   UNL A   1      36.334  33.366  28.377  1.00  0.00     0.016 A 
ATOM     30  C   UNL A   1      36.138  30.714  29.258  1.00  0.00     0.010 A 
ATOM     31  C   UNL A   1      37.477  32.688  28.807  1.00  0.00     0.010 A 
ATOM     32  C   UNL A   1      37.375  31.372  29.285  1.00  0.00    -0.014 A 
BRANCH  32  33
ATOM     33  C   UNL A   1      38.516  30.741  29.985  1.00  0.00     0.031 A 
ATOM     34  C   UNL A   1      38.769  31.118  31.418  1.00  0.00     0.074 A 
ATOM     35  C   UNL A   1      39.289  29.825  29.376  1.00  0.00     0.049 A 
ATOM     36  N   UNL A   1      39.652  30.647  32.260  1.00  0.00    -0.248 NA
ATOM     37  C   UNL A   1      37.908  32.175  31.975  1.00  0.00     0.031 C 
ATOM     38  C   UNL A   1      39.151  29.387  27.990  1.00  0.00     0.029 A 
ATOM     39  N   UNL A   1      40.350  29.100  29.857  1.00  0.00    -0.354 N 
ATOM     40  C   UNL A   1      39.432  31.327  33.450  1.00  0.00     0.074 A 
ATOM     41  C   UNL A   1      38.378  32.286  33.207  1.00  0.00     0.031 C 
ATOM     42  C   UNL A   1      40.100  28.469  27.728  1.00  0.00     0.029 A 
ATOM     43  C   UNL A   1      40.909  28.260  28.927  1.00  0.00     0.049 A 
ATOM     44  H   UNL A   1      40.680  29.176  30.781  1.00  0.00     0.167 HD
ATOM     45  C   UNL A   1      40.037  31.150  34.648  1.00  0.00     0.037 A 
ATOM     46  C   UNL A   1      41.954  27.417  29.041  1.00  0.00     0.037 A 
ATOM     47  C   UNL A   1      41.104  30.216  34.885  1.00  0.00     0.049 A 
ATOM     48  C   UNL A   1      42.643  27.270  30.374  1.00  0.00     0.074 A 
ATOM     49  C   UNL A   1      41.790  29.967  36.060  1.00  0.00     0.029 A 
ATOM     50  N   UNL A   1      41.647  29.385  33.917  1.00  0.00    -0.354 N 
ATOM     51  N   UNL A   1      42.389  27.873  31.511  1.00  0.00    -0.248 NA
ATOM     52  C   UNL A   1      43.752  26.308  30.443  1.00  0.00     0.031 C 
ATOM     53  C   UNL A   1      42.774  29.007  35.794  1.00  0.00     0.029 A 
ATOM     54  C   UNL A   1      42.671  28.630  34.464  1.00  0.00     0.049 A 
ATOM     55  H   UNL A   1      41.349  29.338  32.980  1.00  0.00     0.167 HD
ATOM     56  C   UNL A   1      43.286  27.347  32.432  1.00  0.00     0.074 A 
ATOM     57  C   UNL A   1      44.078  26.360  31.727  1.00  0.00     0.031 C 
ATOM     58  C   UNL A   1      43.445  27.652  33.744  1.00  0.00     0.037 A 
BRANCH  45  59
ATOM     59  C   UNL A   1      39.547  31.988  35.790  1.00  0.00     0.064 A 
ATOM     60  C   UNL A   1      40.112  33.244  36.063  1.00  0.00     0.173 A 
ATOM     61  C   UNL A   1      38.502  31.544  36.609  1.00  0.00     0.173 A 
ATOM     62  F   UNL A   1      41.130  33.703  35.319  1.00  0.00    -0.203 F 
ATOM     63  C   UNL A   1      39.661  34.014  37.131  1.00  0.00     0.198 A 
ATOM     64  C   UNL A   1      38.037  32.328  37.662  1.00  0.00     0.198 A 
ATOM     65  F   UNL A   1      37.932  30.349  36.391  1.00  0.00    -0.203 F 
ATOM     66  F   UNL A   1      40.246  35.189  37.403  1.00  0.00    -0.200 F 
ATOM     67  C   UNL A   1      38.621  33.558  37.926  1.00  0.00     0.200 A 
ATOM     68  F   UNL A   1      37.027  31.889  38.427  1.00  0.00    -0.200 F 
ATOM     69  F   UNL A   1      38.186  34.301  38.954  1.00  0.00    -0.200 F 
ENDBRANCH  45  59
BRANCH  46  70
ATOM     70  C   UNL A   1      42.409  26.632  27.866  1.00  0.00     0.064 A 
ATOM     71  C   UNL A   1      43.380  27.134  26.988  1.00  0.00     0.173 A 
ATOM     72  C   UNL A   1      41.854  25.377  27.575  1.00  0.00     0.173 A 
ATOM     73  F   UNL A   1      43.921  28.341  27.209  1.00  0.00    -0.203 F 
ATOM     74  C   UNL A   1      43.760  26.423  25.851  1.00  0.00     0.198 A 
ATOM     75  C   UNL A   1      42.254  24.655  26.452  1.00  0.00     0.198 A 
ATOM     76  F   UNL A   1      40.920  24.853  28.383  1.00  0.00    -0.203 F 
ATOM     77  F   UNL A   1      44.651  26.951  25.001  1.00  0.00    -0.200 F 
ATOM     78  C   UNL A   1      43.199  25.183  25.586  1.00  0.00     0.200 A 
ATOM     79  F   UNL A   1      41.715  23.453  26.204  1.00  0.00    -0.200 F 
ATOM     80  F   UNL A   1      43.560  24.502  24.490  1.00  0.00    -0.200 F 
ENDBRANCH  46  70
BRANCH  58  81
ATOM     81  C   UNL A   1      44.497  26.897  34.502  1.00  0.00     0.064 A 
ATOM     82  C   UNL A   1      45.806  27.385  34.624  1.00  0.00     0.173 A 
ATOM     83  C   UNL A   1      44.184  25.685  35.138  1.00  0.00     0.173 A 
ATOM     84  F   UNL A   1      46.158  28.532  34.024  1.00  0.00    -0.203 F 
ATOM     85  C   UNL A   1      46.772  26.672  35.329  1.00  0.00     0.198 A 
ATOM     86  C   UNL A   1      45.145  24.990  35.865  1.00  0.00     0.198 A 
ATOM     87  F   UNL A   1      42.944  25.180  35.059  1.00  0.00    -0.203 F 
ATOM     88  F   UNL A   1      48.029  27.131  35.390  1.00  0.00    -0.200 F 
ATOM     89  C   UNL A   1      46.440  25.478  35.953  1.00  0.00     0.200 A 
ATOM     90  F   UNL A   1      44.819  23.843  36.479  1.00  0.00    -0.200 F 
ATOM     91  F   UNL A   1      47.371  24.794  36.632  1.00  0.00    -0.200 F 
ENDBRANCH  58  81
ENDBRANCH  32  33
ENDBRANCH  25  27
ENDBRANCH  24  25
ENDBRANCH  23  24
ENDBRANCH   1  23
TORSDOF 15
ENDMDL
