MODEL 1
REMARK VINA RESULT:     -13.1      0.000      0.000
REMARK SMILES O=C(CC[C@H]1CCCC[N@@H+]1C[C@@H]1COc2ccccc21)OCCOC(=O)c1ccc(-c2c3nc(c(-c4c(F)c(F)c(F)c(F)c4F)c4ccc([nH]4)c(-c4c(F)c(F)c(F)c(F)c4F)c4nc(c(-c5c(F)c(F)c(F)c(F)c5F)c5ccc2[nH]5)C=C4)C=C3)cc1
REMARK SMILES IDX 22 1 21 2 2 3 1 4 3 5 4 6 5 7 6 8 10 9 7 10 9 11 8 13 11 14
REMARK SMILES IDX 12 15 13 16 20 17 14 18 15 19 19 20 16 21 18 22 17 23 23 24
REMARK SMILES IDX 24 25 25 26 26 27 27 28 28 29 89 30 29 31 88 32 30 33 31 34
REMARK SMILES IDX 32 35 82 36 33 37 87 38 81 39 83 40 34 41 86 42 80 43 79 44
REMARK SMILES IDX 35 46 67 47 47 48 66 49 48 50 51 51 65 52 84 53 49 54 50 55
REMARK SMILES IDX 64 57 85 58 52 59 36 60 37 61 45 62 38 63 39 64 43 65 46 66
REMARK SMILES IDX 40 67 41 68 44 69 42 70 68 71 69 72 77 73 70 74 71 75 75 76
REMARK SMILES IDX 78 77 72 78 73 79 76 80 74 81 53 82 54 83 62 84 55 85 56 86
REMARK SMILES IDX 60 87 63 88 57 89 58 90 61 91 59 92
REMARK H PARENT 10 12 83 45 51 56
REMARK Flexibility Score: inf
ROOT
ATOM      1  C   UNL A   1      33.063  28.474  23.982  1.00  0.00     0.274 C 
ENDROOT
BRANCH   1   2
ATOM      2  O   UNL A   1      33.030  27.475  22.729  1.00  0.00    -0.462 OA
BRANCH   2   3
ATOM      3  C   UNL A   1      32.897  26.185  22.252  1.00  0.00     0.306 C 
ATOM      4  O   UNL A   1      33.656  25.868  21.319  1.00  0.00    -0.252 OA
BRANCH   3   5
ATOM      5  C   UNL A   1      31.665  25.186  22.415  1.00  0.00     0.129 C 
BRANCH   5   6
ATOM      6  C   UNL A   1      31.026  24.668  23.703  1.00  0.00     0.077 C 
BRANCH   6   7
ATOM      7  C   UNL A   1      31.791  24.948  25.003  1.00  0.00     0.184 C 
ATOM      8  C   UNL A   1      30.803  24.887  26.100  1.00  0.00     0.065 C 
ATOM      9  N   UNL A   1      32.925  24.112  25.344  1.00  0.00    -0.332 N 
ATOM     10  C   UNL A   1      30.515  23.463  26.649  1.00  0.00     0.012 C 
ATOM     11  C   UNL A   1      32.838  23.102  26.411  1.00  0.00     0.262 C 
ATOM     12  H   UNL A   1      32.869  23.530  24.508  1.00  0.00     0.348 HD
ATOM     13  C   UNL A   1      31.691  22.968  27.366  1.00  0.00     0.062 C 
BRANCH   9  14
ATOM     14  C   UNL A   1      34.207  24.815  25.404  1.00  0.00     0.274 C 
BRANCH  14  15
ATOM     15  C   UNL A   1      35.225  24.289  24.369  1.00  0.00     0.116 C 
ATOM     16  C   UNL A   1      34.522  23.126  23.648  1.00  0.00     0.244 C 
ATOM     17  C   UNL A   1      36.469  23.596  24.822  1.00  0.00     0.006 A 
ATOM     18  O   UNL A   1      35.413  22.010  23.508  1.00  0.00    -0.492 OA
ATOM     19  C   UNL A   1      36.424  22.284  24.388  1.00  0.00     0.123 A 
ATOM     20  C   UNL A   1      37.518  24.023  25.635  1.00  0.00     0.008 A 
ATOM     21  C   UNL A   1      37.313  21.335  24.840  1.00  0.00     0.047 A 
ATOM     22  C   UNL A   1      38.391  23.064  26.159  1.00  0.00     0.001 A 
ATOM     23  C   UNL A   1      38.279  21.721  25.771  1.00  0.00     0.004 A 
ENDBRANCH  14  15
ENDBRANCH   9  14
ENDBRANCH   6   7
ENDBRANCH   5   6
ENDBRANCH   3   5
ENDBRANCH   2   3
ENDBRANCH   1   2
BRANCH   1  24
ATOM     24  C   UNL A   1      31.810  29.554  24.419  1.00  0.00     0.275 C 
BRANCH  24  25
ATOM     25  O   UNL A   1      31.518  29.868  25.894  1.00  0.00    -0.458 OA
BRANCH  25  26
ATOM     26  C   UNL A   1      32.158  30.920  26.576  1.00  0.00     0.338 C 
ATOM     27  O   UNL A   1      31.606  31.984  26.782  1.00  0.00    -0.246 OA
BRANCH  26  28
ATOM     28  C   UNL A   1      33.556  30.629  27.288  1.00  0.00     0.060 A 
ATOM     29  C   UNL A   1      34.259  31.694  27.904  1.00  0.00     0.016 A 
ATOM     30  C   UNL A   1      34.238  29.408  27.361  1.00  0.00     0.016 A 
ATOM     31  C   UNL A   1      35.478  31.527  28.669  1.00  0.00     0.010 A 
ATOM     32  C   UNL A   1      35.506  29.252  28.081  1.00  0.00     0.010 A 
ATOM     33  C   UNL A   1      36.146  30.293  28.800  1.00  0.00    -0.014 A 
BRANCH  33  34
ATOM     34  C   UNL A   1      37.445  30.112  29.657  1.00  0.00     0.031 A 
ATOM     35  C   UNL A   1      38.692  29.422  29.093  1.00  0.00     0.074 A 
ATOM     36  C   UNL A   1      37.638  30.607  30.916  1.00  0.00     0.049 A 
ATOM     37  N   UNL A   1      39.793  29.044  29.718  1.00  0.00    -0.248 NA
ATOM     38  C   UNL A   1      38.713  29.123  27.658  1.00  0.00     0.031 C 
ATOM     39  C   UNL A   1      36.683  31.413  31.659  1.00  0.00     0.029 A 
ATOM     40  N   UNL A   1      38.729  30.557  31.792  1.00  0.00    -0.354 N 
ATOM     41  C   UNL A   1      40.591  28.409  28.772  1.00  0.00     0.074 A 
ATOM     42  C   UNL A   1      39.891  28.530  27.510  1.00  0.00     0.031 C 
ATOM     43  C   UNL A   1      37.250  31.878  32.788  1.00  0.00     0.029 A 
ATOM     44  C   UNL A   1      38.556  31.250  32.982  1.00  0.00     0.049 A 
ATOM     45  H   UNL A   1      39.556  30.067  31.579  1.00  0.00     0.167 HD
ATOM     46  C   UNL A   1      41.759  27.729  28.923  1.00  0.00     0.037 A 
ATOM     47  C   UNL A   1      39.282  31.325  34.133  1.00  0.00     0.037 A 
ATOM     48  C   UNL A   1      42.515  27.572  30.141  1.00  0.00     0.049 A 
ATOM     49  C   UNL A   1      40.517  30.458  34.322  1.00  0.00     0.074 A 
ATOM     50  C   UNL A   1      43.661  26.817  30.353  1.00  0.00     0.029 A 
ATOM     51  N   UNL A   1      42.219  28.174  31.350  1.00  0.00    -0.354 N 
ATOM     52  N   UNL A   1      41.172  29.744  33.444  1.00  0.00    -0.248 NA
ATOM     53  C   UNL A   1      41.070  30.348  35.690  1.00  0.00     0.031 C 
ATOM     54  C   UNL A   1      44.019  26.910  31.701  1.00  0.00     0.029 A 
ATOM     55  C   UNL A   1      43.134  27.775  32.316  1.00  0.00     0.049 A 
ATOM     56  H   UNL A   1      41.470  28.795  31.502  1.00  0.00     0.167 HD
ATOM     57  C   UNL A   1      42.194  29.109  34.146  1.00  0.00     0.074 A 
ATOM     58  C   UNL A   1      42.115  29.550  35.516  1.00  0.00     0.031 C 
ATOM     59  C   UNL A   1      43.097  28.210  33.686  1.00  0.00     0.037 A 
BRANCH  46  60
ATOM     60  C   UNL A   1      42.242  26.944  27.736  1.00  0.00     0.064 A 
ATOM     61  C   UNL A   1      43.216  27.426  26.853  1.00  0.00     0.173 A 
ATOM     62  C   UNL A   1      41.727  25.656  27.512  1.00  0.00     0.173 A 
ATOM     63  F   UNL A   1      43.730  28.653  27.020  1.00  0.00    -0.203 F 
ATOM     64  C   UNL A   1      43.634  26.657  25.770  1.00  0.00     0.198 A 
ATOM     65  C   UNL A   1      42.168  24.880  26.448  1.00  0.00     0.198 A 
ATOM     66  F   UNL A   1      40.803  25.146  28.342  1.00  0.00    -0.203 F 
ATOM     67  F   UNL A   1      44.531  27.152  24.905  1.00  0.00    -0.200 F 
ATOM     68  C   UNL A   1      43.114  25.385  25.570  1.00  0.00     0.200 A 
ATOM     69  F   UNL A   1      41.674  23.647  26.268  1.00  0.00    -0.200 F 
ATOM     70  F   UNL A   1      43.519  24.648  24.526  1.00  0.00    -0.200 F 
ENDBRANCH  46  60
BRANCH  47  71
ATOM     71  C   UNL A   1      38.807  32.118  35.329  1.00  0.00     0.064 A 
ATOM     72  C   UNL A   1      39.137  33.477  35.502  1.00  0.00     0.173 A 
ATOM     73  C   UNL A   1      38.153  31.491  36.401  1.00  0.00     0.173 A 
ATOM     74  F   UNL A   1      39.827  34.127  34.553  1.00  0.00    -0.203 F 
ATOM     75  C   UNL A   1      38.856  34.152  36.695  1.00  0.00     0.198 A 
ATOM     76  C   UNL A   1      37.821  32.181  37.568  1.00  0.00     0.198 A 
ATOM     77  F   UNL A   1      37.853  30.185  36.337  1.00  0.00    -0.203 F 
ATOM     78  F   UNL A   1      39.279  35.413  36.869  1.00  0.00    -0.200 F 
ATOM     79  C   UNL A   1      38.189  33.506  37.723  1.00  0.00     0.200 A 
ATOM     80  F   UNL A   1      37.171  31.547  38.553  1.00  0.00    -0.200 F 
ATOM     81  F   UNL A   1      37.928  34.147  38.871  1.00  0.00    -0.200 F 
ENDBRANCH  47  71
BRANCH  59  82
ATOM     82  C   UNL A   1      44.101  27.634  34.649  1.00  0.00     0.064 A 
ATOM     83  C   UNL A   1      45.327  28.269  34.905  1.00  0.00     0.173 A 
ATOM     84  C   UNL A   1      43.806  26.472  35.381  1.00  0.00     0.173 A 
ATOM     85  F   UNL A   1      45.668  29.373  34.225  1.00  0.00    -0.203 F 
ATOM     86  C   UNL A   1      46.220  27.759  35.847  1.00  0.00     0.198 A 
ATOM     87  C   UNL A   1      44.691  25.981  36.341  1.00  0.00     0.198 A 
ATOM     88  F   UNL A   1      42.649  25.825  35.184  1.00  0.00    -0.203 F 
ATOM     89  F   UNL A   1      47.397  28.369  36.051  1.00  0.00    -0.200 F 
ATOM     90  C   UNL A   1      45.897  26.622  36.572  1.00  0.00     0.200 A 
ATOM     91  F   UNL A   1      44.370  24.888  37.050  1.00  0.00    -0.200 F 
ATOM     92  F   UNL A   1      46.750  26.145  37.489  1.00  0.00    -0.200 F 
ENDBRANCH  59  82
ENDBRANCH  33  34
ENDBRANCH  26  28
ENDBRANCH  25  26
ENDBRANCH  24  25
ENDBRANCH   1  24
TORSDOF 15
ENDMDL
MODEL 2
REMARK VINA RESULT:     -13.0      3.929      9.749
REMARK SMILES O=C(CC[C@H]1CCCC[N@@H+]1C[C@@H]1COc2ccccc21)OCCOC(=O)c1ccc(-c2c3nc(c(-c4c(F)c(F)c(F)c(F)c4F)c4ccc([nH]4)c(-c4c(F)c(F)c(F)c(F)c4F)c4nc(c(-c5c(F)c(F)c(F)c(F)c5F)c5ccc2[nH]5)C=C4)C=C3)cc1
REMARK SMILES IDX 22 1 21 2 2 3 1 4 3 5 4 6 5 7 6 8 10 9 7 10 9 11 8 13 11 14
REMARK SMILES IDX 12 15 13 16 20 17 14 18 15 19 19 20 16 21 18 22 17 23 23 24
REMARK SMILES IDX 24 25 25 26 26 27 27 28 28 29 89 30 29 31 88 32 30 33 31 34
REMARK SMILES IDX 32 35 82 36 33 37 87 38 81 39 83 40 34 41 86 42 80 43 79 44
REMARK SMILES IDX 35 46 67 47 47 48 66 49 48 50 51 51 65 52 84 53 49 54 50 55
REMARK SMILES IDX 64 57 85 58 52 59 36 60 37 61 45 62 38 63 39 64 43 65 46 66
REMARK SMILES IDX 40 67 41 68 44 69 42 70 68 71 69 72 77 73 70 74 71 75 75 76
REMARK SMILES IDX 78 77 72 78 73 79 76 80 74 81 53 82 54 83 62 84 55 85 56 86
REMARK SMILES IDX 60 87 63 88 57 89 58 90 61 91 59 92
REMARK H PARENT 10 12 83 45 51 56
REMARK Flexibility Score: inf
ROOT
ATOM      1  C   UNL A   1      34.579  21.468  26.540  1.00  0.00     0.274 C 
ENDROOT
BRANCH   1   2
ATOM      2  O   UNL A   1      33.620  22.728  26.297  1.00  0.00    -0.462 OA
BRANCH   2   3
ATOM      3  C   UNL A   1      33.481  24.097  26.158  1.00  0.00     0.306 C 
ATOM      4  O   UNL A   1      32.460  24.595  26.662  1.00  0.00    -0.252 OA
BRANCH   3   5
ATOM      5  C   UNL A   1      34.191  25.067  25.110  1.00  0.00     0.129 C 
BRANCH   5   6
ATOM      6  C   UNL A   1      34.517  24.802  23.640  1.00  0.00     0.077 C 
BRANCH   6   7
ATOM      7  C   UNL A   1      33.339  24.863  22.661  1.00  0.00     0.184 C 
ATOM      8  C   UNL A   1      32.946  23.466  22.381  1.00  0.00     0.065 C 
ATOM      9  N   UNL A   1      32.158  25.619  23.028  1.00  0.00    -0.332 N 
ATOM     10  C   UNL A   1      31.973  22.835  23.415  1.00  0.00     0.012 C 
ATOM     11  C   UNL A   1      30.911  24.946  23.428  1.00  0.00     0.262 C 
ATOM     12  H   UNL A   1      32.520  25.928  23.931  1.00  0.00     0.348 HD
ATOM     13  C   UNL A   1      30.661  23.473  23.305  1.00  0.00     0.062 C 
BRANCH   9  14
ATOM     14  C   UNL A   1      31.871  26.764  22.164  1.00  0.00     0.274 C 
BRANCH  14  15
ATOM     15  C   UNL A   1      32.250  28.112  22.813  1.00  0.00     0.116 C 
ATOM     16  C   UNL A   1      33.741  28.321  22.496  1.00  0.00     0.244 C 
ATOM     17  C   UNL A   1      32.281  28.250  24.300  1.00  0.00     0.006 A 
ATOM     18  O   UNL A   1      34.442  28.778  23.662  1.00  0.00    -0.492 OA
ATOM     19  C   UNL A   1      33.582  28.507  24.690  1.00  0.00     0.123 A 
ATOM     20  C   UNL A   1      31.290  28.068  25.263  1.00  0.00     0.008 A 
ATOM     21  C   UNL A   1      33.971  28.457  26.011  1.00  0.00     0.047 A 
ATOM     22  C   UNL A   1      31.674  27.946  26.603  1.00  0.00     0.001 A 
ATOM     23  C   UNL A   1      33.014  28.128  26.972  1.00  0.00     0.004 A 
ENDBRANCH  14  15
ENDBRANCH   9  14
ENDBRANCH   6   7
ENDBRANCH   5   6
ENDBRANCH   3   5
ENDBRANCH   2   3
ENDBRANCH   1   2
BRANCH   1  24
ATOM     24  C   UNL A   1      35.292  20.516  25.311  1.00  0.00     0.275 C 
BRANCH  24  25
ATOM     25  O   UNL A   1      36.607  20.943  24.642  1.00  0.00    -0.458 OA
BRANCH  25  26
ATOM     26  C   UNL A   1      37.854  20.788  25.278  1.00  0.00     0.338 C 
ATOM     27  O   UNL A   1      38.450  19.728  25.275  1.00  0.00    -0.246 OA
BRANCH  26  28
ATOM     28  C   UNL A   1      38.602  22.090  25.818  1.00  0.00     0.060 A 
ATOM     29  C   UNL A   1      39.922  21.976  26.320  1.00  0.00     0.016 A 
ATOM     30  C   UNL A   1      38.095  23.393  25.902  1.00  0.00     0.016 A 
ATOM     31  C   UNL A   1      40.733  23.103  26.734  1.00  0.00     0.010 A 
ATOM     32  C   UNL A   1      38.895  24.523  26.383  1.00  0.00     0.010 A 
ATOM     33  C   UNL A   1      40.255  24.428  26.771  1.00  0.00    -0.014 A 
BRANCH  33  34
ATOM     34  C   UNL A   1      41.148  25.646  27.187  1.00  0.00     0.031 A 
ATOM     35  C   UNL A   1      40.668  26.684  28.208  1.00  0.00     0.074 A 
ATOM     36  C   UNL A   1      42.432  25.864  26.776  1.00  0.00     0.049 A 
ATOM     37  N   UNL A   1      41.212  27.840  28.543  1.00  0.00    -0.248 NA
ATOM     38  C   UNL A   1      39.435  26.391  28.946  1.00  0.00     0.031 C 
ATOM     39  C   UNL A   1      43.199  24.983  25.909  1.00  0.00     0.029 A 
ATOM     40  N   UNL A   1      43.359  26.871  27.071  1.00  0.00    -0.354 N 
ATOM     41  C   UNL A   1      40.356  28.431  29.467  1.00  0.00     0.074 A 
ATOM     42  C   UNL A   1      39.302  27.468  29.709  1.00  0.00     0.031 C 
ATOM     43  C   UNL A   1      44.478  25.399  25.842  1.00  0.00     0.029 A 
ATOM     44  C   UNL A   1      44.610  26.702  26.493  1.00  0.00     0.049 A 
ATOM     45  H   UNL A   1      43.140  27.640  27.645  1.00  0.00     0.167 HD
ATOM     46  C   UNL A   1      40.386  29.672  30.023  1.00  0.00     0.037 A 
ATOM     47  C   UNL A   1      45.711  27.499  26.399  1.00  0.00     0.037 A 
ATOM     48  C   UNL A   1      41.402  30.678  29.834  1.00  0.00     0.049 A 
ATOM     49  C   UNL A   1      45.673  28.928  26.920  1.00  0.00     0.074 A 
ATOM     50  C   UNL A   1      41.424  31.981  30.314  1.00  0.00     0.029 A 
ATOM     51  N   UNL A   1      42.575  30.506  29.124  1.00  0.00    -0.354 N 
ATOM     52  N   UNL A   1      44.777  29.514  27.671  1.00  0.00    -0.248 NA
ATOM     53  C   UNL A   1      46.770  29.833  26.510  1.00  0.00     0.031 C 
ATOM     54  C   UNL A   1      42.575  32.617  29.838  1.00  0.00     0.029 A 
ATOM     55  C   UNL A   1      43.304  31.690  29.117  1.00  0.00     0.049 A 
ATOM     56  H   UNL A   1      42.853  29.669  28.687  1.00  0.00     0.167 HD
ATOM     57  C   UNL A   1      45.198  30.835  27.816  1.00  0.00     0.074 A 
ATOM     58  C   UNL A   1      46.453  30.966  27.120  1.00  0.00     0.031 C 
ATOM     59  C   UNL A   1      44.567  31.852  28.451  1.00  0.00     0.037 A 
BRANCH  46  60
ATOM     60  C   UNL A   1      39.169  30.094  30.799  1.00  0.00     0.064 A 
ATOM     61  C   UNL A   1      39.062  29.934  32.185  1.00  0.00     0.173 A 
ATOM     62  C   UNL A   1      38.103  30.707  30.119  1.00  0.00     0.173 A 
ATOM     63  F   UNL A   1      40.049  29.345  32.876  1.00  0.00    -0.203 F 
ATOM     64  C   UNL A   1      37.915  30.347  32.861  1.00  0.00     0.198 A 
ATOM     65  C   UNL A   1      36.974  31.144  30.801  1.00  0.00     0.198 A 
ATOM     66  F   UNL A   1      38.169  30.896  28.792  1.00  0.00    -0.203 F 
ATOM     67  F   UNL A   1      37.807  30.141  34.181  1.00  0.00    -0.200 F 
ATOM     68  C   UNL A   1      36.875  30.954  32.169  1.00  0.00     0.200 A 
ATOM     69  F   UNL A   1      35.979  31.744  30.131  1.00  0.00    -0.200 F 
ATOM     70  F   UNL A   1      35.773  31.349  32.822  1.00  0.00    -0.200 F 
ENDBRANCH  46  60
BRANCH  47  71
ATOM     71  C   UNL A   1      46.940  27.080  25.627  1.00  0.00     0.064 A 
ATOM     72  C   UNL A   1      48.023  26.423  26.245  1.00  0.00     0.173 A 
ATOM     73  C   UNL A   1      47.127  27.474  24.292  1.00  0.00     0.173 A 
ATOM     74  F   UNL A   1      47.949  26.081  27.540  1.00  0.00    -0.203 F 
ATOM     75  C   UNL A   1      49.230  26.207  25.571  1.00  0.00     0.198 A 
ATOM     76  C   UNL A   1      48.310  27.205  23.602  1.00  0.00     0.198 A 
ATOM     77  F   UNL A   1      46.165  28.153  23.649  1.00  0.00    -0.203 F 
ATOM     78  F   UNL A   1      50.276  25.676  26.222  1.00  0.00    -0.200 F 
ATOM     79  C   UNL A   1      49.369  26.589  24.247  1.00  0.00     0.200 A 
ATOM     80  F   UNL A   1      48.431  27.575  22.321  1.00  0.00    -0.200 F 
ATOM     81  F   UNL A   1      50.528  26.394  23.602  1.00  0.00    -0.200 F 
ENDBRANCH  47  71
BRANCH  59  82
ATOM     82  C   UNL A   1      45.210  33.213  28.453  1.00  0.00     0.064 A 
ATOM     83  C   UNL A   1      44.887  34.184  27.492  1.00  0.00     0.173 A 
ATOM     84  C   UNL A   1      46.107  33.580  29.470  1.00  0.00     0.173 A 
ATOM     85  F   UNL A   1      44.047  33.886  26.489  1.00  0.00    -0.203 F 
ATOM     86  C   UNL A   1      45.441  35.463  27.542  1.00  0.00     0.198 A 
ATOM     87  C   UNL A   1      46.639  34.868  29.532  1.00  0.00     0.198 A 
ATOM     88  F   UNL A   1      46.450  32.697  30.418  1.00  0.00    -0.203 F 
ATOM     89  F   UNL A   1      45.138  36.361  26.595  1.00  0.00    -0.200 F 
ATOM     90  C   UNL A   1      46.309  35.807  28.568  1.00  0.00     0.200 A 
ATOM     91  F   UNL A   1      47.467  35.202  30.533  1.00  0.00    -0.200 F 
ATOM     92  F   UNL A   1      46.827  37.041  28.625  1.00  0.00    -0.200 F 
ENDBRANCH  59  82
ENDBRANCH  33  34
ENDBRANCH  26  28
ENDBRANCH  25  26
ENDBRANCH  24  25
ENDBRANCH   1  24
TORSDOF 15
ENDMDL
MODEL 3
REMARK VINA RESULT:     -13.0      2.638      7.997
REMARK SMILES O=C(CC[C@H]1CCCC[N@@H+]1C[C@@H]1COc2ccccc21)OCCOC(=O)c1ccc(-c2c3nc(c(-c4c(F)c(F)c(F)c(F)c4F)c4ccc([nH]4)c(-c4c(F)c(F)c(F)c(F)c4F)c4nc(c(-c5c(F)c(F)c(F)c(F)c5F)c5ccc2[nH]5)C=C4)C=C3)cc1
REMARK SMILES IDX 22 1 21 2 2 3 1 4 3 5 4 6 5 7 6 8 10 9 7 10 9 11 8 13 11 14
REMARK SMILES IDX 12 15 13 16 20 17 14 18 15 19 19 20 16 21 18 22 17 23 23 24
REMARK SMILES IDX 24 25 25 26 26 27 27 28 28 29 89 30 29 31 88 32 30 33 31 34
REMARK SMILES IDX 32 35 82 36 33 37 87 38 81 39 83 40 34 41 86 42 80 43 79 44
REMARK SMILES IDX 35 46 67 47 47 48 66 49 48 50 51 51 65 52 84 53 49 54 50 55
REMARK SMILES IDX 64 57 85 58 52 59 36 60 37 61 45 62 38 63 39 64 43 65 46 66
REMARK SMILES IDX 40 67 41 68 44 69 42 70 68 71 69 72 77 73 70 74 71 75 75 76
REMARK SMILES IDX 78 77 72 78 73 79 76 80 74 81 53 82 54 83 62 84 55 85 56 86
REMARK SMILES IDX 60 87 63 88 57 89 58 90 61 91 59 92
REMARK H PARENT 10 12 83 45 51 56
REMARK Flexibility Score: inf
ROOT
ATOM      1  C   UNL A   1      41.310  20.368  27.003  1.00  0.00     0.274 C 
ENDROOT
BRANCH   1   2
ATOM      2  O   UNL A   1      39.809  20.822  26.672  1.00  0.00    -0.462 OA
BRANCH   2   3
ATOM      3  C   UNL A   1      38.957  21.695  26.023  1.00  0.00     0.306 C 
ATOM      4  O   UNL A   1      38.936  22.860  26.457  1.00  0.00    -0.252 OA
BRANCH   3   5
ATOM      5  C   UNL A   1      37.704  21.358  25.096  1.00  0.00     0.129 C 
BRANCH   5   6
ATOM      6  C   UNL A   1      36.259  21.085  25.515  1.00  0.00     0.077 C 
BRANCH   6   7
ATOM      7  C   UNL A   1      35.182  21.951  24.849  1.00  0.00     0.184 C 
ATOM      8  C   UNL A   1      34.048  21.057  24.540  1.00  0.00     0.065 C 
ATOM      9  N   UNL A   1      34.684  23.116  25.553  1.00  0.00    -0.332 N 
ATOM     10  C   UNL A   1      33.052  20.826  25.709  1.00  0.00     0.012 C 
ATOM     11  C   UNL A   1      33.347  23.125  26.170  1.00  0.00     0.262 C 
ATOM     12  H   UNL A   1      35.283  22.997  26.371  1.00  0.00     0.348 HD
ATOM     13  C   UNL A   1      32.311  22.061  25.972  1.00  0.00     0.062 C 
BRANCH   9  14
ATOM     14  C   UNL A   1      34.954  24.393  24.892  1.00  0.00     0.274 C 
BRANCH  14  15
ATOM     15  C   UNL A   1      33.732  24.936  24.121  1.00  0.00     0.116 C 
ATOM     16  C   UNL A   1      33.945  24.518  22.656  1.00  0.00     0.244 C 
ATOM     17  C   UNL A   1      33.547  26.409  23.944  1.00  0.00     0.006 A 
ATOM     18  O   UNL A   1      33.647  25.610  21.774  1.00  0.00    -0.492 OA
ATOM     19  C   UNL A   1      33.634  26.703  22.596  1.00  0.00     0.123 A 
ATOM     20  C   UNL A   1      33.417  27.439  24.873  1.00  0.00     0.008 A 
ATOM     21  C   UNL A   1      33.733  27.998  22.137  1.00  0.00     0.047 A 
ATOM     22  C   UNL A   1      33.582  28.758  24.437  1.00  0.00     0.001 A 
ATOM     23  C   UNL A   1      33.753  29.033  23.073  1.00  0.00     0.004 A 
ENDBRANCH  14  15
ENDBRANCH   9  14
ENDBRANCH   6   7
ENDBRANCH   5   6
ENDBRANCH   3   5
ENDBRANCH   2   3
ENDBRANCH   1   2
BRANCH   1  24
ATOM     24  C   UNL A   1      42.697  20.801  26.101  1.00  0.00     0.275 C 
BRANCH  24  25
ATOM     25  O   UNL A   1      42.607  21.818  24.954  1.00  0.00    -0.458 OA
BRANCH  25  26
ATOM     26  C   UNL A   1      43.371  23.000  24.941  1.00  0.00     0.338 C 
ATOM     27  O   UNL A   1      44.259  23.184  24.131  1.00  0.00    -0.246 OA
BRANCH  26  28
ATOM     28  C   UNL A   1      42.911  24.216  25.867  1.00  0.00     0.060 A 
ATOM     29  C   UNL A   1      42.205  23.950  27.066  1.00  0.00     0.016 A 
ATOM     30  C   UNL A   1      43.087  25.584  25.627  1.00  0.00     0.016 A 
ATOM     31  C   UNL A   1      41.835  24.964  28.033  1.00  0.00     0.010 A 
ATOM     32  C   UNL A   1      42.654  26.615  26.576  1.00  0.00     0.010 A 
ATOM     33  C   UNL A   1      42.056  26.341  27.832  1.00  0.00    -0.014 A 
BRANCH  33  34
ATOM     34  C   UNL A   1      41.685  27.429  28.895  1.00  0.00     0.031 A 
ATOM     35  C   UNL A   1      42.579  27.709  30.108  1.00  0.00     0.074 A 
ATOM     36  C   UNL A   1      40.616  28.277  28.821  1.00  0.00     0.049 A 
ATOM     37  N   UNL A   1      42.339  28.458  31.169  1.00  0.00    -0.248 NA
ATOM     38  C   UNL A   1      43.903  27.078  30.135  1.00  0.00     0.031 C 
ATOM     39  C   UNL A   1      39.663  28.335  27.724  1.00  0.00     0.029 A 
ATOM     40  N   UNL A   1      40.166  29.304  29.659  1.00  0.00    -0.354 N 
ATOM     41  C   UNL A   1      43.443  28.330  32.006  1.00  0.00     0.074 A 
ATOM     42  C   UNL A   1      44.394  27.503  31.292  1.00  0.00     0.031 C 
ATOM     43  C   UNL A   1      38.841  29.390  27.880  1.00  0.00     0.029 A 
ATOM     44  C   UNL A   1      39.053  29.993  29.196  1.00  0.00     0.049 A 
ATOM     45  H   UNL A   1      40.607  29.521  30.513  1.00  0.00     0.167 HD
ATOM     46  C   UNL A   1      43.643  28.788  33.271  1.00  0.00     0.037 A 
ATOM     47  C   UNL A   1      38.232  30.925  29.755  1.00  0.00     0.037 A 
ATOM     48  C   UNL A   1      42.749  29.618  34.040  1.00  0.00     0.049 A 
ATOM     49  C   UNL A   1      38.404  31.327  31.213  1.00  0.00     0.074 A 
ATOM     50  C   UNL A   1      42.880  30.034  35.359  1.00  0.00     0.029 A 
ATOM     51  N   UNL A   1      41.570  30.168  33.574  1.00  0.00    -0.354 N 
ATOM     52  N   UNL A   1      39.388  31.068  32.034  1.00  0.00    -0.248 NA
ATOM     53  C   UNL A   1      37.304  32.089  31.844  1.00  0.00     0.031 C 
ATOM     54  C   UNL A   1      41.749  30.777  35.710  1.00  0.00     0.029 A 
ATOM     55  C   UNL A   1      40.945  30.881  34.590  1.00  0.00     0.049 A 
ATOM     56  H   UNL A   1      41.225  30.069  32.658  1.00  0.00     0.167 HD
ATOM     57  C   UNL A   1      39.026  31.626  33.259  1.00  0.00     0.074 A 
ATOM     58  C   UNL A   1      37.756  32.282  33.075  1.00  0.00     0.031 C 
ATOM     59  C   UNL A   1      39.689  31.563  34.439  1.00  0.00     0.037 A 
BRANCH  46  60
ATOM     60  C   UNL A   1      44.852  28.264  33.996  1.00  0.00     0.064 A 
ATOM     61  C   UNL A   1      46.101  28.893  33.940  1.00  0.00     0.173 A 
ATOM     62  C   UNL A   1      44.725  27.115  34.794  1.00  0.00     0.173 A 
ATOM     63  F   UNL A   1      46.274  29.987  33.184  1.00  0.00    -0.203 F 
ATOM     64  C   UNL A   1      47.190  28.370  34.635  1.00  0.00     0.198 A 
ATOM     65  C   UNL A   1      45.806  26.614  35.509  1.00  0.00     0.198 A 
ATOM     66  F   UNL A   1      43.542  26.488  34.890  1.00  0.00    -0.203 F 
ATOM     67  F   UNL A   1      48.392  28.955  34.531  1.00  0.00    -0.200 F 
ATOM     68  C   UNL A   1      47.041  27.235  35.420  1.00  0.00     0.200 A 
ATOM     69  F   UNL A   1      45.653  25.527  36.279  1.00  0.00    -0.200 F 
ATOM     70  F   UNL A   1      48.091  26.735  36.087  1.00  0.00    -0.200 F 
ENDBRANCH  46  60
BRANCH  47  71
ATOM     71  C   UNL A   1      37.020  31.462  29.031  1.00  0.00     0.064 A 
ATOM     72  C   UNL A   1      36.886  32.828  28.711  1.00  0.00     0.173 A 
ATOM     73  C   UNL A   1      35.899  30.650  28.791  1.00  0.00     0.173 A 
ATOM     74  F   UNL A   1      37.885  33.682  28.979  1.00  0.00    -0.203 F 
ATOM     75  C   UNL A   1      35.686  33.349  28.212  1.00  0.00     0.198 A 
ATOM     76  C   UNL A   1      34.724  31.160  28.238  1.00  0.00     0.198 A 
ATOM     77  F   UNL A   1      35.928  29.350  29.118  1.00  0.00    -0.203 F 
ATOM     78  F   UNL A   1      35.557  34.671  28.020  1.00  0.00    -0.200 F 
ATOM     79  C   UNL A   1      34.610  32.513  27.967  1.00  0.00     0.200 A 
ATOM     80  F   UNL A   1      33.691  30.340  28.001  1.00  0.00    -0.200 F 
ATOM     81  F   UNL A   1      33.456  33.010  27.500  1.00  0.00    -0.200 F 
ENDBRANCH  47  71
BRANCH  59  82
ATOM     82  C   UNL A   1      39.082  32.228  35.645  1.00  0.00     0.064 A 
ATOM     83  C   UNL A   1      38.307  31.513  36.571  1.00  0.00     0.173 A 
ATOM     84  C   UNL A   1      39.338  33.582  35.922  1.00  0.00     0.173 A 
ATOM     85  F   UNL A   1      38.018  30.221  36.352  1.00  0.00    -0.203 F 
ATOM     86  C   UNL A   1      37.804  32.126  37.719  1.00  0.00     0.198 A 
ATOM     87  C   UNL A   1      38.856  34.185  37.083  1.00  0.00     0.198 A 
ATOM     88  F   UNL A   1      40.076  34.316  35.077  1.00  0.00    -0.203 F 
ATOM     89  F   UNL A   1      37.042  31.427  38.572  1.00  0.00    -0.200 F 
ATOM     90  C   UNL A   1      38.088  33.458  37.979  1.00  0.00     0.200 A 
ATOM     91  F   UNL A   1      39.143  35.470  37.339  1.00  0.00    -0.200 F 
ATOM     92  F   UNL A   1      37.619  34.040  39.091  1.00  0.00    -0.200 F 
ENDBRANCH  59  82
ENDBRANCH  33  34
ENDBRANCH  26  28
ENDBRANCH  25  26
ENDBRANCH  24  25
ENDBRANCH   1  24
TORSDOF 15
ENDMDL
