MODEL 1
REMARK VINA RESULT:     -13.0      0.000      0.000
REMARK SMILES CN(CCc1ccccn1)C(=O)NC1(CC(=O)OCCOC(=O)c2ccc(-c3c4nc(c(-c5c(F)c(F)c(F)c(F)c5F)c5ccc([nH]5)c(-c5c(F)c(F)c(F)c(F)c5F)c5nc(c(-c6c(F)c(F)c(F)c(F)c6F)c6ccc3[nH]6)C=C5)C=C4)cc2)CCC1
REMARK SMILES IDX 16 1 17 2 15 3 14 4 87 5 89 6 88 7 13 8 11 9 12 10 2 12 1 13
REMARK SMILES IDX 3 14 4 15 5 16 6 17 10 18 7 19 9 20 8 21 18 22 19 23 20 24
REMARK SMILES IDX 21 25 22 26 23 27 24 28 25 29 86 30 26 31 85 32 27 33 28 34
REMARK SMILES IDX 29 35 79 36 30 37 84 38 78 39 80 40 31 41 83 42 77 43 76 44
REMARK SMILES IDX 32 46 64 47 44 48 63 49 45 50 48 51 62 52 81 53 46 54 47 55
REMARK SMILES IDX 61 57 82 58 49 59 33 60 34 61 42 62 35 63 36 64 40 65 43 66
REMARK SMILES IDX 37 67 38 68 41 69 39 70 65 71 66 72 74 73 67 74 68 75 72 76
REMARK SMILES IDX 75 77 69 78 70 79 73 80 71 81 50 82 51 83 59 84 52 85 53 86
REMARK SMILES IDX 57 87 60 88 54 89 55 90 58 91 56 92
REMARK H PARENT 13 11 80 45 48 56
REMARK Flexibility Score: inf
ROOT
ATOM      1  C   UNL A   1      33.368  26.573  25.526  1.00  0.00     0.308 C 
ATOM      2  O   UNL A   1      32.610  26.430  26.490  1.00  0.00    -0.252 OA
ENDROOT
BRANCH   1   3
ATOM      3  C   UNL A   1      34.654  25.468  25.307  1.00  0.00     0.151 C 
BRANCH   3   4
ATOM      4  C   UNL A   1      34.977  23.538  24.326  1.00  0.00     0.052 C 
ATOM      5  C   UNL A   1      35.659  21.919  24.955  1.00  0.00     0.029 C 
ATOM      6  C   UNL A   1      36.282  22.979  23.133  1.00  0.00     0.029 C 
ATOM      7  C   UNL A   1      36.962  22.113  24.177  1.00  0.00     0.005 C 
BRANCH   4   8
ATOM      8  N   UNL A   1      33.709  22.667  23.385  1.00  0.00    -0.332 N 
ATOM      9  C   UNL A   1      32.348  22.685  23.230  1.00  0.00     0.317 C 
ATOM     10  O   UNL A   1      31.882  21.759  22.554  1.00  0.00    -0.249 OA
ATOM     11  H   UNL A   1      34.115  21.975  22.814  1.00  0.00     0.165 HD
BRANCH   9  12
ATOM     12  N   UNL A   1      31.523  23.547  23.914  1.00  0.00    -0.327 N 
ATOM     13  C   UNL A   1      31.311  23.248  25.325  1.00  0.00     0.148 C 
BRANCH  12  14
ATOM     14  C   UNL A   1      30.659  24.574  23.332  1.00  0.00     0.127 C 
BRANCH  14  15
ATOM     15  C   UNL A   1      30.117  25.609  24.311  1.00  0.00     0.078 C 
BRANCH  15  16
ATOM     16  C   UNL A   1      29.410  26.715  23.593  1.00  0.00     0.042 A 
ATOM     17  C   UNL A   1      27.628  26.954  23.813  1.00  0.00     0.024 A 
ATOM     18  N   UNL A   1      30.360  27.947  22.758  1.00  0.00    -0.261 NA
ATOM     19  C   UNL A   1      26.902  28.521  23.378  1.00  0.00     0.003 A 
ATOM     20  C   UNL A   1      29.581  29.462  22.272  1.00  0.00     0.111 A 
ATOM     21  C   UNL A   1      27.873  29.761  22.577  1.00  0.00     0.020 A 
ENDBRANCH  15  16
ENDBRANCH  14  15
ENDBRANCH  12  14
ENDBRANCH   9  12
ENDBRANCH   4   8
ENDBRANCH   3   4
ENDBRANCH   1   3
BRANCH   1  22
ATOM     22  O   UNL A   1      33.138  27.521  24.589  1.00  0.00    -0.462 OA
BRANCH  22  23
ATOM     23  C   UNL A   1      33.503  28.905  24.768  1.00  0.00     0.274 C 
BRANCH  23  24
ATOM     24  C   UNL A   1      32.329  29.582  25.472  1.00  0.00     0.275 C 
BRANCH  24  25
ATOM     25  O   UNL A   1      32.727  29.769  26.840  1.00  0.00    -0.458 OA
BRANCH  25  26
ATOM     26  C   UNL A   1      33.191  30.992  27.179  1.00  0.00     0.338 C 
ATOM     27  O   UNL A   1      32.600  32.054  27.107  1.00  0.00    -0.246 OA
BRANCH  26  28
ATOM     28  C   UNL A   1      34.547  30.826  27.741  1.00  0.00     0.060 A 
ATOM     29  C   UNL A   1      35.382  31.934  27.903  1.00  0.00     0.016 A 
ATOM     30  C   UNL A   1      35.018  29.554  28.051  1.00  0.00     0.016 A 
ATOM     31  C   UNL A   1      36.697  31.776  28.332  1.00  0.00     0.010 A 
ATOM     32  C   UNL A   1      36.290  29.417  28.612  1.00  0.00     0.010 A 
ATOM     33  C   UNL A   1      37.142  30.527  28.771  1.00  0.00    -0.014 A 
BRANCH  33  34
ATOM     34  C   UNL A   1      38.441  30.366  29.481  1.00  0.00     0.031 A 
ATOM     35  C   UNL A   1      39.488  29.441  28.930  1.00  0.00     0.074 A 
ATOM     36  C   UNL A   1      38.621  30.943  30.688  1.00  0.00     0.049 A 
ATOM     37  N   UNL A   1      40.482  28.851  29.544  1.00  0.00    -0.248 NA
ATOM     38  C   UNL A   1      39.378  29.106  27.502  1.00  0.00     0.031 C 
ATOM     39  C   UNL A   1      37.712  31.898  31.328  1.00  0.00     0.029 A 
ATOM     40  N   UNL A   1      39.619  30.773  31.620  1.00  0.00    -0.354 N 
ATOM     41  C   UNL A   1      41.072  28.022  28.598  1.00  0.00     0.074 A 
ATOM     42  C   UNL A   1      40.324  28.186  27.368  1.00  0.00     0.031 C 
ATOM     43  C   UNL A   1      38.185  32.226  32.536  1.00  0.00     0.029 A 
ATOM     44  C   UNL A   1      39.365  31.419  32.807  1.00  0.00     0.049 A 
ATOM     45  H   UNL A   1      40.430  30.241  31.455  1.00  0.00     0.167 HD
ATOM     46  C   UNL A   1      42.131  27.191  28.756  1.00  0.00     0.037 A 
ATOM     47  C   UNL A   1      39.957  31.319  34.011  1.00  0.00     0.037 A 
ATOM     48  C   UNL A   1      42.880  27.075  29.983  1.00  0.00     0.049 A 
ATOM     49  C   UNL A   1      41.097  30.357  34.178  1.00  0.00     0.074 A 
ATOM     50  C   UNL A   1      43.991  26.291  30.246  1.00  0.00     0.029 A 
ATOM     51  N   UNL A   1      42.595  27.767  31.152  1.00  0.00    -0.354 N 
ATOM     52  N   UNL A   1      41.628  29.545  33.297  1.00  0.00    -0.248 NA
ATOM     53  C   UNL A   1      41.710  30.288  35.509  1.00  0.00     0.031 C 
ATOM     54  C   UNL A   1      44.343  26.469  31.588  1.00  0.00     0.029 A 
ATOM     55  C   UNL A   1      43.498  27.416  32.143  1.00  0.00     0.049 A 
ATOM     56  H   UNL A   1      41.858  28.412  31.261  1.00  0.00     0.167 HD
ATOM     57  C   UNL A   1      42.661  28.895  33.955  1.00  0.00     0.074 A 
ATOM     58  C   UNL A   1      42.684  29.412  35.308  1.00  0.00     0.031 C 
ATOM     59  C   UNL A   1      43.515  27.956  33.479  1.00  0.00     0.037 A 
BRANCH  46  60
ATOM     60  C   UNL A   1      42.523  26.318  27.597  1.00  0.00     0.064 A 
ATOM     61  C   UNL A   1      43.541  26.676  26.701  1.00  0.00     0.173 A 
ATOM     62  C   UNL A   1      41.896  25.075  27.407  1.00  0.00     0.173 A 
ATOM     63  F   UNL A   1      44.169  27.854  26.829  1.00  0.00    -0.203 F 
ATOM     64  C   UNL A   1      43.895  25.840  25.644  1.00  0.00     0.198 A 
ATOM     65  C   UNL A   1      42.277  24.226  26.369  1.00  0.00     0.198 A 
ATOM     66  F   UNL A   1      40.921  24.674  28.237  1.00  0.00    -0.203 F 
ATOM     67  F   UNL A   1      44.836  26.229  24.771  1.00  0.00    -0.200 F 
ATOM     68  C   UNL A   1      43.269  24.613  25.483  1.00  0.00     0.200 A 
ATOM     69  F   UNL A   1      41.682  23.033  26.230  1.00  0.00    -0.200 F 
ATOM     70  F   UNL A   1      43.619  23.806  24.472  1.00  0.00    -0.200 F 
ENDBRANCH  46  60
BRANCH  47  71
ATOM     71  C   UNL A   1      39.451  32.123  35.156  1.00  0.00     0.064 A 
ATOM     72  C   UNL A   1      39.797  33.474  35.287  1.00  0.00     0.173 A 
ATOM     73  C   UNL A   1      38.595  31.572  36.123  1.00  0.00     0.173 A 
ATOM     74  F   UNL A   1      40.627  34.041  34.400  1.00  0.00    -0.203 F 
ATOM     75  C   UNL A   1      39.321  34.239  36.350  1.00  0.00     0.198 A 
ATOM     76  C   UNL A   1      38.090  32.347  37.164  1.00  0.00     0.198 A 
ATOM     77  F   UNL A   1      38.225  30.286  36.040  1.00  0.00    -0.203 F 
ATOM     78  F   UNL A   1      39.703  35.517  36.475  1.00  0.00    -0.200 F 
ATOM     79  C   UNL A   1      38.460  33.679  37.282  1.00  0.00     0.200 A 
ATOM     80  F   UNL A   1      37.241  31.807  38.049  1.00  0.00    -0.200 F 
ATOM     81  F   UNL A   1      37.991  34.419  38.295  1.00  0.00    -0.200 F 
ENDBRANCH  47  71
BRANCH  59  82
ATOM     82  C   UNL A   1      44.596  27.484  34.408  1.00  0.00     0.064 A 
ATOM     83  C   UNL A   1      45.825  28.149  34.519  1.00  0.00     0.173 A 
ATOM     84  C   UNL A   1      44.377  26.364  35.225  1.00  0.00     0.173 A 
ATOM     85  F   UNL A   1      46.090  29.213  33.744  1.00  0.00    -0.203 F 
ATOM     86  C   UNL A   1      46.808  27.694  35.393  1.00  0.00     0.198 A 
ATOM     87  C   UNL A   1      45.347  25.933  36.124  1.00  0.00     0.198 A 
ATOM     88  F   UNL A   1      43.216  25.694  35.160  1.00  0.00    -0.203 F 
ATOM     89  F   UNL A   1      47.996  28.311  35.444  1.00  0.00    -0.200 F 
ATOM     90  C   UNL A   1      46.565  26.593  36.202  1.00  0.00     0.200 A 
ATOM     91  F   UNL A   1      45.105  24.878  36.914  1.00  0.00    -0.200 F 
ATOM     92  F   UNL A   1      47.507  26.162  37.052  1.00  0.00    -0.200 F 
ENDBRANCH  59  82
ENDBRANCH  33  34
ENDBRANCH  26  28
ENDBRANCH  25  26
ENDBRANCH  24  25
ENDBRANCH  23  24
ENDBRANCH  22  23
ENDBRANCH   1  22
TORSDOF 17
ENDMDL
MODEL 2
REMARK VINA RESULT:     -13.0      1.326      1.707
REMARK SMILES CN(CCc1ccccn1)C(=O)NC1(CC(=O)OCCOC(=O)c2ccc(-c3c4nc(c(-c5c(F)c(F)c(F)c(F)c5F)c5ccc([nH]5)c(-c5c(F)c(F)c(F)c(F)c5F)c5nc(c(-c6c(F)c(F)c(F)c(F)c6F)c6ccc3[nH]6)C=C5)C=C4)cc2)CCC1
REMARK SMILES IDX 16 1 17 2 15 3 14 4 87 5 89 6 88 7 13 8 11 9 12 10 2 12 1 13
REMARK SMILES IDX 3 14 4 15 5 16 6 17 10 18 7 19 9 20 8 21 18 22 19 23 20 24
REMARK SMILES IDX 21 25 22 26 23 27 24 28 25 29 86 30 26 31 85 32 27 33 28 34
REMARK SMILES IDX 29 35 79 36 30 37 84 38 78 39 80 40 31 41 83 42 77 43 76 44
REMARK SMILES IDX 32 46 64 47 44 48 63 49 45 50 48 51 62 52 81 53 46 54 47 55
REMARK SMILES IDX 61 57 82 58 49 59 33 60 34 61 42 62 35 63 36 64 40 65 43 66
REMARK SMILES IDX 37 67 38 68 41 69 39 70 65 71 66 72 74 73 67 74 68 75 72 76
REMARK SMILES IDX 75 77 69 78 70 79 73 80 71 81 50 82 51 83 59 84 52 85 53 86
REMARK SMILES IDX 57 87 60 88 54 89 55 90 58 91 56 92
REMARK H PARENT 13 11 80 45 48 56
REMARK Flexibility Score: inf
ROOT
ATOM      1  C   UNL A   1      32.999  26.844  25.849  1.00  0.00     0.308 C 
ATOM      2  O   UNL A   1      32.291  26.382  26.748  1.00  0.00    -0.252 OA
ENDROOT
BRANCH   1   3
ATOM      3  C   UNL A   1      34.015  25.790  24.965  1.00  0.00     0.151 C 
BRANCH   3   4
ATOM      4  C   UNL A   1      35.262  24.036  25.362  1.00  0.00     0.052 C 
ATOM      5  C   UNL A   1      37.033  23.869  25.927  1.00  0.00     0.029 C 
ATOM      6  C   UNL A   1      36.109  22.855  24.209  1.00  0.00     0.029 C 
ATOM      7  C   UNL A   1      37.481  23.411  24.537  1.00  0.00     0.005 C 
BRANCH   4   8
ATOM      8  N   UNL A   1      34.766  22.674  26.433  1.00  0.00    -0.332 N 
ATOM      9  C   UNL A   1      33.634  21.963  26.737  1.00  0.00     0.317 C 
ATOM     10  O   UNL A   1      33.744  21.177  27.686  1.00  0.00    -0.249 OA
ATOM     11  H   UNL A   1      35.534  22.342  26.951  1.00  0.00     0.165 HD
BRANCH   9  12
ATOM     12  N   UNL A   1      32.408  22.219  26.168  1.00  0.00    -0.327 N 
ATOM     13  C   UNL A   1      31.485  23.018  26.965  1.00  0.00     0.148 C 
BRANCH  12  14
ATOM     14  C   UNL A   1      31.852  21.585  24.973  1.00  0.00     0.127 C 
BRANCH  14  15
ATOM     15  C   UNL A   1      32.618  21.834  23.679  1.00  0.00     0.078 C 
BRANCH  15  16
ATOM     16  C   UNL A   1      32.192  23.115  23.035  1.00  0.00     0.042 A 
ATOM     17  C   UNL A   1      30.731  23.999  23.641  1.00  0.00     0.024 A 
ATOM     18  N   UNL A   1      33.269  23.900  21.877  1.00  0.00    -0.261 NA
ATOM     19  C   UNL A   1      30.523  25.718  23.226  1.00  0.00     0.003 A 
ATOM     20  C   UNL A   1      32.981  25.590  21.430  1.00  0.00     0.111 A 
ATOM     21  C   UNL A   1      31.630  26.502  22.094  1.00  0.00     0.020 A 
ENDBRANCH  15  16
ENDBRANCH  14  15
ENDBRANCH  12  14
ENDBRANCH   9  12
ENDBRANCH   4   8
ENDBRANCH   3   4
ENDBRANCH   1   3
BRANCH   1  22
ATOM     22  O   UNL A   1      32.908  28.143  25.485  1.00  0.00    -0.462 OA
BRANCH  22  23
ATOM     23  C   UNL A   1      31.648  28.799  25.234  1.00  0.00     0.274 C 
BRANCH  23  24
ATOM     24  C   UNL A   1      31.788  30.231  25.751  1.00  0.00     0.275 C 
BRANCH  24  25
ATOM     25  O   UNL A   1      32.755  30.187  26.812  1.00  0.00    -0.458 OA
BRANCH  25  26
ATOM     26  C   UNL A   1      33.234  31.372  27.251  1.00  0.00     0.338 C 
ATOM     27  O   UNL A   1      32.660  32.446  27.255  1.00  0.00    -0.246 OA
BRANCH  26  28
ATOM     28  C   UNL A   1      34.580  31.140  27.814  1.00  0.00     0.060 A 
ATOM     29  C   UNL A   1      35.467  32.207  27.978  1.00  0.00     0.016 A 
ATOM     30  C   UNL A   1      34.989  29.847  28.122  1.00  0.00     0.016 A 
ATOM     31  C   UNL A   1      36.772  31.985  28.408  1.00  0.00     0.010 A 
ATOM     32  C   UNL A   1      36.253  29.647  28.683  1.00  0.00     0.010 A 
ATOM     33  C   UNL A   1      37.156  30.716  28.845  1.00  0.00    -0.014 A 
BRANCH  33  34
ATOM     34  C   UNL A   1      38.446  30.492  29.556  1.00  0.00     0.031 A 
ATOM     35  C   UNL A   1      39.458  29.536  28.992  1.00  0.00     0.074 A 
ATOM     36  C   UNL A   1      38.644  31.039  30.774  1.00  0.00     0.049 A 
ATOM     37  N   UNL A   1      40.426  28.897  29.597  1.00  0.00    -0.248 NA
ATOM     38  C   UNL A   1      39.340  29.231  27.557  1.00  0.00     0.031 C 
ATOM     39  C   UNL A   1      37.771  32.018  31.428  1.00  0.00     0.029 A 
ATOM     40  N   UNL A   1      39.631  30.813  31.705  1.00  0.00    -0.354 N 
ATOM     41  C   UNL A   1      40.986  28.063  28.638  1.00  0.00     0.074 A 
ATOM     42  C   UNL A   1      40.250  28.277  27.409  1.00  0.00     0.031 C 
ATOM     43  C   UNL A   1      38.253  32.306  32.643  1.00  0.00     0.029 A 
ATOM     44  C   UNL A   1      39.399  31.448  32.903  1.00  0.00     0.049 A 
ATOM     45  H   UNL A   1      40.422  30.254  31.532  1.00  0.00     0.167 HD
ATOM     46  C   UNL A   1      42.012  27.188  28.785  1.00  0.00     0.037 A 
ATOM     47  C   UNL A   1      39.983  31.304  34.106  1.00  0.00     0.037 A 
ATOM     48  C   UNL A   1      42.751  27.020  30.011  1.00  0.00     0.049 A 
ATOM     49  C   UNL A   1      41.083  30.295  34.259  1.00  0.00     0.074 A 
ATOM     50  C   UNL A   1      43.830  26.190  30.263  1.00  0.00     0.029 A 
ATOM     51  N   UNL A   1      42.489  27.702  31.192  1.00  0.00    -0.354 N 
ATOM     52  N   UNL A   1      41.585  29.479  33.365  1.00  0.00    -0.248 NA
ATOM     53  C   UNL A   1      41.689  30.178  35.591  1.00  0.00     0.031 C 
ATOM     54  C   UNL A   1      44.184  26.330  31.609  1.00  0.00     0.029 A 
ATOM     55  C   UNL A   1      43.375  27.299  32.179  1.00  0.00     0.049 A 
ATOM     56  H   UNL A   1      41.778  28.374  31.310  1.00  0.00     0.167 HD
ATOM     57  C   UNL A   1      42.590  28.777  34.014  1.00  0.00     0.074 A 
ATOM     58  C   UNL A   1      42.628  29.269  35.377  1.00  0.00     0.031 C 
ATOM     59  C   UNL A   1      43.408  27.814  33.524  1.00  0.00     0.037 A 
BRANCH  46  60
ATOM     60  C   UNL A   1      42.373  26.321  27.611  1.00  0.00     0.064 A 
ATOM     61  C   UNL A   1      43.416  26.648  26.732  1.00  0.00     0.173 A 
ATOM     62  C   UNL A   1      41.690  25.113  27.389  1.00  0.00     0.173 A 
ATOM     63  F   UNL A   1      44.099  27.792  26.891  1.00  0.00    -0.203 F 
ATOM     64  C   UNL A   1      43.741  25.817  25.661  1.00  0.00     0.198 A 
ATOM     65  C   UNL A   1      42.040  24.269  26.338  1.00  0.00     0.198 A 
ATOM     66  F   UNL A   1      40.689  24.743  28.202  1.00  0.00    -0.203 F 
ATOM     67  F   UNL A   1      44.708  26.178  24.805  1.00  0.00    -0.200 F 
ATOM     68  C   UNL A   1      43.058  24.625  25.469  1.00  0.00     0.200 A 
ATOM     69  F   UNL A   1      41.390  23.109  26.168  1.00  0.00    -0.200 F 
ATOM     70  F   UNL A   1      43.380  23.823  24.445  1.00  0.00    -0.200 F 
ENDBRANCH  46  60
BRANCH  47  71
ATOM     71  C   UNL A   1      39.504  32.106  35.264  1.00  0.00     0.064 A 
ATOM     72  C   UNL A   1      39.938  33.426  35.445  1.00  0.00     0.173 A 
ATOM     73  C   UNL A   1      38.589  31.587  36.193  1.00  0.00     0.173 A 
ATOM     74  F   UNL A   1      40.827  33.960  34.595  1.00  0.00    -0.203 F 
ATOM     75  C   UNL A   1      39.489  34.190  36.520  1.00  0.00     0.198 A 
ATOM     76  C   UNL A   1      38.111  32.365  37.246  1.00  0.00     0.198 A 
ATOM     77  F   UNL A   1      38.133  30.333  36.062  1.00  0.00    -0.203 F 
ATOM     78  F   UNL A   1      39.955  35.434  36.694  1.00  0.00    -0.200 F 
ATOM     79  C   UNL A   1      38.569  33.663  37.414  1.00  0.00     0.200 A 
ATOM     80  F   UNL A   1      37.206  31.858  38.094  1.00  0.00    -0.200 F 
ATOM     81  F   UNL A   1      38.127  34.404  38.440  1.00  0.00    -0.200 F 
ENDBRANCH  47  71
BRANCH  59  82
ATOM     82  C   UNL A   1      44.466  27.283  34.448  1.00  0.00     0.064 A 
ATOM     83  C   UNL A   1      45.734  27.876  34.545  1.00  0.00     0.173 A 
ATOM     84  C   UNL A   1      44.188  26.183  35.272  1.00  0.00     0.173 A 
ATOM     85  F   UNL A   1      46.055  28.918  33.763  1.00  0.00    -0.203 F 
ATOM     86  C   UNL A   1      46.694  27.367  35.415  1.00  0.00     0.198 A 
ATOM     87  C   UNL A   1      45.138  25.699  36.167  1.00  0.00     0.198 A 
ATOM     88  F   UNL A   1      42.990  25.582  35.220  1.00  0.00    -0.203 F 
ATOM     89  F   UNL A   1      47.917  27.914  35.454  1.00  0.00    -0.200 F 
ATOM     90  C   UNL A   1      46.393  26.287  36.231  1.00  0.00     0.200 A 
ATOM     91  F   UNL A   1      44.840  24.665  36.964  1.00  0.00    -0.200 F 
ATOM     92  F   UNL A   1      47.315  25.806  37.076  1.00  0.00    -0.200 F 
ENDBRANCH  59  82
ENDBRANCH  33  34
ENDBRANCH  26  28
ENDBRANCH  25  26
ENDBRANCH  24  25
ENDBRANCH  23  24
ENDBRANCH  22  23
ENDBRANCH   1  22
TORSDOF 17
ENDMDL
MODEL 3
REMARK VINA RESULT:     -13.0      1.210      3.723
REMARK SMILES CN(CCc1ccccn1)C(=O)NC1(CC(=O)OCCOC(=O)c2ccc(-c3c4nc(c(-c5c(F)c(F)c(F)c(F)c5F)c5ccc([nH]5)c(-c5c(F)c(F)c(F)c(F)c5F)c5nc(c(-c6c(F)c(F)c(F)c(F)c6F)c6ccc3[nH]6)C=C5)C=C4)cc2)CCC1
REMARK SMILES IDX 16 1 17 2 15 3 14 4 87 5 89 6 88 7 13 8 11 9 12 10 2 12 1 13
REMARK SMILES IDX 3 14 4 15 5 16 6 17 10 18 7 19 9 20 8 21 18 22 19 23 20 24
REMARK SMILES IDX 21 25 22 26 23 27 24 28 25 29 86 30 26 31 85 32 27 33 28 34
REMARK SMILES IDX 29 35 79 36 30 37 84 38 78 39 80 40 31 41 83 42 77 43 76 44
REMARK SMILES IDX 32 46 64 47 44 48 63 49 45 50 48 51 62 52 81 53 46 54 47 55
REMARK SMILES IDX 61 57 82 58 49 59 33 60 34 61 42 62 35 63 36 64 40 65 43 66
REMARK SMILES IDX 37 67 38 68 41 69 39 70 65 71 66 72 74 73 67 74 68 75 72 76
REMARK SMILES IDX 75 77 69 78 70 79 73 80 71 81 50 82 51 83 59 84 52 85 53 86
REMARK SMILES IDX 57 87 60 88 54 89 55 90 58 91 56 92
REMARK H PARENT 13 11 80 45 48 56
REMARK Flexibility Score: inf
ROOT
ATOM      1  C   UNL A   1      31.087  26.223  26.568  1.00  0.00     0.308 C 
ATOM      2  O   UNL A   1      31.496  25.154  27.029  1.00  0.00    -0.252 OA
ENDROOT
BRANCH   1   3
ATOM      3  C   UNL A   1      30.518  26.272  24.957  1.00  0.00     0.151 C 
BRANCH   3   4
ATOM      4  C   UNL A   1      30.981  27.354  23.112  1.00  0.00     0.052 C 
ATOM      5  C   UNL A   1      31.886  28.958  22.801  1.00  0.00     0.029 C 
ATOM      6  C   UNL A   1      29.915  28.394  22.007  1.00  0.00     0.029 C 
ATOM      7  C   UNL A   1      30.581  29.680  22.458  1.00  0.00     0.005 C 
BRANCH   4   8
ATOM      8  N   UNL A   1      31.774  26.601  21.679  1.00  0.00    -0.332 N 
ATOM      9  C   UNL A   1      32.617  25.558  21.399  1.00  0.00     0.317 C 
ATOM     10  O   UNL A   1      33.029  25.509  20.233  1.00  0.00    -0.249 OA
ATOM     11  H   UNL A   1      31.528  27.079  20.854  1.00  0.00     0.165 HD
BRANCH   9  12
ATOM     12  N   UNL A   1      33.130  24.723  22.365  1.00  0.00    -0.327 N 
ATOM     13  C   UNL A   1      32.539  23.393  22.442  1.00  0.00     0.148 C 
BRANCH  12  14
ATOM     14  C   UNL A   1      34.020  25.101  23.462  1.00  0.00     0.127 C 
BRANCH  14  15
ATOM     15  C   UNL A   1      34.097  24.112  24.619  1.00  0.00     0.078 C 
BRANCH  15  16
ATOM     16  C   UNL A   1      35.472  23.539  24.751  1.00  0.00     0.042 A 
ATOM     17  C   UNL A   1      36.720  24.385  25.755  1.00  0.00     0.024 A 
ATOM     18  N   UNL A   1      35.787  21.905  24.162  1.00  0.00    -0.261 NA
ATOM     19  C   UNL A   1      38.149  23.479  26.310  1.00  0.00     0.003 A 
ATOM     20  C   UNL A   1      37.260  21.065  24.676  1.00  0.00     0.111 A 
ATOM     21  C   UNL A   1      38.434  21.830  25.742  1.00  0.00     0.020 A 
ENDBRANCH  15  16
ENDBRANCH  14  15
ENDBRANCH  12  14
ENDBRANCH   9  12
ENDBRANCH   4   8
ENDBRANCH   3   4
ENDBRANCH   1   3
BRANCH   1  22
ATOM     22  O   UNL A   1      30.982  27.325  27.345  1.00  0.00    -0.462 OA
BRANCH  22  23
ATOM     23  C   UNL A   1      32.050  28.283  27.496  1.00  0.00     0.274 C 
BRANCH  23  24
ATOM     24  C   UNL A   1      31.886  29.304  26.370  1.00  0.00     0.275 C 
BRANCH  24  25
ATOM     25  O   UNL A   1      33.154  29.964  26.231  1.00  0.00    -0.458 OA
BRANCH  25  26
ATOM     26  C   UNL A   1      33.406  30.987  27.077  1.00  0.00     0.338 C 
ATOM     27  O   UNL A   1      32.656  31.896  27.382  1.00  0.00    -0.246 OA
BRANCH  26  28
ATOM     28  C   UNL A   1      34.752  30.783  27.651  1.00  0.00     0.060 A 
ATOM     29  C   UNL A   1      35.579  31.880  27.912  1.00  0.00     0.016 A 
ATOM     30  C   UNL A   1      35.223  29.494  27.874  1.00  0.00     0.016 A 
ATOM     31  C   UNL A   1      36.885  31.694  28.353  1.00  0.00     0.010 A 
ATOM     32  C   UNL A   1      36.485  29.319  28.447  1.00  0.00     0.010 A 
ATOM     33  C   UNL A   1      37.328  30.417  28.706  1.00  0.00    -0.014 A 
BRANCH  33  34
ATOM     34  C   UNL A   1      38.614  30.208  29.427  1.00  0.00     0.031 A 
ATOM     35  C   UNL A   1      39.643  29.266  28.870  1.00  0.00     0.074 A 
ATOM     36  C   UNL A   1      38.795  30.756  30.648  1.00  0.00     0.049 A 
ATOM     37  N   UNL A   1      40.614  28.638  29.483  1.00  0.00    -0.248 NA
ATOM     38  C   UNL A   1      39.541  28.962  27.434  1.00  0.00     0.031 C 
ATOM     39  C   UNL A   1      37.904  31.722  31.296  1.00  0.00     0.029 A 
ATOM     40  N   UNL A   1      39.777  30.541  31.587  1.00  0.00    -0.354 N 
ATOM     41  C   UNL A   1      41.192  27.813  28.527  1.00  0.00     0.074 A 
ATOM     42  C   UNL A   1      40.463  28.020  27.292  1.00  0.00     0.031 C 
ATOM     43  C   UNL A   1      38.372  32.014  32.516  1.00  0.00     0.029 A 
ATOM     44  C   UNL A   1      39.527  31.171  32.784  1.00  0.00     0.049 A 
ATOM     45  H   UNL A   1      40.576  29.991  31.420  1.00  0.00     0.167 HD
ATOM     46  C   UNL A   1      42.227  26.951  28.681  1.00  0.00     0.037 A 
ATOM     47  C   UNL A   1      40.102  31.031  33.992  1.00  0.00     0.037 A 
ATOM     48  C   UNL A   1      42.958  26.790  29.914  1.00  0.00     0.049 A 
ATOM     49  C   UNL A   1      41.214  30.036  34.153  1.00  0.00     0.074 A 
ATOM     50  C   UNL A   1      44.045  25.972  30.173  1.00  0.00     0.029 A 
ATOM     51  N   UNL A   1      42.678  27.467  31.093  1.00  0.00    -0.354 N 
ATOM     52  N   UNL A   1      41.733  29.228  33.262  1.00  0.00    -0.248 NA
ATOM     53  C   UNL A   1      41.809  29.925  35.489  1.00  0.00     0.031 C 
ATOM     54  C   UNL A   1      44.386  26.115  31.523  1.00  0.00     0.029 A 
ATOM     55  C   UNL A   1      43.560  27.072  32.087  1.00  0.00     0.049 A 
ATOM     56  H   UNL A   1      41.957  28.129  31.207  1.00  0.00     0.167 HD
ATOM     57  C   UNL A   1      42.741  28.537  33.918  1.00  0.00     0.074 A 
ATOM     58  C   UNL A   1      42.762  29.027  35.281  1.00  0.00     0.031 C 
ATOM     59  C   UNL A   1      43.576  27.586  33.433  1.00  0.00     0.037 A 
BRANCH  46  60
ATOM     60  C   UNL A   1      42.609  26.090  27.509  1.00  0.00     0.064 A 
ATOM     61  C   UNL A   1      43.642  26.442  26.628  1.00  0.00     0.173 A 
ATOM     62  C   UNL A   1      41.957  24.864  27.292  1.00  0.00     0.173 A 
ATOM     63  F   UNL A   1      44.295  27.604  26.782  1.00  0.00    -0.203 F 
ATOM     64  C   UNL A   1      43.987  25.617  25.558  1.00  0.00     0.198 A 
ATOM     65  C   UNL A   1      42.328  24.027  26.242  1.00  0.00     0.198 A 
ATOM     66  F   UNL A   1      40.968  24.470  28.107  1.00  0.00    -0.203 F 
ATOM     67  F   UNL A   1      44.942  26.001  24.700  1.00  0.00    -0.200 F 
ATOM     68  C   UNL A   1      43.335  24.407  25.370  1.00  0.00     0.200 A 
ATOM     69  F   UNL A   1      41.708  22.849  26.076  1.00  0.00    -0.200 F 
ATOM     70  F   UNL A   1      43.676  23.612  24.348  1.00  0.00    -0.200 F 
ENDBRANCH  46  60
BRANCH  47  71
ATOM     71  C   UNL A   1      39.603  31.826  35.147  1.00  0.00     0.064 A 
ATOM     72  C   UNL A   1      38.650  31.290  36.022  1.00  0.00     0.173 A 
ATOM     73  C   UNL A   1      40.082  33.118  35.414  1.00  0.00     0.173 A 
ATOM     74  F   UNL A   1      38.148  30.067  35.798  1.00  0.00    -0.203 F 
ATOM     75  C   UNL A   1      38.183  32.021  37.113  1.00  0.00     0.198 A 
ATOM     76  C   UNL A   1      39.641  33.834  36.526  1.00  0.00     0.198 A 
ATOM     77  F   UNL A   1      41.001  33.676  34.613  1.00  0.00    -0.203 F 
ATOM     78  F   UNL A   1      37.240  31.502  37.909  1.00  0.00    -0.200 F 
ATOM     79  C   UNL A   1      38.685  33.288  37.369  1.00  0.00     0.200 A 
ATOM     80  F   UNL A   1      40.147  35.048  36.782  1.00  0.00    -0.200 F 
ATOM     81  F   UNL A   1      38.246  33.985  38.426  1.00  0.00    -0.200 F 
ENDBRANCH  47  71
BRANCH  59  82
ATOM     82  C   UNL A   1      44.632  27.066  34.365  1.00  0.00     0.064 A 
ATOM     83  C   UNL A   1      45.888  27.680  34.481  1.00  0.00     0.173 A 
ATOM     84  C   UNL A   1      44.365  25.955  35.178  1.00  0.00     0.173 A 
ATOM     85  F   UNL A   1      46.199  28.734  33.711  1.00  0.00    -0.203 F 
ATOM     86  C   UNL A   1      46.847  27.182  35.358  1.00  0.00     0.198 A 
ATOM     87  C   UNL A   1      45.313  25.481  36.079  1.00  0.00     0.198 A 
ATOM     88  F   UNL A   1      43.177  25.334  35.107  1.00  0.00    -0.203 F 
ATOM     89  F   UNL A   1      48.060  27.750  35.415  1.00  0.00    -0.200 F 
ATOM     90  C   UNL A   1      46.556  26.090  36.163  1.00  0.00     0.200 A 
ATOM     91  F   UNL A   1      45.024  24.436  36.865  1.00  0.00    -0.200 F 
ATOM     92  F   UNL A   1      47.477  25.619  37.015  1.00  0.00    -0.200 F 
ENDBRANCH  59  82
ENDBRANCH  33  34
ENDBRANCH  26  28
ENDBRANCH  25  26
ENDBRANCH  24  25
ENDBRANCH  23  24
ENDBRANCH  22  23
ENDBRANCH   1  22
TORSDOF 17
ENDMDL
