MODEL 1
REMARK VINA RESULT:     -11.3      0.000      0.000
REMARK SMILES CCN(Cc1c(C)nn(CC)c1C)C(=O)Cn1ccc(C(=O)OCCOC(=O)c2ccc(-c3c4nc(c(-c5c(F)c(F)c(F)c(F)c5F)c5ccc([nH]5)c(-c5c(F)c(F)c(F)c(F)c5F)c5nc(c(-c6c(F)c(F)c(F)c(F)c6F)c6ccc3[nH]6)C=C5)C=C4)cc2)n1
REMARK SMILES IDX 21 1 22 2 20 3 17 4 18 5 92 6 19 7 16 8 14 9 15 10 3 11 2 12
REMARK SMILES IDX 1 13 4 14 5 15 6 16 12 17 7 18 8 19 9 20 13 21 10 22 11 23
REMARK SMILES IDX 23 24 24 25 25 26 26 27 27 28 28 29 29 30 30 31 91 32 31 33
REMARK SMILES IDX 90 34 32 35 33 36 34 37 84 38 35 39 89 40 83 41 85 42 36 43
REMARK SMILES IDX 88 44 82 45 81 46 37 48 69 49 49 50 68 51 50 52 53 53 67 54
REMARK SMILES IDX 86 55 51 56 52 57 66 59 87 60 54 61 38 62 39 63 47 64 40 65
REMARK SMILES IDX 41 66 45 67 48 68 42 69 43 70 46 71 44 72 70 73 71 74 79 75
REMARK SMILES IDX 72 76 73 77 77 78 80 79 74 80 75 81 78 82 76 83 55 84 56 85
REMARK SMILES IDX 64 86 57 87 58 88 62 89 65 90 59 91 60 92 63 93 61 94
REMARK H PARENT 85 47 53 58
REMARK Flexibility Score: inf
ROOT
ATOM      1  C   UNL A   1      40.454  21.333  26.726  1.00  0.00     0.358 C 
ATOM      2  O   UNL A   1      40.597  21.563  27.926  1.00  0.00    -0.244 OA
ENDROOT
BRANCH   1   3
ATOM      3  C   UNL A   1      39.207  21.624  26.012  1.00  0.00     0.170 A 
ATOM      4  N   UNL A   1      37.457  22.635  25.335  1.00  0.00    -0.262 N 
ATOM      5  C   UNL A   1      37.313  21.355  24.881  1.00  0.00     0.110 A 
ATOM      6  N   UNL A   1      38.579  22.813  26.060  1.00  0.00    -0.165 NA
ATOM      7  C   UNL A   1      38.469  20.700  25.223  1.00  0.00     0.057 A 
BRANCH   4   8
ATOM      8  C   UNL A   1      36.610  23.789  25.089  1.00  0.00     0.244 C 
BRANCH   8   9
ATOM      9  C   UNL A   1      35.321  23.482  24.358  1.00  0.00     0.244 C 
ATOM     10  O   UNL A   1      35.262  23.710  23.143  1.00  0.00    -0.273 OA
BRANCH   9  11
ATOM     11  N   UNL A   1      34.228  22.941  25.035  1.00  0.00    -0.337 N 
BRANCH  11  12
ATOM     12  C   UNL A   1      33.474  21.884  24.351  1.00  0.00     0.116 C 
ATOM     13  C   UNL A   1      33.171  20.691  25.249  1.00  0.00     0.027 C 
ENDBRANCH  11  12
BRANCH  11  14
ATOM     14  C   UNL A   1      33.759  23.355  26.370  1.00  0.00     0.159 C 
BRANCH  14  15
ATOM     15  C   UNL A   1      32.670  24.375  26.281  1.00  0.00     0.015 A 
ATOM     16  C   UNL A   1      31.272  24.167  26.485  1.00  0.00     0.065 A 
ATOM     17  C   UNL A   1      32.776  25.735  26.013  1.00  0.00     0.041 A 
ATOM     18  C   UNL A   1      30.532  22.928  26.842  1.00  0.00     0.069 C 
ATOM     19  N   UNL A   1      30.573  25.290  26.301  1.00  0.00    -0.178 NA
ATOM     20  N   UNL A   1      31.491  26.211  25.971  1.00  0.00    -0.270 N 
ATOM     21  C   UNL A   1      33.966  26.592  25.777  1.00  0.00     0.067 C 
BRANCH  20  22
ATOM     22  C   UNL A   1      31.034  27.544  25.622  1.00  0.00     0.141 C 
ATOM     23  C   UNL A   1      30.827  27.710  24.126  1.00  0.00     0.029 C 
ENDBRANCH  20  22
ENDBRANCH  14  15
ENDBRANCH  11  14
ENDBRANCH   9  11
ENDBRANCH   8   9
ENDBRANCH   4   8
ENDBRANCH   1   3
BRANCH   1  24
ATOM     24  O   UNL A   1      41.458  20.919  25.897  1.00  0.00    -0.457 OA
BRANCH  24  25
ATOM     25  C   UNL A   1      41.993  19.617  26.169  1.00  0.00     0.275 C 
BRANCH  25  26
ATOM     26  C   UNL A   1      43.334  19.418  25.472  1.00  0.00     0.275 C 
BRANCH  26  27
ATOM     27  O   UNL A   1      43.669  20.522  24.626  1.00  0.00    -0.458 OA
BRANCH  27  28
ATOM     28  C   UNL A   1      44.935  20.979  24.751  1.00  0.00     0.338 C 
ATOM     29  O   UNL A   1      45.963  20.330  24.673  1.00  0.00    -0.246 OA
BRANCH  28  30
ATOM     30  C   UNL A   1      44.913  22.369  25.218  1.00  0.00     0.060 A 
ATOM     31  C   UNL A   1      45.693  22.692  26.334  1.00  0.00     0.016 A 
ATOM     32  C   UNL A   1      43.945  23.252  24.720  1.00  0.00     0.016 A 
ATOM     33  C   UNL A   1      45.402  23.847  27.034  1.00  0.00     0.010 A 
ATOM     34  C   UNL A   1      43.649  24.398  25.425  1.00  0.00     0.010 A 
ATOM     35  C   UNL A   1      44.336  24.651  26.609  1.00  0.00    -0.014 A 
BRANCH  35  36
ATOM     36  C   UNL A   1      44.007  25.819  27.404  1.00  0.00     0.031 A 
ATOM     37  C   UNL A   1      44.985  26.927  27.299  1.00  0.00     0.074 A 
ATOM     38  C   UNL A   1      42.852  25.937  28.085  1.00  0.00     0.049 A 
ATOM     39  N   UNL A   1      45.686  27.459  28.244  1.00  0.00    -0.248 NA
ATOM     40  C   UNL A   1      45.293  27.439  25.954  1.00  0.00     0.031 C 
ATOM     41  C   UNL A   1      41.678  25.062  28.048  1.00  0.00     0.029 A 
ATOM     42  N   UNL A   1      42.455  26.956  28.896  1.00  0.00    -0.354 N 
ATOM     43  C   UNL A   1      46.425  28.474  27.645  1.00  0.00     0.074 A 
ATOM     44  C   UNL A   1      46.237  28.341  26.223  1.00  0.00     0.031 C 
ATOM     45  C   UNL A   1      40.633  25.699  28.626  1.00  0.00     0.029 A 
ATOM     46  C   UNL A   1      41.099  26.958  29.184  1.00  0.00     0.049 A 
ATOM     47  H   UNL A   1      43.077  27.632  29.248  1.00  0.00     0.167 HD
ATOM     48  C   UNL A   1      46.987  29.472  28.377  1.00  0.00     0.037 A 
ATOM     49  C   UNL A   1      40.410  27.965  29.773  1.00  0.00     0.037 A 
ATOM     50  C   UNL A   1      47.091  29.121  29.767  1.00  0.00     0.049 A 
ATOM     51  C   UNL A   1      41.389  28.829  30.481  1.00  0.00     0.074 A 
ATOM     52  C   UNL A   1      47.766  28.142  30.469  1.00  0.00     0.029 A 
ATOM     53  N   UNL A   1      46.149  29.618  30.634  1.00  0.00    -0.354 N 
ATOM     54  N   UNL A   1      42.045  28.467  31.547  1.00  0.00    -0.248 NA
ATOM     55  C   UNL A   1      41.956  29.955  29.753  1.00  0.00     0.031 C 
ATOM     56  C   UNL A   1      46.891  27.778  31.533  1.00  0.00     0.029 A 
ATOM     57  C   UNL A   1      45.756  28.583  31.442  1.00  0.00     0.049 A 
ATOM     58  H   UNL A   1      45.819  30.545  30.667  1.00  0.00     0.167 HD
ATOM     59  C   UNL A   1      43.308  29.015  31.384  1.00  0.00     0.074 A 
ATOM     60  C   UNL A   1      43.162  30.005  30.322  1.00  0.00     0.031 C 
ATOM     61  C   UNL A   1      44.407  28.416  31.929  1.00  0.00     0.037 A 
BRANCH  48  62
ATOM     62  C   UNL A   1      47.135  30.886  27.891  1.00  0.00     0.064 A 
ATOM     63  C   UNL A   1      45.987  31.628  27.553  1.00  0.00     0.173 A 
ATOM     64  C   UNL A   1      48.366  31.427  27.462  1.00  0.00     0.173 A 
ATOM     65  F   UNL A   1      44.766  31.187  27.889  1.00  0.00    -0.203 F 
ATOM     66  C   UNL A   1      46.066  32.791  26.784  1.00  0.00     0.198 A 
ATOM     67  C   UNL A   1      48.444  32.617  26.742  1.00  0.00     0.198 A 
ATOM     68  F   UNL A   1      49.523  30.772  27.621  1.00  0.00    -0.203 F 
ATOM     69  F   UNL A   1      44.942  33.399  26.382  1.00  0.00    -0.200 F 
ATOM     70  C   UNL A   1      47.293  33.283  26.376  1.00  0.00     0.200 A 
ATOM     71  F   UNL A   1      49.641  33.065  26.337  1.00  0.00    -0.200 F 
ATOM     72  F   UNL A   1      47.366  34.363  25.588  1.00  0.00    -0.200 F 
ENDBRANCH  48  62
BRANCH  49  73
ATOM     73  C   UNL A   1      39.015  28.394  29.522  1.00  0.00     0.064 A 
ATOM     74  C   UNL A   1      38.127  28.629  30.584  1.00  0.00     0.173 A 
ATOM     75  C   UNL A   1      38.608  28.848  28.252  1.00  0.00     0.173 A 
ATOM     76  F   UNL A   1      38.457  28.269  31.833  1.00  0.00    -0.203 F 
ATOM     77  C   UNL A   1      36.917  29.305  30.392  1.00  0.00     0.198 A 
ATOM     78  C   UNL A   1      37.398  29.513  28.059  1.00  0.00     0.198 A 
ATOM     79  F   UNL A   1      39.420  28.744  27.191  1.00  0.00    -0.203 F 
ATOM     80  F   UNL A   1      36.126  29.571  31.440  1.00  0.00    -0.200 F 
ATOM     81  C   UNL A   1      36.559  29.755  29.132  1.00  0.00     0.200 A 
ATOM     82  F   UNL A   1      37.080  29.975  26.842  1.00  0.00    -0.200 F 
ATOM     83  F   UNL A   1      35.431  30.457  28.957  1.00  0.00    -0.200 F 
ENDBRANCH  49  73
BRANCH  61  84
ATOM     84  C   UNL A   1      44.178  27.322  32.933  1.00  0.00     0.064 A 
ATOM     85  C   UNL A   1      44.066  25.961  32.598  1.00  0.00     0.173 A 
ATOM     86  C   UNL A   1      44.206  27.652  34.294  1.00  0.00     0.173 A 
ATOM     87  F   UNL A   1      44.136  25.554  31.326  1.00  0.00    -0.203 F 
ATOM     88  C   UNL A   1      43.934  24.984  33.583  1.00  0.00     0.198 A 
ATOM     89  C   UNL A   1      44.115  26.670  35.276  1.00  0.00     0.198 A 
ATOM     90  F   UNL A   1      44.371  28.929  34.674  1.00  0.00    -0.203 F 
ATOM     91  F   UNL A   1      43.810  23.694  33.239  1.00  0.00    -0.200 F 
ATOM     92  C   UNL A   1      43.966  25.339  34.922  1.00  0.00     0.200 A 
ATOM     93  F   UNL A   1      44.198  27.013  36.570  1.00  0.00    -0.200 F 
ATOM     94  F   UNL A   1      43.880  24.396  35.871  1.00  0.00    -0.200 F 
ENDBRANCH  61  84
ENDBRANCH  35  36
ENDBRANCH  28  30
ENDBRANCH  27  28
ENDBRANCH  26  27
ENDBRANCH  25  26
ENDBRANCH  24  25
ENDBRANCH   1  24
TORSDOF 18
ENDMDL
MODEL 2
REMARK VINA RESULT:     -10.9      2.363      3.203
REMARK SMILES CCN(Cc1c(C)nn(CC)c1C)C(=O)Cn1ccc(C(=O)OCCOC(=O)c2ccc(-c3c4nc(c(-c5c(F)c(F)c(F)c(F)c5F)c5ccc([nH]5)c(-c5c(F)c(F)c(F)c(F)c5F)c5nc(c(-c6c(F)c(F)c(F)c(F)c6F)c6ccc3[nH]6)C=C5)C=C4)cc2)n1
REMARK SMILES IDX 21 1 22 2 20 3 17 4 18 5 92 6 19 7 16 8 14 9 15 10 3 11 2 12
REMARK SMILES IDX 1 13 4 14 5 15 6 16 12 17 7 18 8 19 9 20 13 21 10 22 11 23
REMARK SMILES IDX 23 24 24 25 25 26 26 27 27 28 28 29 29 30 30 31 91 32 31 33
REMARK SMILES IDX 90 34 32 35 33 36 34 37 84 38 35 39 89 40 83 41 85 42 36 43
REMARK SMILES IDX 88 44 82 45 81 46 37 48 69 49 49 50 68 51 50 52 53 53 67 54
REMARK SMILES IDX 86 55 51 56 52 57 66 59 87 60 54 61 38 62 39 63 47 64 40 65
REMARK SMILES IDX 41 66 45 67 48 68 42 69 43 70 46 71 44 72 70 73 71 74 79 75
REMARK SMILES IDX 72 76 73 77 77 78 80 79 74 80 75 81 78 82 76 83 55 84 56 85
REMARK SMILES IDX 64 86 57 87 58 88 62 89 65 90 59 91 60 92 63 93 61 94
REMARK H PARENT 85 47 53 58
REMARK Flexibility Score: inf
ROOT
ATOM      1  C   UNL A   1      40.335  21.377  26.911  1.00  0.00     0.358 C 
ATOM      2  O   UNL A   1      40.676  21.532  28.083  1.00  0.00    -0.244 OA
ENDROOT
BRANCH   1   3
ATOM      3  C   UNL A   1      39.187  22.076  26.325  1.00  0.00     0.170 A 
ATOM      4  N   UNL A   1      37.493  22.505  25.105  1.00  0.00    -0.262 N 
ATOM      5  C   UNL A   1      37.795  23.693  25.707  1.00  0.00     0.110 A 
ATOM      6  N   UNL A   1      38.350  21.517  25.432  1.00  0.00    -0.165 NA
ATOM      7  C   UNL A   1      38.827  23.429  26.571  1.00  0.00     0.057 A 
BRANCH   4   8
ATOM      8  C   UNL A   1      36.373  22.181  24.239  1.00  0.00     0.244 C 
BRANCH   8   9
ATOM      9  C   UNL A   1      35.334  21.276  24.863  1.00  0.00     0.244 C 
ATOM     10  O   UNL A   1      35.528  20.053  24.844  1.00  0.00    -0.273 OA
BRANCH   9  11
ATOM     11  N   UNL A   1      34.190  21.805  25.460  1.00  0.00    -0.337 N 
BRANCH  11  12
ATOM     12  C   UNL A   1      34.385  22.664  26.633  1.00  0.00     0.116 C 
ATOM     13  C   UNL A   1      33.614  22.184  27.858  1.00  0.00     0.027 C 
ENDBRANCH  11  12
BRANCH  11  14
ATOM     14  C   UNL A   1      32.805  21.559  25.019  1.00  0.00     0.159 C 
BRANCH  14  15
ATOM     15  C   UNL A   1      32.131  22.821  24.587  1.00  0.00     0.015 A 
ATOM     16  C   UNL A   1      32.371  23.562  23.389  1.00  0.00     0.065 A 
ATOM     17  C   UNL A   1      31.118  23.526  25.226  1.00  0.00     0.041 A 
ATOM     18  C   UNL A   1      33.313  23.294  22.272  1.00  0.00     0.069 C 
ATOM     19  N   UNL A   1      31.612  24.660  23.328  1.00  0.00    -0.178 NA
ATOM     20  N   UNL A   1      30.900  24.645  24.464  1.00  0.00    -0.270 N 
ATOM     21  C   UNL A   1      30.377  23.244  26.481  1.00  0.00     0.067 C 
BRANCH  20  22
ATOM     22  C   UNL A   1      30.023  25.768  24.741  1.00  0.00     0.141 C 
ATOM     23  C   UNL A   1      30.732  27.104  24.599  1.00  0.00     0.029 C 
ENDBRANCH  20  22
ENDBRANCH  14  15
ENDBRANCH  11  14
ENDBRANCH   9  11
ENDBRANCH   8   9
ENDBRANCH   4   8
ENDBRANCH   1   3
BRANCH   1  24
ATOM     24  O   UNL A   1      41.049  20.661  25.991  1.00  0.00    -0.457 OA
BRANCH  24  25
ATOM     25  C   UNL A   1      42.440  20.480  26.286  1.00  0.00     0.275 C 
BRANCH  25  26
ATOM     26  C   UNL A   1      43.290  21.539  25.594  1.00  0.00     0.275 C 
BRANCH  26  27
ATOM     27  O   UNL A   1      42.520  22.684  25.217  1.00  0.00    -0.458 OA
BRANCH  27  28
ATOM     28  C   UNL A   1      43.204  23.848  25.175  1.00  0.00     0.338 C 
ATOM     29  O   UNL A   1      44.248  24.068  24.586  1.00  0.00    -0.246 OA
BRANCH  28  30
ATOM     30  C   UNL A   1      42.624  24.797  26.131  1.00  0.00     0.060 A 
ATOM     31  C   UNL A   1      41.685  25.714  25.648  1.00  0.00     0.016 A 
ATOM     32  C   UNL A   1      43.197  24.934  27.403  1.00  0.00     0.016 A 
ATOM     33  C   UNL A   1      41.425  26.849  26.391  1.00  0.00     0.010 A 
ATOM     34  C   UNL A   1      42.944  26.072  28.138  1.00  0.00     0.010 A 
ATOM     35  C   UNL A   1      42.111  27.047  27.597  1.00  0.00    -0.014 A 
BRANCH  35  36
ATOM     36  C   UNL A   1      41.872  28.281  28.320  1.00  0.00     0.031 A 
ATOM     37  C   UNL A   1      42.922  29.311  28.138  1.00  0.00     0.074 A 
ATOM     38  C   UNL A   1      40.737  28.521  29.002  1.00  0.00     0.049 A 
ATOM     39  N   UNL A   1      43.670  29.850  29.042  1.00  0.00    -0.248 NA
ATOM     40  C   UNL A   1      43.247  29.716  26.762  1.00  0.00     0.031 C 
ATOM     41  C   UNL A   1      39.505  27.729  29.030  1.00  0.00     0.029 A 
ATOM     42  N   UNL A   1      40.421  29.612  29.752  1.00  0.00    -0.354 N 
ATOM     43  C   UNL A   1      44.469  30.773  28.375  1.00  0.00     0.074 A 
ATOM     44  C   UNL A   1      44.254  30.566  26.966  1.00  0.00     0.031 C 
ATOM     45  C   UNL A   1      38.514  28.471  29.576  1.00  0.00     0.029 A 
ATOM     46  C   UNL A   1      39.073  29.727  30.050  1.00  0.00     0.049 A 
ATOM     47  H   UNL A   1      41.092  30.265  30.056  1.00  0.00     0.167 HD
ATOM     48  C   UNL A   1      45.107  31.772  29.039  1.00  0.00     0.037 A 
ATOM     49  C   UNL A   1      38.461  30.813  30.582  1.00  0.00     0.037 A 
ATOM     50  C   UNL A   1      45.205  31.501  30.447  1.00  0.00     0.049 A 
ATOM     51  C   UNL A   1      39.506  31.649  31.226  1.00  0.00     0.074 A 
ATOM     52  C   UNL A   1      45.821  30.523  31.203  1.00  0.00     0.029 A 
ATOM     53  N   UNL A   1      44.311  32.115  31.289  1.00  0.00    -0.354 N 
ATOM     54  N   UNL A   1      40.150  31.308  32.307  1.00  0.00    -0.248 NA
ATOM     55  C   UNL A   1      40.139  32.686  30.425  1.00  0.00     0.031 C 
ATOM     56  C   UNL A   1      44.936  30.286  32.295  1.00  0.00     0.029 A 
ATOM     57  C   UNL A   1      43.858  31.161  32.163  1.00  0.00     0.049 A 
ATOM     58  H   UNL A   1      44.045  33.063  31.268  1.00  0.00     0.167 HD
ATOM     59  C   UNL A   1      41.445  31.757  32.100  1.00  0.00     0.074 A 
ATOM     60  C   UNL A   1      41.353  32.687  30.979  1.00  0.00     0.031 C 
ATOM     61  C   UNL A   1      42.507  31.118  32.671  1.00  0.00     0.037 A 
BRANCH  48  62
ATOM     62  C   UNL A   1      45.346  33.141  28.465  1.00  0.00     0.064 A 
ATOM     63  C   UNL A   1      44.248  33.932  28.076  1.00  0.00     0.173 A 
ATOM     64  C   UNL A   1      46.609  33.574  28.006  1.00  0.00     0.173 A 
ATOM     65  F   UNL A   1      43.001  33.592  28.434  1.00  0.00    -0.203 F 
ATOM     66  C   UNL A   1      44.401  35.036  27.235  1.00  0.00     0.198 A 
ATOM     67  C   UNL A   1      46.763  34.708  27.213  1.00  0.00     0.198 A 
ATOM     68  F   UNL A   1      47.721  32.857  28.211  1.00  0.00    -0.203 F 
ATOM     69  F   UNL A   1      43.318  35.688  26.790  1.00  0.00    -0.200 F 
ATOM     70  C   UNL A   1      45.657  35.421  26.801  1.00  0.00     0.200 A 
ATOM     71  F   UNL A   1      47.986  35.051  26.785  1.00  0.00    -0.200 F 
ATOM     72  F   UNL A   1      45.799  36.442  25.946  1.00  0.00    -0.200 F 
ENDBRANCH  48  62
BRANCH  49  73
ATOM     73  C   UNL A   1      37.096  31.321  30.317  1.00  0.00     0.064 A 
ATOM     74  C   UNL A   1      36.206  31.590  31.368  1.00  0.00     0.173 A 
ATOM     75  C   UNL A   1      36.734  31.813  29.048  1.00  0.00     0.173 A 
ATOM     76  F   UNL A   1      36.497  31.196  32.617  1.00  0.00    -0.203 F 
ATOM     77  C   UNL A   1      35.038  32.334  31.169  1.00  0.00     0.198 A 
ATOM     78  C   UNL A   1      35.565  32.547  28.846  1.00  0.00     0.198 A 
ATOM     79  F   UNL A   1      37.555  31.679  27.996  1.00  0.00    -0.203 F 
ATOM     80  F   UNL A   1      34.247  32.630  32.208  1.00  0.00    -0.200 F 
ATOM     81  C   UNL A   1      34.724  32.820  29.910  1.00  0.00     0.200 A 
ATOM     82  F   UNL A   1      35.292  33.041  27.631  1.00  0.00    -0.200 F 
ATOM     83  F   UNL A   1      33.639  33.585  29.728  1.00  0.00    -0.200 F 
ENDBRANCH  49  73
BRANCH  61  84
ATOM     84  C   UNL A   1      42.216  30.107  33.743  1.00  0.00     0.064 A 
ATOM     85  C   UNL A   1      41.829  28.779  33.485  1.00  0.00     0.173 A 
ATOM     86  C   UNL A   1      42.468  30.458  35.076  1.00  0.00     0.173 A 
ATOM     87  F   UNL A   1      41.672  28.337  32.233  1.00  0.00    -0.203 F 
ATOM     88  C   UNL A   1      41.652  27.865  34.522  1.00  0.00     0.198 A 
ATOM     89  C   UNL A   1      42.329  29.531  36.105  1.00  0.00     0.198 A 
ATOM     90  F   UNL A   1      42.897  31.694  35.376  1.00  0.00    -0.203 F 
ATOM     91  F   UNL A   1      41.265  26.610  34.252  1.00  0.00    -0.200 F 
ATOM     92  C   UNL A   1      41.909  28.240  35.831  1.00  0.00     0.200 A 
ATOM     93  F   UNL A   1      42.628  29.885  37.363  1.00  0.00    -0.200 F 
ATOM     94  F   UNL A   1      41.778  27.350  36.824  1.00  0.00    -0.200 F 
ENDBRANCH  61  84
ENDBRANCH  35  36
ENDBRANCH  28  30
ENDBRANCH  27  28
ENDBRANCH  26  27
ENDBRANCH  25  26
ENDBRANCH  24  25
ENDBRANCH   1  24
TORSDOF 18
ENDMDL
MODEL 3
REMARK VINA RESULT:     -10.9      3.456      8.925
REMARK SMILES CCN(Cc1c(C)nn(CC)c1C)C(=O)Cn1ccc(C(=O)OCCOC(=O)c2ccc(-c3c4nc(c(-c5c(F)c(F)c(F)c(F)c5F)c5ccc([nH]5)c(-c5c(F)c(F)c(F)c(F)c5F)c5nc(c(-c6c(F)c(F)c(F)c(F)c6F)c6ccc3[nH]6)C=C5)C=C4)cc2)n1
REMARK SMILES IDX 21 1 22 2 20 3 17 4 18 5 92 6 19 7 16 8 14 9 15 10 3 11 2 12
REMARK SMILES IDX 1 13 4 14 5 15 6 16 12 17 7 18 8 19 9 20 13 21 10 22 11 23
REMARK SMILES IDX 23 24 24 25 25 26 26 27 27 28 28 29 29 30 30 31 91 32 31 33
REMARK SMILES IDX 90 34 32 35 33 36 34 37 84 38 35 39 89 40 83 41 85 42 36 43
REMARK SMILES IDX 88 44 82 45 81 46 37 48 69 49 49 50 68 51 50 52 53 53 67 54
REMARK SMILES IDX 86 55 51 56 52 57 66 59 87 60 54 61 38 62 39 63 47 64 40 65
REMARK SMILES IDX 41 66 45 67 48 68 42 69 43 70 46 71 44 72 70 73 71 74 79 75
REMARK SMILES IDX 72 76 73 77 77 78 80 79 74 80 75 81 78 82 76 83 55 84 56 85
REMARK SMILES IDX 64 86 57 87 58 88 62 89 65 90 59 91 60 92 63 93 61 94
REMARK H PARENT 85 47 53 58
REMARK Flexibility Score: inf
ROOT
ATOM      1  C   UNL A   1      32.554  28.455  25.667  1.00  0.00     0.358 C 
ATOM      2  O   UNL A   1      33.603  28.592  25.039  1.00  0.00    -0.244 OA
ENDROOT
BRANCH   1   3
ATOM      3  C   UNL A   1      31.668  27.302  25.477  1.00  0.00     0.170 A 
ATOM      4  N   UNL A   1      30.740  25.403  25.750  1.00  0.00    -0.262 N 
ATOM      5  C   UNL A   1      30.283  25.839  24.540  1.00  0.00     0.110 A 
ATOM      6  N   UNL A   1      31.615  26.255  26.321  1.00  0.00    -0.165 NA
ATOM      7  C   UNL A   1      30.792  27.103  24.376  1.00  0.00     0.057 A 
BRANCH   4   8
ATOM      8  C   UNL A   1      30.365  24.210  26.490  1.00  0.00     0.244 C 
BRANCH   8   9
ATOM      9  C   UNL A   1      31.039  22.939  26.022  1.00  0.00     0.244 C 
ATOM     10  O   UNL A   1      30.346  21.925  25.869  1.00  0.00    -0.273 OA
BRANCH   9  11
ATOM     11  N   UNL A   1      32.407  22.913  25.753  1.00  0.00    -0.337 N 
BRANCH  11  12
ATOM     12  C   UNL A   1      33.312  23.262  26.854  1.00  0.00     0.116 C 
ATOM     13  C   UNL A   1      33.213  22.303  28.034  1.00  0.00     0.027 C 
ENDBRANCH  11  12
BRANCH  11  14
ATOM     14  C   UNL A   1      33.016  22.581  24.452  1.00  0.00     0.159 C 
BRANCH  14  15
ATOM     15  C   UNL A   1      34.235  21.731  24.614  1.00  0.00     0.015 A 
ATOM     16  C   UNL A   1      34.282  20.328  24.879  1.00  0.00     0.065 A 
ATOM     17  C   UNL A   1      35.570  22.103  24.515  1.00  0.00     0.041 A 
ATOM     18  C   UNL A   1      33.176  19.351  25.051  1.00  0.00     0.069 C 
ATOM     19  N   UNL A   1      35.538  19.889  24.992  1.00  0.00    -0.178 NA
ATOM     20  N   UNL A   1      36.297  20.980  24.817  1.00  0.00    -0.270 N 
ATOM     21  C   UNL A   1      36.196  23.410  24.190  1.00  0.00     0.067 C 
BRANCH  20  22
ATOM     22  C   UNL A   1      37.735  20.849  24.964  1.00  0.00     0.141 C 
ATOM     23  C   UNL A   1      38.182  19.398  25.010  1.00  0.00     0.029 C 
ENDBRANCH  20  22
ENDBRANCH  14  15
ENDBRANCH  11  14
ENDBRANCH   9  11
ENDBRANCH   8   9
ENDBRANCH   4   8
ENDBRANCH   1   3
BRANCH   1  24
ATOM     24  O   UNL A   1      32.160  29.266  26.693  1.00  0.00    -0.457 OA
BRANCH  24  25
ATOM     25  C   UNL A   1      32.186  30.673  26.419  1.00  0.00     0.275 C 
BRANCH  25  26
ATOM     26  C   UNL A   1      32.924  31.433  27.516  1.00  0.00     0.275 C 
BRANCH  26  27
ATOM     27  O   UNL A   1      34.127  30.767  27.914  1.00  0.00    -0.458 OA
BRANCH  27  28
ATOM     28  C   UNL A   1      34.992  31.522  28.626  1.00  0.00     0.338 C 
ATOM     29  O   UNL A   1      34.751  32.561  29.215  1.00  0.00    -0.246 OA
BRANCH  28  30
ATOM     30  C   UNL A   1      36.359  31.029  28.423  1.00  0.00     0.060 A 
ATOM     31  C   UNL A   1      36.514  29.725  27.942  1.00  0.00     0.016 A 
ATOM     32  C   UNL A   1      37.440  31.752  28.947  1.00  0.00     0.016 A 
ATOM     33  C   UNL A   1      37.731  29.095  28.117  1.00  0.00     0.010 A 
ATOM     34  C   UNL A   1      38.650  31.119  29.130  1.00  0.00     0.010 A 
ATOM     35  C   UNL A   1      38.765  29.778  28.771  1.00  0.00    -0.014 A 
BRANCH  35  36
ATOM     36  C   UNL A   1      40.008  29.068  29.005  1.00  0.00     0.031 A 
ATOM     37  C   UNL A   1      40.335  28.862  30.435  1.00  0.00     0.074 A 
ATOM     38  C   UNL A   1      40.743  28.535  28.012  1.00  0.00     0.049 A 
ATOM     39  N   UNL A   1      41.372  29.282  31.081  1.00  0.00    -0.248 NA
ATOM     40  C   UNL A   1      39.332  28.187  31.274  1.00  0.00     0.031 C 
ATOM     41  C   UNL A   1      40.402  28.406  26.593  1.00  0.00     0.029 A 
ATOM     42  N   UNL A   1      41.940  27.893  28.103  1.00  0.00    -0.354 N 
ATOM     43  C   UNL A   1      41.230  28.806  32.380  1.00  0.00     0.074 A 
ATOM     44  C   UNL A   1      39.907  28.245  32.475  1.00  0.00     0.031 C 
ATOM     45  C   UNL A   1      41.264  27.542  26.009  1.00  0.00     0.029 A 
ATOM     46  C   UNL A   1      42.284  27.168  26.974  1.00  0.00     0.049 A 
ATOM     47  H   UNL A   1      42.512  27.940  28.903  1.00  0.00     0.167 HD
ATOM     48  C   UNL A   1      42.287  28.737  33.232  1.00  0.00     0.037 A 
ATOM     49  C   UNL A   1      43.295  26.270  26.878  1.00  0.00     0.037 A 
ATOM     50  C   UNL A   1      43.375  29.570  32.800  1.00  0.00     0.049 A 
ATOM     51  C   UNL A   1      44.246  26.542  27.987  1.00  0.00     0.074 A 
ATOM     52  C   UNL A   1      43.538  30.929  32.611  1.00  0.00     0.029 A 
ATOM     53  N   UNL A   1      44.429  28.976  32.151  1.00  0.00    -0.354 N 
ATOM     54  N   UNL A   1      45.004  27.599  28.056  1.00  0.00    -0.248 NA
ATOM     55  C   UNL A   1      44.047  25.834  29.243  1.00  0.00     0.031 C 
ATOM     56  C   UNL A   1      44.389  31.047  31.474  1.00  0.00     0.029 A 
ATOM     57  C   UNL A   1      44.729  29.757  31.065  1.00  0.00     0.049 A 
ATOM     58  H   UNL A   1      44.884  28.144  32.417  1.00  0.00     0.167 HD
ATOM     59  C   UNL A   1      45.018  27.933  29.401  1.00  0.00     0.074 A 
ATOM     60  C   UNL A   1      44.504  26.756  30.093  1.00  0.00     0.031 C 
ATOM     61  C   UNL A   1      45.177  29.230  29.799  1.00  0.00     0.037 A 
BRANCH  48  62
ATOM     62  C   UNL A   1      42.458  27.665  34.271  1.00  0.00     0.064 A 
ATOM     63  C   UNL A   1      43.019  26.427  33.906  1.00  0.00     0.173 A 
ATOM     64  C   UNL A   1      41.816  27.703  35.529  1.00  0.00     0.173 A 
ATOM     65  F   UNL A   1      43.626  26.276  32.719  1.00  0.00    -0.203 F 
ATOM     66  C   UNL A   1      42.888  25.295  34.713  1.00  0.00     0.198 A 
ATOM     67  C   UNL A   1      41.736  26.585  36.355  1.00  0.00     0.198 A 
ATOM     68  F   UNL A   1      41.149  28.783  35.951  1.00  0.00    -0.203 F 
ATOM     69  F   UNL A   1      43.330  24.109  34.272  1.00  0.00    -0.200 F 
ATOM     70  C   UNL A   1      42.244  25.374  35.935  1.00  0.00     0.200 A 
ATOM     71  F   UNL A   1      41.089  26.676  37.525  1.00  0.00    -0.200 F 
ATOM     72  F   UNL A   1      42.064  24.277  36.682  1.00  0.00    -0.200 F 
ENDBRANCH  48  62
BRANCH  49  73
ATOM     73  C   UNL A   1      43.343  25.022  26.084  1.00  0.00     0.064 A 
ATOM     74  C   UNL A   1      44.383  24.784  25.171  1.00  0.00     0.173 A 
ATOM     75  C   UNL A   1      42.527  23.920  26.405  1.00  0.00     0.173 A 
ATOM     76  F   UNL A   1      45.234  25.768  24.844  1.00  0.00    -0.203 F 
ATOM     77  C   UNL A   1      44.610  23.513  24.633  1.00  0.00     0.198 A 
ATOM     78  C   UNL A   1      42.748  22.654  25.862  1.00  0.00     0.198 A 
ATOM     79  F   UNL A   1      41.561  24.024  27.328  1.00  0.00    -0.203 F 
ATOM     80  F   UNL A   1      45.653  23.308  23.817  1.00  0.00    -0.200 F 
ATOM     81  C   UNL A   1      43.799  22.447  24.988  1.00  0.00     0.200 A 
ATOM     82  F   UNL A   1      41.978  21.625  26.242  1.00  0.00    -0.200 F 
ATOM     83  F   UNL A   1      44.053  21.216  24.523  1.00  0.00    -0.200 F 
ENDBRANCH  49  73
BRANCH  61  84
ATOM     84  C   UNL A   1      45.617  30.226  28.764  1.00  0.00     0.064 A 
ATOM     85  C   UNL A   1      44.742  30.861  27.865  1.00  0.00     0.173 A 
ATOM     86  C   UNL A   1      46.952  30.650  28.774  1.00  0.00     0.173 A 
ATOM     87  F   UNL A   1      43.432  30.588  27.867  1.00  0.00    -0.203 F 
ATOM     88  C   UNL A   1      45.198  31.838  26.982  1.00  0.00     0.198 A 
ATOM     89  C   UNL A   1      47.396  31.654  27.918  1.00  0.00     0.198 A 
ATOM     90  F   UNL A   1      47.820  30.121  29.651  1.00  0.00    -0.203 F 
ATOM     91  F   UNL A   1      44.348  32.416  26.122  1.00  0.00    -0.200 F 
ATOM     92  C   UNL A   1      46.524  32.238  27.014  1.00  0.00     0.200 A 
ATOM     93  F   UNL A   1      48.667  32.074  27.988  1.00  0.00    -0.200 F 
ATOM     94  F   UNL A   1      46.955  33.206  26.193  1.00  0.00    -0.200 F 
ENDBRANCH  61  84
ENDBRANCH  35  36
ENDBRANCH  28  30
ENDBRANCH  27  28
ENDBRANCH  26  27
ENDBRANCH  25  26
ENDBRANCH  24  25
ENDBRANCH   1  24
TORSDOF 18
ENDMDL
