MODEL 1
REMARK VINA RESULT:     -11.7      0.000      0.000
REMARK SMILES Cc1cc(C(=O)N[C@@H]2CC2(C)C)sc1/C=C/C(=O)OCCOC(=O)c1ccc(-c2c3nc(c(-c4c(F)c(F)c(F)c(F)c4F)c4ccc([nH]4)c(-c4c(F)c(F)c(F)c(F)c4F)c4nc(c(-c5c(F)c(F)c(F)c(F)c5F)c5ccc2[nH]5)C=C4)C=C3)cc1
REMARK SMILES IDX 20 1 19 2 17 3 18 4 16 5 15 6 14 7 1 8 2 9 3 10 4 11 13 12
REMARK SMILES IDX 5 13 6 14 7 15 8 17 9 18 10 19 11 20 12 21 21 22 22 23 23 24
REMARK SMILES IDX 24 25 25 26 26 27 87 28 27 29 86 30 28 31 29 32 30 33 80 34
REMARK SMILES IDX 31 35 85 36 79 37 81 38 32 39 84 40 78 41 77 42 33 44 65 45
REMARK SMILES IDX 45 46 64 47 46 48 49 49 63 50 82 51 47 52 48 53 62 55 83 56
REMARK SMILES IDX 50 57 34 58 35 59 43 60 36 61 37 62 41 63 44 64 38 65 39 66
REMARK SMILES IDX 42 67 40 68 66 69 67 70 75 71 68 72 69 73 73 74 76 75 70 76
REMARK SMILES IDX 71 77 74 78 72 79 51 80 52 81 60 82 53 83 54 84 58 85 61 86
REMARK SMILES IDX 55 87 56 88 59 89 57 90
REMARK H PARENT 7 16 81 43 49 54
REMARK Flexibility Score: inf
ROOT
ATOM      1  C   UNL A   1      43.758  21.129  25.730  1.00  0.00     0.275 C 
ENDROOT
BRANCH   1   2
ATOM      2  O   UNL A   1      42.713  20.186  25.433  1.00  0.00    -0.459 OA
BRANCH   2   3
ATOM      3  C   UNL A   1      41.785  20.022  26.401  1.00  0.00     0.330 C 
ATOM      4  O   UNL A   1      41.926  19.394  27.442  1.00  0.00    -0.247 OA
BRANCH   3   5
ATOM      5  C   UNL A   1      40.539  20.752  26.125  1.00  0.00     0.095 C 
ATOM      6  C   UNL A   1      40.224  21.992  26.535  1.00  0.00     0.027 C 
BRANCH   6   7
ATOM      7  C   UNL A   1      38.948  22.511  26.176  1.00  0.00     0.031 A 
ATOM      8  C   UNL A   1      38.904  24.809  27.328  1.00  0.00     0.046 C 
ATOM      9  C   UNL A   1      38.376  23.751  26.417  1.00  0.00    -0.032 A 
ATOM     10  C   UNL A   1      37.232  23.937  25.565  1.00  0.00     0.029 A 
ATOM     11  C   UNL A   1      36.958  22.842  24.755  1.00  0.00     0.093 A 
ATOM     12  S   UNL A   1      37.811  21.506  25.358  1.00  0.00    -0.130 S 
BRANCH  11  13
ATOM     13  C   UNL A   1      35.957  22.806  23.708  1.00  0.00     0.261 C 
ATOM     14  O   UNL A   1      36.302  22.933  22.523  1.00  0.00    -0.268 OA
ATOM     15  N   UNL A   1      34.608  22.552  23.851  1.00  0.00    -0.348 N 
ATOM     16  H   UNL A   1      34.195  22.544  22.958  1.00  0.00     0.164 HD
BRANCH  15  17
ATOM     17  C   UNL A   1      33.593  22.294  24.822  1.00  0.00     0.088 C 
ATOM     18  C   UNL A   1      32.179  22.759  24.881  1.00  0.00     0.034 C 
ATOM     19  C   UNL A   1      33.145  23.188  25.966  1.00  0.00    -0.013 C 
ATOM     20  C   UNL A   1      32.902  22.579  27.327  1.00  0.00     0.013 C 
ATOM     21  C   UNL A   1      33.609  24.616  26.047  1.00  0.00     0.013 C 
ENDBRANCH  15  17
ENDBRANCH  11  13
ENDBRANCH   6   7
ENDBRANCH   3   5
ENDBRANCH   2   3
ENDBRANCH   1   2
BRANCH   1  22
ATOM     22  C   UNL A   1      44.017  22.059  24.541  1.00  0.00     0.275 C 
BRANCH  22  23
ATOM     23  O   UNL A   1      43.388  23.345  24.715  1.00  0.00    -0.458 OA
BRANCH  23  24
ATOM     24  C   UNL A   1      44.218  24.357  25.059  1.00  0.00     0.338 C 
ATOM     25  O   UNL A   1      45.288  24.644  24.542  1.00  0.00    -0.246 OA
BRANCH  24  26
ATOM     26  C   UNL A   1      43.598  25.175  26.113  1.00  0.00     0.060 A 
ATOM     27  C   UNL A   1      43.918  26.535  26.172  1.00  0.00     0.016 A 
ATOM     28  C   UNL A   1      42.765  24.601  27.076  1.00  0.00     0.016 A 
ATOM     29  C   UNL A   1      43.411  27.325  27.202  1.00  0.00     0.010 A 
ATOM     30  C   UNL A   1      42.260  25.395  28.111  1.00  0.00     0.010 A 
ATOM     31  C   UNL A   1      42.591  26.759  28.188  1.00  0.00    -0.014 A 
BRANCH  31  32
ATOM     32  C   UNL A   1      42.114  27.590  29.320  1.00  0.00     0.031 A 
ATOM     33  C   UNL A   1      42.853  27.577  30.627  1.00  0.00     0.074 A 
ATOM     34  C   UNL A   1      41.024  28.366  29.170  1.00  0.00     0.049 A 
ATOM     35  N   UNL A   1      42.576  28.203  31.743  1.00  0.00    -0.248 NA
ATOM     36  C   UNL A   1      44.067  26.749  30.687  1.00  0.00     0.031 C 
ATOM     37  C   UNL A   1      40.236  28.480  27.944  1.00  0.00     0.029 A 
ATOM     38  N   UNL A   1      40.390  29.198  30.057  1.00  0.00    -0.354 N 
ATOM     39  C   UNL A   1      43.573  27.840  32.638  1.00  0.00     0.074 A 
ATOM     40  C   UNL A   1      44.447  26.919  31.945  1.00  0.00     0.031 C 
ATOM     41  C   UNL A   1      39.219  29.331  28.157  1.00  0.00     0.029 A 
ATOM     42  C   UNL A   1      39.266  29.794  29.543  1.00  0.00     0.049 A 
ATOM     43  H   UNL A   1      40.711  29.353  30.975  1.00  0.00     0.167 HD
ATOM     44  C   UNL A   1      43.747  28.248  33.919  1.00  0.00     0.037 A 
ATOM     45  C   UNL A   1      38.364  30.603  30.129  1.00  0.00     0.037 A 
ATOM     46  C   UNL A   1      42.878  29.167  34.607  1.00  0.00     0.049 A 
ATOM     47  C   UNL A   1      38.549  30.997  31.569  1.00  0.00     0.074 A 
ATOM     48  C   UNL A   1      42.985  29.656  35.898  1.00  0.00     0.029 A 
ATOM     49  N   UNL A   1      41.735  29.732  34.060  1.00  0.00    -0.354 N 
ATOM     50  N   UNL A   1      39.510  30.671  32.400  1.00  0.00    -0.248 NA
ATOM     51  C   UNL A   1      37.525  31.875  32.154  1.00  0.00     0.031 C 
ATOM     52  C   UNL A   1      41.883  30.482  36.147  1.00  0.00     0.029 A 
ATOM     53  C   UNL A   1      41.115  30.547  34.995  1.00  0.00     0.049 A 
ATOM     54  H   UNL A   1      41.411  29.578  33.143  1.00  0.00     0.167 HD
ATOM     55  C   UNL A   1      39.221  31.318  33.593  1.00  0.00     0.074 A 
ATOM     56  C   UNL A   1      38.001  32.069  33.376  1.00  0.00     0.031 C 
ATOM     57  C   UNL A   1      39.904  31.292  34.763  1.00  0.00     0.037 A 
BRANCH  44  58
ATOM     58  C   UNL A   1      44.916  27.684  34.672  1.00  0.00     0.064 A 
ATOM     59  C   UNL A   1      46.160  28.333  34.694  1.00  0.00     0.173 A 
ATOM     60  C   UNL A   1      44.781  26.500  35.414  1.00  0.00     0.173 A 
ATOM     61  F   UNL A   1      46.343  29.463  33.993  1.00  0.00    -0.203 F 
ATOM     62  C   UNL A   1      47.231  27.805  35.409  1.00  0.00     0.198 A 
ATOM     63  C   UNL A   1      45.848  25.990  36.148  1.00  0.00     0.198 A 
ATOM     64  F   UNL A   1      43.612  25.843  35.431  1.00  0.00    -0.203 F 
ATOM     65  F   UNL A   1      48.421  28.421  35.382  1.00  0.00    -0.200 F 
ATOM     66  C   UNL A   1      47.073  26.638  36.141  1.00  0.00     0.200 A 
ATOM     67  F   UNL A   1      45.689  24.868  36.865  1.00  0.00    -0.200 F 
ATOM     68  F   UNL A   1      48.104  26.135  36.834  1.00  0.00    -0.200 F 
ENDBRANCH  44  58
BRANCH  45  69
ATOM     69  C   UNL A   1      37.196  31.091  29.352  1.00  0.00     0.064 A 
ATOM     70  C   UNL A   1      36.130  30.238  29.036  1.00  0.00     0.173 A 
ATOM     71  C   UNL A   1      37.125  32.419  28.904  1.00  0.00     0.173 A 
ATOM     72  F   UNL A   1      36.164  28.954  29.420  1.00  0.00    -0.203 F 
ATOM     73  C   UNL A   1      35.044  30.691  28.289  1.00  0.00     0.198 A 
ATOM     74  C   UNL A   1      36.027  32.877  28.181  1.00  0.00     0.198 A 
ATOM     75  F   UNL A   1      38.122  33.274  29.178  1.00  0.00    -0.203 F 
ATOM     76  F   UNL A   1      34.057  29.844  27.965  1.00  0.00    -0.200 F 
ATOM     77  C   UNL A   1      34.990  32.012  27.868  1.00  0.00     0.200 A 
ATOM     78  F   UNL A   1      35.973  34.156  27.785  1.00  0.00    -0.200 F 
ATOM     79  F   UNL A   1      33.944  32.447  27.154  1.00  0.00    -0.200 F 
ENDBRANCH  45  69
BRANCH  57  80
ATOM     80  C   UNL A   1      39.367  32.125  35.892  1.00  0.00     0.064 A 
ATOM     81  C   UNL A   1      39.777  33.452  36.085  1.00  0.00     0.173 A 
ATOM     82  C   UNL A   1      38.404  31.600  36.766  1.00  0.00     0.173 A 
ATOM     83  F   UNL A   1      40.707  33.995  35.285  1.00  0.00    -0.203 F 
ATOM     84  C   UNL A   1      39.259  34.216  37.128  1.00  0.00     0.198 A 
ATOM     85  C   UNL A   1      37.868  32.375  37.792  1.00  0.00     0.198 A 
ATOM     86  F   UNL A   1      37.974  30.337  36.621  1.00  0.00    -0.203 F 
ATOM     87  F   UNL A   1      39.698  35.467  37.321  1.00  0.00    -0.200 F 
ATOM     88  C   UNL A   1      38.301  33.679  37.976  1.00  0.00     0.200 A 
ATOM     89  F   UNL A   1      36.934  31.859  38.602  1.00  0.00    -0.200 F 
ATOM     90  F   UNL A   1      37.799  34.418  38.974  1.00  0.00    -0.200 F 
ENDBRANCH  57  80
ENDBRANCH  31  32
ENDBRANCH  24  26
ENDBRANCH  23  24
ENDBRANCH  22  23
ENDBRANCH   1  22
TORSDOF 14
ENDMDL
MODEL 2
REMARK VINA RESULT:     -11.6      5.943     10.979
REMARK SMILES Cc1cc(C(=O)N[C@@H]2CC2(C)C)sc1/C=C/C(=O)OCCOC(=O)c1ccc(-c2c3nc(c(-c4c(F)c(F)c(F)c(F)c4F)c4ccc([nH]4)c(-c4c(F)c(F)c(F)c(F)c4F)c4nc(c(-c5c(F)c(F)c(F)c(F)c5F)c5ccc2[nH]5)C=C4)C=C3)cc1
REMARK SMILES IDX 20 1 19 2 17 3 18 4 16 5 15 6 14 7 1 8 2 9 3 10 4 11 13 12
REMARK SMILES IDX 5 13 6 14 7 15 8 17 9 18 10 19 11 20 12 21 21 22 22 23 23 24
REMARK SMILES IDX 24 25 25 26 26 27 87 28 27 29 86 30 28 31 29 32 30 33 80 34
REMARK SMILES IDX 31 35 85 36 79 37 81 38 32 39 84 40 78 41 77 42 33 44 65 45
REMARK SMILES IDX 45 46 64 47 46 48 49 49 63 50 82 51 47 52 48 53 62 55 83 56
REMARK SMILES IDX 50 57 34 58 35 59 43 60 36 61 37 62 41 63 44 64 38 65 39 66
REMARK SMILES IDX 42 67 40 68 66 69 67 70 75 71 68 72 69 73 73 74 76 75 70 76
REMARK SMILES IDX 71 77 74 78 72 79 51 80 52 81 60 82 53 83 54 84 58 85 61 86
REMARK SMILES IDX 55 87 56 88 59 89 57 90
REMARK H PARENT 7 16 81 43 49 54
REMARK Flexibility Score: inf
ROOT
ATOM      1  C   UNL A   1      34.249  34.708  31.333  1.00  0.00     0.275 C 
ENDROOT
BRANCH   1   2
ATOM      2  O   UNL A   1      33.335  34.581  30.229  1.00  0.00    -0.459 OA
BRANCH   2   3
ATOM      3  C   UNL A   1      33.909  34.425  29.015  1.00  0.00     0.330 C 
ATOM      4  O   UNL A   1      34.544  35.270  28.399  1.00  0.00    -0.247 OA
BRANCH   3   5
ATOM      5  C   UNL A   1      33.759  33.060  28.487  1.00  0.00     0.095 C 
ATOM      6  C   UNL A   1      34.739  32.258  28.039  1.00  0.00     0.027 C 
BRANCH   6   7
ATOM      7  C   UNL A   1      34.378  30.974  27.544  1.00  0.00     0.031 A 
ATOM      8  C   UNL A   1      36.586  29.662  27.645  1.00  0.00     0.046 C 
ATOM      9  C   UNL A   1      35.114  29.803  27.443  1.00  0.00    -0.032 A 
ATOM     10  C   UNL A   1      34.234  28.688  27.221  1.00  0.00     0.029 A 
ATOM     11  C   UNL A   1      32.895  29.046  27.124  1.00  0.00     0.093 A 
ATOM     12  S   UNL A   1      32.809  30.721  26.875  1.00  0.00    -0.130 S 
BRANCH  11  13
ATOM     13  C   UNL A   1      31.785  28.118  27.040  1.00  0.00     0.261 C 
ATOM     14  O   UNL A   1      31.031  27.974  28.014  1.00  0.00    -0.268 OA
ATOM     15  N   UNL A   1      31.380  27.397  25.935  1.00  0.00    -0.348 N 
ATOM     16  H   UNL A   1      30.568  26.894  26.171  1.00  0.00     0.164 HD
BRANCH  15  17
ATOM     17  C   UNL A   1      31.709  27.116  24.574  1.00  0.00     0.088 C 
ATOM     18  C   UNL A   1      31.506  25.877  23.773  1.00  0.00     0.034 C 
ATOM     19  C   UNL A   1      32.916  26.362  24.041  1.00  0.00    -0.013 C 
ATOM     20  C   UNL A   1      33.653  26.906  22.839  1.00  0.00     0.013 C 
ATOM     21  C   UNL A   1      33.815  25.601  24.974  1.00  0.00     0.013 C 
ENDBRANCH  15  17
ENDBRANCH  11  13
ENDBRANCH   6   7
ENDBRANCH   3   5
ENDBRANCH   2   3
ENDBRANCH   1   2
BRANCH   1  22
ATOM     22  C   UNL A   1      34.042  33.583  32.352  1.00  0.00     0.275 C 
BRANCH  22  23
ATOM     23  O   UNL A   1      34.868  32.436  32.065  1.00  0.00    -0.458 OA
BRANCH  23  24
ATOM     24  C   UNL A   1      35.962  32.296  32.850  1.00  0.00     0.338 C 
ATOM     25  O   UNL A   1      36.045  32.519  34.049  1.00  0.00    -0.246 OA
BRANCH  24  26
ATOM     26  C   UNL A   1      37.066  31.715  32.069  1.00  0.00     0.060 A 
ATOM     27  C   UNL A   1      38.028  30.957  32.743  1.00  0.00     0.016 A 
ATOM     28  C   UNL A   1      37.194  31.969  30.701  1.00  0.00     0.016 A 
ATOM     29  C   UNL A   1      39.128  30.455  32.051  1.00  0.00     0.010 A 
ATOM     30  C   UNL A   1      38.301  31.466  30.009  1.00  0.00     0.010 A 
ATOM     31  C   UNL A   1      39.282  30.718  30.683  1.00  0.00    -0.014 A 
BRANCH  31  32
ATOM     32  C   UNL A   1      40.492  30.241  29.969  1.00  0.00     0.031 A 
ATOM     33  C   UNL A   1      41.651  31.170  29.749  1.00  0.00     0.074 A 
ATOM     34  C   UNL A   1      40.554  28.971  29.530  1.00  0.00     0.049 A 
ATOM     35  N   UNL A   1      42.779  30.956  29.119  1.00  0.00    -0.248 NA
ATOM     36  C   UNL A   1      41.525  32.522  30.314  1.00  0.00     0.031 C 
ATOM     37  C   UNL A   1      39.503  27.969  29.703  1.00  0.00     0.029 A 
ATOM     38  N   UNL A   1      41.540  28.309  28.843  1.00  0.00    -0.354 N 
ATOM     39  C   UNL A   1      43.492  32.144  29.204  1.00  0.00     0.074 A 
ATOM     40  C   UNL A   1      42.660  33.085  29.923  1.00  0.00     0.031 C 
ATOM     41  C   UNL A   1      39.899  26.820  29.132  1.00  0.00     0.029 A 
ATOM     42  C   UNL A   1      41.215  27.015  28.526  1.00  0.00     0.049 A 
ATOM     43  H   UNL A   1      42.400  28.724  28.601  1.00  0.00     0.167 HD
ATOM     44  C   UNL A   1      44.732  32.419  28.733  1.00  0.00     0.037 A 
ATOM     45  C   UNL A   1      41.890  26.097  27.809  1.00  0.00     0.037 A 
ATOM     46  C   UNL A   1      45.560  31.481  28.020  1.00  0.00     0.049 A 
ATOM     47  C   UNL A   1      43.242  26.446  27.249  1.00  0.00     0.074 A 
ATOM     48  C   UNL A   1      46.839  31.661  27.522  1.00  0.00     0.029 A 
ATOM     49  N   UNL A   1      45.186  30.184  27.698  1.00  0.00    -0.354 N 
ATOM     50  N   UNL A   1      43.921  27.563  27.358  1.00  0.00    -0.248 NA
ATOM     51  C   UNL A   1      43.925  25.404  26.467  1.00  0.00     0.031 C 
ATOM     52  C   UNL A   1      47.222  30.488  26.860  1.00  0.00     0.029 A 
ATOM     53  C   UNL A   1      46.201  29.560  26.987  1.00  0.00     0.049 A 
ATOM     54  H   UNL A   1      44.327  29.767  27.937  1.00  0.00     0.167 HD
ATOM     55  C   UNL A   1      45.115  27.352  26.682  1.00  0.00     0.074 A 
ATOM     56  C   UNL A   1      45.076  25.996  26.177  1.00  0.00     0.031 C 
ATOM     57  C   UNL A   1      46.149  28.207  26.495  1.00  0.00     0.037 A 
BRANCH  44  58
ATOM     58  C   UNL A   1      45.266  33.803  28.955  1.00  0.00     0.064 A 
ATOM     59  C   UNL A   1      45.033  34.838  28.036  1.00  0.00     0.173 A 
ATOM     60  C   UNL A   1      45.984  34.111  30.120  1.00  0.00     0.173 A 
ATOM     61  F   UNL A   1      44.360  34.594  26.902  1.00  0.00    -0.203 F 
ATOM     62  C   UNL A   1      45.521  36.122  28.264  1.00  0.00     0.198 A 
ATOM     63  C   UNL A   1      46.449  35.402  30.357  1.00  0.00     0.198 A 
ATOM     64  F   UNL A   1      46.229  33.159  31.034  1.00  0.00    -0.203 F 
ATOM     65  F   UNL A   1      45.322  37.084  27.353  1.00  0.00    -0.200 F 
ATOM     66  C   UNL A   1      46.223  36.405  29.426  1.00  0.00     0.200 A 
ATOM     67  F   UNL A   1      47.116  35.676  31.487  1.00  0.00    -0.200 F 
ATOM     68  F   UNL A   1      46.687  37.642  29.647  1.00  0.00    -0.200 F 
ENDBRANCH  44  58
BRANCH  45  69
ATOM     69  C   UNL A   1      41.293  24.758  27.575  1.00  0.00     0.064 A 
ATOM     70  C   UNL A   1      40.205  24.593  26.707  1.00  0.00     0.173 A 
ATOM     71  C   UNL A   1      41.793  23.616  28.218  1.00  0.00     0.173 A 
ATOM     72  F   UNL A   1      39.674  25.659  26.089  1.00  0.00    -0.203 F 
ATOM     73  C   UNL A   1      39.631  23.339  26.503  1.00  0.00     0.198 A 
ATOM     74  C   UNL A   1      41.236  22.360  27.993  1.00  0.00     0.198 A 
ATOM     75  F   UNL A   1      42.832  23.722  29.060  1.00  0.00    -0.203 F 
ATOM     76  F   UNL A   1      38.564  23.216  25.702  1.00  0.00    -0.200 F 
ATOM     77  C   UNL A   1      40.151  22.223  27.141  1.00  0.00     0.200 A 
ATOM     78  F   UNL A   1      41.749  21.282  28.601  1.00  0.00    -0.200 F 
ATOM     79  F   UNL A   1      39.602  21.018  26.941  1.00  0.00    -0.200 F 
ENDBRANCH  45  69
BRANCH  57  80
ATOM     80  C   UNL A   1      47.341  27.692  25.741  1.00  0.00     0.064 A 
ATOM     81  C   UNL A   1      47.400  27.738  24.341  1.00  0.00     0.173 A 
ATOM     82  C   UNL A   1      48.451  27.181  26.429  1.00  0.00     0.173 A 
ATOM     83  F   UNL A   1      46.357  28.203  23.635  1.00  0.00    -0.203 F 
ATOM     84  C   UNL A   1      48.518  27.268  23.656  1.00  0.00     0.198 A 
ATOM     85  C   UNL A   1      49.579  26.738  25.743  1.00  0.00     0.198 A 
ATOM     86  F   UNL A   1      48.447  27.120  27.770  1.00  0.00    -0.203 F 
ATOM     87  F   UNL A   1      48.535  27.280  22.315  1.00  0.00    -0.200 F 
ATOM     88  C   UNL A   1      49.608  26.775  24.357  1.00  0.00     0.200 A 
ATOM     89  F   UNL A   1      50.636  26.273  26.423  1.00  0.00    -0.200 F 
ATOM     90  F   UNL A   1      50.686  26.331  23.697  1.00  0.00    -0.200 F 
ENDBRANCH  57  80
ENDBRANCH  31  32
ENDBRANCH  24  26
ENDBRANCH  23  24
ENDBRANCH  22  23
ENDBRANCH   1  22
TORSDOF 14
ENDMDL
MODEL 3
REMARK VINA RESULT:     -11.4      0.434      1.713
REMARK SMILES Cc1cc(C(=O)N[C@@H]2CC2(C)C)sc1/C=C/C(=O)OCCOC(=O)c1ccc(-c2c3nc(c(-c4c(F)c(F)c(F)c(F)c4F)c4ccc([nH]4)c(-c4c(F)c(F)c(F)c(F)c4F)c4nc(c(-c5c(F)c(F)c(F)c(F)c5F)c5ccc2[nH]5)C=C4)C=C3)cc1
REMARK SMILES IDX 20 1 19 2 17 3 18 4 16 5 15 6 14 7 1 8 2 9 3 10 4 11 13 12
REMARK SMILES IDX 5 13 6 14 7 15 8 17 9 18 10 19 11 20 12 21 21 22 22 23 23 24
REMARK SMILES IDX 24 25 25 26 26 27 87 28 27 29 86 30 28 31 29 32 30 33 80 34
REMARK SMILES IDX 31 35 85 36 79 37 81 38 32 39 84 40 78 41 77 42 33 44 65 45
REMARK SMILES IDX 45 46 64 47 46 48 49 49 63 50 82 51 47 52 48 53 62 55 83 56
REMARK SMILES IDX 50 57 34 58 35 59 43 60 36 61 37 62 41 63 44 64 38 65 39 66
REMARK SMILES IDX 42 67 40 68 66 69 67 70 75 71 68 72 69 73 73 74 76 75 70 76
REMARK SMILES IDX 71 77 74 78 72 79 51 80 52 81 60 82 53 83 54 84 58 85 61 86
REMARK SMILES IDX 55 87 56 88 59 89 57 90
REMARK H PARENT 7 16 81 43 49 54
REMARK Flexibility Score: inf
ROOT
ATOM      1  C   UNL A   1      43.968  20.733  25.371  1.00  0.00     0.275 C 
ENDROOT
BRANCH   1   2
ATOM      2  O   UNL A   1      42.934  20.933  26.352  1.00  0.00    -0.459 OA
BRANCH   2   3
ATOM      3  C   UNL A   1      41.854  20.131  26.230  1.00  0.00     0.330 C 
ATOM      4  O   UNL A   1      41.838  18.913  26.345  1.00  0.00    -0.247 OA
BRANCH   3   5
ATOM      5  C   UNL A   1      40.611  20.883  25.998  1.00  0.00     0.095 C 
ATOM      6  C   UNL A   1      40.252  22.043  26.572  1.00  0.00     0.027 C 
BRANCH   6   7
ATOM      7  C   UNL A   1      38.988  22.598  26.226  1.00  0.00     0.031 A 
ATOM      8  C   UNL A   1      38.900  24.766  27.605  1.00  0.00     0.046 C 
ATOM      9  C   UNL A   1      38.405  23.807  26.574  1.00  0.00    -0.032 A 
ATOM     10  C   UNL A   1      37.290  24.080  25.708  1.00  0.00     0.029 A 
ATOM     11  C   UNL A   1      37.045  23.074  24.781  1.00  0.00     0.093 A 
ATOM     12  S   UNL A   1      37.881  21.683  25.272  1.00  0.00    -0.130 S 
BRANCH  11  13
ATOM     13  C   UNL A   1      36.079  23.147  23.703  1.00  0.00     0.261 C 
ATOM     14  O   UNL A   1      36.447  22.951  22.535  1.00  0.00    -0.268 OA
ATOM     15  N   UNL A   1      34.716  23.331  23.815  1.00  0.00    -0.348 N 
ATOM     16  H   UNL A   1      34.320  23.285  22.915  1.00  0.00     0.164 HD
BRANCH  15  17
ATOM     17  C   UNL A   1      33.670  23.563  24.760  1.00  0.00     0.088 C 
ATOM     18  C   UNL A   1      33.735  24.064  26.161  1.00  0.00     0.034 C 
ATOM     19  C   UNL A   1      33.225  22.662  25.900  1.00  0.00    -0.013 C 
ATOM     20  C   UNL A   1      31.748  22.455  26.142  1.00  0.00     0.013 C 
ATOM     21  C   UNL A   1      34.048  21.469  26.298  1.00  0.00     0.013 C 
ENDBRANCH  15  17
ENDBRANCH  11  13
ENDBRANCH   6   7
ENDBRANCH   3   5
ENDBRANCH   2   3
ENDBRANCH   1   2
BRANCH   1  22
ATOM     22  C   UNL A   1      44.166  21.987  24.515  1.00  0.00     0.275 C 
BRANCH  22  23
ATOM     23  O   UNL A   1      43.435  23.117  25.034  1.00  0.00    -0.458 OA
BRANCH  23  24
ATOM     24  C   UNL A   1      44.167  24.235  25.248  1.00  0.00     0.338 C 
ATOM     25  O   UNL A   1      45.153  24.603  24.627  1.00  0.00    -0.246 OA
BRANCH  24  26
ATOM     26  C   UNL A   1      43.540  25.048  26.303  1.00  0.00     0.060 A 
ATOM     27  C   UNL A   1      43.802  26.421  26.326  1.00  0.00     0.016 A 
ATOM     28  C   UNL A   1      42.758  24.458  27.299  1.00  0.00     0.016 A 
ATOM     29  C   UNL A   1      43.288  27.210  27.354  1.00  0.00     0.010 A 
ATOM     30  C   UNL A   1      42.246  25.252  28.331  1.00  0.00     0.010 A 
ATOM     31  C   UNL A   1      42.520  26.630  28.372  1.00  0.00    -0.014 A 
BRANCH  31  32
ATOM     32  C   UNL A   1      42.037  27.464  29.500  1.00  0.00     0.031 A 
ATOM     33  C   UNL A   1      42.748  27.425  30.823  1.00  0.00     0.074 A 
ATOM     34  C   UNL A   1      40.968  28.264  29.333  1.00  0.00     0.049 A 
ATOM     35  N   UNL A   1      42.461  28.049  31.937  1.00  0.00    -0.248 NA
ATOM     36  C   UNL A   1      43.942  26.570  30.901  1.00  0.00     0.031 C 
ATOM     37  C   UNL A   1      40.209  28.404  28.092  1.00  0.00     0.029 A 
ATOM     38  N   UNL A   1      40.333  29.103  30.213  1.00  0.00    -0.354 N 
ATOM     39  C   UNL A   1      43.431  27.658  32.850  1.00  0.00     0.074 A 
ATOM     40  C   UNL A   1      44.300  26.723  32.169  1.00  0.00     0.031 C 
ATOM     41  C   UNL A   1      39.206  29.275  28.290  1.00  0.00     0.029 A 
ATOM     42  C   UNL A   1      39.233  29.727  29.680  1.00  0.00     0.049 A 
ATOM     43  H   UNL A   1      40.638  29.245  31.139  1.00  0.00     0.167 HD
ATOM     44  C   UNL A   1      43.587  28.053  34.138  1.00  0.00     0.037 A 
ATOM     45  C   UNL A   1      38.337  30.552  30.253  1.00  0.00     0.037 A 
ATOM     46  C   UNL A   1      42.723  28.986  34.814  1.00  0.00     0.049 A 
ATOM     47  C   UNL A   1      38.500  30.931  31.700  1.00  0.00     0.074 A 
ATOM     48  C   UNL A   1      42.813  29.464  36.110  1.00  0.00     0.029 A 
ATOM     49  N   UNL A   1      41.605  29.580  34.248  1.00  0.00    -0.354 N 
ATOM     50  N   UNL A   1      39.436  30.578  32.548  1.00  0.00    -0.248 NA
ATOM     51  C   UNL A   1      37.483  31.827  32.270  1.00  0.00     0.031 C 
ATOM     52  C   UNL A   1      41.724  30.312  36.342  1.00  0.00     0.029 A 
ATOM     53  C   UNL A   1      40.983  30.402  35.175  1.00  0.00     0.049 A 
ATOM     54  H   UNL A   1      41.297  29.439  33.323  1.00  0.00     0.167 HD
ATOM     55  C   UNL A   1      39.136  31.223  33.739  1.00  0.00     0.074 A 
ATOM     56  C   UNL A   1      37.938  32.002  33.503  1.00  0.00     0.031 C 
ATOM     57  C   UNL A   1      39.793  31.174  34.923  1.00  0.00     0.037 A 
BRANCH  44  58
ATOM     58  C   UNL A   1      44.727  27.458  34.911  1.00  0.00     0.064 A 
ATOM     59  C   UNL A   1      45.982  28.083  34.967  1.00  0.00     0.173 A 
ATOM     60  C   UNL A   1      44.552  26.270  35.636  1.00  0.00     0.173 A 
ATOM     61  F   UNL A   1      46.204  29.215  34.283  1.00  0.00    -0.203 F 
ATOM     62  C   UNL A   1      47.027  27.527  35.701  1.00  0.00     0.198 A 
ATOM     63  C   UNL A   1      45.592  25.731  36.390  1.00  0.00     0.198 A 
ATOM     64  F   UNL A   1      43.370  25.636  35.620  1.00  0.00    -0.203 F 
ATOM     65  F   UNL A   1      48.229  28.119  35.707  1.00  0.00    -0.200 F 
ATOM     66  C   UNL A   1      46.830  26.355  36.416  1.00  0.00     0.200 A 
ATOM     67  F   UNL A   1      45.395  24.605  37.091  1.00  0.00    -0.200 F 
ATOM     68  F   UNL A   1      47.834  25.825  37.127  1.00  0.00    -0.200 F 
ENDBRANCH  44  58
BRANCH  45  69
ATOM     69  C   UNL A   1      37.197  31.071  29.455  1.00  0.00     0.064 A 
ATOM     70  C   UNL A   1      37.156  32.407  29.036  1.00  0.00     0.173 A 
ATOM     71  C   UNL A   1      36.121  30.242  29.102  1.00  0.00     0.173 A 
ATOM     72  F   UNL A   1      38.148  33.244  29.372  1.00  0.00    -0.203 F 
ATOM     73  C   UNL A   1      36.076  32.898  28.305  1.00  0.00     0.198 A 
ATOM     74  C   UNL A   1      35.055  30.728  28.348  1.00  0.00     0.198 A 
ATOM     75  F   UNL A   1      36.112  28.955  29.482  1.00  0.00    -0.203 F 
ATOM     76  F   UNL A   1      36.042  34.191  27.952  1.00  0.00    -0.200 F 
ATOM     77  C   UNL A   1      35.030  32.057  27.956  1.00  0.00     0.200 A 
ATOM     78  F   UNL A   1      34.053  29.909  28.004  1.00  0.00    -0.200 F 
ATOM     79  F   UNL A   1      33.995  32.529  27.250  1.00  0.00    -0.200 F 
ENDBRANCH  45  69
BRANCH  57  80
ATOM     80  C   UNL A   1      39.251  32.011  36.047  1.00  0.00     0.064 A 
ATOM     81  C   UNL A   1      38.283  31.514  36.931  1.00  0.00     0.173 A 
ATOM     82  C   UNL A   1      39.735  33.309  36.262  1.00  0.00     0.173 A 
ATOM     83  F   UNL A   1      37.778  30.283  36.758  1.00  0.00    -0.203 F 
ATOM     84  C   UNL A   1      37.801  32.298  37.977  1.00  0.00     0.198 A 
ATOM     85  C   UNL A   1      39.271  34.080  37.325  1.00  0.00     0.198 A 
ATOM     86  F   UNL A   1      40.666  33.829  35.448  1.00  0.00    -0.203 F 
ATOM     87  F   UNL A   1      36.843  31.819  38.783  1.00  0.00    -0.200 F 
ATOM     88  C   UNL A   1      38.300  33.576  38.177  1.00  0.00     0.200 A 
ATOM     89  F   UNL A   1      39.762  35.311  37.524  1.00  0.00    -0.200 F 
ATOM     90  F   UNL A   1      37.839  34.326  39.187  1.00  0.00    -0.200 F 
ENDBRANCH  57  80
ENDBRANCH  31  32
ENDBRANCH  24  26
ENDBRANCH  23  24
ENDBRANCH  22  23
ENDBRANCH   1  22
TORSDOF 14
ENDMDL
