MODEL 1
REMARK VINA RESULT:     -12.5      0.000      0.000
REMARK SMILES CC1(C)[C@@H](C(=O)NCCc2ccccc2)CC[C@@]1(C)C(=O)OCCOC(=O)c1ccc(-c2c3nc(c(-c4c(F)c(F)c(F)c(F)c4F)c4ccc([nH]4)c(-c4c(F)c(F)c(F)c(F)c4F)c4nc(c(-c5c(F)c(F)c(F)c(F)c5F)c5ccc2[nH]5)C=C4)C=C3)cc1
REMARK SMILES IDX 23 1 22 2 20 3 21 4 18 5 1 6 2 7 3 8 4 9 16 10 17 11 19 12
REMARK SMILES IDX 5 13 6 14 7 15 8 17 9 18 10 19 11 20 15 21 12 22 14 23 13 24
REMARK SMILES IDX 24 25 25 26 26 27 27 28 28 29 29 30 90 31 30 32 89 33 31 34
REMARK SMILES IDX 32 35 33 36 83 37 34 38 88 39 82 40 84 41 35 42 87 43 81 44
REMARK SMILES IDX 80 45 36 47 68 48 48 49 67 50 49 51 52 52 66 53 85 54 50 55
REMARK SMILES IDX 51 56 65 58 86 59 53 60 37 61 38 62 46 63 39 64 40 65 44 66
REMARK SMILES IDX 47 67 41 68 42 69 45 70 43 71 69 72 70 73 78 74 71 75 72 76
REMARK SMILES IDX 76 77 79 78 73 79 74 80 77 81 75 82 54 83 55 84 63 85 56 86
REMARK SMILES IDX 57 87 61 88 64 89 58 90 59 91 62 92 60 93
REMARK H PARENT 7 16 84 46 52 57
REMARK Flexibility Score: inf
ROOT
ATOM      1  C   UNL A   1      31.769  28.665  27.211  1.00  0.00     0.274 C 
ENDROOT
BRANCH   1   2
ATOM      2  O   UNL A   1      31.539  27.457  26.463  1.00  0.00    -0.462 OA
BRANCH   2   3
ATOM      3  C   UNL A   1      32.606  26.973  25.770  1.00  0.00     0.312 C 
ATOM      4  O   UNL A   1      33.689  26.692  26.270  1.00  0.00    -0.252 OA
BRANCH   3   5
ATOM      5  C   UNL A   1      32.266  26.748  24.278  1.00  0.00     0.071 C 
ATOM      6  C   UNL A   1      34.129  24.914  24.049  1.00  0.00     0.013 C 
ATOM      7  C   UNL A   1      32.684  25.339  23.734  1.00  0.00    -0.008 C 
ATOM      8  C   UNL A   1      32.593  25.292  22.176  1.00  0.00     0.013 C 
ATOM      9  C   UNL A   1      31.575  24.398  24.302  1.00  0.00     0.085 C 
ATOM     10  C   UNL A   1      30.294  25.246  24.183  1.00  0.00     0.015 C 
ATOM     11  C   UNL A   1      30.721  26.717  24.125  1.00  0.00     0.020 C 
ATOM     12  C   UNL A   1      32.839  27.933  23.480  1.00  0.00     0.024 C 
BRANCH   9  13
ATOM     13  C   UNL A   1      31.744  23.877  25.735  1.00  0.00     0.223 C 
ATOM     14  O   UNL A   1      31.295  24.448  26.725  1.00  0.00    -0.275 OA
ATOM     15  N   UNL A   1      32.453  22.735  25.947  1.00  0.00    -0.356 N 
ATOM     16  H   UNL A   1      32.506  22.457  26.890  1.00  0.00     0.163 HD
BRANCH  15  17
ATOM     17  C   UNL A   1      33.146  21.854  25.021  1.00  0.00     0.120 C 
BRANCH  17  18
ATOM     18  C   UNL A   1      32.208  20.794  24.428  1.00  0.00     0.056 C 
BRANCH  18  19
ATOM     19  C   UNL A   1      32.886  19.486  24.086  1.00  0.00    -0.046 A 
ATOM     20  C   UNL A   1      34.071  19.089  24.724  1.00  0.00     0.004 A 
ATOM     21  C   UNL A   1      32.334  18.648  23.105  1.00  0.00     0.004 A 
ATOM     22  C   UNL A   1      34.701  17.895  24.367  1.00  0.00     0.000 A 
ATOM     23  C   UNL A   1      32.962  17.453  22.756  1.00  0.00     0.000 A 
ATOM     24  C   UNL A   1      34.148  17.078  23.383  1.00  0.00     0.000 A 
ENDBRANCH  18  19
ENDBRANCH  17  18
ENDBRANCH  15  17
ENDBRANCH   9  13
ENDBRANCH   3   5
ENDBRANCH   2   3
ENDBRANCH   1   2
BRANCH   1  25
ATOM     25  C   UNL A   1      31.809  29.875  26.282  1.00  0.00     0.275 C 
BRANCH  25  26
ATOM     26  O   UNL A   1      33.152  30.385  26.197  1.00  0.00    -0.458 OA
BRANCH  26  27
ATOM     27  C   UNL A   1      33.469  31.340  27.099  1.00  0.00     0.338 C 
ATOM     28  O   UNL A   1      32.803  32.295  27.453  1.00  0.00    -0.246 OA
BRANCH  27  29
ATOM     29  C   UNL A   1      34.795  31.050  27.660  1.00  0.00     0.060 A 
ATOM     30  C   UNL A   1      35.113  29.738  28.011  1.00  0.00     0.016 A 
ATOM     31  C   UNL A   1      35.665  32.094  27.963  1.00  0.00     0.016 A 
ATOM     32  C   UNL A   1      36.271  29.466  28.728  1.00  0.00     0.010 A 
ATOM     33  C   UNL A   1      36.865  31.811  28.621  1.00  0.00     0.010 A 
ATOM     34  C   UNL A   1      37.162  30.500  29.034  1.00  0.00    -0.014 A 
BRANCH  34  35
ATOM     35  C   UNL A   1      38.385  30.221  29.825  1.00  0.00     0.031 A 
ATOM     36  C   UNL A   1      39.450  29.329  29.257  1.00  0.00     0.074 A 
ATOM     37  C   UNL A   1      38.536  30.763  31.047  1.00  0.00     0.049 A 
ATOM     38  N   UNL A   1      40.492  28.802  29.848  1.00  0.00    -0.248 NA
ATOM     39  C   UNL A   1      39.321  28.974  27.834  1.00  0.00     0.031 C 
ATOM     40  C   UNL A   1      37.599  31.689  31.684  1.00  0.00     0.029 A 
ATOM     41  N   UNL A   1      39.534  30.607  31.976  1.00  0.00    -0.354 N 
ATOM     42  C   UNL A   1      41.111  28.013  28.888  1.00  0.00     0.074 A 
ATOM     43  C   UNL A   1      40.335  28.135  27.672  1.00  0.00     0.031 C 
ATOM     44  C   UNL A   1      38.067  32.022  32.897  1.00  0.00     0.029 A 
ATOM     45  C   UNL A   1      39.297  31.279  33.149  1.00  0.00     0.049 A 
ATOM     46  H   UNL A   1      40.340  30.066  31.816  1.00  0.00     0.167 HD
ATOM     47  C   UNL A   1      42.222  27.250  29.019  1.00  0.00     0.037 A 
ATOM     48  C   UNL A   1      39.969  31.258  34.315  1.00  0.00     0.037 A 
ATOM     49  C   UNL A   1      43.012  27.173  30.219  1.00  0.00     0.049 A 
ATOM     50  C   UNL A   1      41.187  30.388  34.442  1.00  0.00     0.074 A 
ATOM     51  C   UNL A   1      44.164  26.442  30.451  1.00  0.00     0.029 A 
ATOM     52  N   UNL A   1      42.735  27.866  31.388  1.00  0.00    -0.354 N 
ATOM     53  N   UNL A   1      41.739  29.605  33.546  1.00  0.00    -0.248 NA
ATOM     54  C   UNL A   1      41.866  30.384  35.744  1.00  0.00     0.031 C 
ATOM     55  C   UNL A   1      44.569  26.671  31.770  1.00  0.00     0.029 A 
ATOM     56  C   UNL A   1      43.690  27.571  32.349  1.00  0.00     0.049 A 
ATOM     57  H   UNL A   1      41.973  28.476  31.518  1.00  0.00     0.167 HD
ATOM     58  C   UNL A   1      42.832  29.023  34.172  1.00  0.00     0.074 A 
ATOM     59  C   UNL A   1      42.877  29.557  35.517  1.00  0.00     0.031 C 
ATOM     60  C   UNL A   1      43.715  28.121  33.679  1.00  0.00     0.037 A 
BRANCH  47  61
ATOM     61  C   UNL A   1      42.628  26.408  27.849  1.00  0.00     0.064 A 
ATOM     62  C   UNL A   1      42.088  25.135  27.627  1.00  0.00     0.173 A 
ATOM     63  C   UNL A   1      43.548  26.906  26.911  1.00  0.00     0.173 A 
ATOM     64  F   UNL A   1      41.218  24.609  28.503  1.00  0.00    -0.203 F 
ATOM     65  C   UNL A   1      42.465  24.382  26.517  1.00  0.00     0.198 A 
ATOM     66  C   UNL A   1      43.906  26.160  25.793  1.00  0.00     0.198 A 
ATOM     67  F   UNL A   1      44.091  28.121  27.078  1.00  0.00    -0.203 F 
ATOM     68  F   UNL A   1      41.962  23.152  26.342  1.00  0.00    -0.200 F 
ATOM     69  C   UNL A   1      43.368  24.897  25.598  1.00  0.00     0.200 A 
ATOM     70  F   UNL A   1      44.771  26.664  24.901  1.00  0.00    -0.200 F 
ATOM     71  F   UNL A   1      43.723  24.174  24.528  1.00  0.00    -0.200 F 
ENDBRANCH  47  61
BRANCH  48  72
ATOM     72  C   UNL A   1      39.471  32.053  35.466  1.00  0.00     0.064 A 
ATOM     73  C   UNL A   1      38.586  31.497  36.399  1.00  0.00     0.173 A 
ATOM     74  C   UNL A   1      39.880  33.381  35.662  1.00  0.00     0.173 A 
ATOM     75  F   UNL A   1      38.148  30.240  36.239  1.00  0.00    -0.203 F 
ATOM     76  C   UNL A   1      38.120  32.244  37.480  1.00  0.00     0.198 A 
ATOM     77  C   UNL A   1      39.435  34.116  36.757  1.00  0.00     0.198 A 
ATOM     78  F   UNL A   1      40.726  33.957  34.796  1.00  0.00    -0.203 F 
ATOM     79  F   UNL A   1      37.246  31.701  38.338  1.00  0.00    -0.200 F 
ATOM     80  C   UNL A   1      38.552  33.549  37.662  1.00  0.00     0.200 A 
ATOM     81  F   UNL A   1      39.865  35.373  36.936  1.00  0.00    -0.200 F 
ATOM     82  F   UNL A   1      38.110  34.262  38.707  1.00  0.00    -0.200 F 
ENDBRANCH  48  72
BRANCH  60  83
ATOM     83  C   UNL A   1      44.814  27.677  34.594  1.00  0.00     0.064 A 
ATOM     84  C   UNL A   1      44.675  26.540  35.404  1.00  0.00     0.173 A 
ATOM     85  C   UNL A   1      46.030  28.374  34.633  1.00  0.00     0.173 A 
ATOM     86  F   UNL A   1      43.524  25.854  35.411  1.00  0.00    -0.203 F 
ATOM     87  C   UNL A   1      45.712  26.129  36.237  1.00  0.00     0.198 A 
ATOM     88  C   UNL A   1      47.072  27.946  35.451  1.00  0.00     0.198 A 
ATOM     89  F   UNL A   1      46.209  29.464  33.873  1.00  0.00    -0.203 F 
ATOM     90  F   UNL A   1      45.546  25.063  37.032  1.00  0.00    -0.200 F 
ATOM     91  C   UNL A   1      46.910  26.829  36.256  1.00  0.00     0.200 A 
ATOM     92  F   UNL A   1      48.231  28.619  35.463  1.00  0.00    -0.200 F 
ATOM     93  F   UNL A   1      47.908  26.428  37.056  1.00  0.00    -0.200 F 
ENDBRANCH  60  83
ENDBRANCH  34  35
ENDBRANCH  27  29
ENDBRANCH  26  27
ENDBRANCH  25  26
ENDBRANCH   1  25
TORSDOF 15
ENDMDL
MODEL 2
REMARK VINA RESULT:     -12.5      1.073      2.199
REMARK SMILES CC1(C)[C@@H](C(=O)NCCc2ccccc2)CC[C@@]1(C)C(=O)OCCOC(=O)c1ccc(-c2c3nc(c(-c4c(F)c(F)c(F)c(F)c4F)c4ccc([nH]4)c(-c4c(F)c(F)c(F)c(F)c4F)c4nc(c(-c5c(F)c(F)c(F)c(F)c5F)c5ccc2[nH]5)C=C4)C=C3)cc1
REMARK SMILES IDX 23 1 22 2 20 3 21 4 18 5 1 6 2 7 3 8 4 9 16 10 17 11 19 12
REMARK SMILES IDX 5 13 6 14 7 15 8 17 9 18 10 19 11 20 15 21 12 22 14 23 13 24
REMARK SMILES IDX 24 25 25 26 26 27 27 28 28 29 29 30 90 31 30 32 89 33 31 34
REMARK SMILES IDX 32 35 33 36 83 37 34 38 88 39 82 40 84 41 35 42 87 43 81 44
REMARK SMILES IDX 80 45 36 47 68 48 48 49 67 50 49 51 52 52 66 53 85 54 50 55
REMARK SMILES IDX 51 56 65 58 86 59 53 60 37 61 38 62 46 63 39 64 40 65 44 66
REMARK SMILES IDX 47 67 41 68 42 69 45 70 43 71 69 72 70 73 78 74 71 75 72 76
REMARK SMILES IDX 76 77 79 78 73 79 74 80 77 81 75 82 54 83 55 84 63 85 56 86
REMARK SMILES IDX 57 87 61 88 64 89 58 90 59 91 62 92 60 93
REMARK H PARENT 7 16 84 46 52 57
REMARK Flexibility Score: inf
ROOT
ATOM      1  C   UNL A   1      31.768  28.991  27.251  1.00  0.00     0.274 C 
ENDROOT
BRANCH   1   2
ATOM      2  O   UNL A   1      31.330  28.008  26.295  1.00  0.00    -0.462 OA
BRANCH   2   3
ATOM      3  C   UNL A   1      32.299  27.475  25.501  1.00  0.00     0.312 C 
ATOM      4  O   UNL A   1      33.389  27.084  25.904  1.00  0.00    -0.252 OA
BRANCH   3   5
ATOM      5  C   UNL A   1      31.832  27.354  24.032  1.00  0.00     0.071 C 
ATOM      6  C   UNL A   1      33.457  25.339  23.601  1.00  0.00     0.013 C 
ATOM      7  C   UNL A   1      32.051  25.933  23.409  1.00  0.00    -0.008 C 
ATOM      8  C   UNL A   1      31.848  25.964  21.861  1.00  0.00     0.013 C 
ATOM      9  C   UNL A   1      30.885  25.096  24.023  1.00  0.00     0.085 C 
ATOM     10  C   UNL A   1      29.703  26.083  24.029  1.00  0.00     0.015 C 
ATOM     11  C   UNL A   1      30.287  27.500  23.992  1.00  0.00     0.020 C 
ATOM     12  C   UNL A   1      32.479  28.503  23.236  1.00  0.00     0.024 C 
BRANCH   9  13
ATOM     13  C   UNL A   1      31.094  24.497  25.420  1.00  0.00     0.223 C 
ATOM     14  O   UNL A   1      30.814  25.084  26.462  1.00  0.00    -0.275 OA
ATOM     15  N   UNL A   1      31.646  23.259  25.537  1.00  0.00    -0.356 N 
ATOM     16  H   UNL A   1      31.736  22.938  26.464  1.00  0.00     0.163 HD
BRANCH  15  17
ATOM     17  C   UNL A   1      32.127  22.328  24.529  1.00  0.00     0.120 C 
BRANCH  17  18
ATOM     18  C   UNL A   1      33.310  21.494  25.037  1.00  0.00     0.056 C 
BRANCH  18  19
ATOM     19  C   UNL A   1      34.634  22.226  25.033  1.00  0.00    -0.046 A 
ATOM     20  C   UNL A   1      35.075  22.942  26.157  1.00  0.00     0.004 A 
ATOM     21  C   UNL A   1      35.442  22.204  23.887  1.00  0.00     0.004 A 
ATOM     22  C   UNL A   1      36.283  23.642  26.120  1.00  0.00     0.000 A 
ATOM     23  C   UNL A   1      36.651  22.898  23.856  1.00  0.00     0.000 A 
ATOM     24  C   UNL A   1      37.070  23.621  24.971  1.00  0.00     0.000 A 
ENDBRANCH  18  19
ENDBRANCH  17  18
ENDBRANCH  15  17
ENDBRANCH   9  13
ENDBRANCH   3   5
ENDBRANCH   2   3
ENDBRANCH   1   2
BRANCH   1  25
ATOM     25  C   UNL A   1      31.774  30.384  26.628  1.00  0.00     0.275 C 
BRANCH  25  26
ATOM     26  O   UNL A   1      33.128  30.823  26.419  1.00  0.00    -0.458 OA
BRANCH  26  27
ATOM     27  C   UNL A   1      33.561  31.790  27.258  1.00  0.00     0.338 C 
ATOM     28  O   UNL A   1      33.003  32.825  27.569  1.00  0.00    -0.246 OA
BRANCH  27  29
ATOM     29  C   UNL A   1      34.865  31.398  27.809  1.00  0.00     0.060 A 
ATOM     30  C   UNL A   1      35.063  30.079  28.216  1.00  0.00     0.016 A 
ATOM     31  C   UNL A   1      35.837  32.366  28.049  1.00  0.00     0.016 A 
ATOM     32  C   UNL A   1      36.205  29.728  28.925  1.00  0.00     0.010 A 
ATOM     33  C   UNL A   1      37.018  31.999  28.699  1.00  0.00     0.010 A 
ATOM     34  C   UNL A   1      37.197  30.684  29.168  1.00  0.00    -0.014 A 
BRANCH  34  35
ATOM     35  C   UNL A   1      38.404  30.324  29.950  1.00  0.00     0.031 A 
ATOM     36  C   UNL A   1      39.425  29.398  29.358  1.00  0.00     0.074 A 
ATOM     37  C   UNL A   1      38.580  30.825  31.187  1.00  0.00     0.049 A 
ATOM     38  N   UNL A   1      40.439  28.804  29.933  1.00  0.00    -0.248 NA
ATOM     39  C   UNL A   1      39.281  29.089  27.925  1.00  0.00     0.031 C 
ATOM     40  C   UNL A   1      37.689  31.777  31.849  1.00  0.00     0.029 A 
ATOM     41  N   UNL A   1      39.569  30.595  32.110  1.00  0.00    -0.354 N 
ATOM     42  C   UNL A   1      41.021  28.014  28.952  1.00  0.00     0.074 A 
ATOM     43  C   UNL A   1      40.253  28.207  27.740  1.00  0.00     0.031 C 
ATOM     44  C   UNL A   1      38.172  32.053  33.071  1.00  0.00     0.029 A 
ATOM     45  C   UNL A   1      39.363  31.244  33.302  1.00  0.00     0.049 A 
ATOM     46  H   UNL A   1      40.347  30.019  31.936  1.00  0.00     0.167 HD
ATOM     47  C   UNL A   1      42.093  27.193  29.061  1.00  0.00     0.037 A 
ATOM     48  C   UNL A   1      40.032  31.158  34.467  1.00  0.00     0.037 A 
ATOM     49  C   UNL A   1      42.877  27.045  30.258  1.00  0.00     0.049 A 
ATOM     50  C   UNL A   1      41.206  30.227  34.569  1.00  0.00     0.074 A 
ATOM     51  C   UNL A   1      43.991  26.252  30.469  1.00  0.00     0.029 A 
ATOM     52  N   UNL A   1      42.633  27.718  31.446  1.00  0.00    -0.354 N 
ATOM     53  N   UNL A   1      41.721  29.443  33.651  1.00  0.00    -0.248 NA
ATOM     54  C   UNL A   1      41.883  30.154  35.870  1.00  0.00     0.031 C 
ATOM     55  C   UNL A   1      44.406  26.425  31.794  1.00  0.00     0.029 A 
ATOM     56  C   UNL A   1      43.571  27.351  32.398  1.00  0.00     0.049 A 
ATOM     57  H   UNL A   1      41.902  28.361  31.592  1.00  0.00     0.167 HD
ATOM     58  C   UNL A   1      42.783  28.791  34.261  1.00  0.00     0.074 A 
ATOM     59  C   UNL A   1      42.853  29.284  35.620  1.00  0.00     0.031 C 
ATOM     60  C   UNL A   1      43.622  27.861  33.743  1.00  0.00     0.037 A 
BRANCH  47  61
ATOM     61  C   UNL A   1      42.459  26.366  27.867  1.00  0.00     0.064 A 
ATOM     62  C   UNL A   1      43.445  26.771  26.958  1.00  0.00     0.173 A 
ATOM     63  C   UNL A   1      41.836  25.126  27.654  1.00  0.00     0.173 A 
ATOM     64  F   UNL A   1      44.057  27.955  27.109  1.00  0.00    -0.203 F 
ATOM     65  C   UNL A   1      43.784  25.972  25.868  1.00  0.00     0.198 A 
ATOM     66  C   UNL A   1      42.191  24.320  26.577  1.00  0.00     0.198 A 
ATOM     67  F   UNL A   1      40.887  24.693  28.498  1.00  0.00    -0.203 F 
ATOM     68  F   UNL A   1      44.705  26.393  24.991  1.00  0.00    -0.200 F 
ATOM     69  C   UNL A   1      43.162  24.746  25.682  1.00  0.00     0.200 A 
ATOM     70  F   UNL A   1      41.596  23.132  26.405  1.00  0.00    -0.200 F 
ATOM     71  F   UNL A   1      43.495  23.975  24.638  1.00  0.00    -0.200 F 
ENDBRANCH  47  61
BRANCH  48  72
ATOM     72  C   UNL A   1      39.573  31.944  35.640  1.00  0.00     0.064 A 
ATOM     73  C   UNL A   1      40.123  33.199  35.928  1.00  0.00     0.173 A 
ATOM     74  C   UNL A   1      38.567  31.459  36.489  1.00  0.00     0.173 A 
ATOM     75  F   UNL A   1      41.105  33.692  35.159  1.00  0.00    -0.203 F 
ATOM     76  C   UNL A   1      39.690  33.937  37.029  1.00  0.00     0.198 A 
ATOM     77  C   UNL A   1      38.117  32.209  37.572  1.00  0.00     0.198 A 
ATOM     78  F   UNL A   1      38.009  30.262  36.255  1.00  0.00    -0.203 F 
ATOM     79  F   UNL A   1      40.258  35.119  37.304  1.00  0.00    -0.200 F 
ATOM     80  C   UNL A   1      38.682  33.445  37.845  1.00  0.00     0.200 A 
ATOM     81  F   UNL A   1      37.133  31.735  38.350  1.00  0.00    -0.200 F 
ATOM     82  F   UNL A   1      38.262  34.160  38.897  1.00  0.00    -0.200 F 
ENDBRANCH  48  72
BRANCH  60  83
ATOM     83  C   UNL A   1      44.697  27.339  34.644  1.00  0.00     0.064 A 
ATOM     84  C   UNL A   1      44.508  26.179  35.410  1.00  0.00     0.173 A 
ATOM     85  C   UNL A   1      45.940  27.984  34.716  1.00  0.00     0.173 A 
ATOM     86  F   UNL A   1      43.331  25.539  35.385  1.00  0.00    -0.203 F 
ATOM     87  C   UNL A   1      45.523  25.694  36.231  1.00  0.00     0.198 A 
ATOM     88  C   UNL A   1      46.958  27.485  35.521  1.00  0.00     0.198 A 
ATOM     89  F   UNL A   1      46.166  29.095  33.999  1.00  0.00    -0.203 F 
ATOM     90  F   UNL A   1      45.310  24.606  36.983  1.00  0.00    -0.200 F 
ATOM     91  C   UNL A   1      46.747  26.345  36.281  1.00  0.00     0.200 A 
ATOM     92  F   UNL A   1      48.143  28.109  35.564  1.00  0.00    -0.200 F 
ATOM     93  F   UNL A   1      47.724  25.874  37.070  1.00  0.00    -0.200 F 
ENDBRANCH  60  83
ENDBRANCH  34  35
ENDBRANCH  27  29
ENDBRANCH  26  27
ENDBRANCH  25  26
ENDBRANCH   1  25
TORSDOF 15
ENDMDL
MODEL 3
REMARK VINA RESULT:     -12.5      0.360      1.627
REMARK SMILES CC1(C)[C@@H](C(=O)NCCc2ccccc2)CC[C@@]1(C)C(=O)OCCOC(=O)c1ccc(-c2c3nc(c(-c4c(F)c(F)c(F)c(F)c4F)c4ccc([nH]4)c(-c4c(F)c(F)c(F)c(F)c4F)c4nc(c(-c5c(F)c(F)c(F)c(F)c5F)c5ccc2[nH]5)C=C4)C=C3)cc1
REMARK SMILES IDX 23 1 22 2 20 3 21 4 18 5 1 6 2 7 3 8 4 9 16 10 17 11 19 12
REMARK SMILES IDX 5 13 6 14 7 15 8 17 9 18 10 19 11 20 15 21 12 22 14 23 13 24
REMARK SMILES IDX 24 25 25 26 26 27 27 28 28 29 29 30 90 31 30 32 89 33 31 34
REMARK SMILES IDX 32 35 33 36 83 37 34 38 88 39 82 40 84 41 35 42 87 43 81 44
REMARK SMILES IDX 80 45 36 47 68 48 48 49 67 50 49 51 52 52 66 53 85 54 50 55
REMARK SMILES IDX 51 56 65 58 86 59 53 60 37 61 38 62 46 63 39 64 40 65 44 66
REMARK SMILES IDX 47 67 41 68 42 69 45 70 43 71 69 72 70 73 78 74 71 75 72 76
REMARK SMILES IDX 76 77 79 78 73 79 74 80 77 81 75 82 54 83 55 84 63 85 56 86
REMARK SMILES IDX 57 87 61 88 64 89 58 90 59 91 62 92 60 93
REMARK H PARENT 7 16 84 46 52 57
REMARK Flexibility Score: inf
ROOT
ATOM      1  C   UNL A   1      31.775  28.691  27.255  1.00  0.00     0.274 C 
ENDROOT
BRANCH   1   2
ATOM      2  O   UNL A   1      31.394  27.628  26.362  1.00  0.00    -0.462 OA
BRANCH   2   3
ATOM      3  C   UNL A   1      32.397  27.087  25.617  1.00  0.00     0.312 C 
ATOM      4  O   UNL A   1      33.434  26.625  26.080  1.00  0.00    -0.252 OA
BRANCH   3   5
ATOM      5  C   UNL A   1      32.041  27.059  24.112  1.00  0.00     0.071 C 
ATOM      6  C   UNL A   1      33.658  25.036  23.689  1.00  0.00     0.013 C 
ATOM      7  C   UNL A   1      32.281  25.670  23.427  1.00  0.00    -0.008 C 
ATOM      8  C   UNL A   1      32.195  25.792  21.873  1.00  0.00     0.013 C 
ATOM      9  C   UNL A   1      31.058  24.825  23.904  1.00  0.00     0.085 C 
ATOM     10  C   UNL A   1      29.896  25.836  23.879  1.00  0.00     0.015 C 
ATOM     11  C   UNL A   1      30.506  27.240  23.966  1.00  0.00     0.020 C 
ATOM     12  C   UNL A   1      32.766  28.235  23.434  1.00  0.00     0.024 C 
BRANCH   9  13
ATOM     13  C   UNL A   1      31.149  24.145  25.276  1.00  0.00     0.223 C 
ATOM     14  O   UNL A   1      30.825  24.688  26.329  1.00  0.00    -0.275 OA
ATOM     15  N   UNL A   1      31.643  22.880  25.359  1.00  0.00    -0.356 N 
ATOM     16  H   UNL A   1      31.658  22.507  26.270  1.00  0.00     0.163 HD
BRANCH  15  17
ATOM     17  C   UNL A   1      32.151  21.983  24.333  1.00  0.00     0.120 C 
BRANCH  17  18
ATOM     18  C   UNL A   1      33.339  21.152  24.836  1.00  0.00     0.056 C 
BRANCH  18  19
ATOM     19  C   UNL A   1      33.410  19.757  24.256  1.00  0.00    -0.046 A 
ATOM     20  C   UNL A   1      34.423  18.861  24.631  1.00  0.00     0.004 A 
ATOM     21  C   UNL A   1      32.454  19.340  23.318  1.00  0.00     0.004 A 
ATOM     22  C   UNL A   1      34.493  17.590  24.056  1.00  0.00     0.000 A 
ATOM     23  C   UNL A   1      32.522  18.067  22.751  1.00  0.00     0.000 A 
ATOM     24  C   UNL A   1      33.544  17.194  23.117  1.00  0.00     0.000 A 
ENDBRANCH  18  19
ENDBRANCH  17  18
ENDBRANCH  15  17
ENDBRANCH   9  13
ENDBRANCH   3   5
ENDBRANCH   2   3
ENDBRANCH   1   2
BRANCH   1  25
ATOM     25  C   UNL A   1      31.780  30.031  26.525  1.00  0.00     0.275 C 
BRANCH  25  26
ATOM     26  O   UNL A   1      33.132  30.494  26.358  1.00  0.00    -0.458 OA
BRANCH  26  27
ATOM     27  C   UNL A   1      33.517  31.479  27.199  1.00  0.00     0.338 C 
ATOM     28  O   UNL A   1      32.912  32.490  27.506  1.00  0.00    -0.246 OA
BRANCH  27  29
ATOM     29  C   UNL A   1      34.832  31.144  27.761  1.00  0.00     0.060 A 
ATOM     30  C   UNL A   1      35.083  29.836  28.174  1.00  0.00     0.016 A 
ATOM     31  C   UNL A   1      35.762  32.153  28.003  1.00  0.00     0.016 A 
ATOM     32  C   UNL A   1      36.233  29.536  28.891  1.00  0.00     0.010 A 
ATOM     33  C   UNL A   1      36.953  31.837  28.661  1.00  0.00     0.010 A 
ATOM     34  C   UNL A   1      37.184  30.534  29.137  1.00  0.00    -0.014 A 
BRANCH  34  35
ATOM     35  C   UNL A   1      38.400  30.227  29.927  1.00  0.00     0.031 A 
ATOM     36  C   UNL A   1      39.445  29.313  29.359  1.00  0.00     0.074 A 
ATOM     37  C   UNL A   1      38.562  30.765  31.151  1.00  0.00     0.049 A 
ATOM     38  N   UNL A   1      40.475  28.762  29.950  1.00  0.00    -0.248 NA
ATOM     39  C   UNL A   1      39.310  28.962  27.936  1.00  0.00     0.031 C 
ATOM     40  C   UNL A   1      37.645  31.710  31.788  1.00  0.00     0.029 A 
ATOM     41  N   UNL A   1      39.556  30.586  32.079  1.00  0.00    -0.354 N 
ATOM     42  C   UNL A   1      41.078  27.961  28.990  1.00  0.00     0.074 A 
ATOM     43  C   UNL A   1      40.306  28.102  27.773  1.00  0.00     0.031 C 
ATOM     44  C   UNL A   1      38.120  32.031  33.001  1.00  0.00     0.029 A 
ATOM     45  C   UNL A   1      39.333  31.261  33.253  1.00  0.00     0.049 A 
ATOM     46  H   UNL A   1      40.350  30.027  31.920  1.00  0.00     0.167 HD
ATOM     47  C   UNL A   1      42.171  27.174  29.121  1.00  0.00     0.037 A 
ATOM     48  C   UNL A   1      40.003  31.224  34.420  1.00  0.00     0.037 A 
ATOM     49  C   UNL A   1      42.959  27.078  30.321  1.00  0.00     0.049 A 
ATOM     50  C   UNL A   1      41.202  30.328  34.546  1.00  0.00     0.074 A 
ATOM     51  C   UNL A   1      44.094  26.322  30.552  1.00  0.00     0.029 A 
ATOM     52  N   UNL A   1      42.697  27.776  31.491  1.00  0.00    -0.354 N 
ATOM     53  N   UNL A   1      41.738  29.534  33.650  1.00  0.00    -0.248 NA
ATOM     54  C   UNL A   1      41.880  30.308  35.849  1.00  0.00     0.031 C 
ATOM     55  C   UNL A   1      44.504  26.541  31.872  1.00  0.00     0.029 A 
ATOM     56  C   UNL A   1      43.644  27.459  32.451  1.00  0.00     0.049 A 
ATOM     57  H   UNL A   1      41.948  28.402  31.620  1.00  0.00     0.167 HD
ATOM     58  C   UNL A   1      42.817  28.927  34.276  1.00  0.00     0.074 A 
ATOM     59  C   UNL A   1      42.873  29.458  35.621  1.00  0.00     0.031 C 
ATOM     60  C   UNL A   1      43.680  28.006  33.782  1.00  0.00     0.037 A 
BRANCH  47  61
ATOM     61  C   UNL A   1      42.560  26.325  27.949  1.00  0.00     0.064 A 
ATOM     62  C   UNL A   1      42.005  25.056  27.736  1.00  0.00     0.173 A 
ATOM     63  C   UNL A   1      43.477  26.810  27.004  1.00  0.00     0.173 A 
ATOM     64  F   UNL A   1      41.137  24.542  28.619  1.00  0.00    -0.203 F 
ATOM     65  C   UNL A   1      42.365  24.296  26.625  1.00  0.00     0.198 A 
ATOM     66  C   UNL A   1      43.819  26.057  25.884  1.00  0.00     0.198 A 
ATOM     67  F   UNL A   1      44.035  28.020  27.163  1.00  0.00    -0.203 F 
ATOM     68  F   UNL A   1      41.848  23.071  26.457  1.00  0.00    -0.200 F 
ATOM     69  C   UNL A   1      43.266  24.799  25.698  1.00  0.00     0.200 A 
ATOM     70  F   UNL A   1      44.682  26.550  24.985  1.00  0.00    -0.200 F 
ATOM     71  F   UNL A   1      43.606  24.070  24.626  1.00  0.00    -0.200 F 
ENDBRANCH  47  61
BRANCH  48  72
ATOM     72  C   UNL A   1      39.523  32.028  35.572  1.00  0.00     0.064 A 
ATOM     73  C   UNL A   1      39.965  33.343  35.769  1.00  0.00     0.173 A 
ATOM     74  C   UNL A   1      38.603  31.502  36.492  1.00  0.00     0.173 A 
ATOM     75  F   UNL A   1      40.862  33.880  34.930  1.00  0.00    -0.203 F 
ATOM     76  C   UNL A   1      39.512  34.097  36.850  1.00  0.00     0.198 A 
ATOM     77  C   UNL A   1      38.131  32.266  37.555  1.00  0.00     0.198 A 
ATOM     78  F   UNL A   1      38.151  30.248  36.345  1.00  0.00    -0.203 F 
ATOM     79  F   UNL A   1      39.978  35.340  37.037  1.00  0.00    -0.200 F 
ATOM     80  C   UNL A   1      38.590  33.562  37.736  1.00  0.00     0.200 A 
ATOM     81  F   UNL A   1      37.231  31.748  38.402  1.00  0.00    -0.200 F 
ATOM     82  F   UNL A   1      38.149  34.292  38.770  1.00  0.00    -0.200 F 
ENDBRANCH  48  72
BRANCH  60  83
ATOM     83  C   UNL A   1      44.769  27.538  34.697  1.00  0.00     0.064 A 
ATOM     84  C   UNL A   1      45.965  28.256  34.837  1.00  0.00     0.173 A 
ATOM     85  C   UNL A   1      44.599  26.378  35.468  1.00  0.00     0.173 A 
ATOM     86  F   UNL A   1      46.177  29.361  34.108  1.00  0.00    -0.203 F 
ATOM     87  C   UNL A   1      46.962  27.818  35.705  1.00  0.00     0.198 A 
ATOM     88  C   UNL A   1      45.589  25.956  36.349  1.00  0.00     0.198 A 
ATOM     89  F   UNL A   1      43.470  25.661  35.368  1.00  0.00    -0.203 F 
ATOM     90  F   UNL A   1      48.112  28.498  35.796  1.00  0.00    -0.200 F 
ATOM     91  C   UNL A   1      46.770  26.672  36.463  1.00  0.00     0.200 A 
ATOM     92  F   UNL A   1      45.400  24.853  37.087  1.00  0.00    -0.200 F 
ATOM     93  F   UNL A   1      47.730  26.255  37.300  1.00  0.00    -0.200 F 
ENDBRANCH  60  83
ENDBRANCH  34  35
ENDBRANCH  27  29
ENDBRANCH  26  27
ENDBRANCH  25  26
ENDBRANCH   1  25
TORSDOF 15
ENDMDL
