MODEL 1
REMARK VINA RESULT:     -12.7      0.000      0.000
REMARK SMILES Cc1c(Cc2ccccc2)c(=O)oc2cc(OCC(=O)N[C@H](C)C(=O)OCCOC(=O)c3ccc(-c4c5nc(c(-c6c(F)c(F)c(F)c(F)c6F)c6ccc([nH]6)c(-c6c(F)c(F)c(F)c(F)c6F)c6nc(c(-c7c(F)c(F)c(F)c(F)c7F)c7ccc4[nH]7)C=C6)C=C5)cc3)ccc12
REMARK SMILES IDX 24 1 25 2 22 3 23 4 21 5 19 6 20 7 18 9 17 10 16 11 1 12
REMARK SMILES IDX 2 13 3 14 97 15 11 16 14 17 96 18 12 19 13 20 15 21 95 22
REMARK SMILES IDX 4 23 5 24 6 25 10 26 7 27 9 28 8 29 26 30 27 31 28 32 29 33
REMARK SMILES IDX 30 34 31 35 32 36 33 37 94 38 34 39 93 40 35 41 36 42 37 43
REMARK SMILES IDX 87 44 38 45 92 46 86 47 88 48 39 49 91 50 85 51 84 52 40 54
REMARK SMILES IDX 72 55 52 56 71 57 53 58 56 59 70 60 89 61 54 62 55 63 69 65
REMARK SMILES IDX 90 66 57 67 41 68 42 69 50 70 43 71 44 72 48 73 51 74 45 75
REMARK SMILES IDX 46 76 49 77 47 78 73 79 74 80 82 81 75 82 76 83 80 84 83 85
REMARK SMILES IDX 77 86 78 87 81 88 79 89 58 90 59 91 67 92 60 93 61 94 65 95
REMARK SMILES IDX 68 96 62 97 63 98 66 99 64 100
REMARK H PARENT 21 8 88 53 56 64
REMARK Flexibility Score: inf
ROOT
ATOM      1  C   UNL A   1      43.604  19.269  25.364  1.00  0.00     0.328 C 
ATOM      2  O   UNL A   1      44.389  18.443  24.911  1.00  0.00    -0.250 OA
ENDROOT
BRANCH   1   3
ATOM      3  C   UNL A   1      42.637  18.941  26.506  1.00  0.00     0.189 C 
ATOM      4  C   UNL A   1      43.006  17.729  27.341  1.00  0.00     0.043 C 
BRANCH   3   5
ATOM      5  N   UNL A   1      42.274  20.175  27.196  1.00  0.00    -0.340 N 
ATOM      6  C   UNL A   1      41.089  20.819  27.348  1.00  0.00     0.258 C 
ATOM      7  O   UNL A   1      41.003  21.639  28.267  1.00  0.00    -0.271 OA
ATOM      8  H   UNL A   1      43.032  20.626  27.634  1.00  0.00     0.164 HD
BRANCH   6   9
ATOM      9  C   UNL A   1      39.893  20.557  26.427  1.00  0.00     0.329 C 
BRANCH   9  10
ATOM     10  O   UNL A   1      39.481  21.553  25.509  1.00  0.00    -0.484 OA
BRANCH  10  11
ATOM     11  C   UNL A   1      38.161  21.673  25.188  1.00  0.00     0.123 A 
ATOM     12  C   UNL A   1      33.143  20.460  24.688  1.00  0.00     0.046 C 
ATOM     13  C   UNL A   1      33.969  21.629  24.216  1.00  0.00    -0.029 A 
ATOM     14  C   UNL A   1      33.475  22.700  23.554  1.00  0.00     0.046 A 
ATOM     15  C   UNL A   1      35.408  21.586  24.532  1.00  0.00     0.021 A 
ATOM     16  C   UNL A   1      34.342  23.872  23.233  1.00  0.00     0.340 A 
ATOM     17  C   UNL A   1      36.166  22.740  24.369  1.00  0.00     0.142 A 
ATOM     18  C   UNL A   1      36.067  20.449  25.011  1.00  0.00     0.016 A 
ATOM     19  O   UNL A   1      33.935  24.823  22.572  1.00  0.00    -0.246 OA
ATOM     20  O   UNL A   1      35.610  23.892  23.791  1.00  0.00    -0.422 OA
ATOM     21  C   UNL A   1      37.518  22.813  24.723  1.00  0.00     0.094 A 
ATOM     22  C   UNL A   1      37.427  20.494  25.331  1.00  0.00     0.047 A 
BRANCH  14  23
ATOM     23  C   UNL A   1      32.027  22.890  23.152  1.00  0.00     0.079 C 
BRANCH  23  24
ATOM     24  C   UNL A   1      31.269  23.909  23.980  1.00  0.00    -0.043 A 
ATOM     25  C   UNL A   1      31.154  23.751  25.368  1.00  0.00     0.004 A 
ATOM     26  C   UNL A   1      30.636  25.008  23.378  1.00  0.00     0.004 A 
ATOM     27  C   UNL A   1      30.406  24.655  26.128  1.00  0.00     0.000 A 
ATOM     28  C   UNL A   1      29.900  25.918  24.140  1.00  0.00     0.000 A 
ATOM     29  C   UNL A   1      29.779  25.737  25.514  1.00  0.00     0.000 A 
ENDBRANCH  23  24
ENDBRANCH  14  23
ENDBRANCH  10  11
ENDBRANCH   9  10
ENDBRANCH   6   9
ENDBRANCH   3   5
ENDBRANCH   1   3
BRANCH   1  30
ATOM     30  O   UNL A   1      43.422  20.523  24.872  1.00  0.00    -0.461 OA
BRANCH  30  31
ATOM     31  C   UNL A   1      44.567  21.395  24.914  1.00  0.00     0.274 C 
BRANCH  31  32
ATOM     32  C   UNL A   1      44.404  22.550  23.926  1.00  0.00     0.275 C 
BRANCH  32  33
ATOM     33  O   UNL A   1      43.716  23.662  24.532  1.00  0.00    -0.458 OA
BRANCH  33  34
ATOM     34  C   UNL A   1      44.521  24.645  24.997  1.00  0.00     0.338 C 
ATOM     35  O   UNL A   1      45.630  24.951  24.596  1.00  0.00    -0.246 OA
BRANCH  34  36
ATOM     36  C   UNL A   1      43.809  25.426  26.015  1.00  0.00     0.060 A 
ATOM     37  C   UNL A   1      43.989  26.811  26.028  1.00  0.00     0.016 A 
ATOM     38  C   UNL A   1      43.072  24.799  27.019  1.00  0.00     0.016 A 
ATOM     39  C   UNL A   1      43.459  27.578  27.058  1.00  0.00     0.010 A 
ATOM     40  C   UNL A   1      42.521  25.572  28.045  1.00  0.00     0.010 A 
ATOM     41  C   UNL A   1      42.727  26.963  28.080  1.00  0.00    -0.014 A 
BRANCH  41  42
ATOM     42  C   UNL A   1      42.231  27.782  29.209  1.00  0.00     0.031 A 
ATOM     43  C   UNL A   1      43.022  27.856  30.482  1.00  0.00     0.074 A 
ATOM     44  C   UNL A   1      41.099  28.494  29.072  1.00  0.00     0.049 A 
ATOM     45  N   UNL A   1      42.726  28.452  31.609  1.00  0.00    -0.248 NA
ATOM     46  C   UNL A   1      44.324  27.172  30.486  1.00  0.00     0.031 C 
ATOM     47  C   UNL A   1      40.283  28.554  27.859  1.00  0.00     0.029 A 
ATOM     48  N   UNL A   1      40.444  29.310  29.959  1.00  0.00    -0.354 N 
ATOM     49  C   UNL A   1      43.789  28.196  32.462  1.00  0.00     0.074 A 
ATOM     50  C   UNL A   1      44.735  27.380  31.728  1.00  0.00     0.031 C 
ATOM     51  C   UNL A   1      39.241  29.374  28.074  1.00  0.00     0.029 A 
ATOM     52  C   UNL A   1      39.290  29.853  29.453  1.00  0.00     0.049 A 
ATOM     53  H   UNL A   1      40.771  29.489  30.871  1.00  0.00     0.167 HD
ATOM     54  C   UNL A   1      43.959  28.605  33.742  1.00  0.00     0.037 A 
ATOM     55  C   UNL A   1      38.364  30.629  30.046  1.00  0.00     0.037 A 
ATOM     56  C   UNL A   1      43.023  29.428  34.462  1.00  0.00     0.049 A 
ATOM     57  C   UNL A   1      38.543  31.012  31.488  1.00  0.00     0.074 A 
ATOM     58  C   UNL A   1      43.097  29.888  35.765  1.00  0.00     0.029 A 
ATOM     59  N   UNL A   1      41.837  29.918  33.933  1.00  0.00    -0.354 N 
ATOM     60  N   UNL A   1      39.532  30.734  32.302  1.00  0.00    -0.248 NA
ATOM     61  C   UNL A   1      37.468  31.809  32.098  1.00  0.00     0.031 C 
ATOM     62  C   UNL A   1      41.942  30.630  36.035  1.00  0.00     0.029 A 
ATOM     63  C   UNL A   1      41.165  30.665  34.888  1.00  0.00     0.049 A 
ATOM     64  H   UNL A   1      41.521  29.760  33.014  1.00  0.00     0.167 HD
ATOM     65  C   UNL A   1      39.210  31.333  33.511  1.00  0.00     0.074 A 
ATOM     66  C   UNL A   1      37.940  32.003  33.322  1.00  0.00     0.031 C 
ATOM     67  C   UNL A   1      39.903  31.326  34.677  1.00  0.00     0.037 A 
BRANCH  54  68
ATOM     68  C   UNL A   1      45.193  28.139  34.455  1.00  0.00     0.064 A 
ATOM     69  C   UNL A   1      46.374  28.894  34.455  1.00  0.00     0.173 A 
ATOM     70  C   UNL A   1      45.188  26.926  35.159  1.00  0.00     0.173 A 
ATOM     71  F   UNL A   1      46.435  30.053  33.781  1.00  0.00    -0.203 F 
ATOM     72  C   UNL A   1      47.514  28.441  35.116  1.00  0.00     0.198 A 
ATOM     73  C   UNL A   1      46.321  26.486  35.837  1.00  0.00     0.198 A 
ATOM     74  F   UNL A   1      44.082  26.166  35.188  1.00  0.00    -0.203 F 
ATOM     75  F   UNL A   1      48.645  29.157  35.067  1.00  0.00    -0.200 F 
ATOM     76  C   UNL A   1      47.484  27.239  35.810  1.00  0.00     0.200 A 
ATOM     77  F   UNL A   1      46.288  25.329  36.513  1.00  0.00    -0.200 F 
ATOM     78  F   UNL A   1      48.581  26.804  36.445  1.00  0.00    -0.200 F 
ENDBRANCH  54  68
BRANCH  55  79
ATOM     79  C   UNL A   1      37.175  31.078  29.278  1.00  0.00     0.064 A 
ATOM     80  C   UNL A   1      36.131  30.192  28.987  1.00  0.00     0.173 A 
ATOM     81  C   UNL A   1      37.060  32.400  28.822  1.00  0.00     0.173 A 
ATOM     82  F   UNL A   1      36.209  28.912  29.380  1.00  0.00    -0.203 F 
ATOM     83  C   UNL A   1      35.017  30.609  28.261  1.00  0.00     0.198 A 
ATOM     84  C   UNL A   1      35.935  32.821  28.118  1.00  0.00     0.198 A 
ATOM     85  F   UNL A   1      38.036  33.284  29.073  1.00  0.00    -0.203 F 
ATOM     86  F   UNL A   1      34.048  29.733  27.964  1.00  0.00    -0.200 F 
ATOM     87  C   UNL A   1      34.917  31.925  27.833  1.00  0.00     0.200 A 
ATOM     88  F   UNL A   1      35.838  34.095  27.715  1.00  0.00    -0.200 F 
ATOM     89  F   UNL A   1      33.843  32.325  27.140  1.00  0.00    -0.200 F 
ENDBRANCH  55  79
BRANCH  67  90
ATOM     90  C   UNL A   1      39.313  32.090  35.824  1.00  0.00     0.064 A 
ATOM     91  C   UNL A   1      39.640  33.433  36.055  1.00  0.00     0.173 A 
ATOM     92  C   UNL A   1      38.391  31.476  36.684  1.00  0.00     0.173 A 
ATOM     93  F   UNL A   1      40.529  34.055  35.267  1.00  0.00    -0.203 F 
ATOM     94  C   UNL A   1      39.081  34.129  37.122  1.00  0.00     0.198 A 
ATOM     95  C   UNL A   1      37.817  32.183  37.738  1.00  0.00     0.198 A 
ATOM     96  F   UNL A   1      38.044  30.193  36.502  1.00  0.00    -0.203 F 
ATOM     97  F   UNL A   1      39.439  35.400  37.351  1.00  0.00    -0.200 F 
ATOM     98  C   UNL A   1      38.168  33.507  37.959  1.00  0.00     0.200 A 
ATOM     99  F   UNL A   1      36.928  31.582  38.540  1.00  0.00    -0.200 F 
ATOM    100  F   UNL A   1      37.630  34.179  38.986  1.00  0.00    -0.200 F 
ENDBRANCH  67  90
ENDBRANCH  41  42
ENDBRANCH  34  36
ENDBRANCH  33  34
ENDBRANCH  32  33
ENDBRANCH  31  32
ENDBRANCH  30  31
ENDBRANCH   1  30
TORSDOF 17
ENDMDL
MODEL 2
REMARK VINA RESULT:     -12.5      4.138      9.534
REMARK SMILES Cc1c(Cc2ccccc2)c(=O)oc2cc(OCC(=O)N[C@H](C)C(=O)OCCOC(=O)c3ccc(-c4c5nc(c(-c6c(F)c(F)c(F)c(F)c6F)c6ccc([nH]6)c(-c6c(F)c(F)c(F)c(F)c6F)c6nc(c(-c7c(F)c(F)c(F)c(F)c7F)c7ccc4[nH]7)C=C6)C=C5)cc3)ccc12
REMARK SMILES IDX 24 1 25 2 22 3 23 4 21 5 19 6 20 7 18 9 17 10 16 11 1 12
REMARK SMILES IDX 2 13 3 14 97 15 11 16 14 17 96 18 12 19 13 20 15 21 95 22
REMARK SMILES IDX 4 23 5 24 6 25 10 26 7 27 9 28 8 29 26 30 27 31 28 32 29 33
REMARK SMILES IDX 30 34 31 35 32 36 33 37 94 38 34 39 93 40 35 41 36 42 37 43
REMARK SMILES IDX 87 44 38 45 92 46 86 47 88 48 39 49 91 50 85 51 84 52 40 54
REMARK SMILES IDX 72 55 52 56 71 57 53 58 56 59 70 60 89 61 54 62 55 63 69 65
REMARK SMILES IDX 90 66 57 67 41 68 42 69 50 70 43 71 44 72 48 73 51 74 45 75
REMARK SMILES IDX 46 76 49 77 47 78 73 79 74 80 82 81 75 82 76 83 80 84 83 85
REMARK SMILES IDX 77 86 78 87 81 88 79 89 58 90 59 91 67 92 60 93 61 94 65 95
REMARK SMILES IDX 68 96 62 97 63 98 66 99 64 100
REMARK H PARENT 21 8 88 53 56 64
REMARK Flexibility Score: inf
ROOT
ATOM      1  C   UNL A   1      35.209  32.427  28.169  1.00  0.00     0.328 C 
ATOM      2  O   UNL A   1      36.338  32.897  28.251  1.00  0.00    -0.250 OA
ENDROOT
BRANCH   1   3
ATOM      3  C   UNL A   1      34.936  31.050  27.555  1.00  0.00     0.189 C 
ATOM      4  C   UNL A   1      35.934  29.966  27.921  1.00  0.00     0.043 C 
BRANCH   3   5
ATOM      5  N   UNL A   1      33.512  30.750  27.664  1.00  0.00    -0.340 N 
ATOM      6  C   UNL A   1      32.715  29.866  27.013  1.00  0.00     0.258 C 
ATOM      7  O   UNL A   1      31.640  29.573  27.545  1.00  0.00    -0.271 OA
ATOM      8  H   UNL A   1      33.041  31.291  28.339  1.00  0.00     0.164 HD
BRANCH   6   9
ATOM      9  C   UNL A   1      33.111  29.245  25.669  1.00  0.00     0.329 C 
BRANCH   9  10
ATOM     10  O   UNL A   1      32.377  28.146  25.159  1.00  0.00    -0.484 OA
BRANCH  10  11
ATOM     11  C   UNL A   1      32.962  26.917  25.085  1.00  0.00     0.123 A 
ATOM     12  C   UNL A   1      35.670  22.921  23.187  1.00  0.00     0.046 C 
ATOM     13  C   UNL A   1      34.840  23.101  24.432  1.00  0.00    -0.029 A 
ATOM     14  C   UNL A   1      34.688  22.162  25.394  1.00  0.00     0.046 A 
ATOM     15  C   UNL A   1      34.179  24.407  24.598  1.00  0.00     0.021 A 
ATOM     16  C   UNL A   1      33.950  22.467  26.656  1.00  0.00     0.340 A 
ATOM     17  C   UNL A   1      33.632  24.731  25.835  1.00  0.00     0.142 A 
ATOM     18  C   UNL A   1      34.083  25.366  23.584  1.00  0.00     0.016 A 
ATOM     19  O   UNL A   1      33.738  21.612  27.510  1.00  0.00    -0.246 OA
ATOM     20  O   UNL A   1      33.587  23.787  26.872  1.00  0.00    -0.422 OA
ATOM     21  C   UNL A   1      33.060  25.979  26.105  1.00  0.00     0.094 A 
ATOM     22  C   UNL A   1      33.479  26.604  23.826  1.00  0.00     0.047 A 
BRANCH  14  23
ATOM     23  C   UNL A   1      35.296  20.775  25.369  1.00  0.00     0.079 C 
BRANCH  23  24
ATOM     24  C   UNL A   1      34.438  19.720  24.699  1.00  0.00    -0.043 A 
ATOM     25  C   UNL A   1      34.905  18.405  24.567  1.00  0.00     0.004 A 
ATOM     26  C   UNL A   1      33.179  20.039  24.164  1.00  0.00     0.004 A 
ATOM     27  C   UNL A   1      34.143  17.443  23.897  1.00  0.00     0.000 A 
ATOM     28  C   UNL A   1      32.414  19.074  23.506  1.00  0.00     0.000 A 
ATOM     29  C   UNL A   1      32.899  17.778  23.366  1.00  0.00     0.000 A 
ENDBRANCH  23  24
ENDBRANCH  14  23
ENDBRANCH  10  11
ENDBRANCH   9  10
ENDBRANCH   6   9
ENDBRANCH   3   5
ENDBRANCH   1   3
BRANCH   1  30
ATOM     30  O   UNL A   1      34.067  33.077  28.517  1.00  0.00    -0.461 OA
BRANCH  30  31
ATOM     31  C   UNL A   1      34.234  34.369  29.132  1.00  0.00     0.274 C 
BRANCH  31  32
ATOM     32  C   UNL A   1      32.887  34.924  29.598  1.00  0.00     0.275 C 
BRANCH  32  33
ATOM     33  O   UNL A   1      33.064  35.978  30.564  1.00  0.00    -0.458 OA
BRANCH  33  34
ATOM     34  C   UNL A   1      32.801  35.627  31.844  1.00  0.00     0.338 C 
ATOM     35  O   UNL A   1      31.750  35.747  32.449  1.00  0.00    -0.246 OA
BRANCH  34  36
ATOM     36  C   UNL A   1      33.960  34.927  32.412  1.00  0.00     0.060 A 
ATOM     37  C   UNL A   1      35.209  35.545  32.326  1.00  0.00     0.016 A 
ATOM     38  C   UNL A   1      33.843  33.630  32.912  1.00  0.00     0.016 A 
ATOM     39  C   UNL A   1      36.356  34.863  32.712  1.00  0.00     0.010 A 
ATOM     40  C   UNL A   1      34.996  32.951  33.319  1.00  0.00     0.010 A 
ATOM     41  C   UNL A   1      36.260  33.557  33.205  1.00  0.00    -0.014 A 
BRANCH  41  42
ATOM     42  C   UNL A   1      37.496  32.817  33.543  1.00  0.00     0.031 A 
ATOM     43  C   UNL A   1      38.166  33.046  34.866  1.00  0.00     0.074 A 
ATOM     44  C   UNL A   1      37.987  31.908  32.683  1.00  0.00     0.049 A 
ATOM     45  N   UNL A   1      39.293  32.558  35.321  1.00  0.00    -0.248 NA
ATOM     46  C   UNL A   1      37.474  33.941  35.806  1.00  0.00     0.031 C 
ATOM     47  C   UNL A   1      37.385  31.551  31.398  1.00  0.00     0.029 A 
ATOM     48  N   UNL A   1      39.101  31.112  32.764  1.00  0.00    -0.354 N 
ATOM     49  C   UNL A   1      39.455  33.103  36.586  1.00  0.00     0.074 A 
ATOM     50  C   UNL A   1      38.319  33.969  36.825  1.00  0.00     0.031 C 
ATOM     51  C   UNL A   1      38.130  30.597  30.816  1.00  0.00     0.029 A 
ATOM     52  C   UNL A   1      39.287  30.316  31.661  1.00  0.00     0.049 A 
ATOM     53  H   UNL A   1      39.709  31.112  33.539  1.00  0.00     0.167 HD
ATOM     54  C   UNL A   1      40.464  32.898  37.467  1.00  0.00     0.037 A 
ATOM     55  C   UNL A   1      40.292  29.474  31.359  1.00  0.00     0.037 A 
ATOM     56  C   UNL A   1      41.583  32.025  37.230  1.00  0.00     0.049 A 
ATOM     57  C   UNL A   1      41.433  29.317  32.324  1.00  0.00     0.074 A 
ATOM     58  C   UNL A   1      42.662  31.757  38.055  1.00  0.00     0.029 A 
ATOM     59  N   UNL A   1      41.764  31.272  36.079  1.00  0.00    -0.354 N 
ATOM     60  N   UNL A   1      41.602  29.865  33.502  1.00  0.00    -0.248 NA
ATOM     61  C   UNL A   1      42.531  28.431  31.911  1.00  0.00     0.031 C 
ATOM     62  C   UNL A   1      43.512  30.867  37.388  1.00  0.00     0.029 A 
ATOM     63  C   UNL A   1      42.944  30.549  36.165  1.00  0.00     0.049 A 
ATOM     64  H   UNL A   1      41.146  31.253  35.314  1.00  0.00     0.167 HD
ATOM     65  C   UNL A   1      42.811  29.381  33.979  1.00  0.00     0.074 A 
ATOM     66  C   UNL A   1      43.329  28.482  32.968  1.00  0.00     0.031 C 
ATOM     67  C   UNL A   1      43.439  29.658  35.149  1.00  0.00     0.037 A 
BRANCH  54  68
ATOM     68  C   UNL A   1      40.414  33.660  38.758  1.00  0.00     0.064 A 
ATOM     69  C   UNL A   1      39.671  33.203  39.855  1.00  0.00     0.173 A 
ATOM     70  C   UNL A   1      41.133  34.856  38.902  1.00  0.00     0.173 A 
ATOM     71  F   UNL A   1      38.952  32.073  39.761  1.00  0.00    -0.203 F 
ATOM     72  C   UNL A   1      39.630  33.928  41.044  1.00  0.00     0.198 A 
ATOM     73  C   UNL A   1      41.108  35.567  40.098  1.00  0.00     0.198 A 
ATOM     74  F   UNL A   1      41.859  35.335  37.880  1.00  0.00    -0.203 F 
ATOM     75  F   UNL A   1      38.878  33.496  42.065  1.00  0.00    -0.200 F 
ATOM     76  C   UNL A   1      40.352  35.107  41.165  1.00  0.00     0.200 A 
ATOM     77  F   UNL A   1      41.812  36.701  40.216  1.00  0.00    -0.200 F 
ATOM     78  F   UNL A   1      40.311  35.804  42.309  1.00  0.00    -0.200 F 
ENDBRANCH  54  68
BRANCH  55  79
ATOM     79  C   UNL A   1      40.271  28.731  30.074  1.00  0.00     0.064 A 
ATOM     80  C   UNL A   1      40.892  29.250  28.932  1.00  0.00     0.173 A 
ATOM     81  C   UNL A   1      39.631  27.487  29.964  1.00  0.00     0.173 A 
ATOM     82  F   UNL A   1      41.493  30.448  28.983  1.00  0.00    -0.203 F 
ATOM     83  C   UNL A   1      40.868  28.558  27.723  1.00  0.00     0.198 A 
ATOM     84  C   UNL A   1      39.629  26.784  28.761  1.00  0.00     0.198 A 
ATOM     85  F   UNL A   1      39.019  26.950  31.029  1.00  0.00    -0.203 F 
ATOM     86  F   UNL A   1      41.438  29.093  26.636  1.00  0.00    -0.200 F 
ATOM     87  C   UNL A   1      40.242  27.322  27.641  1.00  0.00     0.200 A 
ATOM     88  F   UNL A   1      39.032  25.587  28.689  1.00  0.00    -0.200 F 
ATOM     89  F   UNL A   1      40.225  26.655  26.479  1.00  0.00    -0.200 F 
ENDBRANCH  55  79
BRANCH  67  90
ATOM     90  C   UNL A   1      44.740  28.958  35.404  1.00  0.00     0.064 A 
ATOM     91  C   UNL A   1      44.789  27.723  36.066  1.00  0.00     0.173 A 
ATOM     92  C   UNL A   1      45.947  29.519  34.961  1.00  0.00     0.173 A 
ATOM     93  F   UNL A   1      43.662  27.157  36.522  1.00  0.00    -0.203 F 
ATOM     94  C   UNL A   1      46.004  27.084  36.293  1.00  0.00     0.198 A 
ATOM     95  C   UNL A   1      47.158  28.865  35.171  1.00  0.00     0.198 A 
ATOM     96  F   UNL A   1      45.951  30.697  34.320  1.00  0.00    -0.203 F 
ATOM     97  F   UNL A   1      46.033  25.924  36.964  1.00  0.00    -0.200 F 
ATOM     98  C   UNL A   1      47.186  27.652  35.842  1.00  0.00     0.200 A 
ATOM     99  F   UNL A   1      48.297  29.411  34.726  1.00  0.00    -0.200 F 
ATOM    100  F   UNL A   1      48.354  27.034  36.062  1.00  0.00    -0.200 F 
ENDBRANCH  67  90
ENDBRANCH  41  42
ENDBRANCH  34  36
ENDBRANCH  33  34
ENDBRANCH  32  33
ENDBRANCH  31  32
ENDBRANCH  30  31
ENDBRANCH   1  30
TORSDOF 17
ENDMDL
MODEL 3
REMARK VINA RESULT:     -12.5      4.179      9.635
REMARK SMILES Cc1c(Cc2ccccc2)c(=O)oc2cc(OCC(=O)N[C@H](C)C(=O)OCCOC(=O)c3ccc(-c4c5nc(c(-c6c(F)c(F)c(F)c(F)c6F)c6ccc([nH]6)c(-c6c(F)c(F)c(F)c(F)c6F)c6nc(c(-c7c(F)c(F)c(F)c(F)c7F)c7ccc4[nH]7)C=C6)C=C5)cc3)ccc12
REMARK SMILES IDX 24 1 25 2 22 3 23 4 21 5 19 6 20 7 18 9 17 10 16 11 1 12
REMARK SMILES IDX 2 13 3 14 97 15 11 16 14 17 96 18 12 19 13 20 15 21 95 22
REMARK SMILES IDX 4 23 5 24 6 25 10 26 7 27 9 28 8 29 26 30 27 31 28 32 29 33
REMARK SMILES IDX 30 34 31 35 32 36 33 37 94 38 34 39 93 40 35 41 36 42 37 43
REMARK SMILES IDX 87 44 38 45 92 46 86 47 88 48 39 49 91 50 85 51 84 52 40 54
REMARK SMILES IDX 72 55 52 56 71 57 53 58 56 59 70 60 89 61 54 62 55 63 69 65
REMARK SMILES IDX 90 66 57 67 41 68 42 69 50 70 43 71 44 72 48 73 51 74 45 75
REMARK SMILES IDX 46 76 49 77 47 78 73 79 74 80 82 81 75 82 76 83 80 84 83 85
REMARK SMILES IDX 77 86 78 87 81 88 79 89 58 90 59 91 67 92 60 93 61 94 65 95
REMARK SMILES IDX 68 96 62 97 63 98 66 99 64 100
REMARK H PARENT 21 8 88 53 56 64
REMARK Flexibility Score: inf
ROOT
ATOM      1  C   UNL A   1      33.013  29.572  26.108  1.00  0.00     0.328 C 
ATOM      2  O   UNL A   1      33.999  29.054  26.621  1.00  0.00    -0.250 OA
ENDROOT
BRANCH   1   3
ATOM      3  C   UNL A   1      31.907  28.747  25.443  1.00  0.00     0.189 C 
ATOM      4  C   UNL A   1      31.159  27.800  26.363  1.00  0.00     0.043 C 
BRANCH   3   5
ATOM      5  N   UNL A   1      31.131  29.611  24.558  1.00  0.00    -0.340 N 
ATOM      6  C   UNL A   1      30.291  29.340  23.527  1.00  0.00     0.258 C 
ATOM      7  O   UNL A   1      29.503  30.229  23.189  1.00  0.00    -0.271 OA
ATOM      8  H   UNL A   1      31.239  30.573  24.743  1.00  0.00     0.164 HD
BRANCH   6   9
ATOM      9  C   UNL A   1      30.303  27.994  22.795  1.00  0.00     0.329 C 
BRANCH   9  10
ATOM     10  O   UNL A   1      31.524  27.472  22.302  1.00  0.00    -0.484 OA
BRANCH  10  11
ATOM     11  C   UNL A   1      32.020  26.312  22.817  1.00  0.00     0.123 A 
ATOM     12  C   UNL A   1      35.365  22.484  23.852  1.00  0.00     0.046 C 
ATOM     13  C   UNL A   1      33.900  22.679  24.153  1.00  0.00    -0.029 A 
ATOM     14  C   UNL A   1      33.143  21.815  24.867  1.00  0.00     0.046 A 
ATOM     15  C   UNL A   1      33.284  23.915  23.642  1.00  0.00     0.021 A 
ATOM     16  C   UNL A   1      31.732  22.145  25.226  1.00  0.00     0.340 A 
ATOM     17  C   UNL A   1      32.027  24.283  24.111  1.00  0.00     0.142 A 
ATOM     18  C   UNL A   1      33.898  24.768  22.719  1.00  0.00     0.016 A 
ATOM     19  O   UNL A   1      31.003  21.349  25.810  1.00  0.00    -0.246 OA
ATOM     20  O   UNL A   1      31.295  23.432  24.953  1.00  0.00    -0.422 OA
ATOM     21  C   UNL A   1      31.403  25.480  23.743  1.00  0.00     0.094 A 
ATOM     22  C   UNL A   1      33.270  25.949  22.310  1.00  0.00     0.047 A 
BRANCH  14  23
ATOM     23  C   UNL A   1      33.625  20.504  25.454  1.00  0.00     0.079 C 
BRANCH  23  24
ATOM     24  C   UNL A   1      33.577  19.328  24.499  1.00  0.00    -0.043 A 
ATOM     25  C   UNL A   1      32.550  19.226  23.550  1.00  0.00     0.004 A 
ATOM     26  C   UNL A   1      34.530  18.299  24.564  1.00  0.00     0.004 A 
ATOM     27  C   UNL A   1      32.467  18.114  22.707  1.00  0.00     0.000 A 
ATOM     28  C   UNL A   1      34.454  17.195  23.713  1.00  0.00     0.000 A 
ATOM     29  C   UNL A   1      33.418  17.099  22.789  1.00  0.00     0.000 A 
ENDBRANCH  23  24
ENDBRANCH  14  23
ENDBRANCH  10  11
ENDBRANCH   9  10
ENDBRANCH   6   9
ENDBRANCH   3   5
ENDBRANCH   1   3
BRANCH   1  30
ATOM     30  O   UNL A   1      32.813  30.910  25.981  1.00  0.00    -0.461 OA
BRANCH  30  31
ATOM     31  C   UNL A   1      32.371  31.602  27.164  1.00  0.00     0.274 C 
BRANCH  31  32
ATOM     32  C   UNL A   1      32.540  33.113  27.002  1.00  0.00     0.275 C 
BRANCH  32  33
ATOM     33  O   UNL A   1      32.216  33.808  28.222  1.00  0.00    -0.458 OA
BRANCH  33  34
ATOM     34  C   UNL A   1      33.142  34.707  28.629  1.00  0.00     0.338 C 
ATOM     35  O   UNL A   1      33.024  35.917  28.702  1.00  0.00    -0.246 OA
BRANCH  34  36
ATOM     36  C   UNL A   1      34.333  34.001  29.120  1.00  0.00     0.060 A 
ATOM     37  C   UNL A   1      34.153  32.975  30.049  1.00  0.00     0.016 A 
ATOM     38  C   UNL A   1      35.615  34.421  28.766  1.00  0.00     0.016 A 
ATOM     39  C   UNL A   1      35.251  32.378  30.656  1.00  0.00     0.010 A 
ATOM     40  C   UNL A   1      36.721  33.807  29.362  1.00  0.00     0.010 A 
ATOM     41  C   UNL A   1      36.545  32.795  30.322  1.00  0.00    -0.014 A 
BRANCH  41  42
ATOM     42  C   UNL A   1      37.702  32.202  31.030  1.00  0.00     0.031 A 
ATOM     43  C   UNL A   1      38.524  31.141  30.359  1.00  0.00     0.074 A 
ATOM     44  C   UNL A   1      38.039  32.650  32.252  1.00  0.00     0.049 A 
ATOM     45  N   UNL A   1      39.525  30.444  30.834  1.00  0.00    -0.248 NA
ATOM     46  C   UNL A   1      38.176  30.825  28.965  1.00  0.00     0.031 C 
ATOM     47  C   UNL A   1      37.357  33.723  32.974  1.00  0.00     0.029 A 
ATOM     48  N   UNL A   1      39.048  32.264  33.097  1.00  0.00    -0.354 N 
ATOM     49  C   UNL A   1      39.910  29.592  29.808  1.00  0.00     0.074 A 
ATOM     50  C   UNL A   1      39.030  29.850  28.688  1.00  0.00     0.031 C 
ATOM     51  C   UNL A   1      37.973  33.918  34.152  1.00  0.00     0.029 A 
ATOM     52  C   UNL A   1      39.058  32.950  34.285  1.00  0.00     0.049 A 
ATOM     53  H   UNL A   1      39.701  31.561  32.874  1.00  0.00     0.167 HD
ATOM     54  C   UNL A   1      40.911  28.679  29.805  1.00  0.00     0.037 A 
ATOM     55  C   UNL A   1      39.842  32.796  35.369  1.00  0.00     0.037 A 
ATOM     56  C   UNL A   1      41.793  28.437  30.915  1.00  0.00     0.049 A 
ATOM     57  C   UNL A   1      40.900  31.729  35.364  1.00  0.00     0.074 A 
ATOM     58  C   UNL A   1      42.831  27.526  31.016  1.00  0.00     0.029 A 
ATOM     59  N   UNL A   1      41.742  29.118  32.124  1.00  0.00    -0.354 N 
ATOM     60  N   UNL A   1      41.234  30.900  34.406  1.00  0.00    -0.248 NA
ATOM     61  C   UNL A   1      41.681  31.568  36.598  1.00  0.00     0.031 C 
ATOM     62  C   UNL A   1      43.386  27.634  32.296  1.00  0.00     0.029 A 
ATOM     63  C   UNL A   1      42.721  28.638  32.980  1.00  0.00     0.049 A 
ATOM     64  H   UNL A   1      41.105  29.836  32.340  1.00  0.00     0.167 HD
ATOM     65  C   UNL A   1      42.273  30.132  34.911  1.00  0.00     0.074 A 
ATOM     66  C   UNL A   1      42.524  30.603  36.258  1.00  0.00     0.031 C 
ATOM     67  C   UNL A   1      42.956  29.123  34.315  1.00  0.00     0.037 A 
BRANCH  54  68
ATOM     68  C   UNL A   1      41.080  27.850  28.566  1.00  0.00     0.064 A 
ATOM     69  C   UNL A   1      40.385  26.647  28.384  1.00  0.00     0.173 A 
ATOM     70  C   UNL A   1      41.939  28.276  27.542  1.00  0.00     0.173 A 
ATOM     71  F   UNL A   1      39.565  26.188  29.342  1.00  0.00    -0.203 F 
ATOM     72  C   UNL A   1      40.562  25.886  27.230  1.00  0.00     0.198 A 
ATOM     73  C   UNL A   1      42.097  27.526  26.380  1.00  0.00     0.198 A 
ATOM     74  F   UNL A   1      42.627  29.422  27.670  1.00  0.00    -0.203 F 
ATOM     75  F   UNL A   1      39.922  24.717  27.095  1.00  0.00    -0.200 F 
ATOM     76  C   UNL A   1      41.414  26.329  26.227  1.00  0.00     0.200 A 
ATOM     77  F   UNL A   1      42.914  27.959  25.411  1.00  0.00    -0.200 F 
ATOM     78  F   UNL A   1      41.583  25.596  25.118  1.00  0.00    -0.200 F 
ENDBRANCH  54  68
BRANCH  55  79
ATOM     79  C   UNL A   1      39.639  33.665  36.556  1.00  0.00     0.064 A 
ATOM     80  C   UNL A   1      40.264  34.915  36.647  1.00  0.00     0.173 A 
ATOM     81  C   UNL A   1      38.817  33.264  37.619  1.00  0.00     0.173 A 
ATOM     82  F   UNL A   1      41.081  35.328  35.666  1.00  0.00    -0.203 F 
ATOM     83  C   UNL A   1      40.081  35.730  37.762  1.00  0.00     0.198 A 
ATOM     84  C   UNL A   1      38.615  34.090  38.722  1.00  0.00     0.198 A 
ATOM     85  F   UNL A   1      38.199  32.075  37.579  1.00  0.00    -0.203 F 
ATOM     86  F   UNL A   1      40.720  36.905  37.842  1.00  0.00    -0.200 F 
ATOM     87  C   UNL A   1      39.251  35.320  38.795  1.00  0.00     0.200 A 
ATOM     88  F   UNL A   1      37.805  33.695  39.713  1.00  0.00    -0.200 F 
ATOM     89  F   UNL A   1      39.072  36.107  39.864  1.00  0.00    -0.200 F 
ENDBRANCH  55  79
BRANCH  67  90
ATOM     90  C   UNL A   1      44.057  28.486  35.108  1.00  0.00     0.064 A 
ATOM     91  C   UNL A   1      43.823  27.361  35.911  1.00  0.00     0.173 A 
ATOM     92  C   UNL A   1      45.363  28.993  35.043  1.00  0.00     0.173 A 
ATOM     93  F   UNL A   1      42.587  26.852  36.017  1.00  0.00    -0.203 F 
ATOM     94  C   UNL A   1      44.857  26.779  36.640  1.00  0.00     0.198 A 
ATOM     95  C   UNL A   1      46.398  28.393  35.756  1.00  0.00     0.198 A 
ATOM     96  F   UNL A   1      45.636  30.066  34.286  1.00  0.00    -0.203 F 
ATOM     97  F   UNL A   1      44.604  25.729  37.434  1.00  0.00    -0.200 F 
ATOM     98  C   UNL A   1      46.142  27.291  36.558  1.00  0.00     0.200 A 
ATOM     99  F   UNL A   1      47.641  28.885  35.669  1.00  0.00    -0.200 F 
ATOM    100  F   UNL A   1      47.136  26.729  37.260  1.00  0.00    -0.200 F 
ENDBRANCH  67  90
ENDBRANCH  41  42
ENDBRANCH  34  36
ENDBRANCH  33  34
ENDBRANCH  32  33
ENDBRANCH  31  32
ENDBRANCH  30  31
ENDBRANCH   1  30
TORSDOF 17
ENDMDL
