MODEL 1
REMARK VINA RESULT:     -12.9      0.000      0.000
REMARK SMILES COc1ccc2c(c1)[C@@](NC=O)(C(=O)OCCOC(=O)c1ccc(-c3c4nc(c(-c5c(F)c(F)c(F)c(F)c5F)c5ccc([nH]5)c(-c5c(F)c(F)c(F)c(F)c5F)c5nc(c(-c6c(F)c(F)c(F)c(F)c6F)c6ccc3[nH]6)C=C5)C=C4)cc1)CCC2
REMARK SMILES IDX 17 1 16 2 15 3 13 4 14 5 9 6 3 7 4 8 8 9 5 10 7 11 6 12
REMARK SMILES IDX 86 13 84 14 85 15 2 16 1 17 10 18 11 19 12 21 18 22 19 23
REMARK SMILES IDX 20 24 21 25 22 26 83 27 23 28 82 29 24 30 25 31 26 32 76 33
REMARK SMILES IDX 27 34 81 35 75 36 77 37 28 38 80 39 74 40 73 41 29 43 61 44
REMARK SMILES IDX 41 45 60 46 42 47 45 48 59 49 78 50 43 51 44 52 58 54 79 55
REMARK SMILES IDX 46 56 30 57 31 58 39 59 32 60 33 61 37 62 40 63 34 64 35 65
REMARK SMILES IDX 38 66 36 67 62 68 63 69 71 70 64 71 65 72 69 73 72 74 66 75
REMARK SMILES IDX 67 76 70 77 68 78 47 79 48 80 56 81 49 82 50 83 54 84 57 85
REMARK SMILES IDX 51 86 52 87 55 88 53 89
REMARK H PARENT 10 20 77 42 45 53
REMARK Flexibility Score: inf
ROOT
ATOM      1  C   UNL A   1      31.904  30.455  25.846  1.00  0.00     0.275 C 
ENDROOT
BRANCH   1   2
ATOM      2  C   UNL A   1      31.619  28.972  25.601  1.00  0.00     0.274 C 
BRANCH   2   3
ATOM      3  O   UNL A   1      32.691  28.300  24.906  1.00  0.00    -0.460 OA
BRANCH   3   4
ATOM      4  C   UNL A   1      32.607  28.341  23.543  1.00  0.00     0.336 C 
ATOM      5  O   UNL A   1      33.392  28.991  22.858  1.00  0.00    -0.249 OA
BRANCH   4   6
ATOM      6  C   UNL A   1      31.488  27.380  22.964  1.00  0.00     0.164 C 
ATOM      7  C   UNL A   1      29.020  30.192  21.944  1.00  0.00     0.119 A 
ATOM      8  C   UNL A   1      27.825  29.719  22.471  1.00  0.00     0.047 A 
ATOM      9  C   UNL A   1      30.170  29.415  22.082  1.00  0.00     0.053 A 
ATOM     10  C   UNL A   1      27.774  28.474  23.101  1.00  0.00     0.008 A 
ATOM     11  C   UNL A   1      30.166  28.181  22.784  1.00  0.00    -0.004 A 
ATOM     12  C   UNL A   1      28.929  27.687  23.238  1.00  0.00    -0.042 A 
ATOM     13  C   UNL A   1      28.793  26.336  23.892  1.00  0.00     0.036 C 
ATOM     14  C   UNL A   1      31.272  26.181  23.923  1.00  0.00     0.046 C 
ATOM     15  C   UNL A   1      29.984  25.432  23.612  1.00  0.00     0.008 C 
BRANCH   7  16
ATOM     16  O   UNL A   1      28.942  31.409  21.328  1.00  0.00    -0.497 OA
ATOM     17  C   UNL A   1      28.466  32.501  22.107  1.00  0.00     0.278 C 
ENDBRANCH   7  16
BRANCH   6  18
ATOM     18  N   UNL A   1      31.857  26.907  21.617  1.00  0.00    -0.339 N 
ATOM     19  C   UNL A   1      32.781  25.954  21.312  1.00  0.00     0.338 C 
ATOM     20  H   UNL A   1      31.387  27.324  20.859  1.00  0.00     0.164 HD
ATOM     21  O   UNL A   1      32.952  25.564  20.165  1.00  0.00    -0.279 OA
ENDBRANCH   6  18
ENDBRANCH   4   6
ENDBRANCH   3   4
ENDBRANCH   2   3
ENDBRANCH   1   2
BRANCH   1  22
ATOM     22  O   UNL A   1      32.406  30.683  27.175  1.00  0.00    -0.458 OA
BRANCH  22  23
ATOM     23  C   UNL A   1      33.170  31.787  27.323  1.00  0.00     0.338 C 
ATOM     24  O   UNL A   1      32.824  32.950  27.184  1.00  0.00    -0.246 OA
BRANCH  23  25
ATOM     25  C   UNL A   1      34.529  31.420  27.751  1.00  0.00     0.060 A 
ATOM     26  C   UNL A   1      34.792  30.093  28.087  1.00  0.00     0.016 A 
ATOM     27  C   UNL A   1      35.475  32.409  28.011  1.00  0.00     0.016 A 
ATOM     28  C   UNL A   1      35.953  29.759  28.773  1.00  0.00     0.010 A 
ATOM     29  C   UNL A   1      36.684  32.058  28.626  1.00  0.00     0.010 A 
ATOM     30  C   UNL A   1      36.915  30.737  29.049  1.00  0.00    -0.014 A 
BRANCH  30  31
ATOM     31  C   UNL A   1      38.122  30.385  29.839  1.00  0.00     0.031 A 
ATOM     32  C   UNL A   1      39.194  29.525  29.227  1.00  0.00     0.074 A 
ATOM     33  C   UNL A   1      38.284  30.862  31.088  1.00  0.00     0.049 A 
ATOM     34  N   UNL A   1      40.217  28.943  29.802  1.00  0.00    -0.248 NA
ATOM     35  C   UNL A   1      39.098  29.279  27.779  1.00  0.00     0.031 C 
ATOM     36  C   UNL A   1      37.362  31.767  31.776  1.00  0.00     0.029 A 
ATOM     37  N   UNL A   1      39.289  30.657  32.000  1.00  0.00    -0.354 N 
ATOM     38  C   UNL A   1      40.843  28.209  28.804  1.00  0.00     0.074 A 
ATOM     39  C   UNL A   1      40.102  28.435  27.581  1.00  0.00     0.031 C 
ATOM     40  C   UNL A   1      37.859  32.063  32.987  1.00  0.00     0.029 A 
ATOM     41  C   UNL A   1      39.090  31.306  33.193  1.00  0.00     0.049 A 
ATOM     42  H   UNL A   1      40.078  30.097  31.816  1.00  0.00     0.167 HD
ATOM     43  C   UNL A   1      41.932  27.412  28.907  1.00  0.00     0.037 A 
ATOM     44  C   UNL A   1      39.795  31.264  34.338  1.00  0.00     0.037 A 
ATOM     45  C   UNL A   1      42.715  27.255  30.104  1.00  0.00     0.049 A 
ATOM     46  C   UNL A   1      40.997  30.366  34.429  1.00  0.00     0.074 A 
ATOM     47  C   UNL A   1      43.844  26.480  30.303  1.00  0.00     0.029 A 
ATOM     48  N   UNL A   1      42.463  27.912  31.298  1.00  0.00    -0.354 N 
ATOM     49  N   UNL A   1      41.527  29.601  33.506  1.00  0.00    -0.248 NA
ATOM     50  C   UNL A   1      41.678  30.301  35.729  1.00  0.00     0.031 C 
ATOM     51  C   UNL A   1      44.266  26.653  31.626  1.00  0.00     0.029 A 
ATOM     52  C   UNL A   1      43.412  27.556  32.241  1.00  0.00     0.049 A 
ATOM     53  H   UNL A   1      41.720  28.537  31.454  1.00  0.00     0.167 HD
ATOM     54  C   UNL A   1      42.603  28.966  34.112  1.00  0.00     0.074 A 
ATOM     55  C   UNL A   1      42.664  29.452  35.475  1.00  0.00     0.031 C 
ATOM     56  C   UNL A   1      43.455  28.054  33.589  1.00  0.00     0.037 A 
BRANCH  43  57
ATOM     57  C   UNL A   1      42.324  26.611  27.704  1.00  0.00     0.064 A 
ATOM     58  C   UNL A   1      43.305  27.050  26.806  1.00  0.00     0.173 A 
ATOM     59  C   UNL A   1      41.742  25.353  27.485  1.00  0.00     0.173 A 
ATOM     60  F   UNL A   1      43.882  28.250  26.970  1.00  0.00    -0.203 F 
ATOM     61  C   UNL A   1      43.684  26.259  25.723  1.00  0.00     0.198 A 
ATOM     62  C   UNL A   1      42.135  24.559  26.412  1.00  0.00     0.198 A 
ATOM     63  F   UNL A   1      40.800  24.889  28.321  1.00  0.00    -0.203 F 
ATOM     64  F   UNL A   1      44.610  26.705  24.862  1.00  0.00    -0.200 F 
ATOM     65  C   UNL A   1      43.105  25.013  25.532  1.00  0.00     0.200 A 
ATOM     66  F   UNL A   1      41.581  23.352  26.234  1.00  0.00    -0.200 F 
ATOM     67  F   UNL A   1      43.480  24.251  24.496  1.00  0.00    -0.200 F 
ENDBRANCH  43  57
BRANCH  44  68
ATOM     68  C   UNL A   1      39.350  32.057  35.511  1.00  0.00     0.064 A 
ATOM     69  C   UNL A   1      39.788  33.374  35.696  1.00  0.00     0.173 A 
ATOM     70  C   UNL A   1      38.483  31.513  36.470  1.00  0.00     0.173 A 
ATOM     71  F   UNL A   1      40.640  33.926  34.820  1.00  0.00    -0.203 F 
ATOM     72  C   UNL A   1      39.381  34.117  36.803  1.00  0.00     0.198 A 
ATOM     73  C   UNL A   1      38.057  32.265  37.562  1.00  0.00     0.198 A 
ATOM     74  F   UNL A   1      38.040  30.254  36.338  1.00  0.00    -0.203 F 
ATOM     75  F   UNL A   1      39.842  35.362  36.978  1.00  0.00    -0.200 F 
ATOM     76  C   UNL A   1      38.510  33.564  37.730  1.00  0.00     0.200 A 
ATOM     77  F   UNL A   1      37.208  31.729  38.450  1.00  0.00    -0.200 F 
ATOM     78  F   UNL A   1      38.115  34.280  38.792  1.00  0.00    -0.200 F 
ENDBRANCH  44  68
BRANCH  56  79
ATOM     79  C   UNL A   1      44.531  27.535  34.492  1.00  0.00     0.064 A 
ATOM     80  C   UNL A   1      44.348  26.363  35.239  1.00  0.00     0.173 A 
ATOM     81  C   UNL A   1      45.762  28.198  34.588  1.00  0.00     0.173 A 
ATOM     82  F   UNL A   1      43.179  25.707  35.189  1.00  0.00    -0.203 F 
ATOM     83  C   UNL A   1      45.359  25.880  36.065  1.00  0.00     0.198 A 
ATOM     84  C   UNL A   1      46.777  27.703  35.401  1.00  0.00     0.198 A 
ATOM     85  F   UNL A   1      45.981  29.323  33.891  1.00  0.00    -0.203 F 
ATOM     86  F   UNL A   1      45.153  24.777  36.797  1.00  0.00    -0.200 F 
ATOM     87  C   UNL A   1      46.573  26.547  36.142  1.00  0.00     0.200 A 
ATOM     88  F   UNL A   1      47.951  28.345  35.473  1.00  0.00    -0.200 F 
ATOM     89  F   UNL A   1      47.544  26.081  36.938  1.00  0.00    -0.200 F 
ENDBRANCH  56  79
ENDBRANCH  30  31
ENDBRANCH  23  25
ENDBRANCH  22  23
ENDBRANCH   1  22
TORSDOF 13
ENDMDL
MODEL 2
REMARK VINA RESULT:     -12.8      0.475      1.682
REMARK SMILES COc1ccc2c(c1)[C@@](NC=O)(C(=O)OCCOC(=O)c1ccc(-c3c4nc(c(-c5c(F)c(F)c(F)c(F)c5F)c5ccc([nH]5)c(-c5c(F)c(F)c(F)c(F)c5F)c5nc(c(-c6c(F)c(F)c(F)c(F)c6F)c6ccc3[nH]6)C=C5)C=C4)cc1)CCC2
REMARK SMILES IDX 17 1 16 2 15 3 13 4 14 5 9 6 3 7 4 8 8 9 5 10 7 11 6 12
REMARK SMILES IDX 86 13 84 14 85 15 2 16 1 17 10 18 11 19 12 21 18 22 19 23
REMARK SMILES IDX 20 24 21 25 22 26 83 27 23 28 82 29 24 30 25 31 26 32 76 33
REMARK SMILES IDX 27 34 81 35 75 36 77 37 28 38 80 39 74 40 73 41 29 43 61 44
REMARK SMILES IDX 41 45 60 46 42 47 45 48 59 49 78 50 43 51 44 52 58 54 79 55
REMARK SMILES IDX 46 56 30 57 31 58 39 59 32 60 33 61 37 62 40 63 34 64 35 65
REMARK SMILES IDX 38 66 36 67 62 68 63 69 71 70 64 71 65 72 69 73 72 74 66 75
REMARK SMILES IDX 67 76 70 77 68 78 47 79 48 80 56 81 49 82 50 83 54 84 57 85
REMARK SMILES IDX 51 86 52 87 55 88 53 89
REMARK H PARENT 10 20 77 42 45 53
REMARK Flexibility Score: inf
ROOT
ATOM      1  C   UNL A   1      31.601  31.174  26.487  1.00  0.00     0.275 C 
ENDROOT
BRANCH   1   2
ATOM      2  C   UNL A   1      31.240  30.311  25.277  1.00  0.00     0.274 C 
BRANCH   2   3
ATOM      3  O   UNL A   1      32.122  29.181  25.109  1.00  0.00    -0.460 OA
BRANCH   3   4
ATOM      4  C   UNL A   1      32.399  28.856  23.810  1.00  0.00     0.336 C 
ATOM      5  O   UNL A   1      33.374  29.309  23.217  1.00  0.00    -0.249 OA
BRANCH   4   6
ATOM      6  C   UNL A   1      31.412  27.766  23.222  1.00  0.00     0.164 C 
ATOM      7  C   UNL A   1      28.832  30.279  21.785  1.00  0.00     0.119 A 
ATOM      8  C   UNL A   1      27.636  29.747  22.250  1.00  0.00     0.047 A 
ATOM      9  C   UNL A   1      30.022  29.613  22.076  1.00  0.00     0.053 A 
ATOM     10  C   UNL A   1      27.627  28.551  22.971  1.00  0.00     0.008 A 
ATOM     11  C   UNL A   1      30.053  28.438  22.872  1.00  0.00    -0.004 A 
ATOM     12  C   UNL A   1      28.823  27.876  23.263  1.00  0.00    -0.042 A 
ATOM     13  C   UNL A   1      28.735  26.570  24.011  1.00  0.00     0.036 C 
ATOM     14  C   UNL A   1      31.206  26.627  24.253  1.00  0.00     0.046 C 
ATOM     15  C   UNL A   1      30.012  25.751  23.900  1.00  0.00     0.008 C 
BRANCH   7  16
ATOM     16  O   UNL A   1      28.714  31.437  21.069  1.00  0.00    -0.497 OA
ATOM     17  C   UNL A   1      28.338  32.608  21.786  1.00  0.00     0.278 C 
ENDBRANCH   7  16
BRANCH   6  18
ATOM     18  N   UNL A   1      31.932  27.228  21.951  1.00  0.00    -0.339 N 
ATOM     19  C   UNL A   1      32.925  26.308  21.801  1.00  0.00     0.338 C 
ATOM     20  H   UNL A   1      31.519  27.569  21.125  1.00  0.00     0.164 HD
ATOM     21  O   UNL A   1      33.225  25.855  20.704  1.00  0.00    -0.279 OA
ENDBRANCH   6  18
ENDBRANCH   4   6
ENDBRANCH   3   4
ENDBRANCH   2   3
ENDBRANCH   1   2
BRANCH   1  22
ATOM     22  O   UNL A   1      32.920  30.871  26.976  1.00  0.00    -0.458 OA
BRANCH  22  23
ATOM     23  C   UNL A   1      33.608  31.923  27.471  1.00  0.00     0.338 C 
ATOM     24  O   UNL A   1      33.213  33.071  27.599  1.00  0.00    -0.246 OA
BRANCH  23  25
ATOM     25  C   UNL A   1      34.943  31.499  27.922  1.00  0.00     0.060 A 
ATOM     26  C   UNL A   1      35.125  30.181  28.335  1.00  0.00     0.016 A 
ATOM     27  C   UNL A   1      35.949  32.442  28.123  1.00  0.00     0.016 A 
ATOM     28  C   UNL A   1      36.266  29.818  29.040  1.00  0.00     0.010 A 
ATOM     29  C   UNL A   1      37.136  32.055  28.757  1.00  0.00     0.010 A 
ATOM     30  C   UNL A   1      37.287  30.749  29.258  1.00  0.00    -0.014 A 
BRANCH  30  31
ATOM     31  C   UNL A   1      38.473  30.372  30.069  1.00  0.00     0.031 A 
ATOM     32  C   UNL A   1      39.543  29.500  29.470  1.00  0.00     0.074 A 
ATOM     33  C   UNL A   1      38.618  30.835  31.324  1.00  0.00     0.049 A 
ATOM     34  N   UNL A   1      40.545  28.898  30.059  1.00  0.00    -0.248 NA
ATOM     35  C   UNL A   1      39.471  29.268  28.019  1.00  0.00     0.031 C 
ATOM     36  C   UNL A   1      37.697  31.749  32.003  1.00  0.00     0.029 A 
ATOM     37  N   UNL A   1      39.601  30.606  32.254  1.00  0.00    -0.354 N 
ATOM     38  C   UNL A   1      41.179  28.162  29.067  1.00  0.00     0.074 A 
ATOM     39  C   UNL A   1      40.466  28.410  27.832  1.00  0.00     0.031 C 
ATOM     40  C   UNL A   1      38.175  32.027  33.225  1.00  0.00     0.029 A 
ATOM     41  C   UNL A   1      39.390  31.249  33.448  1.00  0.00     0.049 A 
ATOM     42  H   UNL A   1      40.386  30.036  32.080  1.00  0.00     0.167 HD
ATOM     43  C   UNL A   1      42.253  27.347  29.184  1.00  0.00     0.037 A 
ATOM     44  C   UNL A   1      40.072  31.185  34.606  1.00  0.00     0.037 A 
ATOM     45  C   UNL A   1      43.010  27.167  30.394  1.00  0.00     0.049 A 
ATOM     46  C   UNL A   1      41.257  30.267  34.713  1.00  0.00     0.074 A 
ATOM     47  C   UNL A   1      44.123  26.372  30.608  1.00  0.00     0.029 A 
ATOM     48  N   UNL A   1      42.746  27.817  31.589  1.00  0.00    -0.354 N 
ATOM     49  N   UNL A   1      41.794  29.503  33.794  1.00  0.00    -0.248 NA
ATOM     50  C   UNL A   1      41.912  30.181  36.026  1.00  0.00     0.031 C 
ATOM     51  C   UNL A   1      44.522  26.528  31.941  1.00  0.00     0.029 A 
ATOM     52  C   UNL A   1      43.671  27.438  32.547  1.00  0.00     0.049 A 
ATOM     53  H   UNL A   1      42.009  28.454  31.736  1.00  0.00     0.167 HD
ATOM     54  C   UNL A   1      42.847  28.845  34.414  1.00  0.00     0.074 A 
ATOM     55  C   UNL A   1      42.889  29.319  35.783  1.00  0.00     0.031 C 
ATOM     56  C   UNL A   1      43.695  27.924  33.900  1.00  0.00     0.037 A 
BRANCH  43  57
ATOM     57  C   UNL A   1      42.656  26.550  27.981  1.00  0.00     0.064 A 
ATOM     58  C   UNL A   1      42.119  25.285  27.715  1.00  0.00     0.173 A 
ATOM     59  C   UNL A   1      43.554  27.097  27.052  1.00  0.00     0.173 A 
ATOM     60  F   UNL A   1      41.264  24.718  28.580  1.00  0.00    -0.203 F 
ATOM     61  C   UNL A   1      42.475  24.588  26.562  1.00  0.00     0.198 A 
ATOM     62  C   UNL A   1      43.894  26.406  25.893  1.00  0.00     0.198 A 
ATOM     63  F   UNL A   1      44.090  28.309  27.262  1.00  0.00    -0.203 F 
ATOM     64  F   UNL A   1      41.968  23.369  26.333  1.00  0.00    -0.200 F 
ATOM     65  C   UNL A   1      43.356  25.153  25.650  1.00  0.00     0.200 A 
ATOM     66  F   UNL A   1      44.738  26.956  25.009  1.00  0.00    -0.200 F 
ATOM     67  F   UNL A   1      43.688  24.485  24.536  1.00  0.00    -0.200 F 
ENDBRANCH  43  57
BRANCH  44  68
ATOM     68  C   UNL A   1      39.617  31.975  35.778  1.00  0.00     0.064 A 
ATOM     69  C   UNL A   1      38.593  31.503  36.609  1.00  0.00     0.173 A 
ATOM     70  C   UNL A   1      40.192  33.217  36.086  1.00  0.00     0.173 A 
ATOM     71  F   UNL A   1      37.995  30.335  36.337  1.00  0.00    -0.203 F 
ATOM     72  C   UNL A   1      38.156  32.248  37.703  1.00  0.00     0.198 A 
ATOM     73  C   UNL A   1      39.772  33.948  37.193  1.00  0.00     0.198 A 
ATOM     74  F   UNL A   1      41.173  33.712  35.317  1.00  0.00    -0.203 F 
ATOM     75  F   UNL A   1      37.151  31.794  38.462  1.00  0.00    -0.200 F 
ATOM     76  C   UNL A   1      38.750  33.467  37.997  1.00  0.00     0.200 A 
ATOM     77  F   UNL A   1      40.356  35.120  37.480  1.00  0.00    -0.200 F 
ATOM     78  F   UNL A   1      38.333  34.181  39.052  1.00  0.00    -0.200 F 
ENDBRANCH  44  68
BRANCH  56  79
ATOM     79  C   UNL A   1      44.744  27.380  34.819  1.00  0.00     0.064 A 
ATOM     80  C   UNL A   1      44.522  26.215  35.565  1.00  0.00     0.173 A 
ATOM     81  C   UNL A   1      45.991  28.013  34.931  1.00  0.00     0.173 A 
ATOM     82  F   UNL A   1      43.338  25.588  35.499  1.00  0.00    -0.203 F 
ATOM     83  C   UNL A   1      45.509  25.708  36.406  1.00  0.00     0.198 A 
ATOM     84  C   UNL A   1      46.981  27.495  35.760  1.00  0.00     0.198 A 
ATOM     85  F   UNL A   1      46.246  29.131  34.236  1.00  0.00    -0.203 F 
ATOM     86  F   UNL A   1      45.266  24.612  37.137  1.00  0.00    -0.200 F 
ATOM     87  C   UNL A   1      46.738  26.346  36.499  1.00  0.00     0.200 A 
ATOM     88  F   UNL A   1      48.169  28.107  35.848  1.00  0.00    -0.200 F 
ATOM     89  F   UNL A   1      47.686  25.856  37.310  1.00  0.00    -0.200 F 
ENDBRANCH  56  79
ENDBRANCH  30  31
ENDBRANCH  23  25
ENDBRANCH  22  23
ENDBRANCH   1  22
TORSDOF 13
ENDMDL
MODEL 3
REMARK VINA RESULT:     -12.8      5.518     10.530
REMARK SMILES COc1ccc2c(c1)[C@@](NC=O)(C(=O)OCCOC(=O)c1ccc(-c3c4nc(c(-c5c(F)c(F)c(F)c(F)c5F)c5ccc([nH]5)c(-c5c(F)c(F)c(F)c(F)c5F)c5nc(c(-c6c(F)c(F)c(F)c(F)c6F)c6ccc3[nH]6)C=C5)C=C4)cc1)CCC2
REMARK SMILES IDX 17 1 16 2 15 3 13 4 14 5 9 6 3 7 4 8 8 9 5 10 7 11 6 12
REMARK SMILES IDX 86 13 84 14 85 15 2 16 1 17 10 18 11 19 12 21 18 22 19 23
REMARK SMILES IDX 20 24 21 25 22 26 83 27 23 28 82 29 24 30 25 31 26 32 76 33
REMARK SMILES IDX 27 34 81 35 75 36 77 37 28 38 80 39 74 40 73 41 29 43 61 44
REMARK SMILES IDX 41 45 60 46 42 47 45 48 59 49 78 50 43 51 44 52 58 54 79 55
REMARK SMILES IDX 46 56 30 57 31 58 39 59 32 60 33 61 37 62 40 63 34 64 35 65
REMARK SMILES IDX 38 66 36 67 62 68 63 69 71 70 64 71 65 72 69 73 72 74 66 75
REMARK SMILES IDX 67 76 70 77 68 78 47 79 48 80 56 81 49 82 50 83 54 84 57 85
REMARK SMILES IDX 51 86 52 87 55 88 53 89
REMARK H PARENT 10 20 77 42 45 53
REMARK Flexibility Score: inf
ROOT
ATOM      1  C   UNL A   1      37.540  20.507  24.835  1.00  0.00     0.275 C 
ENDROOT
BRANCH   1   2
ATOM      2  C   UNL A   1      36.032  20.413  25.075  1.00  0.00     0.274 C 
BRANCH   2   3
ATOM      3  O   UNL A   1      35.444  21.675  25.457  1.00  0.00    -0.460 OA
BRANCH   3   4
ATOM      4  C   UNL A   1      34.339  21.575  26.256  1.00  0.00     0.336 C 
ATOM      5  O   UNL A   1      34.415  21.591  27.482  1.00  0.00    -0.249 OA
BRANCH   4   6
ATOM      6  C   UNL A   1      32.983  21.563  25.437  1.00  0.00     0.164 C 
ATOM      7  C   UNL A   1      32.662  17.704  25.232  1.00  0.00     0.119 A 
ATOM      8  C   UNL A   1      32.382  17.519  23.884  1.00  0.00     0.047 A 
ATOM      9  C   UNL A   1      32.817  19.004  25.715  1.00  0.00     0.053 A 
ATOM     10  C   UNL A   1      32.228  18.618  23.037  1.00  0.00     0.008 A 
ATOM     11  C   UNL A   1      32.743  20.137  24.863  1.00  0.00    -0.004 A 
ATOM     12  C   UNL A   1      32.379  19.928  23.520  1.00  0.00    -0.042 A 
ATOM     13  C   UNL A   1      32.160  21.067  22.557  1.00  0.00     0.036 C 
ATOM     14  C   UNL A   1      33.047  22.607  24.293  1.00  0.00     0.046 C 
ATOM     15  C   UNL A   1      31.941  22.394  23.269  1.00  0.00     0.008 C 
BRANCH   7  16
ATOM     16  O   UNL A   1      32.763  16.557  25.968  1.00  0.00    -0.497 OA
ATOM     17  C   UNL A   1      32.791  15.327  25.252  1.00  0.00     0.278 C 
ENDBRANCH   7  16
BRANCH   6  18
ATOM     18  N   UNL A   1      31.839  21.836  26.326  1.00  0.00    -0.339 N 
ATOM     19  C   UNL A   1      31.438  23.053  26.789  1.00  0.00     0.338 C 
ATOM     20  H   UNL A   1      31.309  21.058  26.615  1.00  0.00     0.164 HD
ATOM     21  O   UNL A   1      30.417  23.188  27.450  1.00  0.00    -0.279 OA
ENDBRANCH   6  18
ENDBRANCH   4   6
ENDBRANCH   3   4
ENDBRANCH   2   3
ENDBRANCH   1   2
BRANCH   1  22
ATOM     22  O   UNL A   1      38.109  21.652  25.497  1.00  0.00    -0.458 OA
BRANCH  22  23
ATOM     23  C   UNL A   1      39.256  21.417  26.172  1.00  0.00     0.338 C 
ATOM     24  O   UNL A   1      39.865  20.362  26.251  1.00  0.00    -0.246 OA
BRANCH  23  25
ATOM     25  C   UNL A   1      39.753  22.658  26.787  1.00  0.00     0.060 A 
ATOM     26  C   UNL A   1      39.288  23.880  26.306  1.00  0.00     0.016 A 
ATOM     27  C   UNL A   1      40.813  22.618  27.690  1.00  0.00     0.016 A 
ATOM     28  C   UNL A   1      39.940  25.061  26.641  1.00  0.00     0.010 A 
ATOM     29  C   UNL A   1      41.415  23.816  28.095  1.00  0.00     0.010 A 
ATOM     30  C   UNL A   1      41.010  25.044  27.541  1.00  0.00    -0.014 A 
BRANCH  30  31
ATOM     31  C   UNL A   1      41.743  26.300  27.844  1.00  0.00     0.031 A 
ATOM     32  C   UNL A   1      41.094  27.361  28.691  1.00  0.00     0.074 A 
ATOM     33  C   UNL A   1      42.999  26.482  27.397  1.00  0.00     0.049 A 
ATOM     34  N   UNL A   1      41.473  28.595  28.905  1.00  0.00    -0.248 NA
ATOM     35  C   UNL A   1      39.850  26.985  29.382  1.00  0.00     0.031 C 
ATOM     36  C   UNL A   1      43.777  25.507  26.631  1.00  0.00     0.029 A 
ATOM     37  N   UNL A   1      43.850  27.551  27.531  1.00  0.00    -0.354 N 
ATOM     38  C   UNL A   1      40.482  29.163  29.694  1.00  0.00     0.074 A 
ATOM     39  C   UNL A   1      39.495  28.134  29.943  1.00  0.00     0.031 C 
ATOM     40  C   UNL A   1      44.998  26.009  26.391  1.00  0.00     0.029 A 
ATOM     41  C   UNL A   1      45.062  27.371  26.912  1.00  0.00     0.049 A 
ATOM     42  H   UNL A   1      43.613  28.370  28.024  1.00  0.00     0.167 HD
ATOM     43  C   UNL A   1      40.403  30.432  30.157  1.00  0.00     0.037 A 
ATOM     44  C   UNL A   1      46.092  28.221  26.745  1.00  0.00     0.037 A 
ATOM     45  C   UNL A   1      41.425  31.429  29.978  1.00  0.00     0.049 A 
ATOM     46  C   UNL A   1      45.976  29.627  27.263  1.00  0.00     0.074 A 
ATOM     47  C   UNL A   1      41.442  32.740  30.422  1.00  0.00     0.029 A 
ATOM     48  N   UNL A   1      42.626  31.212  29.322  1.00  0.00    -0.354 N 
ATOM     49  N   UNL A   1      44.994  30.183  27.928  1.00  0.00    -0.248 NA
ATOM     50  C   UNL A   1      47.100  30.531  26.981  1.00  0.00     0.031 C 
ATOM     51  C   UNL A   1      42.649  33.323  30.019  1.00  0.00     0.029 A 
ATOM     52  C   UNL A   1      43.391  32.366  29.344  1.00  0.00     0.049 A 
ATOM     53  H   UNL A   1      42.896  30.364  28.901  1.00  0.00     0.167 HD
ATOM     54  C   UNL A   1      45.379  31.499  28.144  1.00  0.00     0.074 A 
ATOM     55  C   UNL A   1      46.696  31.652  27.559  1.00  0.00     0.031 C 
ATOM     56  C   UNL A   1      44.699  32.494  28.759  1.00  0.00     0.037 A 
BRANCH  43  57
ATOM     57  C   UNL A   1      39.150  30.835  30.872  1.00  0.00     0.064 A 
ATOM     58  C   UNL A   1      38.037  31.345  30.191  1.00  0.00     0.173 A 
ATOM     59  C   UNL A   1      39.048  30.649  32.259  1.00  0.00     0.173 A 
ATOM     60  F   UNL A   1      38.092  31.549  28.865  1.00  0.00    -0.203 F 
ATOM     61  C   UNL A   1      36.867  31.664  30.876  1.00  0.00     0.198 A 
ATOM     62  C   UNL A   1      37.872  30.953  32.938  1.00  0.00     0.198 A 
ATOM     63  F   UNL A   1      40.086  30.159  32.953  1.00  0.00    -0.203 F 
ATOM     64  F   UNL A   1      35.820  32.171  30.211  1.00  0.00    -0.200 F 
ATOM     65  C   UNL A   1      36.784  31.461  32.246  1.00  0.00     0.200 A 
ATOM     66  F   UNL A   1      37.790  30.748  34.259  1.00  0.00    -0.200 F 
ATOM     67  F   UNL A   1      35.653  31.759  32.901  1.00  0.00    -0.200 F 
ENDBRANCH  43  57
BRANCH  44  68
ATOM     68  C   UNL A   1      47.302  27.781  26.007  1.00  0.00     0.064 A 
ATOM     69  C   UNL A   1      47.336  27.798  24.607  1.00  0.00     0.173 A 
ATOM     70  C   UNL A   1      48.445  27.332  26.686  1.00  0.00     0.173 A 
ATOM     71  F   UNL A   1      46.257  28.192  23.916  1.00  0.00    -0.203 F 
ATOM     72  C   UNL A   1      48.466  27.375  23.911  1.00  0.00     0.198 A 
ATOM     73  C   UNL A   1      49.583  26.933  25.990  1.00  0.00     0.198 A 
ATOM     74  F   UNL A   1      48.459  27.294  28.026  1.00  0.00    -0.203 F 
ATOM     75  F   UNL A   1      48.462  27.365  22.572  1.00  0.00    -0.200 F 
ATOM     76  C   UNL A   1      49.591  26.949  24.603  1.00  0.00     0.200 A 
ATOM     77  F   UNL A   1      50.670  26.533  26.662  1.00  0.00    -0.200 F 
ATOM     78  F   UNL A   1      50.680  26.547  23.934  1.00  0.00    -0.200 F 
ENDBRANCH  44  68
BRANCH  56  79
ATOM     79  C   UNL A   1      45.373  33.828  28.842  1.00  0.00     0.064 A 
ATOM     80  C   UNL A   1      45.176  34.802  27.854  1.00  0.00     0.173 A 
ATOM     81  C   UNL A   1      46.198  34.144  29.931  1.00  0.00     0.173 A 
ATOM     82  F   UNL A   1      44.408  34.535  26.787  1.00  0.00    -0.203 F 
ATOM     83  C   UNL A   1      45.796  36.045  27.945  1.00  0.00     0.198 A 
ATOM     84  C   UNL A   1      46.802  35.393  30.028  1.00  0.00     0.198 A 
ATOM     85  F   UNL A   1      46.414  33.242  30.899  1.00  0.00    -0.203 F 
ATOM     86  F   UNL A   1      45.622  36.952  26.973  1.00  0.00    -0.200 F 
ATOM     87  C   UNL A   1      46.604  36.341  29.033  1.00  0.00     0.200 A 
ATOM     88  F   UNL A   1      47.580  35.681  31.080  1.00  0.00    -0.200 F 
ATOM     89  F   UNL A   1      47.200  37.538  29.119  1.00  0.00    -0.200 F 
ENDBRANCH  56  79
ENDBRANCH  30  31
ENDBRANCH  23  25
ENDBRANCH  22  23
ENDBRANCH   1  22
TORSDOF 13
ENDMDL
