MODEL 1
REMARK VINA RESULT:     -10.5      0.000      0.000
REMARK SMILES Cn1ccnc1N1[C@@H]2CC[C@H]1C[C@H](CC(=O)OCCOC(=O)c1ccc(-c3c4nc(c(-c5c(F)c(F)c(F)c(F)c5F)c5ccc([nH]5)c(-c5c(F)c(F)c(F)c(F)c5F)c5nc(c(-c6c(F)c(F)c(F)c(F)c6F)c6ccc3[nH]6)C=C5)C=C4)cc1)C2
REMARK SMILES IDX 18 1 17 2 15 3 16 4 14 5 13 6 7 7 8 8 11 9 9 10 86 11 10 12
REMARK SMILES IDX 12 13 6 14 1 15 2 16 3 17 4 18 5 19 19 20 20 21 21 22 22 23
REMARK SMILES IDX 23 24 24 25 85 26 25 27 84 28 26 29 27 30 28 31 78 32 29 33
REMARK SMILES IDX 83 34 77 35 79 36 30 37 82 38 76 39 75 40 31 42 63 43 43 44
REMARK SMILES IDX 62 45 44 46 47 47 61 48 80 49 45 50 46 51 60 53 81 54 48 55
REMARK SMILES IDX 32 56 33 57 41 58 34 59 35 60 39 61 42 62 36 63 37 64 40 65
REMARK SMILES IDX 38 66 64 67 65 68 73 69 66 70 67 71 71 72 74 73 68 74 69 75
REMARK SMILES IDX 72 76 70 77 49 78 50 79 58 80 51 81 52 82 56 83 59 84 53 85
REMARK SMILES IDX 54 86 57 87 55 88
REMARK H PARENT 79 41 47 52
REMARK Flexibility Score: inf
ROOT
ATOM      1  C   UNL A   1      33.606  34.575  28.580  1.00  0.00     0.274 C 
ENDROOT
BRANCH   1   2
ATOM      2  O   UNL A   1      32.648  34.712  29.647  1.00  0.00    -0.462 OA
BRANCH   2   3
ATOM      3  C   UNL A   1      32.858  35.711  30.539  1.00  0.00     0.306 C 
ATOM      4  O   UNL A   1      32.694  36.903  30.308  1.00  0.00    -0.252 OA
BRANCH   3   5
ATOM      5  C   UNL A   1      33.381  35.193  31.862  1.00  0.00     0.126 C 
BRANCH   5   6
ATOM      6  C   UNL A   1      34.809  34.621  31.824  1.00  0.00     0.004 C 
ATOM      7  N   UNL A   1      36.554  32.959  33.457  1.00  0.00    -0.336 N 
ATOM      8  C   UNL A   1      36.136  32.434  32.151  1.00  0.00     0.086 C 
ATOM      9  C   UNL A   1      36.976  34.335  33.183  1.00  0.00     0.086 C 
ATOM     10  C   UNL A   1      37.242  32.936  31.207  1.00  0.00     0.027 C 
ATOM     11  C   UNL A   1      34.769  33.074  31.833  1.00  0.00     0.029 C 
ATOM     12  C   UNL A   1      37.797  34.193  31.891  1.00  0.00     0.027 C 
ATOM     13  C   UNL A   1      35.694  35.159  32.974  1.00  0.00     0.029 C 
BRANCH   7  14
ATOM     14  C   UNL A   1      37.296  32.161  34.268  1.00  0.00     0.205 A 
ATOM     15  C   UNL A   1      37.093  33.596  36.342  1.00  0.00     0.153 C 
ATOM     16  N   UNL A   1      37.592  32.483  35.574  1.00  0.00    -0.320 N 
ATOM     17  C   UNL A   1      38.413  31.506  36.074  1.00  0.00     0.109 A 
ATOM     18  C   UNL A   1      38.525  30.587  35.061  1.00  0.00     0.133 A 
ATOM     19  N   UNL A   1      37.817  30.992  33.962  1.00  0.00    -0.221 NA
ENDBRANCH   7  14
ENDBRANCH   5   6
ENDBRANCH   3   5
ENDBRANCH   2   3
ENDBRANCH   1   2
BRANCH   1  20
ATOM     20  C   UNL A   1      33.623  33.149  28.021  1.00  0.00     0.275 C 
BRANCH  20  21
ATOM     21  O   UNL A   1      34.644  32.356  28.655  1.00  0.00    -0.458 OA
BRANCH  21  22
ATOM     22  C   UNL A   1      34.677  31.053  28.294  1.00  0.00     0.338 C 
ATOM     23  O   UNL A   1      33.811  30.420  27.718  1.00  0.00    -0.246 OA
BRANCH  22  24
ATOM     24  C   UNL A   1      36.004  30.501  28.606  1.00  0.00     0.060 A 
ATOM     25  C   UNL A   1      36.153  29.733  29.764  1.00  0.00     0.016 A 
ATOM     26  C   UNL A   1      37.105  30.790  27.797  1.00  0.00     0.016 A 
ATOM     27  C   UNL A   1      37.409  29.246  30.120  1.00  0.00     0.010 A 
ATOM     28  C   UNL A   1      38.364  30.300  28.155  1.00  0.00     0.010 A 
ATOM     29  C   UNL A   1      38.526  29.533  29.322  1.00  0.00    -0.014 A 
BRANCH  29  30
ATOM     30  C   UNL A   1      39.872  29.063  29.730  1.00  0.00     0.031 A 
ATOM     31  C   UNL A   1      40.707  29.899  30.654  1.00  0.00     0.074 A 
ATOM     32  C   UNL A   1      40.345  27.893  29.262  1.00  0.00     0.049 A 
ATOM     33  N   UNL A   1      41.937  29.709  31.061  1.00  0.00    -0.248 NA
ATOM     34  C   UNL A   1      40.077  31.116  31.189  1.00  0.00     0.031 C 
ATOM     35  C   UNL A   1      39.619  26.985  28.375  1.00  0.00     0.029 A 
ATOM     36  N   UNL A   1      41.556  27.276  29.458  1.00  0.00    -0.354 N 
ATOM     37  C   UNL A   1      42.234  30.788  31.882  1.00  0.00     0.074 A 
ATOM     38  C   UNL A   1      41.063  31.638  31.907  1.00  0.00     0.031 C 
ATOM     39  C   UNL A   1      40.404  25.932  28.092  1.00  0.00     0.029 A 
ATOM     40  C   UNL A   1      41.697  26.111  28.747  1.00  0.00     0.049 A 
ATOM     41  H   UNL A   1      42.254  27.637  30.051  1.00  0.00     0.167 HD
ATOM     42  C   UNL A   1      43.382  31.043  32.554  1.00  0.00     0.037 A 
ATOM     43  C   UNL A   1      42.761  25.294  28.619  1.00  0.00     0.037 A 
ATOM     44  C   UNL A   1      44.538  30.185  32.547  1.00  0.00     0.049 A 
ATOM     45  C   UNL A   1      44.034  25.617  29.356  1.00  0.00     0.074 A 
ATOM     46  C   UNL A   1      45.732  30.340  33.230  1.00  0.00     0.029 A 
ATOM     47  N   UNL A   1      44.645  29.011  31.816  1.00  0.00    -0.354 N 
ATOM     48  N   UNL A   1      44.296  26.626  30.150  1.00  0.00    -0.248 NA
ATOM     49  C   UNL A   1      45.158  24.686  29.178  1.00  0.00     0.031 C 
ATOM     50  C   UNL A   1      46.576  29.280  32.881  1.00  0.00     0.029 A 
ATOM     51  C   UNL A   1      45.893  28.443  32.015  1.00  0.00     0.049 A 
ATOM     52  H   UNL A   1      43.938  28.637  31.242  1.00  0.00     0.167 HD
ATOM     53  C   UNL A   1      45.603  26.441  30.583  1.00  0.00     0.074 A 
ATOM     54  C   UNL A   1      46.076  25.215  29.974  1.00  0.00     0.031 C 
ATOM     55  C   UNL A   1      46.346  27.218  31.408  1.00  0.00     0.037 A 
BRANCH  42  56
ATOM     56  C   UNL A   1      43.459  32.314  33.345  1.00  0.00     0.064 A 
ATOM     57  C   UNL A   1      43.936  33.505  32.780  1.00  0.00     0.173 A 
ATOM     58  C   UNL A   1      42.990  32.353  34.667  1.00  0.00     0.173 A 
ATOM     59  F   UNL A   1      44.405  33.516  31.524  1.00  0.00    -0.203 F 
ATOM     60  C   UNL A   1      43.955  34.687  33.517  1.00  0.00     0.198 A 
ATOM     61  C   UNL A   1      42.990  33.541  35.392  1.00  0.00     0.198 A 
ATOM     62  F   UNL A   1      42.519  31.240  35.250  1.00  0.00    -0.203 F 
ATOM     63  F   UNL A   1      44.444  35.808  32.968  1.00  0.00    -0.200 F 
ATOM     64  C   UNL A   1      43.475  34.706  34.817  1.00  0.00     0.200 A 
ATOM     65  F   UNL A   1      42.515  33.559  36.646  1.00  0.00    -0.200 F 
ATOM     66  F   UNL A   1      43.484  35.847  35.521  1.00  0.00    -0.200 F 
ENDBRANCH  42  56
BRANCH  43  67
ATOM     67  C   UNL A   1      42.678  24.103  27.737  1.00  0.00     0.064 A 
ATOM     68  C   UNL A   1      42.332  22.845  28.248  1.00  0.00     0.173 A 
ATOM     69  C   UNL A   1      42.960  24.195  26.366  1.00  0.00     0.173 A 
ATOM     70  F   UNL A   1      42.079  22.702  29.557  1.00  0.00    -0.203 F 
ATOM     71  C   UNL A   1      42.290  21.721  27.426  1.00  0.00     0.198 A 
ATOM     72  C   UNL A   1      42.892  23.077  25.540  1.00  0.00     0.198 A 
ATOM     73  F   UNL A   1      43.300  25.376  25.828  1.00  0.00    -0.203 F 
ATOM     74  F   UNL A   1      42.003  20.521  27.949  1.00  0.00    -0.200 F 
ATOM     75  C   UNL A   1      42.564  21.838  26.071  1.00  0.00     0.200 A 
ATOM     76  F   UNL A   1      43.149  23.196  24.230  1.00  0.00    -0.200 F 
ATOM     77  F   UNL A   1      42.524  20.757  25.281  1.00  0.00    -0.200 F 
ENDBRANCH  43  67
BRANCH  55  78
ATOM     78  C   UNL A   1      47.735  26.753  31.726  1.00  0.00     0.064 A 
ATOM     79  C   UNL A   1      47.993  25.897  32.806  1.00  0.00     0.173 A 
ATOM     80  C   UNL A   1      48.815  27.135  30.915  1.00  0.00     0.173 A 
ATOM     81  F   UNL A   1      46.997  25.517  33.620  1.00  0.00    -0.203 F 
ATOM     82  C   UNL A   1      49.286  25.457  33.076  1.00  0.00     0.198 A 
ATOM     83  C   UNL A   1      50.102  26.672  31.172  1.00  0.00     0.198 A 
ATOM     84  F   UNL A   1      48.618  27.947  29.865  1.00  0.00    -0.203 F 
ATOM     85  F   UNL A   1      49.517  24.673  34.137  1.00  0.00    -0.200 F 
ATOM     86  C   UNL A   1      50.338  25.839  32.255  1.00  0.00     0.200 A 
ATOM     87  F   UNL A   1      51.114  27.034  30.372  1.00  0.00    -0.200 F 
ATOM     88  F   UNL A   1      51.581  25.409  32.513  1.00  0.00    -0.200 F 
ENDBRANCH  55  78
ENDBRANCH  29  30
ENDBRANCH  22  24
ENDBRANCH  21  22
ENDBRANCH  20  21
ENDBRANCH   1  20
TORSDOF 13
ENDMDL
MODEL 2
REMARK VINA RESULT:     -10.4      4.518     10.022
REMARK SMILES Cn1ccnc1N1[C@@H]2CC[C@H]1C[C@H](CC(=O)OCCOC(=O)c1ccc(-c3c4nc(c(-c5c(F)c(F)c(F)c(F)c5F)c5ccc([nH]5)c(-c5c(F)c(F)c(F)c(F)c5F)c5nc(c(-c6c(F)c(F)c(F)c(F)c6F)c6ccc3[nH]6)C=C5)C=C4)cc1)C2
REMARK SMILES IDX 18 1 17 2 15 3 16 4 14 5 13 6 7 7 8 8 11 9 9 10 86 11 10 12
REMARK SMILES IDX 12 13 6 14 1 15 2 16 3 17 4 18 5 19 19 20 20 21 21 22 22 23
REMARK SMILES IDX 23 24 24 25 85 26 25 27 84 28 26 29 27 30 28 31 78 32 29 33
REMARK SMILES IDX 83 34 77 35 79 36 30 37 82 38 76 39 75 40 31 42 63 43 43 44
REMARK SMILES IDX 62 45 44 46 47 47 61 48 80 49 45 50 46 51 60 53 81 54 48 55
REMARK SMILES IDX 32 56 33 57 41 58 34 59 35 60 39 61 42 62 36 63 37 64 40 65
REMARK SMILES IDX 38 66 64 67 65 68 73 69 66 70 67 71 71 72 74 73 68 74 69 75
REMARK SMILES IDX 72 76 70 77 49 78 50 79 58 80 51 81 52 82 56 83 59 84 53 85
REMARK SMILES IDX 54 86 57 87 55 88
REMARK H PARENT 79 41 47 52
REMARK Flexibility Score: inf
ROOT
ATOM      1  C   UNL A   1      31.782  29.085  24.377  1.00  0.00     0.274 C 
ENDROOT
BRANCH   1   2
ATOM      2  O   UNL A   1      32.985  29.194  23.591  1.00  0.00    -0.462 OA
BRANCH   2   3
ATOM      3  C   UNL A   1      33.399  28.080  22.940  1.00  0.00     0.306 C 
ATOM      4  O   UNL A   1      34.201  28.065  22.014  1.00  0.00    -0.252 OA
BRANCH   3   5
ATOM      5  C   UNL A   1      32.710  26.832  23.451  1.00  0.00     0.126 C 
BRANCH   5   6
ATOM      6  C   UNL A   1      33.647  25.673  23.830  1.00  0.00     0.004 C 
ATOM      7  N   UNL A   1      33.537  22.786  24.193  1.00  0.00    -0.336 N 
ATOM      8  C   UNL A   1      34.362  23.307  23.094  1.00  0.00     0.086 C 
ATOM      9  C   UNL A   1      33.903  23.610  25.348  1.00  0.00     0.086 C 
ATOM     10  C   UNL A   1      35.739  23.491  23.753  1.00  0.00     0.027 C 
ATOM     11  C   UNL A   1      33.737  24.652  22.670  1.00  0.00     0.029 C 
ATOM     12  C   UNL A   1      35.434  23.692  25.244  1.00  0.00     0.027 C 
ATOM     13  C   UNL A   1      33.229  24.978  25.148  1.00  0.00     0.029 C 
BRANCH   7  14
ATOM     14  C   UNL A   1      33.406  21.441  24.322  1.00  0.00     0.205 A 
ATOM     15  C   UNL A   1      31.918  21.106  22.305  1.00  0.00     0.153 C 
ATOM     16  N   UNL A   1      32.615  20.679  23.491  1.00  0.00    -0.320 N 
ATOM     17  C   UNL A   1      32.650  19.386  23.942  1.00  0.00     0.109 A 
ATOM     18  C   UNL A   1      33.525  19.405  25.000  1.00  0.00     0.133 A 
ATOM     19  N   UNL A   1      33.999  20.671  25.211  1.00  0.00    -0.221 NA
ENDBRANCH   7  14
ENDBRANCH   5   6
ENDBRANCH   3   5
ENDBRANCH   2   3
ENDBRANCH   1   2
BRANCH   1  20
ATOM     20  C   UNL A   1      31.898  29.862  25.691  1.00  0.00     0.275 C 
BRANCH  20  21
ATOM     21  O   UNL A   1      33.255  30.283  25.926  1.00  0.00    -0.458 OA
BRANCH  21  22
ATOM     22  C   UNL A   1      33.423  31.175  26.928  1.00  0.00     0.338 C 
ATOM     23  O   UNL A   1      32.638  32.026  27.304  1.00  0.00    -0.246 OA
BRANCH  22  24
ATOM     24  C   UNL A   1      34.697  30.899  27.610  1.00  0.00     0.060 A 
ATOM     25  C   UNL A   1      34.968  29.589  28.015  1.00  0.00     0.016 A 
ATOM     26  C   UNL A   1      35.588  31.933  27.900  1.00  0.00     0.016 A 
ATOM     27  C   UNL A   1      36.139  29.306  28.715  1.00  0.00     0.010 A 
ATOM     28  C   UNL A   1      36.763  31.647  28.603  1.00  0.00     0.010 A 
ATOM     29  C   UNL A   1      37.041  30.334  29.022  1.00  0.00    -0.014 A 
BRANCH  29  30
ATOM     30  C   UNL A   1      38.259  30.043  29.816  1.00  0.00     0.031 A 
ATOM     31  C   UNL A   1      39.302  29.112  29.271  1.00  0.00     0.074 A 
ATOM     32  C   UNL A   1      38.422  30.608  31.027  1.00  0.00     0.049 A 
ATOM     33  N   UNL A   1      40.392  28.663  29.841  1.00  0.00    -0.248 NA
ATOM     34  C   UNL A   1      39.088  28.613  27.904  1.00  0.00     0.031 C 
ATOM     35  C   UNL A   1      37.488  31.544  31.652  1.00  0.00     0.029 A 
ATOM     36  N   UNL A   1      39.425  30.464  31.953  1.00  0.00    -0.354 N 
ATOM     37  C   UNL A   1      40.983  27.817  28.913  1.00  0.00     0.074 A 
ATOM     38  C   UNL A   1      40.126  27.802  27.747  1.00  0.00     0.031 C 
ATOM     39  C   UNL A   1      37.956  31.880  32.866  1.00  0.00     0.029 A 
ATOM     40  C   UNL A   1      39.201  31.157  33.115  1.00  0.00     0.049 A 
ATOM     41  H   UNL A   1      40.228  29.915  31.796  1.00  0.00     0.167 HD
ATOM     42  C   UNL A   1      42.138  27.118  29.027  1.00  0.00     0.037 A 
ATOM     43  C   UNL A   1      39.906  31.183  34.263  1.00  0.00     0.037 A 
ATOM     44  C   UNL A   1      43.001  27.152  30.178  1.00  0.00     0.049 A 
ATOM     45  C   UNL A   1      41.172  30.375  34.371  1.00  0.00     0.074 A 
ATOM     46  C   UNL A   1      44.212  26.511  30.368  1.00  0.00     0.029 A 
ATOM     47  N   UNL A   1      42.741  27.868  31.338  1.00  0.00    -0.354 N 
ATOM     48  N   UNL A   1      41.735  29.598  33.478  1.00  0.00    -0.248 NA
ATOM     49  C   UNL A   1      41.899  30.447  35.646  1.00  0.00     0.031 C 
ATOM     50  C   UNL A   1      44.666  26.805  31.658  1.00  0.00     0.029 A 
ATOM     51  C   UNL A   1      43.759  27.664  32.256  1.00  0.00     0.049 A 
ATOM     52  H   UNL A   1      41.951  28.436  31.487  1.00  0.00     0.167 HD
ATOM     53  C   UNL A   1      42.890  29.108  34.074  1.00  0.00     0.074 A 
ATOM     54  C   UNL A   1      42.956  29.687  35.399  1.00  0.00     0.031 C 
ATOM     55  C   UNL A   1      43.814  28.254  33.568  1.00  0.00     0.037 A 
BRANCH  42  56
ATOM     56  C   UNL A   1      42.533  26.236  27.881  1.00  0.00     0.064 A 
ATOM     57  C   UNL A   1      41.995  24.951  27.722  1.00  0.00     0.173 A 
ATOM     58  C   UNL A   1      43.415  26.708  26.898  1.00  0.00     0.173 A 
ATOM     59  F   UNL A   1      41.157  24.451  28.641  1.00  0.00    -0.203 F 
ATOM     60  C   UNL A   1      42.340  24.164  26.625  1.00  0.00     0.198 A 
ATOM     61  C   UNL A   1      43.739  25.928  25.791  1.00  0.00     0.198 A 
ATOM     62  F   UNL A   1      43.952  27.933  27.003  1.00  0.00    -0.203 F 
ATOM     63  F   UNL A   1      41.838  22.927  26.507  1.00  0.00    -0.200 F 
ATOM     64  C   UNL A   1      43.203  24.655  25.658  1.00  0.00     0.200 A 
ATOM     65  F   UNL A   1      44.565  26.409  24.852  1.00  0.00    -0.200 F 
ATOM     66  F   UNL A   1      43.524  23.901  24.597  1.00  0.00    -0.200 F 
ENDBRANCH  42  56
BRANCH  43  67
ATOM     67  C   UNL A   1      39.419  31.986  35.413  1.00  0.00     0.064 A 
ATOM     68  C   UNL A   1      38.561  31.432  36.372  1.00  0.00     0.173 A 
ATOM     69  C   UNL A   1      39.789  33.330  35.567  1.00  0.00     0.173 A 
ATOM     70  F   UNL A   1      38.158  30.158  36.253  1.00  0.00    -0.203 F 
ATOM     71  C   UNL A   1      38.075  32.196  37.430  1.00  0.00     0.198 A 
ATOM     72  C   UNL A   1      39.325  34.086  36.640  1.00  0.00     0.198 A 
ATOM     73  F   UNL A   1      40.606  33.908  34.674  1.00  0.00    -0.203 F 
ATOM     74  F   UNL A   1      37.217  31.656  38.307  1.00  0.00    -0.200 F 
ATOM     75  C   UNL A   1      38.462  33.522  37.567  1.00  0.00     0.200 A 
ATOM     76  F   UNL A   1      39.708  35.363  36.773  1.00  0.00    -0.200 F 
ATOM     77  F   UNL A   1      37.994  34.257  38.585  1.00  0.00    -0.200 F 
ENDBRANCH  43  67
BRANCH  55  78
ATOM     78  C   UNL A   1      44.987  27.916  34.438  1.00  0.00     0.064 A 
ATOM     79  C   UNL A   1      44.975  26.797  35.283  1.00  0.00     0.173 A 
ATOM     80  C   UNL A   1      46.152  28.698  34.394  1.00  0.00     0.173 A 
ATOM     81  F   UNL A   1      43.880  26.029  35.372  1.00  0.00    -0.203 F 
ATOM     82  C   UNL A   1      46.081  26.485  36.070  1.00  0.00     0.198 A 
ATOM     83  C   UNL A   1      47.264  28.367  35.163  1.00  0.00     0.198 A 
ATOM     84  F   UNL A   1      46.214  29.774  33.597  1.00  0.00    -0.203 F 
ATOM     85  F   UNL A   1      46.034  25.435  36.901  1.00  0.00    -0.200 F 
ATOM     86  C   UNL A   1      47.226  27.266  36.004  1.00  0.00     0.200 A 
ATOM     87  F   UNL A   1      48.373  29.116  35.090  1.00  0.00    -0.200 F 
ATOM     88  F   UNL A   1      48.292  26.959  36.757  1.00  0.00    -0.200 F 
ENDBRANCH  55  78
ENDBRANCH  29  30
ENDBRANCH  22  24
ENDBRANCH  21  22
ENDBRANCH  20  21
ENDBRANCH   1  20
TORSDOF 13
ENDMDL
MODEL 3
REMARK VINA RESULT:     -10.3      5.544      9.220
REMARK SMILES Cn1ccnc1N1[C@@H]2CC[C@H]1C[C@H](CC(=O)OCCOC(=O)c1ccc(-c3c4nc(c(-c5c(F)c(F)c(F)c(F)c5F)c5ccc([nH]5)c(-c5c(F)c(F)c(F)c(F)c5F)c5nc(c(-c6c(F)c(F)c(F)c(F)c6F)c6ccc3[nH]6)C=C5)C=C4)cc1)C2
REMARK SMILES IDX 18 1 17 2 15 3 16 4 14 5 13 6 7 7 8 8 11 9 9 10 86 11 10 12
REMARK SMILES IDX 12 13 6 14 1 15 2 16 3 17 4 18 5 19 19 20 20 21 21 22 22 23
REMARK SMILES IDX 23 24 24 25 85 26 25 27 84 28 26 29 27 30 28 31 78 32 29 33
REMARK SMILES IDX 83 34 77 35 79 36 30 37 82 38 76 39 75 40 31 42 63 43 43 44
REMARK SMILES IDX 62 45 44 46 47 47 61 48 80 49 45 50 46 51 60 53 81 54 48 55
REMARK SMILES IDX 32 56 33 57 41 58 34 59 35 60 39 61 42 62 36 63 37 64 40 65
REMARK SMILES IDX 38 66 64 67 65 68 73 69 66 70 67 71 71 72 74 73 68 74 69 75
REMARK SMILES IDX 72 76 70 77 49 78 50 79 58 80 51 81 52 82 56 83 59 84 53 85
REMARK SMILES IDX 54 86 57 87 55 88
REMARK H PARENT 79 41 47 52
REMARK Flexibility Score: inf
ROOT
ATOM      1  C   UNL A   1      34.963  21.069  25.063  1.00  0.00     0.274 C 
ENDROOT
BRANCH   1   2
ATOM      2  O   UNL A   1      34.503  21.747  23.877  1.00  0.00    -0.462 OA
BRANCH   2   3
ATOM      3  C   UNL A   1      34.947  23.013  23.680  1.00  0.00     0.306 C 
ATOM      4  O   UNL A   1      35.838  23.330  22.901  1.00  0.00    -0.252 OA
BRANCH   3   5
ATOM      5  C   UNL A   1      34.251  24.009  24.583  1.00  0.00     0.126 C 
BRANCH   5   6
ATOM      6  C   UNL A   1      34.020  25.401  23.971  1.00  0.00     0.004 C 
ATOM      7  N   UNL A   1      31.821  27.233  23.441  1.00  0.00    -0.336 N 
ATOM      8  C   UNL A   1      32.839  27.651  24.413  1.00  0.00     0.086 C 
ATOM      9  C   UNL A   1      32.587  26.732  22.298  1.00  0.00     0.086 C 
ATOM     10  C   UNL A   1      33.867  28.390  23.540  1.00  0.00     0.027 C 
ATOM     11  C   UNL A   1      33.421  26.361  25.027  1.00  0.00     0.029 C 
ATOM     12  C   UNL A   1      33.700  27.782  22.142  1.00  0.00     0.027 C 
ATOM     13  C   UNL A   1      33.137  25.353  22.702  1.00  0.00     0.029 C 
BRANCH   7  14
ATOM     14  C   UNL A   1      30.743  28.036  23.247  1.00  0.00     0.205 A 
ATOM     15  C   UNL A   1      28.994  26.327  23.894  1.00  0.00     0.153 C 
ATOM     16  N   UNL A   1      29.444  27.602  23.398  1.00  0.00    -0.320 N 
ATOM     17  C   UNL A   1      28.612  28.636  23.056  1.00  0.00     0.109 A 
ATOM     18  C   UNL A   1      29.449  29.686  22.775  1.00  0.00     0.133 A 
ATOM     19  N   UNL A   1      30.757  29.310  22.916  1.00  0.00    -0.221 NA
ENDBRANCH   7  14
ENDBRANCH   5   6
ENDBRANCH   3   5
ENDBRANCH   2   3
ENDBRANCH   1   2
BRANCH   1  20
ATOM     20  C   UNL A   1      36.467  20.791  25.001  1.00  0.00     0.275 C 
BRANCH  20  21
ATOM     21  O   UNL A   1      37.197  21.690  25.856  1.00  0.00    -0.458 OA
BRANCH  21  22
ATOM     22  C   UNL A   1      38.508  21.403  26.021  1.00  0.00     0.338 C 
ATOM     23  O   UNL A   1      39.080  20.362  25.751  1.00  0.00    -0.246 OA
BRANCH  22  24
ATOM     24  C   UNL A   1      39.209  22.607  26.492  1.00  0.00     0.060 A 
ATOM     25  C   UNL A   1      38.715  23.859  26.114  1.00  0.00     0.016 A 
ATOM     26  C   UNL A   1      40.378  22.501  27.249  1.00  0.00     0.016 A 
ATOM     27  C   UNL A   1      39.390  25.017  26.494  1.00  0.00     0.010 A 
ATOM     28  C   UNL A   1      41.053  23.665  27.629  1.00  0.00     0.010 A 
ATOM     29  C   UNL A   1      40.569  24.928  27.247  1.00  0.00    -0.014 A 
BRANCH  29  30
ATOM     30  C   UNL A   1      41.319  26.157  27.604  1.00  0.00     0.031 A 
ATOM     31  C   UNL A   1      40.633  27.259  28.357  1.00  0.00     0.074 A 
ATOM     32  C   UNL A   1      42.609  26.285  27.243  1.00  0.00     0.049 A 
ATOM     33  N   UNL A   1      41.085  28.442  28.688  1.00  0.00    -0.248 NA
ATOM     34  C   UNL A   1      39.252  26.998  28.791  1.00  0.00     0.031 C 
ATOM     35  C   UNL A   1      43.388  25.274  26.526  1.00  0.00     0.029 A 
ATOM     36  N   UNL A   1      43.487  27.325  27.417  1.00  0.00    -0.354 N 
ATOM     37  C   UNL A   1      40.041  29.073  29.351  1.00  0.00     0.074 A 
ATOM     38  C   UNL A   1      38.927  28.148  29.366  1.00  0.00     0.031 C 
ATOM     39  C   UNL A   1      44.625  25.751  26.310  1.00  0.00     0.029 A 
ATOM     40  C   UNL A   1      44.713  27.109  26.840  1.00  0.00     0.049 A 
ATOM     41  H   UNL A   1      43.258  28.147  27.909  1.00  0.00     0.167 HD
ATOM     42  C   UNL A   1      40.019  30.311  29.900  1.00  0.00     0.037 A 
ATOM     43  C   UNL A   1      45.778  27.927  26.728  1.00  0.00     0.037 A 
ATOM     44  C   UNL A   1      41.134  31.220  29.905  1.00  0.00     0.049 A 
ATOM     45  C   UNL A   1      45.715  29.308  27.323  1.00  0.00     0.074 A 
ATOM     46  C   UNL A   1      41.219  32.480  30.474  1.00  0.00     0.029 A 
ATOM     47  N   UNL A   1      42.363  30.966  29.312  1.00  0.00    -0.354 N 
ATOM     48  N   UNL A   1      44.733  29.886  27.970  1.00  0.00    -0.248 NA
ATOM     49  C   UNL A   1      46.909  30.152  27.171  1.00  0.00     0.031 C 
ATOM     50  C   UNL A   1      42.484  33.005  30.189  1.00  0.00     0.029 A 
ATOM     51  C   UNL A   1      43.202  32.055  29.481  1.00  0.00     0.049 A 
ATOM     52  H   UNL A   1      42.601  30.135  28.842  1.00  0.00     0.167 HD
ATOM     53  C   UNL A   1      45.196  31.147  28.321  1.00  0.00     0.074 A 
ATOM     54  C   UNL A   1      46.554  31.247  27.828  1.00  0.00     0.031 C 
ATOM     55  C   UNL A   1      44.554  32.135  28.991  1.00  0.00     0.037 A 
BRANCH  42  56
ATOM     56  C   UNL A   1      38.737  30.772  30.527  1.00  0.00     0.064 A 
ATOM     57  C   UNL A   1      37.669  31.248  29.754  1.00  0.00     0.173 A 
ATOM     58  C   UNL A   1      38.556  30.676  31.915  1.00  0.00     0.173 A 
ATOM     59  F   UNL A   1      37.797  31.368  28.425  1.00  0.00    -0.203 F 
ATOM     60  C   UNL A   1      36.469  31.627  30.352  1.00  0.00     0.198 A 
ATOM     61  C   UNL A   1      37.348  31.034  32.506  1.00  0.00     0.198 A 
ATOM     62  F   UNL A   1      39.548  30.222  32.696  1.00  0.00    -0.203 F 
ATOM     63  F   UNL A   1      35.470  32.108  29.599  1.00  0.00    -0.200 F 
ATOM     64  C   UNL A   1      36.307  31.512  31.725  1.00  0.00     0.200 A 
ATOM     65  F   UNL A   1      37.190  30.912  33.832  1.00  0.00    -0.200 F 
ATOM     66  F   UNL A   1      35.148  31.866  32.297  1.00  0.00    -0.200 F 
ENDBRANCH  42  56
BRANCH  43  67
ATOM     67  C   UNL A   1      46.989  27.470  26.002  1.00  0.00     0.064 A 
ATOM     68  C   UNL A   1      48.060  26.872  26.680  1.00  0.00     0.173 A 
ATOM     69  C   UNL A   1      47.109  27.638  24.614  1.00  0.00     0.173 A 
ATOM     70  F   UNL A   1      48.004  26.715  28.011  1.00  0.00    -0.203 F 
ATOM     71  C   UNL A   1      49.211  26.477  26.003  1.00  0.00     0.198 A 
ATOM     72  C   UNL A   1      48.248  27.218  23.933  1.00  0.00     0.198 A 
ATOM     73  F   UNL A   1      46.113  28.207  23.919  1.00  0.00    -0.203 F 
ATOM     74  F   UNL A   1      50.240  25.953  26.683  1.00  0.00    -0.200 F 
ATOM     75  C   UNL A   1      49.303  26.645  24.628  1.00  0.00     0.200 A 
ATOM     76  F   UNL A   1      48.329  27.374  22.605  1.00  0.00    -0.200 F 
ATOM     77  F   UNL A   1      50.410  26.266  23.977  1.00  0.00    -0.200 F 
ENDBRANCH  43  67
BRANCH  55  78
ATOM     78  C   UNL A   1      45.319  33.398  29.254  1.00  0.00     0.064 A 
ATOM     79  C   UNL A   1      45.276  34.480  28.365  1.00  0.00     0.173 A 
ATOM     80  C   UNL A   1      46.071  33.540  30.431  1.00  0.00     0.173 A 
ATOM     81  F   UNL A   1      44.584  34.388  27.220  1.00  0.00    -0.203 F 
ATOM     82  C   UNL A   1      45.976  35.654  28.634  1.00  0.00     0.198 A 
ATOM     83  C   UNL A   1      46.748  34.723  30.709  1.00  0.00     0.198 A 
ATOM     84  F   UNL A   1      46.138  32.534  31.316  1.00  0.00    -0.203 F 
ATOM     85  F   UNL A   1      45.954  36.662  27.752  1.00  0.00    -0.200 F 
ATOM     86  C   UNL A   1      46.705  35.777  29.808  1.00  0.00     0.200 A 
ATOM     87  F   UNL A   1      47.444  34.843  31.848  1.00  0.00    -0.200 F 
ATOM     88  F   UNL A   1      47.373  36.909  30.068  1.00  0.00    -0.200 F 
ENDBRANCH  55  78
ENDBRANCH  29  30
ENDBRANCH  22  24
ENDBRANCH  21  22
ENDBRANCH  20  21
ENDBRANCH   1  20
TORSDOF 13
ENDMDL
