MODEL 1
REMARK VINA RESULT:     -12.2      0.000      0.000
REMARK SMILES COc1cc(Cl)ccc1NC(=O)COc1ccccc1C(=O)OCCOC(=O)c1ccc(-c2c3nc(c(-c4c(F)c(F)c(F)c(F)c4F)c4ccc([nH]4)c(-c4c(F)c(F)c(F)c(F)c4F)c4nc(c(-c5c(F)c(F)c(F)c(F)c5F)c5ccc2[nH]5)C=C4)C=C3)cc1
REMARK SMILES IDX 23 1 21 2 22 3 20 4 15 5 16 6 17 7 19 8 18 9 14 10 13 11
REMARK SMILES IDX 11 12 10 13 12 15 9 16 3 17 4 18 5 19 8 20 6 21 7 22 2 23
REMARK SMILES IDX 1 24 24 25 25 26 26 27 27 28 28 29 29 30 30 31 91 32 31 33
REMARK SMILES IDX 90 34 32 35 33 36 34 37 84 38 35 39 89 40 83 41 85 42 36 43
REMARK SMILES IDX 88 44 82 45 81 46 37 48 69 49 49 50 68 51 50 52 53 53 67 54
REMARK SMILES IDX 86 55 51 56 52 57 66 59 87 60 54 61 38 62 39 63 47 64 40 65
REMARK SMILES IDX 41 66 45 67 48 68 42 69 43 70 46 71 44 72 70 73 71 74 79 75
REMARK SMILES IDX 72 76 73 77 77 78 80 79 74 80 75 81 78 82 76 83 55 84 56 85
REMARK SMILES IDX 64 86 57 87 58 88 62 89 65 90 59 91 60 92 63 93 61 94
REMARK H PARENT 10 14 85 47 53 58
REMARK Flexibility Score: inf
ROOT
ATOM      1  O   UNL A   1      30.637  28.302  24.180  1.00  0.00    -0.458 OA
ENDROOT
BRANCH   1   2
ATOM      2  C   UNL A   1      30.409  27.848  22.925  1.00  0.00     0.342 C 
ATOM      3  O   UNL A   1      29.801  28.434  22.043  1.00  0.00    -0.246 OA
BRANCH   2   4
ATOM      4  C   UNL A   1      31.151  26.597  22.676  1.00  0.00     0.102 A 
ATOM      5  C   UNL A   1      31.039  25.411  23.410  1.00  0.00     0.134 A 
ATOM      6  C   UNL A   1      31.855  24.323  23.051  1.00  0.00     0.047 A 
ATOM      7  C   UNL A   1      32.754  24.397  21.985  1.00  0.00     0.004 A 
ATOM      8  C   UNL A   1      32.047  26.659  21.588  1.00  0.00     0.019 A 
ATOM      9  C   UNL A   1      32.855  25.571  21.254  1.00  0.00     0.001 A 
BRANCH   5  10
ATOM     10  O   UNL A   1      30.278  25.131  24.502  1.00  0.00    -0.483 OA
BRANCH  10  11
ATOM     11  C   UNL A   1      30.794  25.277  25.811  1.00  0.00     0.329 C 
BRANCH  11  12
ATOM     12  C   UNL A   1      30.852  23.991  26.639  1.00  0.00     0.262 C 
ATOM     13  N   UNL A   1      32.000  23.268  26.780  1.00  0.00    -0.320 N 
ATOM     14  H   UNL A   1      32.006  22.697  27.582  1.00  0.00     0.170 HD
ATOM     15  O   UNL A   1      29.845  23.606  27.245  1.00  0.00    -0.271 OA
BRANCH  13  16
ATOM     16  C   UNL A   1      33.178  23.168  26.017  1.00  0.00     0.084 A 
ATOM     17  C   UNL A   1      33.334  22.018  25.212  1.00  0.00     0.143 A 
ATOM     18  C   UNL A   1      34.428  21.903  24.352  1.00  0.00     0.069 A 
ATOM     19  C   UNL A   1      35.367  22.929  24.293  1.00  0.00     0.044 A 
ATOM     20  C   UNL A   1      34.129  24.187  25.943  1.00  0.00     0.031 A 
ATOM     21  Cl  UNL A   1      36.693  22.806  23.203  1.00  0.00    -0.084 Cl
ATOM     22  C   UNL A   1      35.225  24.065  25.084  1.00  0.00     0.023 A 
BRANCH  17  23
ATOM     23  O   UNL A   1      32.340  21.068  25.292  1.00  0.00    -0.495 OA
ATOM     24  C   UNL A   1      32.640  19.827  24.651  1.00  0.00     0.278 C 
ENDBRANCH  17  23
ENDBRANCH  13  16
ENDBRANCH  11  12
ENDBRANCH  10  11
ENDBRANCH   5  10
ENDBRANCH   2   4
ENDBRANCH   1   2
BRANCH   1  25
ATOM     25  C   UNL A   1      31.834  29.099  24.319  1.00  0.00     0.275 C 
BRANCH  25  26
ATOM     26  C   UNL A   1      31.914  29.696  25.727  1.00  0.00     0.275 C 
BRANCH  26  27
ATOM     27  O   UNL A   1      33.265  30.124  25.977  1.00  0.00    -0.458 OA
BRANCH  27  28
ATOM     28  C   UNL A   1      33.377  31.129  26.870  1.00  0.00     0.338 C 
ATOM     29  O   UNL A   1      32.526  31.925  27.232  1.00  0.00    -0.246 OA
BRANCH  28  30
ATOM     30  C   UNL A   1      34.628  30.938  27.597  1.00  0.00     0.060 A 
ATOM     31  C   UNL A   1      34.849  29.657  28.105  1.00  0.00     0.016 A 
ATOM     32  C   UNL A   1      35.548  31.965  27.787  1.00  0.00     0.016 A 
ATOM     33  C   UNL A   1      36.007  29.386  28.815  1.00  0.00     0.010 A 
ATOM     34  C   UNL A   1      36.719  31.688  28.491  1.00  0.00     0.010 A 
ATOM     35  C   UNL A   1      36.953  30.399  29.009  1.00  0.00    -0.014 A 
BRANCH  35  36
ATOM     36  C   UNL A   1      38.169  30.112  29.798  1.00  0.00     0.031 A 
ATOM     37  C   UNL A   1      39.232  29.232  29.217  1.00  0.00     0.074 A 
ATOM     38  C   UNL A   1      38.318  30.662  31.017  1.00  0.00     0.049 A 
ATOM     39  N   UNL A   1      40.295  28.729  29.787  1.00  0.00    -0.248 NA
ATOM     40  C   UNL A   1      39.070  28.857  27.803  1.00  0.00     0.031 C 
ATOM     41  C   UNL A   1      37.367  31.578  31.650  1.00  0.00     0.029 A 
ATOM     42  N   UNL A   1      39.322  30.530  31.939  1.00  0.00    -0.354 N 
ATOM     43  C   UNL A   1      40.900  27.939  28.820  1.00  0.00     0.074 A 
ATOM     44  C   UNL A   1      40.089  28.030  27.626  1.00  0.00     0.031 C 
ATOM     45  C   UNL A   1      37.843  31.938  32.853  1.00  0.00     0.029 A 
ATOM     46  C   UNL A   1      39.091  31.225  33.101  1.00  0.00     0.049 A 
ATOM     47  H   UNL A   1      40.132  29.991  31.783  1.00  0.00     0.167 HD
ATOM     48  C   UNL A   1      42.030  27.201  28.933  1.00  0.00     0.037 A 
ATOM     49  C   UNL A   1      39.791  31.245  34.251  1.00  0.00     0.037 A 
ATOM     50  C   UNL A   1      42.844  27.159  30.120  1.00  0.00     0.049 A 
ATOM     51  C   UNL A   1      41.031  30.402  34.355  1.00  0.00     0.074 A 
ATOM     52  C   UNL A   1      44.015  26.457  30.342  1.00  0.00     0.029 A 
ATOM     53  N   UNL A   1      42.571  27.862  31.286  1.00  0.00    -0.354 N 
ATOM     54  N   UNL A   1      41.576  29.619  33.455  1.00  0.00    -0.248 NA
ATOM     55  C   UNL A   1      41.743  30.431  35.639  1.00  0.00     0.031 C 
ATOM     56  C   UNL A   1      44.430  26.707  31.655  1.00  0.00     0.029 A 
ATOM     57  C   UNL A   1      43.543  27.600  32.236  1.00  0.00     0.049 A 
ATOM     58  H   UNL A   1      41.798  28.458  31.418  1.00  0.00     0.167 HD
ATOM     59  C   UNL A   1      42.697  29.067  34.058  1.00  0.00     0.074 A 
ATOM     60  C   UNL A   1      42.767  29.627  35.393  1.00  0.00     0.031 C 
ATOM     61  C   UNL A   1      43.584  28.172  33.558  1.00  0.00     0.037 A 
BRANCH  48  62
ATOM     62  C   UNL A   1      42.421  26.350  27.761  1.00  0.00     0.064 A 
ATOM     63  C   UNL A   1      43.375  26.767  26.822  1.00  0.00     0.173 A 
ATOM     64  C   UNL A   1      41.835  25.087  27.583  1.00  0.00     0.173 A 
ATOM     65  F   UNL A   1      43.951  27.974  26.935  1.00  0.00    -0.203 F 
ATOM     66  C   UNL A   1      43.707  25.965  25.733  1.00  0.00     0.198 A 
ATOM     67  C   UNL A   1      42.190  24.275  26.509  1.00  0.00     0.198 A 
ATOM     68  F   UNL A   1      40.916  24.639  28.452  1.00  0.00    -0.203 F 
ATOM     69  F   UNL A   1      44.583  26.406  24.820  1.00  0.00    -0.200 F 
ATOM     70  C   UNL A   1      43.120  24.716  25.581  1.00  0.00     0.200 A 
ATOM     71  F   UNL A   1      41.627  23.067  26.370  1.00  0.00    -0.200 F 
ATOM     72  F   UNL A   1      43.442  23.944  24.534  1.00  0.00    -0.200 F 
ENDBRANCH  48  62
BRANCH  49  73
ATOM     73  C   UNL A   1      39.310  32.062  35.394  1.00  0.00     0.064 A 
ATOM     74  C   UNL A   1      39.641  33.419  35.503  1.00  0.00     0.173 A 
ATOM     75  C   UNL A   1      38.495  31.508  36.393  1.00  0.00     0.173 A 
ATOM     76  F   UNL A   1      40.438  33.990  34.587  1.00  0.00    -0.203 F 
ATOM     77  C   UNL A   1      39.184  34.188  36.573  1.00  0.00     0.198 A 
ATOM     78  C   UNL A   1      38.014  32.285  37.444  1.00  0.00     0.198 A 
ATOM     79  F   UNL A   1      38.148  30.213  36.337  1.00  0.00    -0.203 F 
ATOM     80  F   UNL A   1      39.547  35.474  36.673  1.00  0.00    -0.200 F 
ATOM     81  C   UNL A   1      38.363  33.623  37.536  1.00  0.00     0.200 A 
ATOM     82  F   UNL A   1      37.209  31.736  38.366  1.00  0.00    -0.200 F 
ATOM     83  F   UNL A   1      37.915  34.366  38.558  1.00  0.00    -0.200 F 
ENDBRANCH  49  73
BRANCH  61  84
ATOM     84  C   UNL A   1      44.713  27.764  34.458  1.00  0.00     0.064 A 
ATOM     85  C   UNL A   1      45.918  28.479  34.490  1.00  0.00     0.173 A 
ATOM     86  C   UNL A   1      44.574  26.663  35.316  1.00  0.00     0.173 A 
ATOM     87  F   UNL A   1      46.102  29.529  33.675  1.00  0.00    -0.203 F 
ATOM     88  C   UNL A   1      46.957  28.090  35.332  1.00  0.00     0.198 A 
ATOM     89  C   UNL A   1      45.604  26.294  36.176  1.00  0.00     0.198 A 
ATOM     90  F   UNL A   1      43.436  25.951  35.325  1.00  0.00    -0.203 F 
ATOM     91  F   UNL A   1      48.118  28.758  35.313  1.00  0.00    -0.200 F 
ATOM     92  C   UNL A   1      46.796  27.003  36.178  1.00  0.00     0.200 A 
ATOM     93  F   UNL A   1      45.444  25.249  37.000  1.00  0.00    -0.200 F 
ATOM     94  F   UNL A   1      47.795  26.631  36.989  1.00  0.00    -0.200 F 
ENDBRANCH  61  84
ENDBRANCH  35  36
ENDBRANCH  28  30
ENDBRANCH  27  28
ENDBRANCH  26  27
ENDBRANCH  25  26
ENDBRANCH   1  25
TORSDOF 16
ENDMDL
MODEL 2
REMARK VINA RESULT:     -11.9      0.787      1.834
REMARK SMILES COc1cc(Cl)ccc1NC(=O)COc1ccccc1C(=O)OCCOC(=O)c1ccc(-c2c3nc(c(-c4c(F)c(F)c(F)c(F)c4F)c4ccc([nH]4)c(-c4c(F)c(F)c(F)c(F)c4F)c4nc(c(-c5c(F)c(F)c(F)c(F)c5F)c5ccc2[nH]5)C=C4)C=C3)cc1
REMARK SMILES IDX 23 1 21 2 22 3 20 4 15 5 16 6 17 7 19 8 18 9 14 10 13 11
REMARK SMILES IDX 11 12 10 13 12 15 9 16 3 17 4 18 5 19 8 20 6 21 7 22 2 23
REMARK SMILES IDX 1 24 24 25 25 26 26 27 27 28 28 29 29 30 30 31 91 32 31 33
REMARK SMILES IDX 90 34 32 35 33 36 34 37 84 38 35 39 89 40 83 41 85 42 36 43
REMARK SMILES IDX 88 44 82 45 81 46 37 48 69 49 49 50 68 51 50 52 53 53 67 54
REMARK SMILES IDX 86 55 51 56 52 57 66 59 87 60 54 61 38 62 39 63 47 64 40 65
REMARK SMILES IDX 41 66 45 67 48 68 42 69 43 70 46 71 44 72 70 73 71 74 79 75
REMARK SMILES IDX 72 76 73 77 77 78 80 79 74 80 75 81 78 82 76 83 55 84 56 85
REMARK SMILES IDX 64 86 57 87 58 88 62 89 65 90 59 91 60 92 63 93 61 94
REMARK H PARENT 10 14 85 47 53 58
REMARK Flexibility Score: inf
ROOT
ATOM      1  O   UNL A   1      31.300  28.319  25.564  1.00  0.00    -0.458 OA
ENDROOT
BRANCH   1   2
ATOM      2  C   UNL A   1      32.372  27.494  25.589  1.00  0.00     0.342 C 
ATOM      3  O   UNL A   1      33.175  27.377  26.501  1.00  0.00    -0.246 OA
BRANCH   2   4
ATOM      4  C   UNL A   1      32.367  26.591  24.421  1.00  0.00     0.102 A 
ATOM      5  C   UNL A   1      31.504  25.509  24.217  1.00  0.00     0.134 A 
ATOM      6  C   UNL A   1      31.668  24.732  23.056  1.00  0.00     0.047 A 
ATOM      7  C   UNL A   1      32.653  25.021  22.110  1.00  0.00     0.004 A 
ATOM      8  C   UNL A   1      33.348  26.890  23.451  1.00  0.00     0.019 A 
ATOM      9  C   UNL A   1      33.501  26.101  22.311  1.00  0.00     0.001 A 
BRANCH   5  10
ATOM     10  O   UNL A   1      30.518  25.019  25.015  1.00  0.00    -0.483 OA
BRANCH  10  11
ATOM     11  C   UNL A   1      30.458  23.645  25.344  1.00  0.00     0.329 C 
BRANCH  11  12
ATOM     12  C   UNL A   1      31.042  23.273  26.710  1.00  0.00     0.262 C 
ATOM     13  N   UNL A   1      32.384  23.266  26.949  1.00  0.00    -0.320 N 
ATOM     14  H   UNL A   1      32.611  23.361  27.902  1.00  0.00     0.170 HD
ATOM     15  O   UNL A   1      30.282  23.012  27.650  1.00  0.00    -0.271 OA
BRANCH  13  16
ATOM     16  C   UNL A   1      33.513  23.152  26.117  1.00  0.00     0.084 A 
ATOM     17  C   UNL A   1      33.696  21.927  25.438  1.00  0.00     0.143 A 
ATOM     18  C   UNL A   1      34.737  21.781  24.517  1.00  0.00     0.069 A 
ATOM     19  C   UNL A   1      35.593  22.851  24.273  1.00  0.00     0.044 A 
ATOM     20  C   UNL A   1      34.381  24.214  25.857  1.00  0.00     0.031 A 
ATOM     21  Cl  UNL A   1      36.849  22.685  23.107  1.00  0.00    -0.084 Cl
ATOM     22  C   UNL A   1      35.423  24.061  24.937  1.00  0.00     0.023 A 
BRANCH  17  23
ATOM     23  O   UNL A   1      32.781  20.932  25.699  1.00  0.00    -0.495 OA
ATOM     24  C   UNL A   1      32.438  20.118  24.575  1.00  0.00     0.278 C 
ENDBRANCH  17  23
ENDBRANCH  13  16
ENDBRANCH  11  12
ENDBRANCH  10  11
ENDBRANCH   5  10
ENDBRANCH   2   4
ENDBRANCH   1   2
BRANCH   1  25
ATOM     25  C   UNL A   1      31.585  29.655  25.095  1.00  0.00     0.275 C 
BRANCH  25  26
ATOM     26  C   UNL A   1      31.814  30.597  26.281  1.00  0.00     0.275 C 
BRANCH  26  27
ATOM     27  O   UNL A   1      33.229  30.790  26.457  1.00  0.00    -0.458 OA
BRANCH  27  28
ATOM     28  C   UNL A   1      33.559  31.887  27.169  1.00  0.00     0.338 C 
ATOM     29  O   UNL A   1      32.880  32.872  27.411  1.00  0.00    -0.246 OA
BRANCH  28  30
ATOM     30  C   UNL A   1      34.791  31.591  27.894  1.00  0.00     0.060 A 
ATOM     31  C   UNL A   1      34.897  30.301  28.416  1.00  0.00     0.016 A 
ATOM     32  C   UNL A   1      35.802  32.532  28.067  1.00  0.00     0.016 A 
ATOM     33  C   UNL A   1      36.029  29.934  29.124  1.00  0.00     0.010 A 
ATOM     34  C   UNL A   1      36.947  32.158  28.770  1.00  0.00     0.010 A 
ATOM     35  C   UNL A   1      37.065  30.859  29.302  1.00  0.00    -0.014 A 
BRANCH  35  36
ATOM     36  C   UNL A   1      38.253  30.471  30.090  1.00  0.00     0.031 A 
ATOM     37  C   UNL A   1      39.282  29.574  29.475  1.00  0.00     0.074 A 
ATOM     38  C   UNL A   1      38.409  30.945  31.339  1.00  0.00     0.049 A 
ATOM     39  N   UNL A   1      40.311  28.990  30.030  1.00  0.00    -0.248 NA
ATOM     40  C   UNL A   1      39.124  29.284  28.041  1.00  0.00     0.031 C 
ATOM     41  C   UNL A   1      37.493  31.870  32.009  1.00  0.00     0.029 A 
ATOM     42  N   UNL A   1      39.392  30.716  32.265  1.00  0.00    -0.354 N 
ATOM     43  C   UNL A   1      40.893  28.225  29.029  1.00  0.00     0.074 A 
ATOM     44  C   UNL A   1      40.106  28.420  27.831  1.00  0.00     0.031 C 
ATOM     45  C   UNL A   1      37.966  32.141  33.236  1.00  0.00     0.029 A 
ATOM     46  C   UNL A   1      39.176  31.356  33.460  1.00  0.00     0.049 A 
ATOM     47  H   UNL A   1      40.177  30.148  32.090  1.00  0.00     0.167 HD
ATOM     48  C   UNL A   1      41.984  27.429  29.115  1.00  0.00     0.037 A 
ATOM     49  C   UNL A   1      39.858  31.281  34.619  1.00  0.00     0.037 A 
ATOM     50  C   UNL A   1      42.777  27.283  30.309  1.00  0.00     0.049 A 
ATOM     51  C   UNL A   1      41.055  30.375  34.692  1.00  0.00     0.074 A 
ATOM     52  C   UNL A   1      43.910  26.514  30.506  1.00  0.00     0.029 A 
ATOM     53  N   UNL A   1      42.520  27.934  31.508  1.00  0.00    -0.354 N 
ATOM     54  N   UNL A   1      41.576  29.616  33.758  1.00  0.00    -0.248 NA
ATOM     55  C   UNL A   1      41.747  30.299  35.985  1.00  0.00     0.031 C 
ATOM     56  C   UNL A   1      44.316  26.672  31.836  1.00  0.00     0.029 A 
ATOM     57  C   UNL A   1      43.464  27.574  32.455  1.00  0.00     0.049 A 
ATOM     58  H   UNL A   1      41.774  28.558  31.662  1.00  0.00     0.167 HD
ATOM     59  C   UNL A   1      42.660  28.979  34.344  1.00  0.00     0.074 A 
ATOM     60  C   UNL A   1      42.736  29.461  35.708  1.00  0.00     0.031 C 
ATOM     61  C   UNL A   1      43.511  28.070  33.807  1.00  0.00     0.037 A 
BRANCH  48  62
ATOM     62  C   UNL A   1      42.353  26.624  27.903  1.00  0.00     0.064 A 
ATOM     63  C   UNL A   1      43.263  27.094  26.945  1.00  0.00     0.173 A 
ATOM     64  C   UNL A   1      41.790  25.355  27.705  1.00  0.00     0.173 A 
ATOM     65  F   UNL A   1      43.815  28.310  27.077  1.00  0.00    -0.203 F 
ATOM     66  C   UNL A   1      43.574  26.335  25.820  1.00  0.00     0.198 A 
ATOM     67  C   UNL A   1      42.124  24.586  26.594  1.00  0.00     0.198 A 
ATOM     68  F   UNL A   1      40.913  24.858  28.590  1.00  0.00    -0.203 F 
ATOM     69  F   UNL A   1      44.407  26.825  24.891  1.00  0.00    -0.200 F 
ATOM     70  C   UNL A   1      43.010  25.078  25.649  1.00  0.00     0.200 A 
ATOM     71  F   UNL A   1      41.584  23.369  26.434  1.00  0.00    -0.200 F 
ATOM     72  F   UNL A   1      43.312  24.348  24.566  1.00  0.00    -0.200 F 
ENDBRANCH  48  62
BRANCH  49  73
ATOM     73  C   UNL A   1      39.399  32.057  35.799  1.00  0.00     0.064 A 
ATOM     74  C   UNL A   1      38.465  31.523  36.697  1.00  0.00     0.173 A 
ATOM     75  C   UNL A   1      39.896  33.342  36.063  1.00  0.00     0.173 A 
ATOM     76  F   UNL A   1      37.942  30.308  36.475  1.00  0.00    -0.203 F 
ATOM     77  C   UNL A   1      38.039  32.248  37.809  1.00  0.00     0.198 A 
ATOM     78  C   UNL A   1      39.492  34.053  37.191  1.00  0.00     0.198 A 
ATOM     79  F   UNL A   1      40.791  33.901  35.235  1.00  0.00    -0.203 F 
ATOM     80  F   UNL A   1      37.117  31.729  38.630  1.00  0.00    -0.200 F 
ATOM     81  C   UNL A   1      38.560  33.508  38.060  1.00  0.00     0.200 A 
ATOM     82  F   UNL A   1      40.010  35.266  37.436  1.00  0.00    -0.200 F 
ATOM     83  F   UNL A   1      38.159  34.200  39.135  1.00  0.00    -0.200 F 
ENDBRANCH  49  73
BRANCH  61  84
ATOM     84  C   UNL A   1      44.605  27.560  34.697  1.00  0.00     0.064 A 
ATOM     85  C   UNL A   1      44.446  26.391  35.456  1.00  0.00     0.173 A 
ATOM     86  C   UNL A   1      45.833  28.232  34.769  1.00  0.00     0.173 A 
ATOM     87  F   UNL A   1      43.282  25.723  35.431  1.00  0.00    -0.203 F 
ATOM     88  C   UNL A   1      45.471  25.928  36.276  1.00  0.00     0.198 A 
ATOM     89  C   UNL A   1      46.866  27.751  35.568  1.00  0.00     0.198 A 
ATOM     90  F   UNL A   1      46.035  29.352  34.056  1.00  0.00    -0.203 F 
ATOM     91  F   UNL A   1      45.282  24.836  37.029  1.00  0.00    -0.200 F 
ATOM     92  C   UNL A   1      46.681  26.604  36.326  1.00  0.00     0.200 A 
ATOM     93  F   UNL A   1      48.038  28.399  35.608  1.00  0.00    -0.200 F 
ATOM     94  F   UNL A   1      47.668  26.155  37.114  1.00  0.00    -0.200 F 
ENDBRANCH  61  84
ENDBRANCH  35  36
ENDBRANCH  28  30
ENDBRANCH  27  28
ENDBRANCH  26  27
ENDBRANCH  25  26
ENDBRANCH   1  25
TORSDOF 16
ENDMDL
MODEL 3
REMARK VINA RESULT:     -11.9      0.761      1.443
REMARK SMILES COc1cc(Cl)ccc1NC(=O)COc1ccccc1C(=O)OCCOC(=O)c1ccc(-c2c3nc(c(-c4c(F)c(F)c(F)c(F)c4F)c4ccc([nH]4)c(-c4c(F)c(F)c(F)c(F)c4F)c4nc(c(-c5c(F)c(F)c(F)c(F)c5F)c5ccc2[nH]5)C=C4)C=C3)cc1
REMARK SMILES IDX 23 1 21 2 22 3 20 4 15 5 16 6 17 7 19 8 18 9 14 10 13 11
REMARK SMILES IDX 11 12 10 13 12 15 9 16 3 17 4 18 5 19 8 20 6 21 7 22 2 23
REMARK SMILES IDX 1 24 24 25 25 26 26 27 27 28 28 29 29 30 30 31 91 32 31 33
REMARK SMILES IDX 90 34 32 35 33 36 34 37 84 38 35 39 89 40 83 41 85 42 36 43
REMARK SMILES IDX 88 44 82 45 81 46 37 48 69 49 49 50 68 51 50 52 53 53 67 54
REMARK SMILES IDX 86 55 51 56 52 57 66 59 87 60 54 61 38 62 39 63 47 64 40 65
REMARK SMILES IDX 41 66 45 67 48 68 42 69 43 70 46 71 44 72 70 73 71 74 79 75
REMARK SMILES IDX 72 76 73 77 77 78 80 79 74 80 75 81 78 82 76 83 55 84 56 85
REMARK SMILES IDX 64 86 57 87 58 88 62 89 65 90 59 91 60 92 63 93 61 94
REMARK H PARENT 10 14 85 47 53 58
REMARK Flexibility Score: inf
ROOT
ATOM      1  O   UNL A   1      31.300  28.264  25.461  1.00  0.00    -0.458 OA
ENDROOT
BRANCH   1   2
ATOM      2  C   UNL A   1      32.398  27.473  25.470  1.00  0.00     0.342 C 
ATOM      3  O   UNL A   1      33.230  27.399  26.360  1.00  0.00    -0.246 OA
BRANCH   2   4
ATOM      4  C   UNL A   1      32.387  26.547  24.320  1.00  0.00     0.102 A 
ATOM      5  C   UNL A   1      31.519  25.464  24.141  1.00  0.00     0.134 A 
ATOM      6  C   UNL A   1      31.676  24.663  22.995  1.00  0.00     0.047 A 
ATOM      7  C   UNL A   1      32.661  24.929  22.041  1.00  0.00     0.004 A 
ATOM      8  C   UNL A   1      33.367  26.822  23.342  1.00  0.00     0.019 A 
ATOM      9  C   UNL A   1      33.513  26.009  22.218  1.00  0.00     0.001 A 
BRANCH   5  10
ATOM     10  O   UNL A   1      30.532  24.995  24.951  1.00  0.00    -0.483 OA
BRANCH  10  11
ATOM     11  C   UNL A   1      30.442  23.621  25.272  1.00  0.00     0.329 C 
BRANCH  11  12
ATOM     12  C   UNL A   1      31.006  23.230  26.642  1.00  0.00     0.262 C 
ATOM     13  N   UNL A   1      32.345  23.216  26.899  1.00  0.00    -0.320 N 
ATOM     14  H   UNL A   1      32.559  23.299  27.857  1.00  0.00     0.170 HD
ATOM     15  O   UNL A   1      30.233  22.961  27.569  1.00  0.00    -0.271 OA
BRANCH  13  16
ATOM     16  C   UNL A   1      33.485  23.108  26.082  1.00  0.00     0.084 A 
ATOM     17  C   UNL A   1      33.669  21.894  25.384  1.00  0.00     0.143 A 
ATOM     18  C   UNL A   1      34.721  21.756  24.475  1.00  0.00     0.069 A 
ATOM     19  C   UNL A   1      35.589  22.823  24.262  1.00  0.00     0.044 A 
ATOM     20  C   UNL A   1      34.365  24.167  25.853  1.00  0.00     0.031 A 
ATOM     21  Cl  UNL A   1      36.861  22.667  23.112  1.00  0.00    -0.084 Cl
ATOM     22  C   UNL A   1      35.419  24.023  24.946  1.00  0.00     0.023 A 
BRANCH  17  23
ATOM     23  O   UNL A   1      32.742  20.901  25.614  1.00  0.00    -0.495 OA
ATOM     24  C   UNL A   1      32.424  20.098  24.476  1.00  0.00     0.278 C 
ENDBRANCH  17  23
ENDBRANCH  13  16
ENDBRANCH  11  12
ENDBRANCH  10  11
ENDBRANCH   5  10
ENDBRANCH   2   4
ENDBRANCH   1   2
BRANCH   1  25
ATOM     25  C   UNL A   1      31.554  29.635  25.085  1.00  0.00     0.275 C 
BRANCH  25  26
ATOM     26  C   UNL A   1      31.808  30.490  26.331  1.00  0.00     0.275 C 
BRANCH  26  27
ATOM     27  O   UNL A   1      33.216  30.772  26.424  1.00  0.00    -0.458 OA
BRANCH  27  28
ATOM     28  C   UNL A   1      33.521  31.851  27.175  1.00  0.00     0.338 C 
ATOM     29  O   UNL A   1      32.820  32.811  27.449  1.00  0.00    -0.246 OA
BRANCH  28  30
ATOM     30  C   UNL A   1      34.760  31.558  27.889  1.00  0.00     0.060 A 
ATOM     31  C   UNL A   1      34.863  30.275  28.430  1.00  0.00     0.016 A 
ATOM     32  C   UNL A   1      35.778  32.495  28.037  1.00  0.00     0.016 A 
ATOM     33  C   UNL A   1      36.001  29.911  29.130  1.00  0.00     0.010 A 
ATOM     34  C   UNL A   1      36.929  32.124  28.732  1.00  0.00     0.010 A 
ATOM     35  C   UNL A   1      37.044  30.832  29.283  1.00  0.00    -0.014 A 
BRANCH  35  36
ATOM     36  C   UNL A   1      38.239  30.449  30.063  1.00  0.00     0.031 A 
ATOM     37  C   UNL A   1      39.262  29.545  29.445  1.00  0.00     0.074 A 
ATOM     38  C   UNL A   1      38.407  30.933  31.306  1.00  0.00     0.049 A 
ATOM     39  N   UNL A   1      40.294  28.964  29.995  1.00  0.00    -0.248 NA
ATOM     40  C   UNL A   1      39.090  29.245  28.015  1.00  0.00     0.031 C 
ATOM     41  C   UNL A   1      37.499  31.864  31.978  1.00  0.00     0.029 A 
ATOM     42  N   UNL A   1      39.398  30.708  32.226  1.00  0.00    -0.354 N 
ATOM     43  C   UNL A   1      40.866  28.191  28.995  1.00  0.00     0.074 A 
ATOM     44  C   UNL A   1      40.069  28.377  27.803  1.00  0.00     0.031 C 
ATOM     45  C   UNL A   1      37.984  32.144  33.198  1.00  0.00     0.029 A 
ATOM     46  C   UNL A   1      39.194  31.359  33.418  1.00  0.00     0.049 A 
ATOM     47  H   UNL A   1      40.181  30.138  32.048  1.00  0.00     0.167 HD
ATOM     48  C   UNL A   1      41.957  27.393  29.078  1.00  0.00     0.037 A 
ATOM     49  C   UNL A   1      39.887  31.291  34.570  1.00  0.00     0.037 A 
ATOM     50  C   UNL A   1      42.761  27.255  30.265  1.00  0.00     0.049 A 
ATOM     51  C   UNL A   1      41.083  30.384  34.640  1.00  0.00     0.074 A 
ATOM     52  C   UNL A   1      43.894  26.486  30.458  1.00  0.00     0.029 A 
ATOM     53  N   UNL A   1      42.515  27.916  31.462  1.00  0.00    -0.354 N 
ATOM     54  N   UNL A   1      41.594  29.617  33.707  1.00  0.00    -0.248 NA
ATOM     55  C   UNL A   1      41.787  30.317  35.926  1.00  0.00     0.031 C 
ATOM     56  C   UNL A   1      44.313  26.654  31.783  1.00  0.00     0.029 A 
ATOM     57  C   UNL A   1      43.468  27.562  32.402  1.00  0.00     0.049 A 
ATOM     58  H   UNL A   1      41.772  28.543  31.618  1.00  0.00     0.167 HD
ATOM     59  C   UNL A   1      42.683  28.983  34.288  1.00  0.00     0.074 A 
ATOM     60  C   UNL A   1      42.772  29.475  35.648  1.00  0.00     0.031 C 
ATOM     61  C   UNL A   1      43.528  28.069  33.750  1.00  0.00     0.037 A 
BRANCH  48  62
ATOM     62  C   UNL A   1      42.313  26.579  27.869  1.00  0.00     0.064 A 
ATOM     63  C   UNL A   1      41.756  25.314  27.631  1.00  0.00     0.173 A 
ATOM     64  C   UNL A   1      43.223  27.081  26.926  1.00  0.00     0.173 A 
ATOM     65  F   UNL A   1      40.896  24.779  28.511  1.00  0.00    -0.203 F 
ATOM     66  C   UNL A   1      42.117  24.571  26.510  1.00  0.00     0.198 A 
ATOM     67  C   UNL A   1      43.560  26.349  25.791  1.00  0.00     0.198 A 
ATOM     68  F   UNL A   1      43.787  28.286  27.105  1.00  0.00    -0.203 F 
ATOM     69  F   UNL A   1      41.611  23.344  26.329  1.00  0.00    -0.200 F 
ATOM     70  C   UNL A   1      43.013  25.092  25.587  1.00  0.00     0.200 A 
ATOM     71  F   UNL A   1      44.421  26.858  24.898  1.00  0.00    -0.200 F 
ATOM     72  F   UNL A   1      43.358  24.377  24.507  1.00  0.00    -0.200 F 
ENDBRANCH  48  62
BRANCH  49  73
ATOM     73  C   UNL A   1      39.439  32.077  35.748  1.00  0.00     0.064 A 
ATOM     74  C   UNL A   1      39.944  33.360  35.996  1.00  0.00     0.173 A 
ATOM     75  C   UNL A   1      38.485  31.568  36.643  1.00  0.00     0.173 A 
ATOM     76  F   UNL A   1      40.877  33.880  35.185  1.00  0.00    -0.203 F 
ATOM     77  C   UNL A   1      39.519  34.100  37.098  1.00  0.00     0.198 A 
ATOM     78  C   UNL A   1      38.038  32.321  37.726  1.00  0.00     0.198 A 
ATOM     79  F   UNL A   1      37.969  30.344  36.452  1.00  0.00    -0.203 F 
ATOM     80  F   UNL A   1      40.047  35.309  37.333  1.00  0.00    -0.200 F 
ATOM     81  C   UNL A   1      38.560  33.584  37.956  1.00  0.00     0.200 A 
ATOM     82  F   UNL A   1      37.100  31.823  38.544  1.00  0.00    -0.200 F 
ATOM     83  F   UNL A   1      38.143  34.301  39.009  1.00  0.00    -0.200 F 
ENDBRANCH  49  73
BRANCH  61  84
ATOM     84  C   UNL A   1      44.629  27.563  34.634  1.00  0.00     0.064 A 
ATOM     85  C   UNL A   1      45.858  28.233  34.728  1.00  0.00     0.173 A 
ATOM     86  C   UNL A   1      44.441  26.414  35.415  1.00  0.00     0.173 A 
ATOM     87  F   UNL A   1      46.088  29.327  33.986  1.00  0.00    -0.203 F 
ATOM     88  C   UNL A   1      46.870  27.754  35.554  1.00  0.00     0.198 A 
ATOM     89  C   UNL A   1      45.445  25.954  36.261  1.00  0.00     0.198 A 
ATOM     90  F   UNL A   1      43.280  25.743  35.364  1.00  0.00    -0.203 F 
ATOM     91  F   UNL A   1      48.053  28.381  35.593  1.00  0.00    -0.200 F 
ATOM     92  C   UNL A   1      46.661  26.619  36.324  1.00  0.00     0.200 A 
ATOM     93  F   UNL A   1      45.239  24.863  37.013  1.00  0.00    -0.200 F 
ATOM     94  F   UNL A   1      47.635  26.160  37.122  1.00  0.00    -0.200 F 
ENDBRANCH  61  84
ENDBRANCH  35  36
ENDBRANCH  28  30
ENDBRANCH  27  28
ENDBRANCH  26  27
ENDBRANCH  25  26
ENDBRANCH   1  25
TORSDOF 16
ENDMDL
