MODEL 1
REMARK VINA RESULT:     -11.6      0.000      0.000
REMARK SMILES COc1ccc(C(=O)N2CSC[C@H]2C(=O)OCCOC(=O)c2ccc(-c3c4nc(c(-c5c(F)c(F)c(F)c(F)c5F)c5ccc([nH]5)c(-c5c(F)c(F)c(F)c(F)c5F)c5nc(c(-c6c(F)c(F)c(F)c(F)c6F)c6ccc3[nH]6)C=C5)C=C4)cc2)cc1C#N
REMARK SMILES IDX 17 1 16 2 14 3 15 4 13 5 9 6 10 7 11 8 12 9 7 10 8 11 6 12
REMARK SMILES IDX 3 13 4 14 86 15 5 16 85 17 2 18 1 19 87 20 88 21 18 22 19 23
REMARK SMILES IDX 20 24 21 25 22 26 23 27 84 28 24 29 83 30 25 31 26 32 27 33
REMARK SMILES IDX 77 34 28 35 82 36 76 37 78 38 29 39 81 40 75 41 74 42 30 44
REMARK SMILES IDX 62 45 42 46 61 47 43 48 46 49 60 50 79 51 44 52 45 53 59 55
REMARK SMILES IDX 80 56 47 57 31 58 32 59 40 60 33 61 34 62 38 63 41 64 35 65
REMARK SMILES IDX 36 66 39 67 37 68 63 69 64 70 72 71 65 72 66 73 70 74 73 75
REMARK SMILES IDX 67 76 68 77 71 78 69 79 48 80 49 81 57 82 50 83 51 84 55 85
REMARK SMILES IDX 58 86 52 87 53 88 56 89 54 90
REMARK H PARENT 78 43 46 54
REMARK Flexibility Score: inf
ROOT
ATOM      1  C   UNL A   1      31.811  28.913  27.214  1.00  0.00     0.274 C 
ENDROOT
BRANCH   1   2
ATOM      2  O   UNL A   1      31.598  28.080  26.051  1.00  0.00    -0.461 OA
BRANCH   2   3
ATOM      3  C   UNL A   1      32.721  27.499  25.557  1.00  0.00     0.329 C 
ATOM      4  O   UNL A   1      33.637  27.060  26.252  1.00  0.00    -0.250 OA
BRANCH   3   5
ATOM      5  C   UNL A   1      32.837  27.513  24.031  1.00  0.00     0.206 C 
ATOM      6  N   UNL A   1      32.174  26.513  23.191  1.00  0.00    -0.315 N 
ATOM      7  C   UNL A   1      30.884  26.925  22.700  1.00  0.00     0.191 C 
ATOM      8  S   UNL A   1      31.052  28.692  22.380  1.00  0.00    -0.138 SA
ATOM      9  C   UNL A   1      32.426  28.909  23.550  1.00  0.00     0.108 C 
BRANCH   6  10
ATOM     10  C   UNL A   1      32.887  25.389  22.809  1.00  0.00     0.255 C 
ATOM     11  O   UNL A   1      33.496  25.325  21.747  1.00  0.00    -0.269 OA
BRANCH  10  12
ATOM     12  C   UNL A   1      32.740  24.119  23.560  1.00  0.00     0.041 A 
ATOM     13  C   UNL A   1      32.031  21.657  24.740  1.00  0.00     0.136 A 
ATOM     14  C   UNL A   1      32.876  21.706  23.619  1.00  0.00     0.048 A 
ATOM     15  C   UNL A   1      31.554  22.857  25.283  1.00  0.00     0.095 A 
ATOM     16  C   UNL A   1      33.217  22.925  23.019  1.00  0.00     0.018 A 
ATOM     17  C   UNL A   1      31.899  24.077  24.677  1.00  0.00     0.037 A 
BRANCH  13  18
ATOM     18  O   UNL A   1      31.820  20.388  25.210  1.00  0.00    -0.495 OA
ATOM     19  C   UNL A   1      32.650  19.350  24.696  1.00  0.00     0.278 C 
ENDBRANCH  13  18
BRANCH  15  20
ATOM     20  C   UNL A   1      30.716  22.940  26.444  1.00  0.00     0.103 C 
ATOM     21  N   UNL A   1      30.059  23.054  27.388  1.00  0.00    -0.192 NA
ENDBRANCH  15  20
ENDBRANCH  10  12
ENDBRANCH   6  10
ENDBRANCH   3   5
ENDBRANCH   2   3
ENDBRANCH   1   2
BRANCH   1  22
ATOM     22  C   UNL A   1      31.776  30.397  26.849  1.00  0.00     0.275 C 
BRANCH  22  23
ATOM     23  O   UNL A   1      33.092  30.855  26.483  1.00  0.00    -0.458 OA
BRANCH  23  24
ATOM     24  C   UNL A   1      33.601  31.804  27.304  1.00  0.00     0.338 C 
ATOM     25  O   UNL A   1      33.091  32.872  27.596  1.00  0.00    -0.246 OA
BRANCH  24  26
ATOM     26  C   UNL A   1      34.917  31.380  27.809  1.00  0.00     0.060 A 
ATOM     27  C   UNL A   1      35.109  30.064  28.224  1.00  0.00     0.016 A 
ATOM     28  C   UNL A   1      35.903  32.334  28.044  1.00  0.00     0.016 A 
ATOM     29  C   UNL A   1      36.221  29.722  28.985  1.00  0.00     0.010 A 
ATOM     30  C   UNL A   1      37.076  31.962  28.709  1.00  0.00     0.010 A 
ATOM     31  C   UNL A   1      37.231  30.662  29.223  1.00  0.00    -0.014 A 
BRANCH  31  32
ATOM     32  C   UNL A   1      38.436  30.279  30.006  1.00  0.00     0.031 A 
ATOM     33  C   UNL A   1      39.465  29.344  29.428  1.00  0.00     0.074 A 
ATOM     34  C   UNL A   1      38.606  30.773  31.248  1.00  0.00     0.049 A 
ATOM     35  N   UNL A   1      40.511  28.805  30.004  1.00  0.00    -0.248 NA
ATOM     36  C   UNL A   1      39.289  28.953  28.022  1.00  0.00     0.031 C 
ATOM     37  C   UNL A   1      37.701  31.713  31.914  1.00  0.00     0.029 A 
ATOM     38  N   UNL A   1      39.594  30.552  32.177  1.00  0.00    -0.354 N 
ATOM     39  C   UNL A   1      41.096  27.987  29.045  1.00  0.00     0.074 A 
ATOM     40  C   UNL A   1      40.273  28.080  27.857  1.00  0.00     0.031 C 
ATOM     41  C   UNL A   1      38.184  32.002  33.131  1.00  0.00     0.029 A 
ATOM     42  C   UNL A   1      39.385  31.210  33.364  1.00  0.00     0.049 A 
ATOM     43  H   UNL A   1      40.375  29.978  32.007  1.00  0.00     0.167 HD
ATOM     44  C   UNL A   1      42.219  27.234  29.147  1.00  0.00     0.037 A 
ATOM     45  C   UNL A   1      40.058  31.152  34.528  1.00  0.00     0.037 A 
ATOM     46  C   UNL A   1      43.044  27.160  30.328  1.00  0.00     0.049 A 
ATOM     47  C   UNL A   1      41.263  30.260  34.631  1.00  0.00     0.074 A 
ATOM     48  C   UNL A   1      44.215  26.446  30.521  1.00  0.00     0.029 A 
ATOM     49  N   UNL A   1      42.783  27.822  31.520  1.00  0.00    -0.354 N 
ATOM     50  N   UNL A   1      41.811  29.496  33.719  1.00  0.00    -0.248 NA
ATOM     51  C   UNL A   1      41.943  30.223  35.932  1.00  0.00     0.031 C 
ATOM     52  C   UNL A   1      44.624  26.621  31.847  1.00  0.00     0.029 A 
ATOM     53  C   UNL A   1      43.753  27.506  32.461  1.00  0.00     0.049 A 
ATOM     54  H   UNL A   1      42.021  28.425  31.676  1.00  0.00     0.167 HD
ATOM     55  C   UNL A   1      42.916  28.912  34.323  1.00  0.00     0.074 A 
ATOM     56  C   UNL A   1      42.972  29.428  35.675  1.00  0.00     0.031 C 
ATOM     57  C   UNL A   1      43.803  28.026  33.805  1.00  0.00     0.037 A 
BRANCH  44  58
ATOM     58  C   UNL A   1      42.609  26.394  27.960  1.00  0.00     0.064 A 
ATOM     59  C   UNL A   1      42.100  25.102  27.761  1.00  0.00     0.173 A 
ATOM     60  C   UNL A   1      43.474  26.912  26.982  1.00  0.00     0.173 A 
ATOM     61  F   UNL A   1      41.275  24.554  28.665  1.00  0.00    -0.203 F 
ATOM     62  C   UNL A   1      42.469  24.348  26.648  1.00  0.00     0.198 A 
ATOM     63  C   UNL A   1      43.810  26.170  25.852  1.00  0.00     0.198 A 
ATOM     64  F   UNL A   1      43.982  28.146  27.113  1.00  0.00    -0.203 F 
ATOM     65  F   UNL A   1      42.011  23.096  26.508  1.00  0.00    -0.200 F 
ATOM     66  C   UNL A   1      43.316  24.886  25.691  1.00  0.00     0.200 A 
ATOM     67  F   UNL A   1      44.614  26.700  24.920  1.00  0.00    -0.200 F 
ATOM     68  F   UNL A   1      43.661  24.164  24.615  1.00  0.00    -0.200 F 
ENDBRANCH  44  58
BRANCH  45  69
ATOM     69  C   UNL A   1      39.591  31.946  35.696  1.00  0.00     0.064 A 
ATOM     70  C   UNL A   1      38.596  31.454  36.551  1.00  0.00     0.173 A 
ATOM     71  C   UNL A   1      40.121  33.216  35.975  1.00  0.00     0.173 A 
ATOM     72  F   UNL A   1      38.043  30.256  36.316  1.00  0.00    -0.203 F 
ATOM     73  C   UNL A   1      38.129  32.212  37.623  1.00  0.00     0.198 A 
ATOM     74  C   UNL A   1      39.681  33.956  37.069  1.00  0.00     0.198 A 
ATOM     75  F   UNL A   1      41.078  33.732  35.191  1.00  0.00    -0.203 F 
ATOM     76  F   UNL A   1      37.134  31.744  38.389  1.00  0.00    -0.200 F 
ATOM     77  C   UNL A   1      38.677  33.459  37.885  1.00  0.00     0.200 A 
ATOM     78  F   UNL A   1      40.228  35.151  37.330  1.00  0.00    -0.200 F 
ATOM     79  F   UNL A   1      38.230  34.186  38.918  1.00  0.00    -0.200 F 
ENDBRANCH  45  69
BRANCH  57  80
ATOM     80  C   UNL A   1      44.941  27.599  34.691  1.00  0.00     0.064 A 
ATOM     81  C   UNL A   1      46.149  28.312  34.747  1.00  0.00     0.173 A 
ATOM     82  C   UNL A   1      44.817  26.460  35.502  1.00  0.00     0.173 A 
ATOM     83  F   UNL A   1      46.327  29.399  33.981  1.00  0.00    -0.203 F 
ATOM     84  C   UNL A   1      47.202  27.877  35.547  1.00  0.00     0.198 A 
ATOM     85  C   UNL A   1      45.857  26.052  36.333  1.00  0.00     0.198 A 
ATOM     86  F   UNL A   1      43.683  25.744  35.496  1.00  0.00    -0.203 F 
ATOM     87  F   UNL A   1      48.370  28.534  35.528  1.00  0.00    -0.200 F 
ATOM     88  C   UNL A   1      47.053  26.752  36.344  1.00  0.00     0.200 A 
ATOM     89  F   UNL A   1      45.704  24.974  37.115  1.00  0.00    -0.200 F 
ATOM     90  F   UNL A   1      48.068  26.336  37.115  1.00  0.00    -0.200 F 
ENDBRANCH  57  80
ENDBRANCH  31  32
ENDBRANCH  24  26
ENDBRANCH  23  24
ENDBRANCH  22  23
ENDBRANCH   1  22
TORSDOF 15
ENDMDL
MODEL 2
REMARK VINA RESULT:     -11.5      1.402      2.089
REMARK SMILES COc1ccc(C(=O)N2CSC[C@H]2C(=O)OCCOC(=O)c2ccc(-c3c4nc(c(-c5c(F)c(F)c(F)c(F)c5F)c5ccc([nH]5)c(-c5c(F)c(F)c(F)c(F)c5F)c5nc(c(-c6c(F)c(F)c(F)c(F)c6F)c6ccc3[nH]6)C=C5)C=C4)cc2)cc1C#N
REMARK SMILES IDX 17 1 16 2 14 3 15 4 13 5 9 6 10 7 11 8 12 9 7 10 8 11 6 12
REMARK SMILES IDX 3 13 4 14 86 15 5 16 85 17 2 18 1 19 87 20 88 21 18 22 19 23
REMARK SMILES IDX 20 24 21 25 22 26 23 27 84 28 24 29 83 30 25 31 26 32 27 33
REMARK SMILES IDX 77 34 28 35 82 36 76 37 78 38 29 39 81 40 75 41 74 42 30 44
REMARK SMILES IDX 62 45 42 46 61 47 43 48 46 49 60 50 79 51 44 52 45 53 59 55
REMARK SMILES IDX 80 56 47 57 31 58 32 59 40 60 33 61 34 62 38 63 41 64 35 65
REMARK SMILES IDX 36 66 39 67 37 68 63 69 64 70 72 71 65 72 66 73 70 74 73 75
REMARK SMILES IDX 67 76 68 77 71 78 69 79 48 80 49 81 57 82 50 83 51 84 55 85
REMARK SMILES IDX 58 86 52 87 53 88 56 89 54 90
REMARK H PARENT 78 43 46 54
REMARK Flexibility Score: inf
ROOT
ATOM      1  C   UNL A   1      31.040  29.557  24.592  1.00  0.00     0.274 C 
ENDROOT
BRANCH   1   2
ATOM      2  O   UNL A   1      31.811  28.770  23.655  1.00  0.00    -0.461 OA
BRANCH   2   3
ATOM      3  C   UNL A   1      31.082  27.896  22.915  1.00  0.00     0.329 C 
ATOM      4  O   UNL A   1      30.332  28.224  21.996  1.00  0.00    -0.250 OA
BRANCH   3   5
ATOM      5  C   UNL A   1      31.167  26.438  23.370  1.00  0.00     0.206 C 
ATOM      6  N   UNL A   1      32.387  25.874  23.952  1.00  0.00    -0.315 N 
ATOM      7  C   UNL A   1      32.418  25.911  25.392  1.00  0.00     0.191 C 
ATOM      8  S   UNL A   1      30.715  25.604  25.900  1.00  0.00    -0.138 SA
ATOM      9  C   UNL A   1      30.002  26.186  24.333  1.00  0.00     0.108 C 
BRANCH   6  10
ATOM     10  C   UNL A   1      33.279  25.221  23.119  1.00  0.00     0.255 C 
ATOM     11  O   UNL A   1      33.652  25.695  22.052  1.00  0.00    -0.269 OA
BRANCH  10  12
ATOM     12  C   UNL A   1      33.634  23.803  23.367  1.00  0.00     0.041 A 
ATOM     13  C   UNL A   1      34.234  21.216  24.319  1.00  0.00     0.136 A 
ATOM     14  C   UNL A   1      32.945  21.539  23.864  1.00  0.00     0.048 A 
ATOM     15  C   UNL A   1      35.234  22.196  24.277  1.00  0.00     0.095 A 
ATOM     16  C   UNL A   1      32.638  22.827  23.407  1.00  0.00     0.018 A 
ATOM     17  C   UNL A   1      34.920  23.487  23.818  1.00  0.00     0.037 A 
BRANCH  13  18
ATOM     18  O   UNL A   1      34.365  19.910  24.709  1.00  0.00    -0.495 OA
ATOM     19  C   UNL A   1      33.378  18.987  24.255  1.00  0.00     0.278 C 
ENDBRANCH  13  18
BRANCH  15  20
ATOM     20  C   UNL A   1      36.594  21.979  24.678  1.00  0.00     0.103 C 
ATOM     21  N   UNL A   1      37.697  21.854  25.003  1.00  0.00    -0.192 NA
ENDBRANCH  15  20
ENDBRANCH  10  12
ENDBRANCH   6  10
ENDBRANCH   3   5
ENDBRANCH   2   3
ENDBRANCH   1   2
BRANCH   1  22
ATOM     22  C   UNL A   1      31.738  29.649  25.948  1.00  0.00     0.275 C 
BRANCH  22  23
ATOM     23  O   UNL A   1      32.979  30.371  25.826  1.00  0.00    -0.458 OA
BRANCH  23  24
ATOM     24  C   UNL A   1      33.260  31.179  26.875  1.00  0.00     0.338 C 
ATOM     25  O   UNL A   1      32.550  32.055  27.339  1.00  0.00    -0.246 OA
BRANCH  24  26
ATOM     26  C   UNL A   1      34.600  30.871  27.403  1.00  0.00     0.060 A 
ATOM     27  C   UNL A   1      34.936  29.556  27.716  1.00  0.00     0.016 A 
ATOM     28  C   UNL A   1      35.453  31.911  27.760  1.00  0.00     0.016 A 
ATOM     29  C   UNL A   1      36.055  29.282  28.495  1.00  0.00     0.010 A 
ATOM     30  C   UNL A   1      36.639  31.623  28.444  1.00  0.00     0.010 A 
ATOM     31  C   UNL A   1      36.933  30.311  28.855  1.00  0.00    -0.014 A 
BRANCH  31  32
ATOM     32  C   UNL A   1      38.149  30.005  29.657  1.00  0.00     0.031 A 
ATOM     33  C   UNL A   1      39.214  29.087  29.122  1.00  0.00     0.074 A 
ATOM     34  C   UNL A   1      38.294  30.558  30.878  1.00  0.00     0.049 A 
ATOM     35  N   UNL A   1      40.277  28.612  29.723  1.00  0.00    -0.248 NA
ATOM     36  C   UNL A   1      39.059  28.631  27.733  1.00  0.00     0.031 C 
ATOM     37  C   UNL A   1      37.352  31.490  31.501  1.00  0.00     0.029 A 
ATOM     38  N   UNL A   1      39.285  30.412  31.818  1.00  0.00    -0.354 N 
ATOM     39  C   UNL A   1      40.896  27.777  28.801  1.00  0.00     0.074 A 
ATOM     40  C   UNL A   1      40.076  27.789  27.608  1.00  0.00     0.031 C 
ATOM     41  C   UNL A   1      37.818  31.848  32.707  1.00  0.00     0.029 A 
ATOM     42  C   UNL A   1      39.046  31.111  32.976  1.00  0.00     0.049 A 
ATOM     43  H   UNL A   1      40.088  29.861  31.675  1.00  0.00     0.167 HD
ATOM     44  C   UNL A   1      42.046  27.070  28.938  1.00  0.00     0.037 A 
ATOM     45  C   UNL A   1      39.716  31.127  34.144  1.00  0.00     0.037 A 
ATOM     46  C   UNL A   1      42.867  27.077  30.123  1.00  0.00     0.049 A 
ATOM     47  C   UNL A   1      40.952  30.286  34.288  1.00  0.00     0.074 A 
ATOM     48  C   UNL A   1      44.063  26.416  30.349  1.00  0.00     0.029 A 
ATOM     49  N   UNL A   1      42.576  27.778  31.286  1.00  0.00    -0.354 N 
ATOM     50  N   UNL A   1      41.533  29.505  33.410  1.00  0.00    -0.248 NA
ATOM     51  C   UNL A   1      41.627  30.328  35.591  1.00  0.00     0.031 C 
ATOM     52  C   UNL A   1      44.459  26.661  31.668  1.00  0.00     0.029 A 
ATOM     53  C   UNL A   1      43.553  27.538  32.242  1.00  0.00     0.049 A 
ATOM     54  H   UNL A   1      41.792  28.358  31.414  1.00  0.00     0.167 HD
ATOM     55  C   UNL A   1      42.656  28.988  34.041  1.00  0.00     0.074 A 
ATOM     56  C   UNL A   1      42.686  29.563  35.370  1.00  0.00     0.031 C 
ATOM     57  C   UNL A   1      43.577  28.115  33.563  1.00  0.00     0.037 A 
BRANCH  44  58
ATOM     58  C   UNL A   1      42.472  26.197  27.789  1.00  0.00     0.064 A 
ATOM     59  C   UNL A   1      41.906  24.933  27.562  1.00  0.00     0.173 A 
ATOM     60  C   UNL A   1      43.433  26.655  26.872  1.00  0.00     0.173 A 
ATOM     61  F   UNL A   1      40.989  24.442  28.408  1.00  0.00    -0.203 F 
ATOM     62  C   UNL A   1      42.311  24.148  26.485  1.00  0.00     0.198 A 
ATOM     63  C   UNL A   1      43.807  25.883  25.775  1.00  0.00     0.198 A 
ATOM     64  F   UNL A   1      43.999  27.860  27.030  1.00  0.00    -0.203 F 
ATOM     65  F   UNL A   1      41.795  22.921  26.320  1.00  0.00    -0.200 F 
ATOM     66  C   UNL A   1      43.254  24.627  25.587  1.00  0.00     0.200 A 
ATOM     67  F   UNL A   1      44.705  26.356  24.899  1.00  0.00    -0.200 F 
ATOM     68  F   UNL A   1      43.634  23.874  24.545  1.00  0.00    -0.200 F 
ENDBRANCH  44  58
BRANCH  45  69
ATOM     69  C   UNL A   1      39.214  31.951  35.276  1.00  0.00     0.064 A 
ATOM     70  C   UNL A   1      38.450  31.379  36.302  1.00  0.00     0.173 A 
ATOM     71  C   UNL A   1      39.478  33.328  35.350  1.00  0.00     0.173 A 
ATOM     72  F   UNL A   1      38.153  30.072  36.267  1.00  0.00    -0.203 F 
ATOM     73  C   UNL A   1      37.946  32.156  37.342  1.00  0.00     0.198 A 
ATOM     74  C   UNL A   1      39.006  34.096  36.411  1.00  0.00     0.198 A 
ATOM     75  F   UNL A   1      40.207  33.926  34.397  1.00  0.00    -0.203 F 
ATOM     76  F   UNL A   1      37.169  31.594  38.278  1.00  0.00    -0.200 F 
ATOM     77  C   UNL A   1      38.231  33.512  37.400  1.00  0.00     0.200 A 
ATOM     78  F   UNL A   1      39.301  35.402  36.473  1.00  0.00    -0.200 F 
ATOM     79  F   UNL A   1      37.749  34.257  38.404  1.00  0.00    -0.200 F 
ENDBRANCH  45  69
BRANCH  57  80
ATOM     80  C   UNL A   1      44.727  27.768  34.470  1.00  0.00     0.064 A 
ATOM     81  C   UNL A   1      44.688  26.658  35.328  1.00  0.00     0.173 A 
ATOM     82  C   UNL A   1      45.888  28.557  34.473  1.00  0.00     0.173 A 
ATOM     83  F   UNL A   1      43.597  25.880  35.377  1.00  0.00    -0.203 F 
ATOM     84  C   UNL A   1      45.750  26.378  36.185  1.00  0.00     0.198 A 
ATOM     85  C   UNL A   1      46.964  28.248  35.301  1.00  0.00     0.198 A 
ATOM     86  F   UNL A   1      45.985  29.625  33.668  1.00  0.00    -0.203 F 
ATOM     87  F   UNL A   1      45.659  25.356  37.047  1.00  0.00    -0.200 F 
ATOM     88  C   UNL A   1      46.889  27.168  36.166  1.00  0.00     0.200 A 
ATOM     89  F   UNL A   1      48.071  29.004  35.267  1.00  0.00    -0.200 F 
ATOM     90  F   UNL A   1      47.910  26.895  36.990  1.00  0.00    -0.200 F 
ENDBRANCH  57  80
ENDBRANCH  31  32
ENDBRANCH  24  26
ENDBRANCH  23  24
ENDBRANCH  22  23
ENDBRANCH   1  22
TORSDOF 15
ENDMDL
MODEL 3
REMARK VINA RESULT:     -11.4      4.490      9.753
REMARK SMILES COc1ccc(C(=O)N2CSC[C@H]2C(=O)OCCOC(=O)c2ccc(-c3c4nc(c(-c5c(F)c(F)c(F)c(F)c5F)c5ccc([nH]5)c(-c5c(F)c(F)c(F)c(F)c5F)c5nc(c(-c6c(F)c(F)c(F)c(F)c6F)c6ccc3[nH]6)C=C5)C=C4)cc2)cc1C#N
REMARK SMILES IDX 17 1 16 2 14 3 15 4 13 5 9 6 10 7 11 8 12 9 7 10 8 11 6 12
REMARK SMILES IDX 3 13 4 14 86 15 5 16 85 17 2 18 1 19 87 20 88 21 18 22 19 23
REMARK SMILES IDX 20 24 21 25 22 26 23 27 84 28 24 29 83 30 25 31 26 32 27 33
REMARK SMILES IDX 77 34 28 35 82 36 76 37 78 38 29 39 81 40 75 41 74 42 30 44
REMARK SMILES IDX 62 45 42 46 61 47 43 48 46 49 60 50 79 51 44 52 45 53 59 55
REMARK SMILES IDX 80 56 47 57 31 58 32 59 40 60 33 61 34 62 38 63 41 64 35 65
REMARK SMILES IDX 36 66 39 67 37 68 63 69 64 70 72 71 65 72 66 73 70 74 73 75
REMARK SMILES IDX 67 76 68 77 71 78 69 79 48 80 49 81 57 82 50 83 51 84 55 85
REMARK SMILES IDX 58 86 52 87 53 88 56 89 54 90
REMARK H PARENT 78 43 46 54
REMARK Flexibility Score: inf
ROOT
ATOM      1  C   UNL A   1      36.800  22.333  23.862  1.00  0.00     0.274 C 
ENDROOT
BRANCH   1   2
ATOM      2  O   UNL A   1      35.380  22.419  24.124  1.00  0.00    -0.461 OA
BRANCH   2   3
ATOM      3  C   UNL A   1      35.037  23.280  25.116  1.00  0.00     0.329 C 
ATOM      4  O   UNL A   1      35.609  24.348  25.334  1.00  0.00    -0.250 OA
BRANCH   3   5
ATOM      5  C   UNL A   1      33.929  22.784  26.047  1.00  0.00     0.206 C 
ATOM      6  N   UNL A   1      32.513  22.865  25.682  1.00  0.00    -0.315 N 
ATOM      7  C   UNL A   1      31.996  21.664  25.077  1.00  0.00     0.191 C 
ATOM      8  S   UNL A   1      32.836  20.316  25.932  1.00  0.00    -0.138 SA
ATOM      9  C   UNL A   1      34.257  21.336  26.425  1.00  0.00     0.108 C 
BRANCH   6  10
ATOM     10  C   UNL A   1      31.782  23.966  26.096  1.00  0.00     0.255 C 
ATOM     11  O   UNL A   1      31.186  23.996  27.166  1.00  0.00    -0.269 OA
BRANCH  10  12
ATOM     12  C   UNL A   1      31.485  25.066  25.147  1.00  0.00     0.041 A 
ATOM     13  C   UNL A   1      30.628  26.826  23.116  1.00  0.00     0.136 A 
ATOM     14  C   UNL A   1      29.988  26.796  24.366  1.00  0.00     0.048 A 
ATOM     15  C   UNL A   1      31.719  25.977  22.892  1.00  0.00     0.095 A 
ATOM     16  C   UNL A   1      30.399  25.912  25.372  1.00  0.00     0.018 A 
ATOM     17  C   UNL A   1      32.127  25.091  23.905  1.00  0.00     0.037 A 
BRANCH  13  18
ATOM     18  O   UNL A   1      30.113  27.762  22.260  1.00  0.00    -0.495 OA
ATOM     19  C   UNL A   1      30.677  29.071  22.301  1.00  0.00     0.278 C 
ENDBRANCH  13  18
BRANCH  15  20
ATOM     20  C   UNL A   1      32.476  25.940  21.675  1.00  0.00     0.103 C 
ATOM     21  N   UNL A   1      33.129  25.904  20.721  1.00  0.00    -0.192 NA
ENDBRANCH  15  20
ENDBRANCH  10  12
ENDBRANCH   6  10
ENDBRANCH   3   5
ENDBRANCH   2   3
ENDBRANCH   1   2
BRANCH   1  22
ATOM     22  C   UNL A   1      37.433  21.157  24.605  1.00  0.00     0.275 C 
BRANCH  22  23
ATOM     23  O   UNL A   1      37.817  21.553  25.935  1.00  0.00    -0.458 OA
BRANCH  23  24
ATOM     24  C   UNL A   1      39.137  21.405  26.202  1.00  0.00     0.338 C 
ATOM     25  O   UNL A   1      39.814  20.407  26.022  1.00  0.00    -0.246 OA
BRANCH  24  26
ATOM     26  C   UNL A   1      39.677  22.646  26.780  1.00  0.00     0.060 A 
ATOM     27  C   UNL A   1      39.176  23.879  26.366  1.00  0.00     0.016 A 
ATOM     28  C   UNL A   1      40.804  22.591  27.594  1.00  0.00     0.016 A 
ATOM     29  C   UNL A   1      39.868  25.051  26.652  1.00  0.00     0.010 A 
ATOM     30  C   UNL A   1      41.434  23.780  27.978  1.00  0.00     0.010 A 
ATOM     31  C   UNL A   1      40.997  25.020  27.478  1.00  0.00    -0.014 A 
BRANCH  31  32
ATOM     32  C   UNL A   1      41.711  26.283  27.811  1.00  0.00     0.031 A 
ATOM     33  C   UNL A   1      41.036  27.360  28.617  1.00  0.00     0.074 A 
ATOM     34  C   UNL A   1      42.976  26.463  27.383  1.00  0.00     0.049 A 
ATOM     35  N   UNL A   1      41.454  28.569  28.900  1.00  0.00    -0.248 NA
ATOM     36  C   UNL A   1      39.711  27.042  29.169  1.00  0.00     0.031 C 
ATOM     37  C   UNL A   1      43.757  25.487  26.621  1.00  0.00     0.029 A 
ATOM     38  N   UNL A   1      43.828  27.532  27.520  1.00  0.00    -0.354 N 
ATOM     39  C   UNL A   1      40.433  29.166  29.629  1.00  0.00     0.074 A 
ATOM     40  C   UNL A   1      39.363  28.195  29.724  1.00  0.00     0.031 C 
ATOM     41  C   UNL A   1      44.976  25.990  26.376  1.00  0.00     0.029 A 
ATOM     42  C   UNL A   1      45.035  27.352  26.891  1.00  0.00     0.049 A 
ATOM     43  H   UNL A   1      43.595  28.346  28.021  1.00  0.00     0.167 HD
ATOM     44  C   UNL A   1      40.396  30.408  30.173  1.00  0.00     0.037 A 
ATOM     45  C   UNL A   1      46.064  28.202  26.708  1.00  0.00     0.037 A 
ATOM     46  C   UNL A   1      41.473  31.363  30.090  1.00  0.00     0.049 A 
ATOM     47  C   UNL A   1      45.969  29.593  27.269  1.00  0.00     0.074 A 
ATOM     48  C   UNL A   1      41.542  32.636  30.631  1.00  0.00     0.029 A 
ATOM     49  N   UNL A   1      42.671  31.152  29.420  1.00  0.00    -0.354 N 
ATOM     50  N   UNL A   1      45.003  30.146  27.961  1.00  0.00    -0.248 NA
ATOM     51  C   UNL A   1      47.112  30.481  27.019  1.00  0.00     0.031 C 
ATOM     52  C   UNL A   1      42.749  33.220  30.231  1.00  0.00     0.029 A 
ATOM     53  C   UNL A   1      43.469  32.284  29.507  1.00  0.00     0.049 A 
ATOM     54  H   UNL A   1      42.917  30.322  28.951  1.00  0.00     0.167 HD
ATOM     55  C   UNL A   1      45.433  31.432  28.257  1.00  0.00     0.074 A 
ATOM     56  C   UNL A   1      46.757  31.569  27.687  1.00  0.00     0.031 C 
ATOM     57  C   UNL A   1      44.788  32.412  28.938  1.00  0.00     0.037 A 
BRANCH  44  58
ATOM     58  C   UNL A   1      39.135  30.825  30.880  1.00  0.00     0.064 A 
ATOM     59  C   UNL A   1      38.053  31.402  30.197  1.00  0.00     0.173 A 
ATOM     60  C   UNL A   1      38.991  30.603  32.259  1.00  0.00     0.173 A 
ATOM     61  F   UNL A   1      38.136  31.643  28.881  1.00  0.00    -0.203 F 
ATOM     62  C   UNL A   1      36.892  31.770  30.873  1.00  0.00     0.198 A 
ATOM     63  C   UNL A   1      37.814  30.938  32.924  1.00  0.00     0.198 A 
ATOM     64  F   UNL A   1      39.987  30.044  32.963  1.00  0.00    -0.203 F 
ATOM     65  F   UNL A   1      35.893  32.369  30.208  1.00  0.00    -0.200 F 
ATOM     66  C   UNL A   1      36.770  31.530  32.233  1.00  0.00     0.200 A 
ATOM     67  F   UNL A   1      37.693  30.688  34.235  1.00  0.00    -0.200 F 
ATOM     68  F   UNL A   1      35.647  31.876  32.880  1.00  0.00    -0.200 F 
ENDBRANCH  44  58
BRANCH  45  69
ATOM     69  C   UNL A   1      47.260  27.766  25.940  1.00  0.00     0.064 A 
ATOM     70  C   UNL A   1      47.264  27.785  24.539  1.00  0.00     0.173 A 
ATOM     71  C   UNL A   1      48.419  27.311  26.589  1.00  0.00     0.173 A 
ATOM     72  F   UNL A   1      46.174  28.191  23.871  1.00  0.00    -0.203 F 
ATOM     73  C   UNL A   1      48.368  27.340  23.816  1.00  0.00     0.198 A 
ATOM     74  C   UNL A   1      49.536  26.903  25.866  1.00  0.00     0.198 A 
ATOM     75  F   UNL A   1      48.470  27.276  27.928  1.00  0.00    -0.203 F 
ATOM     76  F   UNL A   1      48.323  27.312  22.478  1.00  0.00    -0.200 F 
ATOM     77  C   UNL A   1      49.507  26.907  24.480  1.00  0.00     0.200 A 
ATOM     78  F   UNL A   1      50.641  26.505  26.512  1.00  0.00    -0.200 F 
ATOM     79  F   UNL A   1      50.570  26.483  23.784  1.00  0.00    -0.200 F 
ENDBRANCH  45  69
BRANCH  57  80
ATOM     80  C   UNL A   1      45.530  33.704  29.147  1.00  0.00     0.064 A 
ATOM     81  C   UNL A   1      45.422  34.777  28.249  1.00  0.00     0.173 A 
ATOM     82  C   UNL A   1      46.358  33.870  30.268  1.00  0.00     0.173 A 
ATOM     83  F   UNL A   1      44.657  34.666  27.153  1.00  0.00    -0.203 F 
ATOM     84  C   UNL A   1      46.147  35.950  28.444  1.00  0.00     0.198 A 
ATOM     85  C   UNL A   1      47.049  35.060  30.482  1.00  0.00     0.198 A 
ATOM     86  F   UNL A   1      46.494  32.881  31.164  1.00  0.00    -0.203 F 
ATOM     87  F   UNL A   1      46.083  36.933  27.536  1.00  0.00    -0.200 F 
ATOM     88  C   UNL A   1      46.954  36.094  29.563  1.00  0.00     0.200 A 
ATOM     89  F   UNL A   1      47.814  35.202  31.573  1.00  0.00    -0.200 F 
ATOM     90  F   UNL A   1      47.650  37.224  29.749  1.00  0.00    -0.200 F 
ENDBRANCH  57  80
ENDBRANCH  31  32
ENDBRANCH  24  26
ENDBRANCH  23  24
ENDBRANCH  22  23
ENDBRANCH   1  22
TORSDOF 15
ENDMDL
