MODEL 1
REMARK VINA RESULT:     -11.4      0.000      0.000
REMARK SMILES C[C@@H]1C[C@@]([NH2+]Cc2cccs2)(C(=O)OCCOC(=O)c2ccc(-c3c4nc(c(-c5c(F)c(F)c(F)c(F)c5F)c5ccc([nH]5)c(-c5c(F)c(F)c(F)c(F)c5F)c5nc(c(-c6c(F)c(F)c(F)c(F)c6F)c6ccc3[nH]6)C=C5)C=C4)cc2)CS1
REMARK SMILES IDX 15 1 14 2 12 3 13 4 4 5 1 6 2 7 3 8 84 9 83 10 5 11 6 14
REMARK SMILES IDX 7 15 8 16 11 17 9 18 10 19 16 20 17 21 18 22 19 23 20 24
REMARK SMILES IDX 21 25 82 26 22 27 81 28 23 29 24 30 25 31 75 32 26 33 80 34
REMARK SMILES IDX 74 35 76 36 27 37 79 38 73 39 72 40 28 42 60 43 40 44 59 45
REMARK SMILES IDX 41 46 44 47 58 48 77 49 42 50 43 51 57 53 78 54 45 55 29 56
REMARK SMILES IDX 30 57 38 58 31 59 32 60 36 61 39 62 33 63 34 64 37 65 35 66
REMARK SMILES IDX 61 67 62 68 70 69 63 70 64 71 68 72 71 73 65 74 66 75 69 76
REMARK SMILES IDX 67 77 46 78 47 79 55 80 48 81 49 82 53 83 56 84 50 85 51 86
REMARK SMILES IDX 54 87 52 88
REMARK H PARENT 5 12 5 13 76 41 44 52
REMARK Flexibility Score: inf
ROOT
ATOM      1  C   UNL A   1      35.896  20.287  25.008  1.00  0.00     0.274 C 
ENDROOT
BRANCH   1   2
ATOM      2  O   UNL A   1      35.162  21.529  25.031  1.00  0.00    -0.457 OA
BRANCH   2   3
ATOM      3  C   UNL A   1      34.352  21.722  26.107  1.00  0.00     0.369 C 
ATOM      4  O   UNL A   1      34.774  21.775  27.259  1.00  0.00    -0.245 OA
BRANCH   3   5
ATOM      5  C   UNL A   1      32.855  21.916  25.742  1.00  0.00     0.204 C 
ATOM      6  C   UNL A   1      30.653  24.101  23.482  1.00  0.00     0.019 C 
ATOM      7  C   UNL A   1      31.604  23.876  24.641  1.00  0.00     0.050 C 
ATOM      8  C   UNL A   1      32.610  22.730  24.422  1.00  0.00     0.096 C 
ATOM      9  S   UNL A   1      30.725  23.448  26.154  1.00  0.00    -0.151 SA
ATOM     10  C   UNL A   1      32.232  22.772  26.863  1.00  0.00     0.150 C 
BRANCH   5  11
ATOM     11  N   UNL A   1      32.154  20.605  25.542  1.00  0.00    -0.327 N 
ATOM     12  H   UNL A   1      31.171  20.755  25.773  1.00  0.00     0.347 HD
ATOM     13  H   UNL A   1      32.674  19.960  26.136  1.00  0.00     0.347 HD
BRANCH  11  14
ATOM     14  C   UNL A   1      32.188  19.963  24.223  1.00  0.00     0.309 C 
BRANCH  14  15
ATOM     15  C   UNL A   1      32.747  18.570  24.205  1.00  0.00     0.059 A 
ATOM     16  C   UNL A   1      33.286  17.878  23.136  1.00  0.00     0.021 A 
ATOM     17  S   UNL A   1      32.725  17.599  25.622  1.00  0.00    -0.143 S 
ATOM     18  C   UNL A   1      33.741  16.578  23.497  1.00  0.00     0.012 A 
ATOM     19  C   UNL A   1      33.510  16.305  24.827  1.00  0.00     0.065 A 
ENDBRANCH  14  15
ENDBRANCH  11  14
ENDBRANCH   5  11
ENDBRANCH   3   5
ENDBRANCH   2   3
ENDBRANCH   1   2
BRANCH   1  20
ATOM     20  C   UNL A   1      37.373  20.533  24.704  1.00  0.00     0.275 C 
BRANCH  20  21
ATOM     21  O   UNL A   1      37.864  21.625  25.507  1.00  0.00    -0.458 OA
BRANCH  21  22
ATOM     22  C   UNL A   1      39.046  21.418  26.125  1.00  0.00     0.338 C 
ATOM     23  O   UNL A   1      39.667  20.361  26.185  1.00  0.00    -0.246 OA
BRANCH  22  24
ATOM     24  C   UNL A   1      39.562  22.667  26.723  1.00  0.00     0.060 A 
ATOM     25  C   UNL A   1      39.067  23.910  26.330  1.00  0.00     0.016 A 
ATOM     26  C   UNL A   1      40.667  22.607  27.573  1.00  0.00     0.016 A 
ATOM     27  C   UNL A   1      39.768  25.075  26.647  1.00  0.00     0.010 A 
ATOM     28  C   UNL A   1      41.286  23.786  28.001  1.00  0.00     0.010 A 
ATOM     29  C   UNL A   1      40.883  25.036  27.498  1.00  0.00    -0.014 A 
BRANCH  29  30
ATOM     30  C   UNL A   1      41.662  26.271  27.820  1.00  0.00     0.031 A 
ATOM     31  C   UNL A   1      41.055  27.347  28.687  1.00  0.00     0.074 A 
ATOM     32  C   UNL A   1      42.914  26.451  27.351  1.00  0.00     0.049 A 
ATOM     33  N   UNL A   1      41.437  28.589  28.862  1.00  0.00    -0.248 NA
ATOM     34  C   UNL A   1      39.841  26.989  29.440  1.00  0.00     0.031 C 
ATOM     35  C   UNL A   1      43.666  25.498  26.535  1.00  0.00     0.029 A 
ATOM     36  N   UNL A   1      43.781  27.508  27.502  1.00  0.00    -0.354 N 
ATOM     37  C   UNL A   1      40.464  29.180  29.657  1.00  0.00     0.074 A 
ATOM     38  C   UNL A   1      39.486  28.157  29.961  1.00  0.00     0.031 C 
ATOM     39  C   UNL A   1      44.894  25.985  26.305  1.00  0.00     0.029 A 
ATOM     40  C   UNL A   1      44.986  27.326  26.869  1.00  0.00     0.049 A 
ATOM     41  H   UNL A   1      43.559  28.318  28.016  1.00  0.00     0.167 HD
ATOM     42  C   UNL A   1      40.387  30.464  30.083  1.00  0.00     0.037 A 
ATOM     43  C   UNL A   1      46.034  28.158  26.714  1.00  0.00     0.037 A 
ATOM     44  C   UNL A   1      41.410  31.456  29.875  1.00  0.00     0.049 A 
ATOM     45  C   UNL A   1      45.958  29.557  27.257  1.00  0.00     0.074 A 
ATOM     46  C   UNL A   1      41.423  32.783  30.271  1.00  0.00     0.029 A 
ATOM     47  N   UNL A   1      42.624  31.213  29.254  1.00  0.00    -0.354 N 
ATOM     48  N   UNL A   1      44.978  30.140  27.898  1.00  0.00    -0.248 NA
ATOM     49  C   UNL A   1      47.125  30.421  27.026  1.00  0.00     0.031 C 
ATOM     50  C   UNL A   1      42.645  33.345  29.885  1.00  0.00     0.029 A 
ATOM     51  C   UNL A   1      43.401  32.361  29.269  1.00  0.00     0.049 A 
ATOM     52  H   UNL A   1      42.895  30.353  28.859  1.00  0.00     0.167 HD
ATOM     53  C   UNL A   1      45.402  31.439  28.141  1.00  0.00     0.074 A 
ATOM     54  C   UNL A   1      46.743  31.550  27.606  1.00  0.00     0.031 C 
ATOM     55  C   UNL A   1      44.733  32.453  28.739  1.00  0.00     0.037 A 
BRANCH  42  56
ATOM     56  C   UNL A   1      39.137  30.893  30.791  1.00  0.00     0.064 A 
ATOM     57  C   UNL A   1      38.024  31.393  30.105  1.00  0.00     0.173 A 
ATOM     58  C   UNL A   1      39.036  30.735  32.184  1.00  0.00     0.173 A 
ATOM     59  F   UNL A   1      38.076  31.574  28.777  1.00  0.00    -0.203 F 
ATOM     60  C   UNL A   1      36.857  31.732  30.786  1.00  0.00     0.198 A 
ATOM     61  C   UNL A   1      37.862  31.053  32.859  1.00  0.00     0.198 A 
ATOM     62  F   UNL A   1      40.073  30.253  32.886  1.00  0.00    -0.203 F 
ATOM     63  F   UNL A   1      35.812  32.233  30.115  1.00  0.00    -0.200 F 
ATOM     64  C   UNL A   1      36.774  31.554  32.160  1.00  0.00     0.200 A 
ATOM     65  F   UNL A   1      37.781  30.870  34.185  1.00  0.00    -0.200 F 
ATOM     66  F   UNL A   1      35.646  31.868  32.812  1.00  0.00    -0.200 F 
ENDBRANCH  42  56
BRANCH  43  67
ATOM     67  C   UNL A   1      47.232  27.697  25.969  1.00  0.00     0.064 A 
ATOM     68  C   UNL A   1      48.348  27.188  26.647  1.00  0.00     0.173 A 
ATOM     69  C   UNL A   1      47.279  27.739  24.569  1.00  0.00     0.173 A 
ATOM     70  F   UNL A   1      48.358  27.154  27.988  1.00  0.00    -0.203 F 
ATOM     71  C   UNL A   1      49.467  26.740  25.951  1.00  0.00     0.198 A 
ATOM     72  C   UNL A   1      48.387  27.265  23.872  1.00  0.00     0.198 A 
ATOM     73  F   UNL A   1      46.235  28.216  23.875  1.00  0.00    -0.203 F 
ATOM     74  F   UNL A   1      50.534  26.287  26.623  1.00  0.00    -0.200 F 
ATOM     75  C   UNL A   1      49.482  26.770  24.564  1.00  0.00     0.200 A 
ATOM     76  F   UNL A   1      48.392  27.281  22.532  1.00  0.00    -0.200 F 
ATOM     77  F   UNL A   1      50.555  26.327  23.894  1.00  0.00    -0.200 F 
ENDBRANCH  43  67
BRANCH  55  78
ATOM     78  C   UNL A   1      45.448  33.762  28.859  1.00  0.00     0.064 A 
ATOM     79  C   UNL A   1      46.251  34.053  29.970  1.00  0.00     0.173 A 
ATOM     80  C   UNL A   1      45.348  34.723  27.843  1.00  0.00     0.173 A 
ATOM     81  F   UNL A   1      46.364  33.169  30.972  1.00  0.00    -0.203 F 
ATOM     82  C   UNL A   1      46.918  35.272  30.068  1.00  0.00     0.198 A 
ATOM     83  C   UNL A   1      46.029  35.933  27.937  1.00  0.00     0.198 A 
ATOM     84  F   UNL A   1      44.591  34.487  26.761  1.00  0.00    -0.203 F 
ATOM     85  F   UNL A   1      47.654  35.546  31.154  1.00  0.00    -0.200 F 
ATOM     86  C   UNL A   1      46.808  36.209  29.051  1.00  0.00     0.200 A 
ATOM     87  F   UNL A   1      45.925  36.838  26.953  1.00  0.00    -0.200 F 
ATOM     88  F   UNL A   1      47.448  37.383  29.148  1.00  0.00    -0.200 F 
ENDBRANCH  55  78
ENDBRANCH  29  30
ENDBRANCH  22  24
ENDBRANCH  21  22
ENDBRANCH  20  21
ENDBRANCH   1  20
TORSDOF 14
ENDMDL
MODEL 2
REMARK VINA RESULT:     -11.2      5.484      8.687
REMARK SMILES C[C@@H]1C[C@@]([NH2+]Cc2cccs2)(C(=O)OCCOC(=O)c2ccc(-c3c4nc(c(-c5c(F)c(F)c(F)c(F)c5F)c5ccc([nH]5)c(-c5c(F)c(F)c(F)c(F)c5F)c5nc(c(-c6c(F)c(F)c(F)c(F)c6F)c6ccc3[nH]6)C=C5)C=C4)cc2)CS1
REMARK SMILES IDX 15 1 14 2 12 3 13 4 4 5 1 6 2 7 3 8 84 9 83 10 5 11 6 14
REMARK SMILES IDX 7 15 8 16 11 17 9 18 10 19 16 20 17 21 18 22 19 23 20 24
REMARK SMILES IDX 21 25 82 26 22 27 81 28 23 29 24 30 25 31 75 32 26 33 80 34
REMARK SMILES IDX 74 35 76 36 27 37 79 38 73 39 72 40 28 42 60 43 40 44 59 45
REMARK SMILES IDX 41 46 44 47 58 48 77 49 42 50 43 51 57 53 78 54 45 55 29 56
REMARK SMILES IDX 30 57 38 58 31 59 32 60 36 61 39 62 33 63 34 64 37 65 35 66
REMARK SMILES IDX 61 67 62 68 70 69 63 70 64 71 68 72 71 73 65 74 66 75 69 76
REMARK SMILES IDX 67 77 46 78 47 79 55 80 48 81 49 82 53 83 56 84 50 85 51 86
REMARK SMILES IDX 54 87 52 88
REMARK H PARENT 5 12 5 13 76 41 44 52
REMARK Flexibility Score: inf
ROOT
ATOM      1  C   UNL A   1      31.270  31.636  26.554  1.00  0.00     0.274 C 
ENDROOT
BRANCH   1   2
ATOM      2  O   UNL A   1      32.271  30.726  26.054  1.00  0.00    -0.457 OA
BRANCH   2   3
ATOM      3  C   UNL A   1      32.016  29.402  26.235  1.00  0.00     0.369 C 
ATOM      4  O   UNL A   1      31.826  28.904  27.341  1.00  0.00    -0.245 OA
BRANCH   3   5
ATOM      5  C   UNL A   1      31.941  28.589  24.914  1.00  0.00     0.204 C 
ATOM      6  C   UNL A   1      30.835  25.133  23.661  1.00  0.00     0.019 C 
ATOM      7  C   UNL A   1      31.717  26.065  24.470  1.00  0.00     0.050 C 
ATOM      8  C   UNL A   1      31.003  27.331  24.978  1.00  0.00     0.096 C 
ATOM      9  S   UNL A   1      33.114  26.666  23.506  1.00  0.00    -0.151 SA
ATOM     10  C   UNL A   1      33.353  28.023  24.661  1.00  0.00     0.150 C 
BRANCH   5  11
ATOM     11  N   UNL A   1      31.424  29.418  23.775  1.00  0.00    -0.327 N 
ATOM     12  H   UNL A   1      32.016  29.217  22.969  1.00  0.00     0.347 HD
ATOM     13  H   UNL A   1      31.449  30.370  24.140  1.00  0.00     0.347 HD
BRANCH  11  14
ATOM     14  C   UNL A   1      30.034  29.253  23.336  1.00  0.00     0.309 C 
BRANCH  14  15
ATOM     15  C   UNL A   1      29.334  30.521  22.943  1.00  0.00     0.059 A 
ATOM     16  C   UNL A   1      29.051  31.622  23.731  1.00  0.00     0.021 A 
ATOM     17  S   UNL A   1      28.720  30.726  21.352  1.00  0.00    -0.143 S 
ATOM     18  C   UNL A   1      28.391  32.657  23.010  1.00  0.00     0.012 A 
ATOM     19  C   UNL A   1      28.165  32.305  21.699  1.00  0.00     0.065 A 
ENDBRANCH  14  15
ENDBRANCH  11  14
ENDBRANCH   5  11
ENDBRANCH   3   5
ENDBRANCH   2   3
ENDBRANCH   1   2
BRANCH   1  20
ATOM     20  C   UNL A   1      31.819  33.059  26.636  1.00  0.00     0.275 C 
BRANCH  20  21
ATOM     21  O   UNL A   1      32.451  33.269  27.914  1.00  0.00    -0.458 OA
BRANCH  21  22
ATOM     22  C   UNL A   1      33.610  33.958  27.893  1.00  0.00     0.338 C 
ATOM     23  O   UNL A   1      33.751  35.149  27.626  1.00  0.00    -0.246 OA
BRANCH  22  24
ATOM     24  C   UNL A   1      34.750  33.101  28.281  1.00  0.00     0.060 A 
ATOM     25  C   UNL A   1      34.576  31.739  28.520  1.00  0.00     0.016 A 
ATOM     26  C   UNL A   1      35.981  33.696  28.565  1.00  0.00     0.016 A 
ATOM     27  C   UNL A   1      35.563  31.014  29.190  1.00  0.00     0.010 A 
ATOM     28  C   UNL A   1      37.017  32.931  29.111  1.00  0.00     0.010 A 
ATOM     29  C   UNL A   1      36.806  31.593  29.487  1.00  0.00    -0.014 A 
BRANCH  29  30
ATOM     30  C   UNL A   1      37.861  30.837  30.232  1.00  0.00     0.031 A 
ATOM     31  C   UNL A   1      38.020  31.025  31.721  1.00  0.00     0.074 A 
ATOM     32  C   UNL A   1      38.685  29.978  29.598  1.00  0.00     0.049 A 
ATOM     33  N   UNL A   1      39.020  30.688  32.499  1.00  0.00    -0.248 NA
ATOM     34  C   UNL A   1      36.921  31.704  32.428  1.00  0.00     0.031 C 
ATOM     35  C   UNL A   1      38.643  29.647  28.173  1.00  0.00     0.029 A 
ATOM     36  N   UNL A   1      39.723  29.215  30.080  1.00  0.00    -0.354 N 
ATOM     37  C   UNL A   1      38.716  31.198  33.754  1.00  0.00     0.074 A 
ATOM     38  C   UNL A   1      37.424  31.841  33.648  1.00  0.00     0.031 C 
ATOM     39  C   UNL A   1      39.569  28.714  27.908  1.00  0.00     0.029 A 
ATOM     40  C   UNL A   1      40.338  28.452  29.119  1.00  0.00     0.049 A 
ATOM     41  H   UNL A   1      39.998  29.217  31.026  1.00  0.00     0.167 HD
ATOM     42  C   UNL A   1      39.455  31.145  34.888  1.00  0.00     0.037 A 
ATOM     43  C   UNL A   1      41.428  27.663  29.185  1.00  0.00     0.037 A 
ATOM     44  C   UNL A   1      40.687  30.414  35.027  1.00  0.00     0.049 A 
ATOM     45  C   UNL A   1      42.194  27.561  30.472  1.00  0.00     0.074 A 
ATOM     46  C   UNL A   1      41.507  30.300  36.137  1.00  0.00     0.029 A 
ATOM     47  N   UNL A   1      41.253  29.632  34.032  1.00  0.00    -0.354 N 
ATOM     48  N   UNL A   1      41.962  28.150  31.618  1.00  0.00    -0.248 NA
ATOM     49  C   UNL A   1      43.390  26.706  30.466  1.00  0.00     0.031 C 
ATOM     50  C   UNL A   1      42.572  29.451  35.813  1.00  0.00     0.029 A 
ATOM     51  C   UNL A   1      42.401  29.020  34.508  1.00  0.00     0.049 A 
ATOM     52  H   UNL A   1      40.892  29.528  33.122  1.00  0.00     0.167 HD
ATOM     53  C   UNL A   1      42.984  27.747  32.466  1.00  0.00     0.074 A 
ATOM     54  C   UNL A   1      43.821  26.837  31.713  1.00  0.00     0.031 C 
ATOM     55  C   UNL A   1      43.218  28.113  33.749  1.00  0.00     0.037 A 
BRANCH  42  56
ATOM     56  C   UNL A   1      38.975  31.928  36.074  1.00  0.00     0.064 A 
ATOM     57  C   UNL A   1      38.159  31.363  37.062  1.00  0.00     0.173 A 
ATOM     58  C   UNL A   1      39.401  33.256  36.251  1.00  0.00     0.173 A 
ATOM     59  F   UNL A   1      37.717  30.104  36.931  1.00  0.00    -0.203 F 
ATOM     60  C   UNL A   1      37.776  32.101  38.179  1.00  0.00     0.198 A 
ATOM     61  C   UNL A   1      39.035  33.982  37.380  1.00  0.00     0.198 A 
ATOM     62  F   UNL A   1      40.190  33.839  35.337  1.00  0.00    -0.203 F 
ATOM     63  F   UNL A   1      36.973  31.550  39.100  1.00  0.00    -0.200 F 
ATOM     64  C   UNL A   1      38.220  33.405  38.342  1.00  0.00     0.200 A 
ATOM     65  F   UNL A   1      39.475  35.239  37.540  1.00  0.00    -0.200 F 
ATOM     66  F   UNL A   1      37.861  34.108  39.425  1.00  0.00    -0.200 F 
ENDBRANCH  42  56
BRANCH  43  67
ATOM     67  C   UNL A   1      41.884  26.940  27.971  1.00  0.00     0.064 A 
ATOM     68  C   UNL A   1      42.779  27.535  27.073  1.00  0.00     0.173 A 
ATOM     69  C   UNL A   1      41.450  25.635  27.697  1.00  0.00     0.173 A 
ATOM     70  F   UNL A   1      43.200  28.791  27.282  1.00  0.00    -0.203 F 
ATOM     71  C   UNL A   1      43.221  26.853  25.943  1.00  0.00     0.198 A 
ATOM     72  C   UNL A   1      41.914  24.942  26.581  1.00  0.00     0.198 A 
ATOM     73  F   UNL A   1      40.595  25.022  28.529  1.00  0.00    -0.203 F 
ATOM     74  F   UNL A   1      44.052  27.455  25.082  1.00  0.00    -0.200 F 
ATOM     75  C   UNL A   1      42.796  25.554  25.703  1.00  0.00     0.200 A 
ATOM     76  F   UNL A   1      41.514  23.683  26.362  1.00  0.00    -0.200 F 
ATOM     77  F   UNL A   1      43.232  24.893  24.622  1.00  0.00    -0.200 F 
ENDBRANCH  43  67
BRANCH  55  78
ATOM     78  C   UNL A   1      44.414  27.516  34.420  1.00  0.00     0.064 A 
ATOM     79  C   UNL A   1      44.335  26.288  35.091  1.00  0.00     0.173 A 
ATOM     80  C   UNL A   1      45.656  28.165  34.369  1.00  0.00     0.173 A 
ATOM     81  F   UNL A   1      43.163  25.640  35.176  1.00  0.00    -0.203 F 
ATOM     82  C   UNL A   1      45.456  25.738  35.705  1.00  0.00     0.198 A 
ATOM     83  C   UNL A   1      46.778  27.603  34.972  1.00  0.00     0.198 A 
ATOM     84  F   UNL A   1      45.779  29.342  33.737  1.00  0.00    -0.203 F 
ATOM     85  F   UNL A   1      45.352  24.579  36.372  1.00  0.00    -0.200 F 
ATOM     86  C   UNL A   1      46.677  26.394  35.643  1.00  0.00     0.200 A 
ATOM     87  F   UNL A   1      47.959  28.236  34.909  1.00  0.00    -0.200 F 
ATOM     88  F   UNL A   1      47.754  25.864  36.238  1.00  0.00    -0.200 F 
ENDBRANCH  55  78
ENDBRANCH  29  30
ENDBRANCH  22  24
ENDBRANCH  21  22
ENDBRANCH  20  21
ENDBRANCH   1  20
TORSDOF 14
ENDMDL
MODEL 3
REMARK VINA RESULT:     -11.1      0.824      1.961
REMARK SMILES C[C@@H]1C[C@@]([NH2+]Cc2cccs2)(C(=O)OCCOC(=O)c2ccc(-c3c4nc(c(-c5c(F)c(F)c(F)c(F)c5F)c5ccc([nH]5)c(-c5c(F)c(F)c(F)c(F)c5F)c5nc(c(-c6c(F)c(F)c(F)c(F)c6F)c6ccc3[nH]6)C=C5)C=C4)cc2)CS1
REMARK SMILES IDX 15 1 14 2 12 3 13 4 4 5 1 6 2 7 3 8 84 9 83 10 5 11 6 14
REMARK SMILES IDX 7 15 8 16 11 17 9 18 10 19 16 20 17 21 18 22 19 23 20 24
REMARK SMILES IDX 21 25 82 26 22 27 81 28 23 29 24 30 25 31 75 32 26 33 80 34
REMARK SMILES IDX 74 35 76 36 27 37 79 38 73 39 72 40 28 42 60 43 40 44 59 45
REMARK SMILES IDX 41 46 44 47 58 48 77 49 42 50 43 51 57 53 78 54 45 55 29 56
REMARK SMILES IDX 30 57 38 58 31 59 32 60 36 61 39 62 33 63 34 64 37 65 35 66
REMARK SMILES IDX 61 67 62 68 70 69 63 70 64 71 68 72 71 73 65 74 66 75 69 76
REMARK SMILES IDX 67 77 46 78 47 79 55 80 48 81 49 82 53 83 56 84 50 85 51 86
REMARK SMILES IDX 54 87 52 88
REMARK H PARENT 5 12 5 13 76 41 44 52
REMARK Flexibility Score: inf
ROOT
ATOM      1  C   UNL A   1      36.989  22.739  23.621  1.00  0.00     0.274 C 
ENDROOT
BRANCH   1   2
ATOM      2  O   UNL A   1      35.845  23.421  24.176  1.00  0.00    -0.457 OA
BRANCH   2   3
ATOM      3  C   UNL A   1      34.628  22.993  23.741  1.00  0.00     0.369 C 
ATOM      4  O   UNL A   1      34.261  23.099  22.575  1.00  0.00    -0.245 OA
BRANCH   3   5
ATOM      5  C   UNL A   1      33.768  22.317  24.844  1.00  0.00     0.204 C 
ATOM      6  C   UNL A   1      30.278  22.597  26.416  1.00  0.00     0.019 C 
ATOM      7  C   UNL A   1      31.669  23.112  26.101  1.00  0.00     0.050 C 
ATOM      8  C   UNL A   1      32.232  22.631  24.751  1.00  0.00     0.096 C 
ATOM      9  S   UNL A   1      32.873  22.580  27.330  1.00  0.00    -0.151 SA
ATOM     10  C   UNL A   1      34.219  22.920  26.189  1.00  0.00     0.150 C 
BRANCH   5  11
ATOM     11  N   UNL A   1      33.877  20.822  24.800  1.00  0.00    -0.327 N 
ATOM     12  H   UNL A   1      34.152  20.517  25.735  1.00  0.00     0.347 HD
ATOM     13  H   UNL A   1      34.541  20.650  24.045  1.00  0.00     0.347 HD
BRANCH  11  14
ATOM     14  C   UNL A   1      32.707  20.024  24.418  1.00  0.00     0.309 C 
BRANCH  14  15
ATOM     15  C   UNL A   1      32.855  18.543  24.607  1.00  0.00     0.059 A 
ATOM     16  C   UNL A   1      32.607  17.797  25.745  1.00  0.00     0.021 A 
ATOM     17  S   UNL A   1      33.442  17.551  23.334  1.00  0.00    -0.143 S 
ATOM     18  C   UNL A   1      32.837  16.405  25.549  1.00  0.00     0.012 A 
ATOM     19  C   UNL A   1      33.279  16.133  24.274  1.00  0.00     0.065 A 
ENDBRANCH  14  15
ENDBRANCH  11  14
ENDBRANCH   5  11
ENDBRANCH   3   5
ENDBRANCH   2   3
ENDBRANCH   1   2
BRANCH   1  20
ATOM     20  C   UNL A   1      37.252  21.427  24.359  1.00  0.00     0.275 C 
BRANCH  20  21
ATOM     21  O   UNL A   1      37.557  21.694  25.742  1.00  0.00    -0.458 OA
BRANCH  21  22
ATOM     22  C   UNL A   1      38.841  21.506  26.111  1.00  0.00     0.338 C 
ATOM     23  O   UNL A   1      39.510  20.489  25.945  1.00  0.00    -0.246 OA
BRANCH  22  24
ATOM     24  C   UNL A   1      39.403  22.723  26.733  1.00  0.00     0.060 A 
ATOM     25  C   UNL A   1      38.842  23.977  26.494  1.00  0.00     0.016 A 
ATOM     26  C   UNL A   1      40.603  22.631  27.440  1.00  0.00     0.016 A 
ATOM     27  C   UNL A   1      39.555  25.134  26.811  1.00  0.00     0.010 A 
ATOM     28  C   UNL A   1      41.247  23.793  27.877  1.00  0.00     0.010 A 
ATOM     29  C   UNL A   1      40.764  25.064  27.519  1.00  0.00    -0.014 A 
BRANCH  29  30
ATOM     30  C   UNL A   1      41.554  26.294  27.837  1.00  0.00     0.031 A 
ATOM     31  C   UNL A   1      40.958  27.375  28.706  1.00  0.00     0.074 A 
ATOM     32  C   UNL A   1      42.805  26.465  27.362  1.00  0.00     0.049 A 
ATOM     33  N   UNL A   1      41.351  28.615  28.877  1.00  0.00    -0.248 NA
ATOM     34  C   UNL A   1      39.745  27.027  29.464  1.00  0.00     0.031 C 
ATOM     35  C   UNL A   1      43.546  25.505  26.544  1.00  0.00     0.029 A 
ATOM     36  N   UNL A   1      43.681  27.515  27.508  1.00  0.00    -0.354 N 
ATOM     37  C   UNL A   1      40.386  29.214  29.676  1.00  0.00     0.074 A 
ATOM     38  C   UNL A   1      39.402  28.199  29.985  1.00  0.00     0.031 C 
ATOM     39  C   UNL A   1      44.777  25.982  26.307  1.00  0.00     0.029 A 
ATOM     40  C   UNL A   1      44.882  27.323  26.870  1.00  0.00     0.049 A 
ATOM     41  H   UNL A   1      43.467  28.327  28.023  1.00  0.00     0.167 HD
ATOM     42  C   UNL A   1      40.321  30.499  30.101  1.00  0.00     0.037 A 
ATOM     43  C   UNL A   1      45.935  28.147  26.710  1.00  0.00     0.037 A 
ATOM     44  C   UNL A   1      41.350  31.482  29.888  1.00  0.00     0.049 A 
ATOM     45  C   UNL A   1      45.873  29.547  27.252  1.00  0.00     0.074 A 
ATOM     46  C   UNL A   1      41.375  32.810  30.283  1.00  0.00     0.029 A 
ATOM     47  N   UNL A   1      42.559  31.230  29.262  1.00  0.00    -0.354 N 
ATOM     48  N   UNL A   1      44.899  30.138  27.897  1.00  0.00    -0.248 NA
ATOM     49  C   UNL A   1      47.045  30.401  27.015  1.00  0.00     0.031 C 
ATOM     50  C   UNL A   1      42.599  33.362  29.891  1.00  0.00     0.029 A 
ATOM     51  C   UNL A   1      43.345  32.372  29.273  1.00  0.00     0.049 A 
ATOM     52  H   UNL A   1      42.823  30.367  28.866  1.00  0.00     0.167 HD
ATOM     53  C   UNL A   1      45.335  31.433  28.137  1.00  0.00     0.074 A 
ATOM     54  C   UNL A   1      46.674  31.534  27.596  1.00  0.00     0.031 C 
ATOM     55  C   UNL A   1      44.676  32.454  28.737  1.00  0.00     0.037 A 
BRANCH  42  56
ATOM     56  C   UNL A   1      39.077  30.938  30.815  1.00  0.00     0.064 A 
ATOM     57  C   UNL A   1      38.948  30.859  32.207  1.00  0.00     0.173 A 
ATOM     58  C   UNL A   1      38.021  31.512  30.086  1.00  0.00     0.173 A 
ATOM     59  F   UNL A   1      39.923  30.307  32.944  1.00  0.00    -0.203 F 
ATOM     60  C   UNL A   1      37.801  31.326  32.845  1.00  0.00     0.198 A 
ATOM     61  C   UNL A   1      36.887  31.998  30.729  1.00  0.00     0.198 A 
ATOM     62  F   UNL A   1      38.101  31.617  28.751  1.00  0.00    -0.203 F 
ATOM     63  F   UNL A   1      37.685  31.217  34.176  1.00  0.00    -0.200 F 
ATOM     64  C   UNL A   1      36.777  31.903  32.107  1.00  0.00     0.200 A 
ATOM     65  F   UNL A   1      35.904  32.565  30.015  1.00  0.00    -0.200 F 
ATOM     66  F   UNL A   1      35.680  32.364  32.726  1.00  0.00    -0.200 F 
ENDBRANCH  42  56
BRANCH  43  67
ATOM     67  C   UNL A   1      47.127  27.677  25.961  1.00  0.00     0.064 A 
ATOM     68  C   UNL A   1      47.172  27.748  24.563  1.00  0.00     0.173 A 
ATOM     69  C   UNL A   1      48.250  27.166  26.628  1.00  0.00     0.173 A 
ATOM     70  F   UNL A   1      46.111  28.205  23.882  1.00  0.00    -0.203 F 
ATOM     71  C   UNL A   1      48.295  27.322  23.858  1.00  0.00     0.198 A 
ATOM     72  C   UNL A   1      49.384  26.766  25.925  1.00  0.00     0.198 A 
ATOM     73  F   UNL A   1      48.255  27.080  27.966  1.00  0.00    -0.203 F 
ATOM     74  F   UNL A   1      48.302  27.370  22.520  1.00  0.00    -0.200 F 
ATOM     75  C   UNL A   1      49.403  26.841  24.541  1.00  0.00     0.200 A 
ATOM     76  F   UNL A   1      50.457  26.317  26.588  1.00  0.00    -0.200 F 
ATOM     77  F   UNL A   1      50.489  26.443  23.863  1.00  0.00    -0.200 F 
ENDBRANCH  43  67
BRANCH  55  78
ATOM     78  C   UNL A   1      45.401  33.757  28.852  1.00  0.00     0.064 A 
ATOM     79  C   UNL A   1      46.220  34.039  29.954  1.00  0.00     0.173 A 
ATOM     80  C   UNL A   1      45.295  34.722  27.841  1.00  0.00     0.173 A 
ATOM     81  F   UNL A   1      46.339  33.150  30.952  1.00  0.00    -0.203 F 
ATOM     82  C   UNL A   1      46.896  35.252  30.048  1.00  0.00     0.198 A 
ATOM     83  C   UNL A   1      45.985  35.928  27.931  1.00  0.00     0.198 A 
ATOM     84  F   UNL A   1      44.523  34.496  26.768  1.00  0.00    -0.203 F 
ATOM     85  F   UNL A   1      47.647  35.517  31.126  1.00  0.00    -0.200 F 
ATOM     86  C   UNL A   1      46.780  36.194  29.036  1.00  0.00     0.200 A 
ATOM     87  F   UNL A   1      45.876  36.837  26.951  1.00  0.00    -0.200 F 
ATOM     88  F   UNL A   1      47.429  37.363  29.130  1.00  0.00    -0.200 F 
ENDBRANCH  55  78
ENDBRANCH  29  30
ENDBRANCH  22  24
ENDBRANCH  21  22
ENDBRANCH  20  21
ENDBRANCH   1  20
TORSDOF 14
ENDMDL
