MODEL 1
REMARK VINA RESULT:     -13.2      0.000      0.000
REMARK SMILES COc1ccccc1[C@@H]1C[N@@H+](Cc2cc3c(cc2C)OCO3)C[C@H]1C(=O)OCCOC(=O)c1ccc(-c2c3nc(c(-c4c(F)c(F)c(F)c(F)c4F)c4ccc([nH]4)c(-c4c(F)c(F)c(F)c(F)c4F)c4nc(c(-c5c(F)c(F)c(F)c(F)c5F)c5ccc2[nH]5)C=C4)C=C3)cc1
REMARK SMILES IDX 28 1 27 2 25 3 26 4 24 5 9 6 10 7 11 8 23 9 8 11 3 12 4 13
REMARK SMILES IDX 5 14 7 15 6 16 2 17 1 18 12 19 13 20 14 21 18 22 15 23 17 24
REMARK SMILES IDX 19 25 16 26 22 27 20 28 21 29 29 30 30 31 31 32 32 33 33 34
REMARK SMILES IDX 34 35 95 36 35 37 94 38 36 39 37 40 38 41 88 42 39 43 93 44
REMARK SMILES IDX 87 45 89 46 40 47 92 48 86 49 85 50 41 52 73 53 53 54 72 55
REMARK SMILES IDX 54 56 57 57 71 58 90 59 55 60 56 61 70 63 91 64 58 65 42 66
REMARK SMILES IDX 43 67 51 68 44 69 45 70 49 71 52 72 46 73 47 74 50 75 48 76
REMARK SMILES IDX 74 77 75 78 83 79 76 80 77 81 81 82 84 83 78 84 79 85 82 86
REMARK SMILES IDX 80 87 59 88 60 89 68 90 61 91 62 92 66 93 69 94 63 95 64 96
REMARK SMILES IDX 67 97 65 98
REMARK H PARENT 11 10 89 51 57 62
REMARK Flexibility Score: inf
ROOT
ATOM      1  C   UNL A   1      31.742  28.625  27.292  1.00  0.00     0.274 C 
ENDROOT
BRANCH   1   2
ATOM      2  O   UNL A   1      31.060  27.830  26.297  1.00  0.00    -0.462 OA
BRANCH   2   3
ATOM      3  C   UNL A   1      31.645  26.647  25.990  1.00  0.00     0.315 C 
ATOM      4  O   UNL A   1      31.296  25.569  26.462  1.00  0.00    -0.252 OA
BRANCH   3   5
ATOM      5  C   UNL A   1      32.724  26.739  24.924  1.00  0.00     0.167 C 
ATOM      6  C   UNL A   1      32.973  25.520  24.031  1.00  0.00     0.098 C 
ATOM      7  C   UNL A   1      33.047  26.077  22.602  1.00  0.00     0.272 C 
ATOM      8  N   UNL A   1      32.291  27.324  22.604  1.00  0.00    -0.330 N 
ATOM      9  C   UNL A   1      32.382  27.875  23.956  1.00  0.00     0.278 C 
ATOM     10  H   UNL A   1      32.711  27.982  21.948  1.00  0.00     0.348 HD
BRANCH   6  11
ATOM     11  C   UNL A   1      34.148  24.585  24.290  1.00  0.00     0.004 A 
ATOM     12  C   UNL A   1      34.553  23.462  23.542  1.00  0.00     0.122 A 
ATOM     13  C   UNL A   1      35.692  22.730  23.932  1.00  0.00     0.047 A 
ATOM     14  C   UNL A   1      36.435  23.087  25.058  1.00  0.00     0.004 A 
ATOM     15  C   UNL A   1      34.913  24.907  25.438  1.00  0.00     0.008 A 
ATOM     16  C   UNL A   1      36.046  24.183  25.810  1.00  0.00     0.001 A 
BRANCH  12  17
ATOM     17  O   UNL A   1      34.109  23.147  22.286  1.00  0.00    -0.496 OA
ATOM     18  C   UNL A   1      32.874  22.458  22.168  1.00  0.00     0.278 C 
ENDBRANCH  12  17
ENDBRANCH   6  11
BRANCH   8  19
ATOM     19  C   UNL A   1      30.947  27.256  22.018  1.00  0.00     0.299 C 
BRANCH  19  20
ATOM     20  C   UNL A   1      29.914  28.272  22.477  1.00  0.00     0.013 A 
ATOM     21  C   UNL A   1      30.103  29.617  22.080  1.00  0.00     0.060 A 
ATOM     22  C   UNL A   1      28.796  27.949  23.298  1.00  0.00    -0.038 A 
ATOM     23  C   UNL A   1      29.171  30.564  22.442  1.00  0.00     0.166 A 
ATOM     24  C   UNL A   1      27.851  28.948  23.615  1.00  0.00     0.054 A 
ATOM     25  C   UNL A   1      28.537  26.581  23.870  1.00  0.00     0.045 C 
ATOM     26  C   UNL A   1      28.064  30.234  23.173  1.00  0.00     0.166 A 
ATOM     27  O   UNL A   1      29.221  31.889  22.141  1.00  0.00    -0.454 OA
ATOM     28  O   UNL A   1      27.258  31.302  23.412  1.00  0.00    -0.454 OA
ATOM     29  C   UNL A   1      28.049  32.364  22.836  1.00  0.00     0.468 C 
ENDBRANCH  19  20
ENDBRANCH   8  19
ENDBRANCH   3   5
ENDBRANCH   2   3
ENDBRANCH   1   2
BRANCH   1  30
ATOM     30  C   UNL A   1      31.777  30.086  26.851  1.00  0.00     0.275 C 
BRANCH  30  31
ATOM     31  O   UNL A   1      33.151  30.443  26.629  1.00  0.00    -0.458 OA
BRANCH  31  32
ATOM     32  C   UNL A   1      33.551  31.573  27.248  1.00  0.00     0.338 C 
ATOM     33  O   UNL A   1      32.919  32.605  27.415  1.00  0.00    -0.246 OA
BRANCH  32  34
ATOM     34  C   UNL A   1      34.845  31.280  27.868  1.00  0.00     0.060 A 
ATOM     35  C   UNL A   1      35.073  29.982  28.322  1.00  0.00     0.016 A 
ATOM     36  C   UNL A   1      35.817  32.264  28.012  1.00  0.00     0.016 A 
ATOM     37  C   UNL A   1      36.254  29.663  28.981  1.00  0.00     0.010 A 
ATOM     38  C   UNL A   1      37.020  31.935  28.641  1.00  0.00     0.010 A 
ATOM     39  C   UNL A   1      37.234  30.640  29.153  1.00  0.00    -0.014 A 
BRANCH  39  40
ATOM     40  C   UNL A   1      38.452  30.343  29.940  1.00  0.00     0.031 A 
ATOM     41  C   UNL A   1      39.499  29.447  29.349  1.00  0.00     0.074 A 
ATOM     42  C   UNL A   1      38.614  30.861  31.171  1.00  0.00     0.049 A 
ATOM     43  N   UNL A   1      40.518  28.865  29.924  1.00  0.00    -0.248 NA
ATOM     44  C   UNL A   1      39.371  29.158  27.911  1.00  0.00     0.031 C 
ATOM     45  C   UNL A   1      37.708  31.812  31.816  1.00  0.00     0.029 A 
ATOM     46  N   UNL A   1      39.593  30.644  32.106  1.00  0.00    -0.354 N 
ATOM     47  C   UNL A   1      41.115  28.093  28.938  1.00  0.00     0.074 A 
ATOM     48  C   UNL A   1      40.351  28.286  27.723  1.00  0.00     0.031 C 
ATOM     49  C   UNL A   1      38.171  32.093  33.044  1.00  0.00     0.029 A 
ATOM     50  C   UNL A   1      39.364  31.288  33.296  1.00  0.00     0.049 A 
ATOM     51  H   UNL A   1      40.384  30.080  31.941  1.00  0.00     0.167 HD
ATOM     52  C   UNL A   1      42.198  27.288  29.048  1.00  0.00     0.037 A 
ATOM     53  C   UNL A   1      40.015  31.200  34.470  1.00  0.00     0.037 A 
ATOM     54  C   UNL A   1      42.970  27.143  30.254  1.00  0.00     0.049 A 
ATOM     55  C   UNL A   1      41.186  30.261  34.582  1.00  0.00     0.074 A 
ATOM     56  C   UNL A   1      44.097  26.371  30.474  1.00  0.00     0.029 A 
ATOM     57  N   UNL A   1      42.695  27.798  31.447  1.00  0.00    -0.354 N 
ATOM     58  N   UNL A   1      41.722  29.493  33.665  1.00  0.00    -0.248 NA
ATOM     59  C   UNL A   1      41.832  30.164  35.898  1.00  0.00     0.031 C 
ATOM     60  C   UNL A   1      44.480  26.529  31.811  1.00  0.00     0.029 A 
ATOM     61  C   UNL A   1      43.620  27.435  32.412  1.00  0.00     0.049 A 
ATOM     62  H   UNL A   1      41.951  28.428  31.586  1.00  0.00     0.167 HD
ATOM     63  C   UNL A   1      42.779  28.839  34.282  1.00  0.00     0.074 A 
ATOM     64  C   UNL A   1      42.817  29.311  35.652  1.00  0.00     0.031 C 
ATOM     65  C   UNL A   1      43.640  27.928  33.765  1.00  0.00     0.037 A 
BRANCH  52  66
ATOM     66  C   UNL A   1      42.578  26.469  27.850  1.00  0.00     0.064 A 
ATOM     67  C   UNL A   1      43.540  26.900  26.926  1.00  0.00     0.173 A 
ATOM     68  C   UNL A   1      41.973  25.221  27.633  1.00  0.00     0.173 A 
ATOM     69  F   UNL A   1      44.135  28.092  27.077  1.00  0.00    -0.203 F 
ATOM     70  C   UNL A   1      43.862  26.124  25.814  1.00  0.00     0.198 A 
ATOM     71  C   UNL A   1      42.317  24.436  26.536  1.00  0.00     0.198 A 
ATOM     72  F   UNL A   1      41.046  24.761  28.488  1.00  0.00    -0.203 F 
ATOM     73  F   UNL A   1      44.748  26.578  24.917  1.00  0.00    -0.200 F 
ATOM     74  C   UNL A   1      43.256  24.891  25.624  1.00  0.00     0.200 A 
ATOM     75  F   UNL A   1      41.736  23.241  26.361  1.00  0.00    -0.200 F 
ATOM     76  F   UNL A   1      43.569  24.146  24.555  1.00  0.00    -0.200 F 
ENDBRANCH  52  66
BRANCH  53  77
ATOM     77  C   UNL A   1      39.555  31.994  35.638  1.00  0.00     0.064 A 
ATOM     78  C   UNL A   1      40.099  33.257  35.906  1.00  0.00     0.173 A 
ATOM     79  C   UNL A   1      38.563  31.513  36.508  1.00  0.00     0.173 A 
ATOM     80  F   UNL A   1      41.068  33.748  35.120  1.00  0.00    -0.203 F 
ATOM     81  C   UNL A   1      39.675  34.006  37.003  1.00  0.00     0.198 A 
ATOM     82  C   UNL A   1      38.121  32.275  37.587  1.00  0.00     0.198 A 
ATOM     83  F   UNL A   1      38.013  30.309  36.298  1.00  0.00    -0.203 F 
ATOM     84  F   UNL A   1      40.240  35.194  37.259  1.00  0.00    -0.200 F 
ATOM     85  C   UNL A   1      38.681  33.517  37.838  1.00  0.00     0.200 A 
ATOM     86  F   UNL A   1      37.153  31.804  38.385  1.00  0.00    -0.200 F 
ATOM     87  F   UNL A   1      38.270  34.241  38.888  1.00  0.00    -0.200 F 
ENDBRANCH  53  77
BRANCH  65  88
ATOM     88  C   UNL A   1      44.717  27.416  34.674  1.00  0.00     0.064 A 
ATOM     89  C   UNL A   1      44.549  26.245  35.426  1.00  0.00     0.173 A 
ATOM     90  C   UNL A   1      45.945  28.087  34.763  1.00  0.00     0.173 A 
ATOM     91  F   UNL A   1      43.385  25.578  35.387  1.00  0.00    -0.203 F 
ATOM     92  C   UNL A   1      45.567  25.776  36.252  1.00  0.00     0.198 A 
ATOM     93  C   UNL A   1      46.970  27.601  35.569  1.00  0.00     0.198 A 
ATOM     94  F   UNL A   1      46.156  29.209  34.058  1.00  0.00    -0.203 F 
ATOM     95  F   UNL A   1      45.370  24.678  36.996  1.00  0.00    -0.200 F 
ATOM     96  C   UNL A   1      46.777  26.450  36.318  1.00  0.00     0.200 A 
ATOM     97  F   UNL A   1      48.143  28.246  35.622  1.00  0.00    -0.200 F 
ATOM     98  F   UNL A   1      47.758  25.993  37.109  1.00  0.00    -0.200 F 
ENDBRANCH  65  88
ENDBRANCH  39  40
ENDBRANCH  32  34
ENDBRANCH  31  32
ENDBRANCH  30  31
ENDBRANCH   1  30
TORSDOF 15
ENDMDL
MODEL 2
REMARK VINA RESULT:     -13.2      1.010      2.021
REMARK SMILES COc1ccccc1[C@@H]1C[N@@H+](Cc2cc3c(cc2C)OCO3)C[C@H]1C(=O)OCCOC(=O)c1ccc(-c2c3nc(c(-c4c(F)c(F)c(F)c(F)c4F)c4ccc([nH]4)c(-c4c(F)c(F)c(F)c(F)c4F)c4nc(c(-c5c(F)c(F)c(F)c(F)c5F)c5ccc2[nH]5)C=C4)C=C3)cc1
REMARK SMILES IDX 28 1 27 2 25 3 26 4 24 5 9 6 10 7 11 8 23 9 8 11 3 12 4 13
REMARK SMILES IDX 5 14 7 15 6 16 2 17 1 18 12 19 13 20 14 21 18 22 15 23 17 24
REMARK SMILES IDX 19 25 16 26 22 27 20 28 21 29 29 30 30 31 31 32 32 33 33 34
REMARK SMILES IDX 34 35 95 36 35 37 94 38 36 39 37 40 38 41 88 42 39 43 93 44
REMARK SMILES IDX 87 45 89 46 40 47 92 48 86 49 85 50 41 52 73 53 53 54 72 55
REMARK SMILES IDX 54 56 57 57 71 58 90 59 55 60 56 61 70 63 91 64 58 65 42 66
REMARK SMILES IDX 43 67 51 68 44 69 45 70 49 71 52 72 46 73 47 74 50 75 48 76
REMARK SMILES IDX 74 77 75 78 83 79 76 80 77 81 81 82 84 83 78 84 79 85 82 86
REMARK SMILES IDX 80 87 59 88 60 89 68 90 61 91 62 92 66 93 69 94 63 95 64 96
REMARK SMILES IDX 67 97 65 98
REMARK H PARENT 11 10 89 51 57 62
REMARK Flexibility Score: inf
ROOT
ATOM      1  C   UNL A   1      31.509  29.423  26.992  1.00  0.00     0.274 C 
ENDROOT
BRANCH   1   2
ATOM      2  O   UNL A   1      31.394  28.531  25.862  1.00  0.00    -0.462 OA
BRANCH   2   3
ATOM      3  C   UNL A   1      31.527  27.211  26.141  1.00  0.00     0.315 C 
ATOM      4  O   UNL A   1      30.676  26.548  26.727  1.00  0.00    -0.252 OA
BRANCH   3   5
ATOM      5  C   UNL A   1      32.788  26.576  25.581  1.00  0.00     0.167 C 
ATOM      6  C   UNL A   1      32.717  25.127  25.090  1.00  0.00     0.098 C 
ATOM      7  C   UNL A   1      33.425  25.129  23.726  1.00  0.00     0.272 C 
ATOM      8  N   UNL A   1      33.324  26.490  23.210  1.00  0.00    -0.330 N 
ATOM      9  C   UNL A   1      33.264  27.382  24.368  1.00  0.00     0.278 C 
ATOM     10  H   UNL A   1      34.155  26.713  22.663  1.00  0.00     0.348 HD
BRANCH   6  11
ATOM     11  C   UNL A   1      33.240  23.981  25.948  1.00  0.00     0.004 A 
ATOM     12  C   UNL A   1      32.632  23.378  27.067  1.00  0.00     0.122 A 
ATOM     13  C   UNL A   1      33.269  22.305  27.721  1.00  0.00     0.047 A 
ATOM     14  C   UNL A   1      34.506  21.822  27.290  1.00  0.00     0.004 A 
ATOM     15  C   UNL A   1      34.504  23.480  25.551  1.00  0.00     0.008 A 
ATOM     16  C   UNL A   1      35.122  22.409  26.198  1.00  0.00     0.001 A 
BRANCH  12  17
ATOM     17  O   UNL A   1      31.327  23.545  27.441  1.00  0.00    -0.496 OA
ATOM     18  C   UNL A   1      30.324  22.895  26.675  1.00  0.00     0.278 C 
ENDBRANCH  12  17
ENDBRANCH   6  11
BRANCH   8  19
ATOM     19  C   UNL A   1      32.310  26.703  22.171  1.00  0.00     0.299 C 
BRANCH  19  20
ATOM     20  C   UNL A   1      31.012  27.386  22.568  1.00  0.00     0.013 A 
ATOM     21  C   UNL A   1      30.925  28.785  22.370  1.00  0.00     0.060 A 
ATOM     22  C   UNL A   1      29.903  26.705  23.146  1.00  0.00    -0.038 A 
ATOM     23  C   UNL A   1      29.753  29.439  22.681  1.00  0.00     0.166 A 
ATOM     24  C   UNL A   1      28.712  27.412  23.417  1.00  0.00     0.054 A 
ATOM     25  C   UNL A   1      29.903  25.242  23.500  1.00  0.00     0.045 C 
ATOM     26  C   UNL A   1      28.668  28.766  23.173  1.00  0.00     0.166 A 
ATOM     27  O   UNL A   1      29.525  30.772  22.552  1.00  0.00    -0.454 OA
ATOM     28  O   UNL A   1      27.606  29.583  23.398  1.00  0.00    -0.454 OA
ATOM     29  C   UNL A   1      28.191  30.867  23.092  1.00  0.00     0.468 C 
ENDBRANCH  19  20
ENDBRANCH   8  19
ENDBRANCH   3   5
ENDBRANCH   2   3
ENDBRANCH   1   2
BRANCH   1  30
ATOM     30  C   UNL A   1      31.804  30.840  26.505  1.00  0.00     0.275 C 
BRANCH  30  31
ATOM     31  O   UNL A   1      33.225  31.041  26.584  1.00  0.00    -0.458 OA
BRANCH  31  32
ATOM     32  C   UNL A   1      33.609  32.085  27.348  1.00  0.00     0.338 C 
ATOM     33  O   UNL A   1      32.976  33.095  27.618  1.00  0.00    -0.246 OA
BRANCH  32  34
ATOM     34  C   UNL A   1      34.880  31.709  27.969  1.00  0.00     0.060 A 
ATOM     35  C   UNL A   1      35.027  30.395  28.411  1.00  0.00     0.016 A 
ATOM     36  C   UNL A   1      35.909  32.630  28.127  1.00  0.00     0.016 A 
ATOM     37  C   UNL A   1      36.185  29.999  29.071  1.00  0.00     0.010 A 
ATOM     38  C   UNL A   1      37.088  32.224  28.757  1.00  0.00     0.010 A 
ATOM     39  C   UNL A   1      37.221  30.914  29.256  1.00  0.00    -0.014 A 
BRANCH  39  40
ATOM     40  C   UNL A   1      38.416  30.536  30.045  1.00  0.00     0.031 A 
ATOM     41  C   UNL A   1      39.415  29.594  29.444  1.00  0.00     0.074 A 
ATOM     42  C   UNL A   1      38.598  31.024  31.285  1.00  0.00     0.049 A 
ATOM     43  N   UNL A   1      40.396  28.946  30.015  1.00  0.00    -0.248 NA
ATOM     44  C   UNL A   1      39.280  29.336  28.001  1.00  0.00     0.031 C 
ATOM     45  C   UNL A   1      37.742  32.013  31.941  1.00  0.00     0.029 A 
ATOM     46  N   UNL A   1      39.558  30.737  32.222  1.00  0.00    -0.354 N 
ATOM     47  C   UNL A   1      40.956  28.158  29.019  1.00  0.00     0.074 A 
ATOM     48  C   UNL A   1      40.211  28.414  27.804  1.00  0.00     0.031 C 
ATOM     49  C   UNL A   1      38.212  32.247  33.176  1.00  0.00     0.029 A 
ATOM     50  C   UNL A   1      39.357  31.373  33.422  1.00  0.00     0.049 A 
ATOM     51  H   UNL A   1      40.317  30.133  32.052  1.00  0.00     0.167 HD
ATOM     52  C   UNL A   1      41.992  27.293  29.122  1.00  0.00     0.037 A 
ATOM     53  C   UNL A   1      39.995  31.229  34.598  1.00  0.00     0.037 A 
ATOM     54  C   UNL A   1      42.747  27.085  30.329  1.00  0.00     0.049 A 
ATOM     55  C   UNL A   1      41.111  30.225  34.700  1.00  0.00     0.074 A 
ATOM     56  C   UNL A   1      43.827  26.248  30.542  1.00  0.00     0.029 A 
ATOM     57  N   UNL A   1      42.501  27.734  31.532  1.00  0.00    -0.354 N 
ATOM     58  N   UNL A   1      41.610  29.444  33.773  1.00  0.00    -0.248 NA
ATOM     59  C   UNL A   1      41.742  30.071  36.018  1.00  0.00     0.031 C 
ATOM     60  C   UNL A   1      44.210  26.362  31.883  1.00  0.00     0.029 A 
ATOM     61  C   UNL A   1      43.398  27.304  32.495  1.00  0.00     0.049 A 
ATOM     62  H   UNL A   1      41.792  28.402  31.678  1.00  0.00     0.167 HD
ATOM     63  C   UNL A   1      42.625  28.722  34.384  1.00  0.00     0.074 A 
ATOM     64  C   UNL A   1      42.679  29.168  35.762  1.00  0.00     0.031 C 
ATOM     65  C   UNL A   1      43.436  27.773  33.857  1.00  0.00     0.037 A 
BRANCH  52  66
ATOM     66  C   UNL A   1      42.333  26.474  27.911  1.00  0.00     0.064 A 
ATOM     67  C   UNL A   1      41.706  25.251  27.638  1.00  0.00     0.173 A 
ATOM     68  C   UNL A   1      43.298  26.935  27.002  1.00  0.00     0.173 A 
ATOM     69  F   UNL A   1      40.790  24.757  28.484  1.00  0.00    -0.203 F 
ATOM     70  C   UNL A   1      42.053  24.505  26.513  1.00  0.00     0.198 A 
ATOM     71  C   UNL A   1      43.622  26.201  25.864  1.00  0.00     0.198 A 
ATOM     72  F   UNL A   1      43.927  28.101  27.216  1.00  0.00    -0.203 F 
ATOM     73  F   UNL A   1      41.477  23.314  26.298  1.00  0.00    -0.200 F 
ATOM     74  C   UNL A   1      43.005  24.983  25.625  1.00  0.00     0.200 A 
ATOM     75  F   UNL A   1      44.535  26.670  25.004  1.00  0.00    -0.200 F 
ATOM     76  F   UNL A   1      43.335  24.265  24.543  1.00  0.00    -0.200 F 
ENDBRANCH  52  66
BRANCH  53  77
ATOM     77  C   UNL A   1      39.572  32.028  35.776  1.00  0.00     0.064 A 
ATOM     78  C   UNL A   1      38.539  31.581  36.612  1.00  0.00     0.173 A 
ATOM     79  C   UNL A   1      40.188  33.248  36.095  1.00  0.00     0.173 A 
ATOM     80  F   UNL A   1      37.901  30.436  36.334  1.00  0.00    -0.203 F 
ATOM     81  C   UNL A   1      38.133  32.328  37.717  1.00  0.00     0.198 A 
ATOM     82  C   UNL A   1      39.800  33.979  37.216  1.00  0.00     0.198 A 
ATOM     83  F   UNL A   1      41.178  33.721  35.326  1.00  0.00    -0.203 F 
ATOM     84  F   UNL A   1      37.117  31.898  38.477  1.00  0.00    -0.200 F 
ATOM     85  C   UNL A   1      38.770  33.523  38.022  1.00  0.00     0.200 A 
ATOM     86  F   UNL A   1      40.425  35.127  37.514  1.00  0.00    -0.200 F 
ATOM     87  F   UNL A   1      38.383  34.236  39.089  1.00  0.00    -0.200 F 
ENDBRANCH  53  77
BRANCH  65  88
ATOM     88  C   UNL A   1      44.478  27.187  34.763  1.00  0.00     0.064 A 
ATOM     89  C   UNL A   1      44.251  25.999  35.472  1.00  0.00     0.173 A 
ATOM     90  C   UNL A   1      45.731  27.804  34.892  1.00  0.00     0.173 A 
ATOM     91  F   UNL A   1      43.062  25.382  35.393  1.00  0.00    -0.203 F 
ATOM     92  C   UNL A   1      45.236  25.461  36.296  1.00  0.00     0.198 A 
ATOM     93  C   UNL A   1      46.722  27.248  35.695  1.00  0.00     0.198 A 
ATOM     94  F   UNL A   1      45.998  28.939  34.229  1.00  0.00    -0.203 F 
ATOM     95  F   UNL A   1      44.983  24.348  36.998  1.00  0.00    -0.200 F 
ATOM     96  C   UNL A   1      46.471  26.082  36.401  1.00  0.00     0.200 A 
ATOM     97  F   UNL A   1      47.919  27.843  35.787  1.00  0.00    -0.200 F 
ATOM     98  F   UNL A   1      47.420  25.558  37.190  1.00  0.00    -0.200 F 
ENDBRANCH  65  88
ENDBRANCH  39  40
ENDBRANCH  32  34
ENDBRANCH  31  32
ENDBRANCH  30  31
ENDBRANCH   1  30
TORSDOF 15
ENDMDL
MODEL 3
REMARK VINA RESULT:     -13.1      1.454      4.511
REMARK SMILES COc1ccccc1[C@@H]1C[N@@H+](Cc2cc3c(cc2C)OCO3)C[C@H]1C(=O)OCCOC(=O)c1ccc(-c2c3nc(c(-c4c(F)c(F)c(F)c(F)c4F)c4ccc([nH]4)c(-c4c(F)c(F)c(F)c(F)c4F)c4nc(c(-c5c(F)c(F)c(F)c(F)c5F)c5ccc2[nH]5)C=C4)C=C3)cc1
REMARK SMILES IDX 28 1 27 2 25 3 26 4 24 5 9 6 10 7 11 8 23 9 8 11 3 12 4 13
REMARK SMILES IDX 5 14 7 15 6 16 2 17 1 18 12 19 13 20 14 21 18 22 15 23 17 24
REMARK SMILES IDX 19 25 16 26 22 27 20 28 21 29 29 30 30 31 31 32 32 33 33 34
REMARK SMILES IDX 34 35 95 36 35 37 94 38 36 39 37 40 38 41 88 42 39 43 93 44
REMARK SMILES IDX 87 45 89 46 40 47 92 48 86 49 85 50 41 52 73 53 53 54 72 55
REMARK SMILES IDX 54 56 57 57 71 58 90 59 55 60 56 61 70 63 91 64 58 65 42 66
REMARK SMILES IDX 43 67 51 68 44 69 45 70 49 71 52 72 46 73 47 74 50 75 48 76
REMARK SMILES IDX 74 77 75 78 83 79 76 80 77 81 81 82 84 83 78 84 79 85 82 86
REMARK SMILES IDX 80 87 59 88 60 89 68 90 61 91 62 92 66 93 69 94 63 95 64 96
REMARK SMILES IDX 67 97 65 98
REMARK H PARENT 11 10 89 51 57 62
REMARK Flexibility Score: inf
ROOT
ATOM      1  C   UNL A   1      32.095  27.835  26.922  1.00  0.00     0.274 C 
ENDROOT
BRANCH   1   2
ATOM      2  O   UNL A   1      30.888  27.051  26.812  1.00  0.00    -0.462 OA
BRANCH   2   3
ATOM      3  C   UNL A   1      31.045  25.799  26.318  1.00  0.00     0.315 C 
ATOM      4  O   UNL A   1      31.549  24.874  26.948  1.00  0.00    -0.252 OA
BRANCH   3   5
ATOM      5  C   UNL A   1      30.453  25.592  24.934  1.00  0.00     0.167 C 
ATOM      6  C   UNL A   1      31.003  26.429  23.774  1.00  0.00     0.098 C 
ATOM      7  C   UNL A   1      31.231  25.429  22.631  1.00  0.00     0.272 C 
ATOM      8  N   UNL A   1      31.418  24.123  23.253  1.00  0.00    -0.330 N 
ATOM      9  C   UNL A   1      30.664  24.136  24.507  1.00  0.00     0.278 C 
ATOM     10  H   UNL A   1      31.040  23.395  22.647  1.00  0.00     0.348 HD
BRANCH   6  11
ATOM     11  C   UNL A   1      30.248  27.648  23.260  1.00  0.00     0.004 A 
ATOM     12  C   UNL A   1      30.768  28.799  22.637  1.00  0.00     0.122 A 
ATOM     13  C   UNL A   1      29.898  29.820  22.206  1.00  0.00     0.047 A 
ATOM     14  C   UNL A   1      28.518  29.725  22.390  1.00  0.00     0.004 A 
ATOM     15  C   UNL A   1      28.845  27.593  23.450  1.00  0.00     0.008 A 
ATOM     16  C   UNL A   1      27.990  28.604  23.009  1.00  0.00     0.001 A 
BRANCH  12  17
ATOM     17  O   UNL A   1      32.039  28.925  22.144  1.00  0.00    -0.496 OA
ATOM     18  C   UNL A   1      33.117  28.910  23.066  1.00  0.00     0.278 C 
ENDBRANCH  12  17
ENDBRANCH   6  11
BRANCH   8  19
ATOM     19  C   UNL A   1      32.804  23.648  23.332  1.00  0.00     0.299 C 
BRANCH  19  20
ATOM     20  C   UNL A   1      33.053  22.262  23.905  1.00  0.00     0.013 A 
ATOM     21  C   UNL A   1      32.427  21.169  23.259  1.00  0.00     0.060 A 
ATOM     22  C   UNL A   1      33.850  22.013  25.058  1.00  0.00    -0.038 A 
ATOM     23  C   UNL A   1      32.655  19.891  23.721  1.00  0.00     0.166 A 
ATOM     24  C   UNL A   1      34.082  20.684  25.474  1.00  0.00     0.054 A 
ATOM     25  C   UNL A   1      34.487  23.092  25.893  1.00  0.00     0.045 C 
ATOM     26  C   UNL A   1      33.478  19.654  24.789  1.00  0.00     0.166 A 
ATOM     27  O   UNL A   1      32.122  18.750  23.211  1.00  0.00    -0.454 OA
ATOM     28  O   UNL A   1      33.588  18.331  25.078  1.00  0.00    -0.454 OA
ATOM     29  C   UNL A   1      32.650  17.774  24.133  1.00  0.00     0.468 C 
ENDBRANCH  19  20
ENDBRANCH   8  19
ENDBRANCH   3   5
ENDBRANCH   2   3
ENDBRANCH   1   2
BRANCH   1  30
ATOM     30  C   UNL A   1      31.786  29.303  26.637  1.00  0.00     0.275 C 
BRANCH  30  31
ATOM     31  O   UNL A   1      33.023  29.952  26.295  1.00  0.00    -0.458 OA
BRANCH  31  32
ATOM     32  C   UNL A   1      33.285  31.076  26.993  1.00  0.00     0.338 C 
ATOM     33  O   UNL A   1      32.539  32.019  27.212  1.00  0.00    -0.246 OA
BRANCH  32  34
ATOM     34  C   UNL A   1      34.596  30.889  27.618  1.00  0.00     0.060 A 
ATOM     35  C   UNL A   1      34.975  29.594  27.965  1.00  0.00     0.016 A 
ATOM     36  C   UNL A   1      35.437  31.968  27.872  1.00  0.00     0.016 A 
ATOM     37  C   UNL A   1      36.177  29.364  28.624  1.00  0.00     0.010 A 
ATOM     38  C   UNL A   1      36.662  31.734  28.501  1.00  0.00     0.010 A 
ATOM     39  C   UNL A   1      37.026  30.434  28.905  1.00  0.00    -0.014 A 
BRANCH  39  40
ATOM     40  C   UNL A   1      38.260  30.219  29.695  1.00  0.00     0.031 A 
ATOM     41  C   UNL A   1      39.343  29.352  29.128  1.00  0.00     0.074 A 
ATOM     42  C   UNL A   1      38.402  30.785  30.907  1.00  0.00     0.049 A 
ATOM     43  N   UNL A   1      40.390  28.836  29.717  1.00  0.00    -0.248 NA
ATOM     44  C   UNL A   1      39.222  29.009  27.701  1.00  0.00     0.031 C 
ATOM     45  C   UNL A   1      37.457  31.716  31.524  1.00  0.00     0.029 A 
ATOM     46  N   UNL A   1      39.395  30.644  31.844  1.00  0.00    -0.354 N 
ATOM     47  C   UNL A   1      41.018  28.059  28.754  1.00  0.00     0.074 A 
ATOM     48  C   UNL A   1      40.241  28.176  27.538  1.00  0.00     0.031 C 
ATOM     49  C   UNL A   1      37.912  32.058  32.740  1.00  0.00     0.029 A 
ATOM     50  C   UNL A   1      39.140  31.318  33.012  1.00  0.00     0.049 A 
ATOM     51  H   UNL A   1      40.209  30.112  31.693  1.00  0.00     0.167 HD
ATOM     52  C   UNL A   1      42.137  27.308  28.885  1.00  0.00     0.037 A 
ATOM     53  C   UNL A   1      39.800  31.298  34.185  1.00  0.00     0.037 A 
ATOM     54  C   UNL A   1      42.919  27.239  30.091  1.00  0.00     0.049 A 
ATOM     55  C   UNL A   1      41.013  30.418  34.322  1.00  0.00     0.074 A 
ATOM     56  C   UNL A   1      44.080  26.526  30.330  1.00  0.00     0.029 A 
ATOM     57  N   UNL A   1      42.619  27.921  31.263  1.00  0.00    -0.354 N 
ATOM     58  N   UNL A   1      41.580  29.644  33.428  1.00  0.00    -0.248 NA
ATOM     59  C   UNL A   1      41.668  30.395  35.637  1.00  0.00     0.031 C 
ATOM     60  C   UNL A   1      44.461  26.747  31.659  1.00  0.00     0.029 A 
ATOM     61  C   UNL A   1      43.564  27.632  32.234  1.00  0.00     0.049 A 
ATOM     62  H   UNL A   1      41.848  28.521  31.385  1.00  0.00     0.167 HD
ATOM     63  C   UNL A   1      42.667  29.060  34.061  1.00  0.00     0.074 A 
ATOM     64  C   UNL A   1      42.689  29.578  35.414  1.00  0.00     0.031 C 
ATOM     65  C   UNL A   1      43.566  28.172  33.570  1.00  0.00     0.037 A 
BRANCH  52  66
ATOM     66  C   UNL A   1      42.548  26.467  27.713  1.00  0.00     0.064 A 
ATOM     67  C   UNL A   1      41.998  25.200  27.474  1.00  0.00     0.173 A 
ATOM     68  C   UNL A   1      43.502  26.951  26.803  1.00  0.00     0.173 A 
ATOM     69  F   UNL A   1      41.097  24.684  28.322  1.00  0.00    -0.203 F 
ATOM     70  C   UNL A   1      42.410  24.435  26.385  1.00  0.00     0.198 A 
ATOM     71  C   UNL A   1      43.890  26.195  25.700  1.00  0.00     0.198 A 
ATOM     72  F   UNL A   1      44.058  28.158  26.984  1.00  0.00    -0.203 F 
ATOM     73  F   UNL A   1      41.909  23.205  26.205  1.00  0.00    -0.200 F 
ATOM     74  C   UNL A   1      43.350  24.936  25.496  1.00  0.00     0.200 A 
ATOM     75  F   UNL A   1      44.791  26.686  24.838  1.00  0.00    -0.200 F 
ATOM     76  F   UNL A   1      43.742  24.199  24.448  1.00  0.00    -0.200 F 
ENDBRANCH  52  66
BRANCH  53  77
ATOM     77  C   UNL A   1      39.309  32.110  35.328  1.00  0.00     0.064 A 
ATOM     78  C   UNL A   1      39.650  33.464  35.445  1.00  0.00     0.173 A 
ATOM     79  C   UNL A   1      38.489  31.555  36.323  1.00  0.00     0.173 A 
ATOM     80  F   UNL A   1      40.453  34.032  34.535  1.00  0.00    -0.203 F 
ATOM     81  C   UNL A   1      39.197  34.231  36.518  1.00  0.00     0.198 A 
ATOM     82  C   UNL A   1      38.013  32.330  37.379  1.00  0.00     0.198 A 
ATOM     83  F   UNL A   1      38.136  30.263  36.260  1.00  0.00    -0.203 F 
ATOM     84  F   UNL A   1      39.570  35.513  36.627  1.00  0.00    -0.200 F 
ATOM     85  C   UNL A   1      38.373  33.664  37.480  1.00  0.00     0.200 A 
ATOM     86  F   UNL A   1      37.209  31.782  38.300  1.00  0.00    -0.200 F 
ATOM     87  F   UNL A   1      37.932  34.404  38.507  1.00  0.00    -0.200 F 
ENDBRANCH  53  77
BRANCH  65  88
ATOM     88  C   UNL A   1      44.669  27.740  34.490  1.00  0.00     0.064 A 
ATOM     89  C   UNL A   1      44.561  26.584  35.276  1.00  0.00     0.173 A 
ATOM     90  C   UNL A   1      45.864  28.473  34.555  1.00  0.00     0.173 A 
ATOM     91  F   UNL A   1      43.431  25.860  35.260  1.00  0.00    -0.203 F 
ATOM     92  C   UNL A   1      45.602  26.190  36.112  1.00  0.00     0.198 A 
ATOM     93  C   UNL A   1      46.912  28.060  35.371  1.00  0.00     0.198 A 
ATOM     94  F   UNL A   1      46.017  29.583  33.817  1.00  0.00    -0.203 F 
ATOM     95  F   UNL A   1      45.461  25.106  36.888  1.00  0.00    -0.200 F 
ATOM     96  C   UNL A   1      46.778  26.924  36.154  1.00  0.00     0.200 A 
ATOM     97  F   UNL A   1      48.052  28.764  35.402  1.00  0.00    -0.200 F 
ATOM     98  F   UNL A   1      47.781  26.539  36.954  1.00  0.00    -0.200 F 
ENDBRANCH  65  88
ENDBRANCH  39  40
ENDBRANCH  32  34
ENDBRANCH  31  32
ENDBRANCH  30  31
ENDBRANCH   1  30
TORSDOF 15
ENDMDL
