MODEL 1
REMARK VINA RESULT:     -11.2      0.000      0.000
REMARK SMILES CCOc1cc(/C=C(/F)C(=O)OCCOC(=O)c2ccc(-c3c4nc(c(-c5c(F)c(F)c(F)c(F)c5F)c5ccc([nH]5)c(-c5c(F)c(F)c(F)c(F)c5F)c5nc(c(-c6c(F)c(F)c(F)c(F)c6F)c6ccc3[nH]6)C=C5)C=C4)cc2)ccc1O
REMARK SMILES IDX 13 1 12 2 10 3 11 4 8 5 7 6 9 7 6 8 4 9 5 10 83 11 82 12
REMARK SMILES IDX 81 13 3 14 2 15 1 16 84 17 14 19 15 20 16 21 17 22 18 23
REMARK SMILES IDX 19 24 80 25 20 26 79 27 21 28 22 29 23 30 73 31 24 32 78 33
REMARK SMILES IDX 72 34 74 35 25 36 77 37 71 38 70 39 26 41 58 42 38 43 57 44
REMARK SMILES IDX 39 45 42 46 56 47 75 48 40 49 41 50 55 52 76 53 43 54 27 55
REMARK SMILES IDX 28 56 36 57 29 58 30 59 34 60 37 61 31 62 32 63 35 64 33 65
REMARK SMILES IDX 59 66 60 67 68 68 61 69 62 70 66 71 69 72 63 73 64 74 67 75
REMARK SMILES IDX 65 76 44 77 45 78 53 79 46 80 47 81 51 82 54 83 48 84 49 85
REMARK SMILES IDX 52 86 50 87
REMARK H PARENT 84 18 74 40 42 51
REMARK Flexibility Score: inf
ROOT
ATOM      1  C   UNL A   1      38.533  20.889  25.497  1.00  0.00     0.275 C 
ENDROOT
BRANCH   1   2
ATOM      2  O   UNL A   1      37.150  20.597  25.268  1.00  0.00    -0.457 OA
BRANCH   2   3
ATOM      3  C   UNL A   1      36.389  21.659  24.897  1.00  0.00     0.367 C 
ATOM      4  O   UNL A   1      36.491  22.319  23.886  1.00  0.00    -0.243 OA
BRANCH   3   5
ATOM      5  C   UNL A   1      35.278  21.763  25.856  1.00  0.00     0.208 C 
ATOM      6  C   UNL A   1      34.113  21.116  25.744  1.00  0.00     0.055 C 
ATOM      7  F   UNL A   1      35.516  22.547  26.928  1.00  0.00    -0.199 F 
BRANCH   6   8
ATOM      8  C   UNL A   1      33.651  20.164  24.716  1.00  0.00    -0.019 A 
ATOM      9  C   UNL A   1      33.375  17.919  23.730  1.00  0.00     0.161 A 
ATOM     10  C   UNL A   1      34.017  18.807  24.604  1.00  0.00     0.058 A 
ATOM     11  C   UNL A   1      32.446  18.449  22.858  1.00  0.00     0.157 A 
ATOM     12  C   UNL A   1      32.168  19.820  22.853  1.00  0.00     0.051 A 
ATOM     13  C   UNL A   1      32.738  20.664  23.795  1.00  0.00     0.012 A 
BRANCH   9  14
ATOM     14  O   UNL A   1      33.782  16.611  23.800  1.00  0.00    -0.490 OA
BRANCH  14  15
ATOM     15  C   UNL A   1      33.838  15.972  25.084  1.00  0.00     0.226 C 
ATOM     16  C   UNL A   1      32.567  15.188  25.386  1.00  0.00     0.049 C 
ENDBRANCH  14  15
ENDBRANCH   9  14
BRANCH  11  17
ATOM     17  O   UNL A   1      31.777  17.629  22.005  1.00  0.00    -0.504 OA
ATOM     18  H   UNL A   1      31.596  16.744  22.251  1.00  0.00     0.293 HD
ENDBRANCH  11  17
ENDBRANCH   6   8
ENDBRANCH   3   5
ENDBRANCH   2   3
ENDBRANCH   1   2
BRANCH   1  19
ATOM     19  C   UNL A   1      39.333  19.589  25.396  1.00  0.00     0.275 C 
BRANCH  19  20
ATOM     20  O   UNL A   1      40.281  19.429  26.483  1.00  0.00    -0.458 OA
BRANCH  20  21
ATOM     21  C   UNL A   1      41.594  19.629  26.185  1.00  0.00     0.338 C 
ATOM     22  O   UNL A   1      42.368  18.795  25.739  1.00  0.00    -0.246 OA
BRANCH  21  23
ATOM     23  C   UNL A   1      42.000  21.046  26.434  1.00  0.00     0.060 A 
ATOM     24  C   UNL A   1      42.123  21.498  27.755  1.00  0.00     0.016 A 
ATOM     25  C   UNL A   1      42.237  21.950  25.395  1.00  0.00     0.016 A 
ATOM     26  C   UNL A   1      42.544  22.814  28.035  1.00  0.00     0.010 A 
ATOM     27  C   UNL A   1      42.653  23.268  25.675  1.00  0.00     0.010 A 
ATOM     28  C   UNL A   1      42.832  23.716  26.998  1.00  0.00    -0.014 A 
BRANCH  28  29
ATOM     29  C   UNL A   1      43.138  25.163  27.270  1.00  0.00     0.031 A 
ATOM     30  C   UNL A   1      44.520  25.651  26.999  1.00  0.00     0.074 A 
ATOM     31  C   UNL A   1      42.257  26.061  27.759  1.00  0.00     0.049 A 
ATOM     32  N   UNL A   1      44.995  26.861  27.123  1.00  0.00    -0.248 NA
ATOM     33  C   UNL A   1      45.481  24.660  26.495  1.00  0.00     0.031 C 
ATOM     34  C   UNL A   1      40.863  25.782  27.965  1.00  0.00     0.029 A 
ATOM     35  N   UNL A   1      42.358  27.370  28.176  1.00  0.00    -0.354 N 
ATOM     36  C   UNL A   1      46.294  26.794  26.661  1.00  0.00     0.074 A 
ATOM     37  C   UNL A   1      46.554  25.412  26.309  1.00  0.00     0.031 C 
ATOM     38  C   UNL A   1      40.225  26.808  28.533  1.00  0.00     0.029 A 
ATOM     39  C   UNL A   1      41.193  27.868  28.726  1.00  0.00     0.049 A 
ATOM     40  H   UNL A   1      43.184  27.899  28.090  1.00  0.00     0.167 HD
ATOM     41  C   UNL A   1      47.181  27.804  26.527  1.00  0.00     0.037 A 
ATOM     42  C   UNL A   1      40.902  29.042  29.316  1.00  0.00     0.037 A 
ATOM     43  C   UNL A   1      46.947  29.159  26.951  1.00  0.00     0.049 A 
ATOM     44  C   UNL A   1      41.948  30.104  29.301  1.00  0.00     0.074 A 
ATOM     45  C   UNL A   1      47.803  30.242  26.874  1.00  0.00     0.029 A 
ATOM     46  N   UNL A   1      45.787  29.610  27.568  1.00  0.00    -0.354 N 
ATOM     47  N   UNL A   1      43.156  30.039  28.801  1.00  0.00    -0.248 NA
ATOM     48  C   UNL A   1      41.593  31.405  29.877  1.00  0.00     0.031 C 
ATOM     49  C   UNL A   1      47.187  31.333  27.498  1.00  0.00     0.029 A 
ATOM     50  C   UNL A   1      45.924  30.946  27.918  1.00  0.00     0.049 A 
ATOM     51  H   UNL A   1      44.986  29.063  27.734  1.00  0.00     0.167 HD
ATOM     52  C   UNL A   1      43.696  31.300  28.958  1.00  0.00     0.074 A 
ATOM     53  C   UNL A   1      42.681  32.112  29.603  1.00  0.00     0.031 C 
ATOM     54  C   UNL A   1      44.920  31.740  28.582  1.00  0.00     0.037 A 
BRANCH  41  55
ATOM     55  C   UNL A   1      48.499  27.438  25.927  1.00  0.00     0.064 A 
ATOM     56  C   UNL A   1      48.697  27.454  24.538  1.00  0.00     0.173 A 
ATOM     57  C   UNL A   1      49.556  27.022  26.745  1.00  0.00     0.173 A 
ATOM     58  F   UNL A   1      47.699  27.811  23.715  1.00  0.00    -0.203 F 
ATOM     59  C   UNL A   1      49.905  27.038  23.987  1.00  0.00     0.198 A 
ATOM     60  C   UNL A   1      50.771  26.631  26.191  1.00  0.00     0.198 A 
ATOM     61  F   UNL A   1      49.404  26.976  28.076  1.00  0.00    -0.203 F 
ATOM     62  F   UNL A   1      50.057  27.003  22.656  1.00  0.00    -0.200 F 
ATOM     63  C   UNL A   1      50.942  26.631  24.814  1.00  0.00     0.200 A 
ATOM     64  F   UNL A   1      51.770  26.235  26.990  1.00  0.00    -0.200 F 
ATOM     65  F   UNL A   1      52.102  26.221  24.283  1.00  0.00    -0.200 F 
ENDBRANCH  41  55
BRANCH  42  66
ATOM     66  C   UNL A   1      39.553  29.269  29.907  1.00  0.00     0.064 A 
ATOM     67  C   UNL A   1      39.300  29.028  31.264  1.00  0.00     0.173 A 
ATOM     68  C   UNL A   1      38.503  29.786  29.132  1.00  0.00     0.173 A 
ATOM     69  F   UNL A   1      40.268  28.528  32.046  1.00  0.00    -0.203 F 
ATOM     70  C   UNL A   1      38.050  29.292  31.823  1.00  0.00     0.198 A 
ATOM     71  C   UNL A   1      37.259  30.070  29.697  1.00  0.00     0.198 A 
ATOM     72  F   UNL A   1      38.693  30.048  27.831  1.00  0.00    -0.203 F 
ATOM     73  F   UNL A   1      37.832  29.039  33.120  1.00  0.00    -0.200 F 
ATOM     74  C   UNL A   1      37.033  29.820  31.041  1.00  0.00     0.200 A 
ATOM     75  F   UNL A   1      36.286  30.598  28.942  1.00  0.00    -0.200 F 
ATOM     76  F   UNL A   1      35.838  30.091  31.585  1.00  0.00    -0.200 F 
ENDBRANCH  42  66
BRANCH  54  77
ATOM     77  C   UNL A   1      45.218  33.180  28.857  1.00  0.00     0.064 A 
ATOM     78  C   UNL A   1      44.842  34.190  27.961  1.00  0.00     0.173 A 
ATOM     79  C   UNL A   1      45.895  33.551  30.028  1.00  0.00     0.173 A 
ATOM     80  F   UNL A   1      44.219  33.877  26.814  1.00  0.00    -0.203 F 
ATOM     81  C   UNL A   1      45.157  35.520  28.215  1.00  0.00     0.198 A 
ATOM     82  C   UNL A   1      46.182  34.885  30.293  1.00  0.00     0.198 A 
ATOM     83  F   UNL A   1      46.281  32.617  30.911  1.00  0.00    -0.203 F 
ATOM     84  F   UNL A   1      44.840  36.465  27.317  1.00  0.00    -0.200 F 
ATOM     85  C   UNL A   1      45.820  35.868  29.382  1.00  0.00     0.200 A 
ATOM     86  F   UNL A   1      46.818  35.220  31.423  1.00  0.00    -0.200 F 
ATOM     87  F   UNL A   1      46.124  37.150  29.625  1.00  0.00    -0.200 F 
ENDBRANCH  54  77
ENDBRANCH  28  29
ENDBRANCH  21  23
ENDBRANCH  20  21
ENDBRANCH  19  20
ENDBRANCH   1  19
TORSDOF 15
ENDMDL
MODEL 2
REMARK VINA RESULT:     -11.1      6.909     10.609
REMARK SMILES CCOc1cc(/C=C(/F)C(=O)OCCOC(=O)c2ccc(-c3c4nc(c(-c5c(F)c(F)c(F)c(F)c5F)c5ccc([nH]5)c(-c5c(F)c(F)c(F)c(F)c5F)c5nc(c(-c6c(F)c(F)c(F)c(F)c6F)c6ccc3[nH]6)C=C5)C=C4)cc2)ccc1O
REMARK SMILES IDX 13 1 12 2 10 3 11 4 8 5 7 6 9 7 6 8 4 9 5 10 83 11 82 12
REMARK SMILES IDX 81 13 3 14 2 15 1 16 84 17 14 19 15 20 16 21 17 22 18 23
REMARK SMILES IDX 19 24 80 25 20 26 79 27 21 28 22 29 23 30 73 31 24 32 78 33
REMARK SMILES IDX 72 34 74 35 25 36 77 37 71 38 70 39 26 41 58 42 38 43 57 44
REMARK SMILES IDX 39 45 42 46 56 47 75 48 40 49 41 50 55 52 76 53 43 54 27 55
REMARK SMILES IDX 28 56 36 57 29 58 30 59 34 60 37 61 31 62 32 63 35 64 33 65
REMARK SMILES IDX 59 66 60 67 68 68 61 69 62 70 66 71 69 72 63 73 64 74 67 75
REMARK SMILES IDX 65 76 44 77 45 78 53 79 46 80 47 81 51 82 54 83 48 84 49 85
REMARK SMILES IDX 52 86 50 87
REMARK H PARENT 84 18 74 40 42 51
REMARK Flexibility Score: inf
ROOT
ATOM      1  C   UNL A   1      32.124  31.507  26.953  1.00  0.00     0.275 C 
ENDROOT
BRANCH   1   2
ATOM      2  O   UNL A   1      32.977  30.508  26.386  1.00  0.00    -0.457 OA
BRANCH   2   3
ATOM      3  C   UNL A   1      32.358  29.353  26.031  1.00  0.00     0.367 C 
ATOM      4  O   UNL A   1      31.481  28.773  26.635  1.00  0.00    -0.243 OA
BRANCH   3   5
ATOM      5  C   UNL A   1      32.804  29.011  24.672  1.00  0.00     0.208 C 
ATOM      6  C   UNL A   1      31.990  28.814  23.629  1.00  0.00     0.055 C 
ATOM      7  F   UNL A   1      34.142  28.942  24.507  1.00  0.00    -0.199 F 
BRANCH   6   8
ATOM      8  C   UNL A   1      30.520  28.903  23.545  1.00  0.00    -0.019 A 
ATOM      9  C   UNL A   1      28.381  30.077  23.176  1.00  0.00     0.161 A 
ATOM     10  C   UNL A   1      29.752  30.082  23.466  1.00  0.00     0.058 A 
ATOM     11  C   UNL A   1      27.754  28.850  23.107  1.00  0.00     0.157 A 
ATOM     12  C   UNL A   1      28.468  27.665  23.323  1.00  0.00     0.051 A 
ATOM     13  C   UNL A   1      29.842  27.689  23.505  1.00  0.00     0.012 A 
BRANCH   9  14
ATOM     14  O   UNL A   1      27.792  31.308  23.043  1.00  0.00    -0.490 OA
BRANCH  14  15
ATOM     15  C   UNL A   1      28.292  32.209  22.044  1.00  0.00     0.226 C 
ATOM     16  C   UNL A   1      27.975  31.728  20.634  1.00  0.00     0.049 C 
ENDBRANCH  14  15
ENDBRANCH   9  14
BRANCH  11  17
ATOM     17  O   UNL A   1      26.429  28.785  22.807  1.00  0.00    -0.504 OA
ATOM     18  H   UNL A   1      25.798  29.160  23.388  1.00  0.00     0.293 HD
ENDBRANCH  11  17
ENDBRANCH   6   8
ENDBRANCH   3   5
ENDBRANCH   2   3
ENDBRANCH   1   2
BRANCH   1  19
ATOM     19  C   UNL A   1      32.989  32.535  27.685  1.00  0.00     0.275 C 
BRANCH  19  20
ATOM     20  O   UNL A   1      32.430  33.873  27.639  1.00  0.00    -0.458 OA
BRANCH  20  21
ATOM     21  C   UNL A   1      32.927  34.775  28.529  1.00  0.00     0.338 C 
ATOM     22  O   UNL A   1      32.485  35.893  28.746  1.00  0.00    -0.246 OA
BRANCH  21  23
ATOM     23  C   UNL A   1      34.097  34.219  29.274  1.00  0.00     0.060 A 
ATOM     24  C   UNL A   1      35.382  34.363  28.733  1.00  0.00     0.016 A 
ATOM     25  C   UNL A   1      33.956  33.531  30.483  1.00  0.00     0.016 A 
ATOM     26  C   UNL A   1      36.518  33.890  29.423  1.00  0.00     0.010 A 
ATOM     27  C   UNL A   1      35.091  33.053  31.170  1.00  0.00     0.010 A 
ATOM     28  C   UNL A   1      36.391  33.241  30.662  1.00  0.00    -0.014 A 
BRANCH  28  29
ATOM     29  C   UNL A   1      37.568  32.600  31.343  1.00  0.00     0.031 A 
ATOM     30  C   UNL A   1      38.200  31.419  30.689  1.00  0.00     0.074 A 
ATOM     31  C   UNL A   1      38.095  33.004  32.518  1.00  0.00     0.049 A 
ATOM     32  N   UNL A   1      39.244  30.736  31.075  1.00  0.00    -0.248 NA
ATOM     33  C   UNL A   1      37.601  30.968  29.425  1.00  0.00     0.031 C 
ATOM     34  C   UNL A   1      37.678  34.188  33.216  1.00  0.00     0.029 A 
ATOM     35  N   UNL A   1      39.073  32.503  33.349  1.00  0.00    -0.354 N 
ATOM     36  C   UNL A   1      39.465  29.809  30.078  1.00  0.00     0.074 A 
ATOM     37  C   UNL A   1      38.413  29.975  29.096  1.00  0.00     0.031 C 
ATOM     38  C   UNL A   1      38.295  34.320  34.392  1.00  0.00     0.029 A 
ATOM     39  C   UNL A   1      39.202  33.200  34.536  1.00  0.00     0.049 A 
ATOM     40  H   UNL A   1      39.627  31.723  33.118  1.00  0.00     0.167 HD
ATOM     41  C   UNL A   1      40.472  28.913  29.985  1.00  0.00     0.037 A 
ATOM     42  C   UNL A   1      39.960  32.991  35.628  1.00  0.00     0.037 A 
ATOM     43  C   UNL A   1      41.470  28.696  30.999  1.00  0.00     0.049 A 
ATOM     44  C   UNL A   1      40.966  31.893  35.574  1.00  0.00     0.074 A 
ATOM     45  C   UNL A   1      42.513  27.789  30.997  1.00  0.00     0.029 A 
ATOM     46  N   UNL A   1      41.526  29.366  32.215  1.00  0.00    -0.354 N 
ATOM     47  N   UNL A   1      41.202  31.062  34.591  1.00  0.00    -0.248 NA
ATOM     48  C   UNL A   1      41.840  31.726  36.740  1.00  0.00     0.031 C 
ATOM     49  C   UNL A   1      43.164  27.866  32.233  1.00  0.00     0.029 A 
ATOM     50  C   UNL A   1      42.561  28.860  32.989  1.00  0.00     0.049 A 
ATOM     51  H   UNL A   1      40.921  30.093  32.488  1.00  0.00     0.167 HD
ATOM     52  C   UNL A   1      42.280  30.299  34.993  1.00  0.00     0.074 A 
ATOM     53  C   UNL A   1      42.652  30.766  36.316  1.00  0.00     0.031 C 
ATOM     54  C   UNL A   1      42.909  29.312  34.313  1.00  0.00     0.037 A 
BRANCH  41  55
ATOM     55  C   UNL A   1      40.492  28.082  28.744  1.00  0.00     0.064 A 
ATOM     56  C   UNL A   1      39.815  26.855  28.677  1.00  0.00     0.173 A 
ATOM     57  C   UNL A   1      41.234  28.493  27.630  1.00  0.00     0.173 A 
ATOM     58  F   UNL A   1      39.121  26.406  29.734  1.00  0.00    -0.203 F 
ATOM     59  C   UNL A   1      39.904  26.054  27.543  1.00  0.00     0.198 A 
ATOM     60  C   UNL A   1      41.300  27.701  26.488  1.00  0.00     0.198 A 
ATOM     61  F   UNL A   1      41.910  29.651  27.658  1.00  0.00    -0.203 F 
ATOM     62  F   UNL A   1      39.299  24.858  27.519  1.00  0.00    -0.200 F 
ATOM     63  C   UNL A   1      40.643  26.480  26.449  1.00  0.00     0.200 A 
ATOM     64  F   UNL A   1      42.016  28.112  25.433  1.00  0.00    -0.200 F 
ATOM     65  F   UNL A   1      40.736  25.705  25.360  1.00  0.00    -0.200 F 
ENDBRANCH  41  55
BRANCH  42  66
ATOM     66  C   UNL A   1      39.819  33.877  36.817  1.00  0.00     0.064 A 
ATOM     67  C   UNL A   1      40.475  35.113  36.889  1.00  0.00     0.173 A 
ATOM     68  C   UNL A   1      38.975  33.526  37.883  1.00  0.00     0.173 A 
ATOM     69  F   UNL A   1      41.297  35.492  35.900  1.00  0.00    -0.203 F 
ATOM     70  C   UNL A   1      40.298  35.962  37.982  1.00  0.00     0.198 A 
ATOM     71  C   UNL A   1      38.782  34.385  38.966  1.00  0.00     0.198 A 
ATOM     72  F   UNL A   1      38.311  32.362  37.860  1.00  0.00    -0.203 F 
ATOM     73  F   UNL A   1      40.950  37.131  38.032  1.00  0.00    -0.200 F 
ATOM     74  C   UNL A   1      39.446  35.601  39.015  1.00  0.00     0.200 A 
ATOM     75  F   UNL A   1      37.942  34.041  39.951  1.00  0.00    -0.200 F 
ATOM     76  F   UNL A   1      39.261  36.426  40.055  1.00  0.00    -0.200 F 
ENDBRANCH  42  66
BRANCH  54  77
ATOM     77  C   UNL A   1      44.078  28.678  34.996  1.00  0.00     0.064 A 
ATOM     78  C   UNL A   1      45.377  29.183  34.845  1.00  0.00     0.173 A 
ATOM     79  C   UNL A   1      43.897  27.548  35.807  1.00  0.00     0.173 A 
ATOM     80  F   UNL A   1      45.601  30.244  34.055  1.00  0.00    -0.203 F 
ATOM     81  C   UNL A   1      46.459  28.562  35.460  1.00  0.00     0.198 A 
ATOM     82  C   UNL A   1      44.977  26.948  36.445  1.00  0.00     0.198 A 
ATOM     83  F   UNL A   1      42.672  27.026  35.976  1.00  0.00    -0.203 F 
ATOM     84  F   UNL A   1      47.700  29.025  35.255  1.00  0.00    -0.200 F 
ATOM     85  C   UNL A   1      46.258  27.450  36.264  1.00  0.00     0.200 A 
ATOM     86  F   UNL A   1      44.781  25.877  37.225  1.00  0.00    -0.200 F 
ATOM     87  F   UNL A   1      47.301  26.852  36.856  1.00  0.00    -0.200 F 
ENDBRANCH  54  77
ENDBRANCH  28  29
ENDBRANCH  21  23
ENDBRANCH  20  21
ENDBRANCH  19  20
ENDBRANCH   1  19
TORSDOF 15
ENDMDL
MODEL 3
REMARK VINA RESULT:     -10.9      6.816     11.744
REMARK SMILES CCOc1cc(/C=C(/F)C(=O)OCCOC(=O)c2ccc(-c3c4nc(c(-c5c(F)c(F)c(F)c(F)c5F)c5ccc([nH]5)c(-c5c(F)c(F)c(F)c(F)c5F)c5nc(c(-c6c(F)c(F)c(F)c(F)c6F)c6ccc3[nH]6)C=C5)C=C4)cc2)ccc1O
REMARK SMILES IDX 13 1 12 2 10 3 11 4 8 5 7 6 9 7 6 8 4 9 5 10 83 11 82 12
REMARK SMILES IDX 81 13 3 14 2 15 1 16 84 17 14 19 15 20 16 21 17 22 18 23
REMARK SMILES IDX 19 24 80 25 20 26 79 27 21 28 22 29 23 30 73 31 24 32 78 33
REMARK SMILES IDX 72 34 74 35 25 36 77 37 71 38 70 39 26 41 58 42 38 43 57 44
REMARK SMILES IDX 39 45 42 46 56 47 75 48 40 49 41 50 55 52 76 53 43 54 27 55
REMARK SMILES IDX 28 56 36 57 29 58 30 59 34 60 37 61 31 62 32 63 35 64 33 65
REMARK SMILES IDX 59 66 60 67 68 68 61 69 62 70 66 71 69 72 63 73 64 74 67 75
REMARK SMILES IDX 65 76 44 77 45 78 53 79 46 80 47 81 51 82 54 83 48 84 49 85
REMARK SMILES IDX 52 86 50 87
REMARK H PARENT 84 18 74 40 42 51
REMARK Flexibility Score: inf
ROOT
ATOM      1  C   UNL A   1      31.902  31.726  26.645  1.00  0.00     0.275 C 
ENDROOT
BRANCH   1   2
ATOM      2  O   UNL A   1      32.796  30.759  26.083  1.00  0.00    -0.457 OA
BRANCH   2   3
ATOM      3  C   UNL A   1      32.258  29.532  25.866  1.00  0.00     0.367 C 
ATOM      4  O   UNL A   1      31.468  28.941  26.570  1.00  0.00    -0.243 OA
BRANCH   3   5
ATOM      5  C   UNL A   1      32.656  29.107  24.515  1.00  0.00     0.208 C 
ATOM      6  C   UNL A   1      31.804  28.823  23.524  1.00  0.00     0.055 C 
ATOM      7  F   UNL A   1      33.987  29.053  24.299  1.00  0.00    -0.199 F 
BRANCH   6   8
ATOM      8  C   UNL A   1      30.330  28.877  23.495  1.00  0.00    -0.019 A 
ATOM      9  C   UNL A   1      28.152  29.994  23.184  1.00  0.00     0.161 A 
ATOM     10  C   UNL A   1      29.533  30.037  23.418  1.00  0.00     0.058 A 
ATOM     11  C   UNL A   1      27.551  28.752  23.170  1.00  0.00     0.157 A 
ATOM     12  C   UNL A   1      28.300  27.589  23.386  1.00  0.00     0.051 A 
ATOM     13  C   UNL A   1      29.680  27.648  23.512  1.00  0.00     0.012 A 
BRANCH   9  14
ATOM     14  O   UNL A   1      27.530  31.208  23.044  1.00  0.00    -0.490 OA
BRANCH  14  15
ATOM     15  C   UNL A   1      28.046  32.143  22.086  1.00  0.00     0.226 C 
ATOM     16  C   UNL A   1      28.025  31.579  20.671  1.00  0.00     0.049 C 
ENDBRANCH  14  15
ENDBRANCH   9  14
BRANCH  11  17
ATOM     17  O   UNL A   1      26.218  28.650  22.924  1.00  0.00    -0.504 OA
ATOM     18  H   UNL A   1      25.689  28.074  23.440  1.00  0.00     0.293 HD
ENDBRANCH  11  17
ENDBRANCH   6   8
ENDBRANCH   3   5
ENDBRANCH   2   3
ENDBRANCH   1   2
BRANCH   1  19
ATOM     19  C   UNL A   1      32.679  32.598  27.633  1.00  0.00     0.275 C 
BRANCH  19  20
ATOM     20  O   UNL A   1      32.249  33.984  27.616  1.00  0.00    -0.458 OA
BRANCH  20  21
ATOM     21  C   UNL A   1      32.852  34.823  28.502  1.00  0.00     0.338 C 
ATOM     22  O   UNL A   1      32.499  35.960  28.774  1.00  0.00    -0.246 OA
BRANCH  21  23
ATOM     23  C   UNL A   1      34.021  34.168  29.164  1.00  0.00     0.060 A 
ATOM     24  C   UNL A   1      35.288  34.273  28.573  1.00  0.00     0.016 A 
ATOM     25  C   UNL A   1      33.895  33.427  30.343  1.00  0.00     0.016 A 
ATOM     26  C   UNL A   1      36.425  33.706  29.186  1.00  0.00     0.010 A 
ATOM     27  C   UNL A   1      35.031  32.856  30.953  1.00  0.00     0.010 A 
ATOM     28  C   UNL A   1      36.315  33.001  30.396  1.00  0.00    -0.014 A 
BRANCH  28  29
ATOM     29  C   UNL A   1      37.485  32.265  30.990  1.00  0.00     0.031 A 
ATOM     30  C   UNL A   1      38.008  32.725  32.307  1.00  0.00     0.074 A 
ATOM     31  C   UNL A   1      38.113  31.220  30.412  1.00  0.00     0.049 A 
ATOM     32  N   UNL A   1      38.977  32.217  33.021  1.00  0.00    -0.248 NA
ATOM     33  C   UNL A   1      37.336  33.882  32.914  1.00  0.00     0.031 C 
ATOM     34  C   UNL A   1      37.665  30.585  29.204  1.00  0.00     0.029 A 
ATOM     35  N   UNL A   1      39.241  30.493  30.722  1.00  0.00    -0.354 N 
ATOM     36  C   UNL A   1      38.999  32.954  34.186  1.00  0.00     0.074 A 
ATOM     37  C   UNL A   1      37.987  33.984  34.063  1.00  0.00     0.031 C 
ATOM     38  C   UNL A   1      38.504  29.631  28.797  1.00  0.00     0.029 A 
ATOM     39  C   UNL A   1      39.586  29.565  29.758  1.00  0.00     0.049 A 
ATOM     40  H   UNL A   1      39.754  30.624  31.553  1.00  0.00     0.167 HD
ATOM     41  C   UNL A   1      39.785  32.771  35.270  1.00  0.00     0.037 A 
ATOM     42  C   UNL A   1      40.638  28.735  29.638  1.00  0.00     0.037 A 
ATOM     43  C   UNL A   1      40.843  31.800  35.358  1.00  0.00     0.049 A 
ATOM     44  C   UNL A   1      41.593  28.656  30.780  1.00  0.00     0.074 A 
ATOM     45  C   UNL A   1      41.706  31.564  36.412  1.00  0.00     0.029 A 
ATOM     46  N   UNL A   1      41.210  30.929  34.339  1.00  0.00    -0.354 N 
ATOM     47  N   UNL A   1      41.560  29.321  31.907  1.00  0.00    -0.248 NA
ATOM     48  C   UNL A   1      42.691  27.690  30.671  1.00  0.00     0.031 C 
ATOM     49  C   UNL A   1      42.633  30.594  36.011  1.00  0.00     0.029 A 
ATOM     50  C   UNL A   1      42.316  30.186  34.726  1.00  0.00     0.049 A 
ATOM     51  H   UNL A   1      40.753  30.851  33.471  1.00  0.00     0.167 HD
ATOM     52  C   UNL A   1      42.604  28.830  32.664  1.00  0.00     0.074 A 
ATOM     53  C   UNL A   1      43.255  27.807  31.866  1.00  0.00     0.031 C 
ATOM     54  C   UNL A   1      42.973  29.189  33.916  1.00  0.00     0.037 A 
BRANCH  41  55
ATOM     55  C   UNL A   1      39.531  33.689  36.421  1.00  0.00     0.064 A 
ATOM     56  C   UNL A   1      40.139  34.951  36.496  1.00  0.00     0.173 A 
ATOM     57  C   UNL A   1      38.712  33.282  37.481  1.00  0.00     0.173 A 
ATOM     58  F   UNL A   1      40.961  35.366  35.519  1.00  0.00    -0.203 F 
ATOM     59  C   UNL A   1      39.955  35.764  37.609  1.00  0.00     0.198 A 
ATOM     60  C   UNL A   1      38.510  34.109  38.581  1.00  0.00     0.198 A 
ATOM     61  F   UNL A   1      38.124  32.076  37.458  1.00  0.00    -0.203 F 
ATOM     62  F   UNL A   1      40.591  36.942  37.690  1.00  0.00    -0.200 F 
ATOM     63  C   UNL A   1      39.138  35.344  38.648  1.00  0.00     0.200 A 
ATOM     64  F   UNL A   1      37.723  33.702  39.585  1.00  0.00    -0.200 F 
ATOM     65  F   UNL A   1      38.968  36.124  39.725  1.00  0.00    -0.200 F 
ENDBRANCH  41  55
BRANCH  42  66
ATOM     66  C   UNL A   1      40.792  27.893  28.418  1.00  0.00     0.064 A 
ATOM     67  C   UNL A   1      40.171  26.642  28.311  1.00  0.00     0.173 A 
ATOM     68  C   UNL A   1      41.522  28.354  27.310  1.00  0.00     0.173 A 
ATOM     69  F   UNL A   1      39.468  26.154  29.344  1.00  0.00    -0.203 F 
ATOM     70  C   UNL A   1      40.275  25.882  27.147  1.00  0.00     0.198 A 
ATOM     71  C   UNL A   1      41.608  27.602  26.138  1.00  0.00     0.198 A 
ATOM     72  F   UNL A   1      42.126  29.550  27.353  1.00  0.00    -0.203 F 
ATOM     73  F   UNL A   1      39.684  24.682  27.077  1.00  0.00    -0.200 F 
ATOM     74  C   UNL A   1      40.987  26.365  26.059  1.00  0.00     0.200 A 
ATOM     75  F   UNL A   1      42.279  28.082  25.083  1.00  0.00    -0.200 F 
ATOM     76  F   UNL A   1      41.071  25.642  24.933  1.00  0.00    -0.200 F 
ENDBRANCH  42  66
BRANCH  54  77
ATOM     77  C   UNL A   1      44.137  28.453  34.501  1.00  0.00     0.064 A 
ATOM     78  C   UNL A   1      45.448  28.932  34.367  1.00  0.00     0.173 A 
ATOM     79  C   UNL A   1      43.937  27.252  35.196  1.00  0.00     0.173 A 
ATOM     80  F   UNL A   1      45.687  30.062  33.684  1.00  0.00    -0.203 F 
ATOM     81  C   UNL A   1      46.522  28.218  34.887  1.00  0.00     0.198 A 
ATOM     82  C   UNL A   1      45.012  26.557  35.741  1.00  0.00     0.198 A 
ATOM     83  F   UNL A   1      42.701  26.752  35.343  1.00  0.00    -0.203 F 
ATOM     84  F   UNL A   1      47.773  28.663  34.698  1.00  0.00    -0.200 F 
ATOM     85  C   UNL A   1      46.304  27.036  35.578  1.00  0.00     0.200 A 
ATOM     86  F   UNL A   1      44.799  25.418  36.412  1.00  0.00    -0.200 F 
ATOM     87  F   UNL A   1      47.340  26.349  36.078  1.00  0.00    -0.200 F 
ENDBRANCH  54  77
ENDBRANCH  28  29
ENDBRANCH  21  23
ENDBRANCH  20  21
ENDBRANCH  19  20
ENDBRANCH   1  19
TORSDOF 15
ENDMDL
