MODEL 1
REMARK VINA RESULT:     -13.6      0.000      0.000
REMARK SMILES Cc1ccc(-c2cc(C(=O)OCCOC(=O)c3ccc(-c4c5nc(c(-c6c(F)c(F)c(F)c(F)c6F)c6ccc([nH]6)c(-c6c(F)c(F)c(F)c(F)c6F)c6nc(c(-c7c(F)c(F)c(F)c(F)c7F)c7ccc4[nH]7)C=C6)C=C5)cc3)c3cc(C)ccc3n2)c(C)c1
REMARK SMILES IDX 13 1 12 2 11 3 9 4 10 5 8 6 6 7 7 8 87 9 86 10 80 11 85 12
REMARK SMILES IDX 81 13 84 14 82 15 83 16 5 17 1 18 2 19 3 20 90 21 4 22 88 23
REMARK SMILES IDX 89 24 14 25 15 26 16 27 17 28 18 29 79 30 19 31 78 32 20 33
REMARK SMILES IDX 21 34 22 35 72 36 23 37 77 38 71 39 73 40 24 41 76 42 70 43
REMARK SMILES IDX 69 44 25 46 57 47 37 48 56 49 38 50 41 51 55 52 74 53 39 54
REMARK SMILES IDX 40 55 54 57 75 58 42 59 26 60 27 61 35 62 28 63 29 64 33 65
REMARK SMILES IDX 36 66 30 67 31 68 34 69 32 70 58 71 59 72 67 73 60 74 61 75
REMARK SMILES IDX 65 76 68 77 62 78 63 79 66 80 64 81 43 82 44 83 52 84 45 85
REMARK SMILES IDX 46 86 50 87 53 88 47 89 48 90 51 91 49 92
REMARK H PARENT 73 45 41 56
REMARK Flexibility Score: inf
ROOT
ATOM      1  C   UNL A   1      32.263  30.031  25.444  1.00  0.00     0.275 C 
ENDROOT
BRANCH   1   2
ATOM      2  C   UNL A   1      33.265  29.119  24.740  1.00  0.00     0.275 C 
BRANCH   2   3
ATOM      3  O   UNL A   1      33.196  29.297  23.309  1.00  0.00    -0.458 OA
BRANCH   3   4
ATOM      4  C   UNL A   1      33.160  28.171  22.555  1.00  0.00     0.339 C 
ATOM      5  O   UNL A   1      33.966  27.841  21.704  1.00  0.00    -0.246 OA
BRANCH   4   6
ATOM      6  C   UNL A   1      32.063  27.278  22.997  1.00  0.00     0.071 A 
ATOM      7  C   UNL A   1      31.478  25.090  23.776  1.00  0.00     0.072 A 
ATOM      8  C   UNL A   1      32.430  25.966  23.294  1.00  0.00     0.045 A 
ATOM      9  N   UNL A   1      30.180  25.440  23.889  1.00  0.00    -0.248 NA
ATOM     10  C   UNL A   1      29.805  26.679  23.521  1.00  0.00     0.072 A 
ATOM     11  C   UNL A   1      30.711  27.666  23.073  1.00  0.00     0.015 A 
ATOM     12  C   UNL A   1      28.455  26.994  23.565  1.00  0.00     0.029 A 
ATOM     13  C   UNL A   1      30.211  28.935  22.688  1.00  0.00     0.014 A 
ATOM     14  C   UNL A   1      27.968  28.247  23.179  1.00  0.00     0.005 A 
ATOM     15  C   UNL A   1      28.846  29.231  22.734  1.00  0.00    -0.050 A 
ATOM     16  C   UNL A   1      28.363  30.590  22.329  1.00  0.00     0.044 C 
BRANCH   7  17
ATOM     17  C   UNL A   1      31.858  23.725  24.165  1.00  0.00     0.003 A 
ATOM     18  C   UNL A   1      32.688  19.591  25.180  1.00  0.00     0.044 C 
ATOM     19  C   UNL A   1      32.406  21.019  24.813  1.00  0.00    -0.051 A 
ATOM     20  C   UNL A   1      32.306  21.416  23.480  1.00  0.00     0.004 A 
ATOM     21  C   UNL A   1      32.247  21.980  25.819  1.00  0.00     0.007 A 
ATOM     22  C   UNL A   1      32.040  22.751  23.162  1.00  0.00     0.011 A 
ATOM     23  C   UNL A   1      31.963  23.326  25.514  1.00  0.00    -0.041 A 
ATOM     24  C   UNL A   1      31.811  24.290  26.659  1.00  0.00     0.045 C 
ENDBRANCH   7  17
ENDBRANCH   4   6
ENDBRANCH   3   4
ENDBRANCH   2   3
ENDBRANCH   1   2
BRANCH   1  25
ATOM     25  O   UNL A   1      32.617  30.147  26.833  1.00  0.00    -0.458 OA
BRANCH  25  26
ATOM     26  C   UNL A   1      33.178  31.321  27.192  1.00  0.00     0.338 C 
ATOM     27  O   UNL A   1      32.664  32.426  27.214  1.00  0.00    -0.246 OA
BRANCH  26  28
ATOM     28  C   UNL A   1      34.542  31.074  27.678  1.00  0.00     0.060 A 
ATOM     29  C   UNL A   1      34.887  29.768  28.008  1.00  0.00     0.016 A 
ATOM     30  C   UNL A   1      35.410  32.122  27.959  1.00  0.00     0.016 A 
ATOM     31  C   UNL A   1      36.048  29.508  28.728  1.00  0.00     0.010 A 
ATOM     32  C   UNL A   1      36.635  31.845  28.580  1.00  0.00     0.010 A 
ATOM     33  C   UNL A   1      36.950  30.541  29.013  1.00  0.00    -0.014 A 
BRANCH  33  34
ATOM     34  C   UNL A   1      38.191  30.273  29.797  1.00  0.00     0.031 A 
ATOM     35  C   UNL A   1      39.286  29.421  29.205  1.00  0.00     0.074 A 
ATOM     36  C   UNL A   1      38.359  30.794  31.030  1.00  0.00     0.049 A 
ATOM     37  N   UNL A   1      40.330  28.884  29.786  1.00  0.00    -0.248 NA
ATOM     38  C   UNL A   1      39.187  29.123  27.767  1.00  0.00     0.031 C 
ATOM     39  C   UNL A   1      37.421  31.687  31.712  1.00  0.00     0.029 A 
ATOM     40  N   UNL A   1      39.385  30.647  31.934  1.00  0.00    -0.354 N 
ATOM     41  C   UNL A   1      40.973  28.140  28.805  1.00  0.00     0.074 A 
ATOM     42  C   UNL A   1      40.203  28.290  27.590  1.00  0.00     0.031 C 
ATOM     43  C   UNL A   1      37.927  32.037  32.903  1.00  0.00     0.029 A 
ATOM     44  C   UNL A   1      39.176  31.316  33.117  1.00  0.00     0.049 A 
ATOM     45  H   UNL A   1      40.193  30.114  31.751  1.00  0.00     0.167 HD
ATOM     46  C   UNL A   1      42.105  27.401  28.909  1.00  0.00     0.037 A 
ATOM     47  C   UNL A   1      39.879  31.309  34.266  1.00  0.00     0.037 A 
ATOM     48  C   UNL A   1      42.900  27.300  30.106  1.00  0.00     0.049 A 
ATOM     49  C   UNL A   1      41.104  30.444  34.370  1.00  0.00     0.074 A 
ATOM     50  C   UNL A   1      44.054  26.565  30.319  1.00  0.00     0.029 A 
ATOM     51  N   UNL A   1      42.637  27.977  31.287  1.00  0.00    -0.354 N 
ATOM     52  N   UNL A   1      41.660  29.681  33.461  1.00  0.00    -0.248 NA
ATOM     53  C   UNL A   1      41.788  30.421  35.670  1.00  0.00     0.031 C 
ATOM     54  C   UNL A   1      44.476  26.777  31.635  1.00  0.00     0.029 A 
ATOM     55  C   UNL A   1      43.608  27.678  32.230  1.00  0.00     0.049 A 
ATOM     56  H   UNL A   1      41.873  28.581  31.435  1.00  0.00     0.167 HD
ATOM     57  C   UNL A   1      42.767  29.108  34.070  1.00  0.00     0.074 A 
ATOM     58  C   UNL A   1      42.819  29.627  35.420  1.00  0.00     0.031 C 
ATOM     59  C   UNL A   1      43.658  28.223  33.560  1.00  0.00     0.037 A 
BRANCH  46  60
ATOM     60  C   UNL A   1      42.551  26.625  27.705  1.00  0.00     0.064 A 
ATOM     61  C   UNL A   1      43.511  27.129  26.814  1.00  0.00     0.173 A 
ATOM     62  C   UNL A   1      42.058  25.331  27.473  1.00  0.00     0.173 A 
ATOM     63  F   UNL A   1      44.004  28.365  26.984  1.00  0.00    -0.203 F 
ATOM     64  C   UNL A   1      43.949  26.371  25.730  1.00  0.00     0.198 A 
ATOM     65  C   UNL A   1      42.518  24.566  26.405  1.00  0.00     0.198 A 
ATOM     66  F   UNL A   1      41.143  24.798  28.299  1.00  0.00    -0.203 F 
ATOM     67  F   UNL A   1      44.843  26.886  24.874  1.00  0.00    -0.200 F 
ATOM     68  C   UNL A   1      43.461  25.088  25.533  1.00  0.00     0.200 A 
ATOM     69  F   UNL A   1      42.056  23.321  26.224  1.00  0.00    -0.200 F 
ATOM     70  F   UNL A   1      43.896  24.356  24.498  1.00  0.00    -0.200 F 
ENDBRANCH  46  60
BRANCH  47  71
ATOM     71  C   UNL A   1      39.414  32.104  35.435  1.00  0.00     0.064 A 
ATOM     72  C   UNL A   1      39.861  33.417  35.639  1.00  0.00     0.173 A 
ATOM     73  C   UNL A   1      38.545  31.559  36.392  1.00  0.00     0.173 A 
ATOM     74  F   UNL A   1      40.718  33.975  34.770  1.00  0.00    -0.203 F 
ATOM     75  C   UNL A   1      39.476  34.144  36.764  1.00  0.00     0.198 A 
ATOM     76  C   UNL A   1      38.132  32.299  37.497  1.00  0.00     0.198 A 
ATOM     77  F   UNL A   1      38.091  30.305  36.250  1.00  0.00    -0.203 F 
ATOM     78  F   UNL A   1      39.968  35.375  36.965  1.00  0.00    -0.200 F 
ATOM     79  C   UNL A   1      38.607  33.586  37.689  1.00  0.00     0.200 A 
ATOM     80  F   UNL A   1      37.280  31.759  38.380  1.00  0.00    -0.200 F 
ATOM     81  F   UNL A   1      38.238  34.284  38.771  1.00  0.00    -0.200 F 
ENDBRANCH  47  71
BRANCH  59  82
ATOM     82  C   UNL A   1      44.792  27.807  34.448  1.00  0.00     0.064 A 
ATOM     83  C   UNL A   1      44.709  26.671  35.265  1.00  0.00     0.173 A 
ATOM     84  C   UNL A   1      45.987  28.542  34.461  1.00  0.00     0.173 A 
ATOM     85  F   UNL A   1      43.581  25.945  35.300  1.00  0.00    -0.203 F 
ATOM     86  C   UNL A   1      45.772  26.302  36.085  1.00  0.00     0.198 A 
ATOM     87  C   UNL A   1      47.058  28.156  35.261  1.00  0.00     0.198 A 
ATOM     88  F   UNL A   1      46.117  29.634  33.692  1.00  0.00    -0.203 F 
ATOM     89  F   UNL A   1      45.653  25.242  36.896  1.00  0.00    -0.200 F 
ATOM     90  C   UNL A   1      46.946  27.040  36.078  1.00  0.00     0.200 A 
ATOM     91  F   UNL A   1      48.194  28.863  35.245  1.00  0.00    -0.200 F 
ATOM     92  F   UNL A   1      47.969  26.683  36.867  1.00  0.00    -0.200 F 
ENDBRANCH  59  82
ENDBRANCH  33  34
ENDBRANCH  26  28
ENDBRANCH  25  26
ENDBRANCH   1  25
TORSDOF 12
ENDMDL
MODEL 2
REMARK VINA RESULT:     -13.6      0.184      1.948
REMARK SMILES Cc1ccc(-c2cc(C(=O)OCCOC(=O)c3ccc(-c4c5nc(c(-c6c(F)c(F)c(F)c(F)c6F)c6ccc([nH]6)c(-c6c(F)c(F)c(F)c(F)c6F)c6nc(c(-c7c(F)c(F)c(F)c(F)c7F)c7ccc4[nH]7)C=C6)C=C5)cc3)c3cc(C)ccc3n2)c(C)c1
REMARK SMILES IDX 13 1 12 2 11 3 9 4 10 5 8 6 6 7 7 8 87 9 86 10 80 11 85 12
REMARK SMILES IDX 81 13 84 14 82 15 83 16 5 17 1 18 2 19 3 20 90 21 4 22 88 23
REMARK SMILES IDX 89 24 14 25 15 26 16 27 17 28 18 29 79 30 19 31 78 32 20 33
REMARK SMILES IDX 21 34 22 35 72 36 23 37 77 38 71 39 73 40 24 41 76 42 70 43
REMARK SMILES IDX 69 44 25 46 57 47 37 48 56 49 38 50 41 51 55 52 74 53 39 54
REMARK SMILES IDX 40 55 54 57 75 58 42 59 26 60 27 61 35 62 28 63 29 64 33 65
REMARK SMILES IDX 36 66 30 67 31 68 34 69 32 70 58 71 59 72 67 73 60 74 61 75
REMARK SMILES IDX 65 76 68 77 62 78 63 79 66 80 64 81 43 82 44 83 52 84 45 85
REMARK SMILES IDX 46 86 50 87 53 88 47 89 48 90 51 91 49 92
REMARK H PARENT 73 45 41 56
REMARK Flexibility Score: inf
ROOT
ATOM      1  C   UNL A   1      32.344  29.974  25.536  1.00  0.00     0.275 C 
ENDROOT
BRANCH   1   2
ATOM      2  C   UNL A   1      33.301  29.045  24.792  1.00  0.00     0.275 C 
BRANCH   2   3
ATOM      3  O   UNL A   1      33.200  29.248  23.366  1.00  0.00    -0.458 OA
BRANCH   3   4
ATOM      4  C   UNL A   1      33.156  28.136  22.593  1.00  0.00     0.339 C 
ATOM      5  O   UNL A   1      33.950  27.823  21.725  1.00  0.00    -0.246 OA
BRANCH   4   6
ATOM      6  C   UNL A   1      32.067  27.232  23.035  1.00  0.00     0.071 A 
ATOM      7  C   UNL A   1      31.503  25.039  23.813  1.00  0.00     0.072 A 
ATOM      8  C   UNL A   1      32.447  25.924  23.332  1.00  0.00     0.045 A 
ATOM      9  N   UNL A   1      30.202  25.376  23.927  1.00  0.00    -0.248 NA
ATOM     10  C   UNL A   1      29.815  26.612  23.559  1.00  0.00     0.072 A 
ATOM     11  C   UNL A   1      30.712  27.607  23.111  1.00  0.00     0.015 A 
ATOM     12  C   UNL A   1      28.462  26.914  23.604  1.00  0.00     0.029 A 
ATOM     13  C   UNL A   1      30.200  28.872  22.727  1.00  0.00     0.014 A 
ATOM     14  C   UNL A   1      27.963  28.163  23.218  1.00  0.00     0.005 A 
ATOM     15  C   UNL A   1      28.832  29.155  22.773  1.00  0.00    -0.050 A 
ATOM     16  C   UNL A   1      28.336  30.510  22.369  1.00  0.00     0.044 C 
BRANCH   7  17
ATOM     17  C   UNL A   1      31.896  23.677  24.202  1.00  0.00     0.003 A 
ATOM     18  C   UNL A   1      32.764  19.552  25.220  1.00  0.00     0.044 C 
ATOM     19  C   UNL A   1      32.468  20.977  24.852  1.00  0.00    -0.051 A 
ATOM     20  C   UNL A   1      32.346  21.368  23.519  1.00  0.00     0.004 A 
ATOM     21  C   UNL A   1      32.320  21.941  25.857  1.00  0.00     0.007 A 
ATOM     22  C   UNL A   1      32.068  22.700  23.200  1.00  0.00     0.011 A 
ATOM     23  C   UNL A   1      32.023  23.284  25.551  1.00  0.00    -0.041 A 
ATOM     24  C   UNL A   1      31.884  24.252  26.694  1.00  0.00     0.045 C 
ENDBRANCH   7  17
ENDBRANCH   4   6
ENDBRANCH   3   4
ENDBRANCH   2   3
ENDBRANCH   1   2
BRANCH   1  25
ATOM     25  O   UNL A   1      32.765  30.094  26.906  1.00  0.00    -0.458 OA
BRANCH  25  26
ATOM     26  C   UNL A   1      33.361  31.262  27.230  1.00  0.00     0.338 C 
ATOM     27  O   UNL A   1      32.879  32.381  27.219  1.00  0.00    -0.246 OA
BRANCH  26  28
ATOM     28  C   UNL A   1      34.717  30.990  27.721  1.00  0.00     0.060 A 
ATOM     29  C   UNL A   1      35.019  29.689  28.108  1.00  0.00     0.016 A 
ATOM     30  C   UNL A   1      35.623  32.019  27.951  1.00  0.00     0.016 A 
ATOM     31  C   UNL A   1      36.174  29.421  28.834  1.00  0.00     0.010 A 
ATOM     32  C   UNL A   1      36.841  31.727  28.579  1.00  0.00     0.010 A 
ATOM     33  C   UNL A   1      37.113  30.434  29.069  1.00  0.00    -0.014 A 
BRANCH  33  34
ATOM     34  C   UNL A   1      38.348  30.158  29.860  1.00  0.00     0.031 A 
ATOM     35  C   UNL A   1      39.431  29.280  29.284  1.00  0.00     0.074 A 
ATOM     36  C   UNL A   1      38.522  30.696  31.085  1.00  0.00     0.049 A 
ATOM     37  N   UNL A   1      40.465  28.736  29.876  1.00  0.00    -0.248 NA
ATOM     38  C   UNL A   1      39.329  28.961  27.850  1.00  0.00     0.031 C 
ATOM     39  C   UNL A   1      37.597  31.614  31.751  1.00  0.00     0.029 A 
ATOM     40  N   UNL A   1      39.544  30.546  31.993  1.00  0.00    -0.354 N 
ATOM     41  C   UNL A   1      41.098  27.967  28.907  1.00  0.00     0.074 A 
ATOM     42  C   UNL A   1      40.332  28.110  27.688  1.00  0.00     0.031 C 
ATOM     43  C   UNL A   1      38.107  31.975  32.937  1.00  0.00     0.029 A 
ATOM     44  C   UNL A   1      39.344  31.237  33.165  1.00  0.00     0.049 A 
ATOM     45  H   UNL A   1      40.344  29.998  31.821  1.00  0.00     0.167 HD
ATOM     46  C   UNL A   1      42.217  27.211  29.025  1.00  0.00     0.037 A 
ATOM     47  C   UNL A   1      40.044  31.237  34.316  1.00  0.00     0.037 A 
ATOM     48  C   UNL A   1      43.008  27.116  30.225  1.00  0.00     0.049 A 
ATOM     49  C   UNL A   1      41.255  30.354  34.436  1.00  0.00     0.074 A 
ATOM     50  C   UNL A   1      44.151  26.366  30.451  1.00  0.00     0.029 A 
ATOM     51  N   UNL A   1      42.754  27.815  31.395  1.00  0.00    -0.354 N 
ATOM     52  N   UNL A   1      41.801  29.569  33.540  1.00  0.00    -0.248 NA
ATOM     53  C   UNL A   1      41.937  30.341  35.738  1.00  0.00     0.031 C 
ATOM     54  C   UNL A   1      44.573  26.592  31.765  1.00  0.00     0.029 A 
ATOM     55  C   UNL A   1      43.719  27.516  32.344  1.00  0.00     0.049 A 
ATOM     56  H   UNL A   1      42.000  28.434  31.531  1.00  0.00     0.167 HD
ATOM     57  C   UNL A   1      42.897  28.988  34.160  1.00  0.00     0.074 A 
ATOM     58  C   UNL A   1      42.955  29.527  35.502  1.00  0.00     0.031 C 
ATOM     59  C   UNL A   1      43.775  28.081  33.666  1.00  0.00     0.037 A 
BRANCH  46  60
ATOM     60  C   UNL A   1      42.653  26.410  27.834  1.00  0.00     0.064 A 
ATOM     61  C   UNL A   1      42.105  25.151  27.548  1.00  0.00     0.173 A 
ATOM     62  C   UNL A   1      43.590  26.938  26.929  1.00  0.00     0.173 A 
ATOM     63  F   UNL A   1      41.216  24.597  28.386  1.00  0.00    -0.203 F 
ATOM     64  C   UNL A   1      42.486  24.446  26.409  1.00  0.00     0.198 A 
ATOM     65  C   UNL A   1      43.948  26.242  25.778  1.00  0.00     0.198 A 
ATOM     66  F   UNL A   1      44.141  28.141  27.152  1.00  0.00    -0.203 F 
ATOM     67  F   UNL A   1      41.972  23.230  26.173  1.00  0.00    -0.200 F 
ATOM     68  C   UNL A   1      43.399  24.995  25.521  1.00  0.00     0.200 A 
ATOM     69  F   UNL A   1      44.819  26.781  24.914  1.00  0.00    -0.200 F 
ATOM     70  F   UNL A   1      43.752  24.320  24.418  1.00  0.00    -0.200 F 
ENDBRANCH  46  60
BRANCH  47  71
ATOM     71  C   UNL A   1      39.590  32.058  35.472  1.00  0.00     0.064 A 
ATOM     72  C   UNL A   1      38.657  31.556  36.390  1.00  0.00     0.173 A 
ATOM     73  C   UNL A   1      40.048  33.370  35.662  1.00  0.00     0.173 A 
ATOM     74  F   UNL A   1      38.164  30.318  36.236  1.00  0.00    -0.203 F 
ATOM     75  C   UNL A   1      38.183  32.343  37.439  1.00  0.00     0.198 A 
ATOM     76  C   UNL A   1      39.602  34.143  36.732  1.00  0.00     0.198 A 
ATOM     77  F   UNL A   1      40.936  33.903  34.810  1.00  0.00    -0.203 F 
ATOM     78  F   UNL A   1      37.246  31.859  38.266  1.00  0.00    -0.200 F 
ATOM     79  C   UNL A   1      38.661  33.633  37.612  1.00  0.00     0.200 A 
ATOM     80  F   UNL A   1      40.077  35.384  36.902  1.00  0.00    -0.200 F 
ATOM     81  F   UNL A   1      38.205  34.389  38.620  1.00  0.00    -0.200 F 
ENDBRANCH  47  71
BRANCH  59  82
ATOM     82  C   UNL A   1      44.901  27.660  34.563  1.00  0.00     0.064 A 
ATOM     83  C   UNL A   1      46.112  28.366  34.605  1.00  0.00     0.173 A 
ATOM     84  C   UNL A   1      44.754  26.550  35.408  1.00  0.00     0.173 A 
ATOM     85  F   UNL A   1      46.306  29.424  33.803  1.00  0.00    -0.203 F 
ATOM     86  C   UNL A   1      47.147  27.957  35.442  1.00  0.00     0.198 A 
ATOM     87  C   UNL A   1      45.781  26.161  36.263  1.00  0.00     0.198 A 
ATOM     88  F   UNL A   1      43.612  25.846  35.407  1.00  0.00    -0.203 F 
ATOM     89  F   UNL A   1      48.314  28.615  35.430  1.00  0.00    -0.200 F 
ATOM     90  C   UNL A   1      46.979  26.860  36.273  1.00  0.00     0.200 A 
ATOM     91  F   UNL A   1      45.613  25.108  37.073  1.00  0.00    -0.200 F 
ATOM     92  F   UNL A   1      47.975  26.469  37.079  1.00  0.00    -0.200 F 
ENDBRANCH  59  82
ENDBRANCH  33  34
ENDBRANCH  26  28
ENDBRANCH  25  26
ENDBRANCH   1  25
TORSDOF 12
ENDMDL
MODEL 3
REMARK VINA RESULT:     -13.5      1.522      2.328
REMARK SMILES Cc1ccc(-c2cc(C(=O)OCCOC(=O)c3ccc(-c4c5nc(c(-c6c(F)c(F)c(F)c(F)c6F)c6ccc([nH]6)c(-c6c(F)c(F)c(F)c(F)c6F)c6nc(c(-c7c(F)c(F)c(F)c(F)c7F)c7ccc4[nH]7)C=C6)C=C5)cc3)c3cc(C)ccc3n2)c(C)c1
REMARK SMILES IDX 13 1 12 2 11 3 9 4 10 5 8 6 6 7 7 8 87 9 86 10 80 11 85 12
REMARK SMILES IDX 81 13 84 14 82 15 83 16 5 17 1 18 2 19 3 20 90 21 4 22 88 23
REMARK SMILES IDX 89 24 14 25 15 26 16 27 17 28 18 29 79 30 19 31 78 32 20 33
REMARK SMILES IDX 21 34 22 35 72 36 23 37 77 38 71 39 73 40 24 41 76 42 70 43
REMARK SMILES IDX 69 44 25 46 57 47 37 48 56 49 38 50 41 51 55 52 74 53 39 54
REMARK SMILES IDX 40 55 54 57 75 58 42 59 26 60 27 61 35 62 28 63 29 64 33 65
REMARK SMILES IDX 36 66 30 67 31 68 34 69 32 70 58 71 59 72 67 73 60 74 61 75
REMARK SMILES IDX 65 76 68 77 62 78 63 79 66 80 64 81 43 82 44 83 52 84 45 85
REMARK SMILES IDX 46 86 50 87 53 88 47 89 48 90 51 91 49 92
REMARK H PARENT 73 45 41 56
REMARK Flexibility Score: inf
ROOT
ATOM      1  C   UNL A   1      31.804  29.600  26.337  1.00  0.00     0.275 C 
ENDROOT
BRANCH   1   2
ATOM      2  C   UNL A   1      31.815  28.445  27.336  1.00  0.00     0.275 C 
BRANCH   2   3
ATOM      3  O   UNL A   1      32.652  27.369  26.861  1.00  0.00    -0.458 OA
BRANCH   3   4
ATOM      4  C   UNL A   1      32.036  26.194  26.582  1.00  0.00     0.339 C 
ATOM      5  O   UNL A   1      31.070  25.726  27.156  1.00  0.00    -0.246 OA
BRANCH   4   6
ATOM      6  C   UNL A   1      32.605  25.581  25.357  1.00  0.00     0.071 A 
ATOM      7  C   UNL A   1      34.118  23.948  24.477  1.00  0.00     0.072 A 
ATOM      8  C   UNL A   1      33.586  24.613  25.563  1.00  0.00     0.045 A 
ATOM      9  N   UNL A   1      33.779  24.266  23.211  1.00  0.00    -0.248 NA
ATOM     10  C   UNL A   1      32.895  25.261  23.004  1.00  0.00     0.072 A 
ATOM     11  C   UNL A   1      32.251  25.960  24.048  1.00  0.00     0.015 A 
ATOM     12  C   UNL A   1      32.620  25.629  21.695  1.00  0.00     0.029 A 
ATOM     13  C   UNL A   1      31.351  27.006  23.723  1.00  0.00     0.014 A 
ATOM     14  C   UNL A   1      31.736  26.667  21.382  1.00  0.00     0.005 A 
ATOM     15  C   UNL A   1      31.093  27.367  22.399  1.00  0.00    -0.050 A 
ATOM     16  C   UNL A   1      30.125  28.472  22.101  1.00  0.00     0.044 C 
BRANCH   7  17
ATOM     17  C   UNL A   1      35.100  22.873  24.675  1.00  0.00     0.003 A 
ATOM     18  C   UNL A   1      38.108  19.761  24.947  1.00  0.00     0.044 C 
ATOM     19  C   UNL A   1      37.078  20.849  24.856  1.00  0.00    -0.051 A 
ATOM     20  C   UNL A   1      37.452  22.186  24.720  1.00  0.00     0.004 A 
ATOM     21  C   UNL A   1      35.717  20.529  24.918  1.00  0.00     0.007 A 
ATOM     22  C   UNL A   1      36.475  23.183  24.634  1.00  0.00     0.011 A 
ATOM     23  C   UNL A   1      34.721  21.522  24.817  1.00  0.00    -0.041 A 
ATOM     24  C   UNL A   1      33.283  21.086  24.897  1.00  0.00     0.045 C 
ENDBRANCH   7  17
ENDBRANCH   4   6
ENDBRANCH   3   4
ENDBRANCH   2   3
ENDBRANCH   1   2
BRANCH   1  25
ATOM     25  O   UNL A   1      33.139  30.113  26.187  1.00  0.00    -0.458 OA
BRANCH  25  26
ATOM     26  C   UNL A   1      33.466  31.129  27.014  1.00  0.00     0.338 C 
ATOM     27  O   UNL A   1      32.771  32.066  27.368  1.00  0.00    -0.246 OA
BRANCH  26  28
ATOM     28  C   UNL A   1      34.815  30.900  27.547  1.00  0.00     0.060 A 
ATOM     29  C   UNL A   1      35.174  29.595  27.866  1.00  0.00     0.016 A 
ATOM     30  C   UNL A   1      35.651  31.960  27.879  1.00  0.00     0.016 A 
ATOM     31  C   UNL A   1      36.312  29.344  28.624  1.00  0.00     0.010 A 
ATOM     32  C   UNL A   1      36.856  31.695  28.541  1.00  0.00     0.010 A 
ATOM     33  C   UNL A   1      37.182  30.389  28.962  1.00  0.00    -0.014 A 
BRANCH  33  34
ATOM     34  C   UNL A   1      38.398  30.132  29.789  1.00  0.00     0.031 A 
ATOM     35  C   UNL A   1      39.508  29.268  29.244  1.00  0.00     0.074 A 
ATOM     36  C   UNL A   1      38.529  30.672  31.017  1.00  0.00     0.049 A 
ATOM     37  N   UNL A   1      40.532  28.738  29.866  1.00  0.00    -0.248 NA
ATOM     38  C   UNL A   1      39.451  28.946  27.809  1.00  0.00     0.031 C 
ATOM     39  C   UNL A   1      37.573  31.579  31.656  1.00  0.00     0.029 A 
ATOM     40  N   UNL A   1      39.527  30.537  31.954  1.00  0.00    -0.354 N 
ATOM     41  C   UNL A   1      41.202  27.976  28.916  1.00  0.00     0.074 A 
ATOM     42  C   UNL A   1      40.470  28.108  27.676  1.00  0.00     0.031 C 
ATOM     43  C   UNL A   1      38.044  31.947  32.855  1.00  0.00     0.029 A 
ATOM     44  C   UNL A   1      39.284  31.226  33.119  1.00  0.00     0.049 A 
ATOM     45  H   UNL A   1      40.338  30.000  31.805  1.00  0.00     0.167 HD
ATOM     46  C   UNL A   1      42.328  27.236  29.067  1.00  0.00     0.037 A 
ATOM     47  C   UNL A   1      39.951  31.237  34.289  1.00  0.00     0.037 A 
ATOM     48  C   UNL A   1      43.086  27.153  30.290  1.00  0.00     0.049 A 
ATOM     49  C   UNL A   1      41.170  30.370  34.445  1.00  0.00     0.074 A 
ATOM     50  C   UNL A   1      44.231  26.418  30.549  1.00  0.00     0.029 A 
ATOM     51  N   UNL A   1      42.789  27.849  31.450  1.00  0.00    -0.354 N 
ATOM     52  N   UNL A   1      41.751  29.592  33.566  1.00  0.00    -0.248 NA
ATOM     53  C   UNL A   1      41.815  30.367  35.765  1.00  0.00     0.031 C 
ATOM     54  C   UNL A   1      44.613  26.651  31.873  1.00  0.00     0.029 A 
ATOM     55  C   UNL A   1      43.730  27.564  32.427  1.00  0.00     0.049 A 
ATOM     56  H   UNL A   1      42.023  28.458  31.565  1.00  0.00     0.167 HD
ATOM     57  C   UNL A   1      42.838  29.026  34.217  1.00  0.00     0.074 A 
ATOM     58  C   UNL A   1      42.850  29.567  35.560  1.00  0.00     0.031 C 
ATOM     59  C   UNL A   1      43.741  28.131  33.749  1.00  0.00     0.037 A 
BRANCH  46  60
ATOM     60  C   UNL A   1      42.808  26.439  27.890  1.00  0.00     0.064 A 
ATOM     61  C   UNL A   1      42.361  25.133  27.648  1.00  0.00     0.173 A 
ATOM     62  C   UNL A   1      43.682  27.016  26.953  1.00  0.00     0.173 A 
ATOM     63  F   UNL A   1      41.535  24.532  28.518  1.00  0.00    -0.203 F 
ATOM     64  C   UNL A   1      42.780  24.429  26.522  1.00  0.00     0.198 A 
ATOM     65  C   UNL A   1      44.077  26.320  25.815  1.00  0.00     0.198 A 
ATOM     66  F   UNL A   1      44.136  28.267  27.133  1.00  0.00    -0.203 F 
ATOM     67  F   UNL A   1      42.364  23.169  26.329  1.00  0.00    -0.200 F 
ATOM     68  C   UNL A   1      43.628  25.026  25.602  1.00  0.00     0.200 A 
ATOM     69  F   UNL A   1      44.886  26.904  24.920  1.00  0.00    -0.200 F 
ATOM     70  F   UNL A   1      44.018  24.351  24.511  1.00  0.00    -0.200 F 
ENDBRANCH  46  60
BRANCH  47  71
ATOM     71  C   UNL A   1      39.453  32.052  35.431  1.00  0.00     0.064 A 
ATOM     72  C   UNL A   1      39.901  33.366  35.628  1.00  0.00     0.173 A 
ATOM     73  C   UNL A   1      38.552  31.525  36.367  1.00  0.00     0.173 A 
ATOM     74  F   UNL A   1      40.787  33.906  34.778  1.00  0.00    -0.203 F 
ATOM     75  C   UNL A   1      39.484  34.112  36.729  1.00  0.00     0.198 A 
ATOM     76  C   UNL A   1      38.107  32.284  37.447  1.00  0.00     0.198 A 
ATOM     77  F   UNL A   1      38.096  30.272  36.231  1.00  0.00    -0.203 F 
ATOM     78  F   UNL A   1      39.975  35.343  36.927  1.00  0.00    -0.200 F 
ATOM     79  C   UNL A   1      38.582  33.572  37.634  1.00  0.00     0.200 A 
ATOM     80  F   UNL A   1      37.226  31.763  38.311  1.00  0.00    -0.200 F 
ATOM     81  F   UNL A   1      38.183  34.289  38.693  1.00  0.00    -0.200 F 
ENDBRANCH  47  71
BRANCH  59  82
ATOM     82  C   UNL A   1      44.847  27.726  34.678  1.00  0.00     0.064 A 
ATOM     83  C   UNL A   1      44.736  26.602  35.509  1.00  0.00     0.173 A 
ATOM     84  C   UNL A   1      46.041  28.460  34.716  1.00  0.00     0.173 A 
ATOM     85  F   UNL A   1      43.607  25.878  35.520  1.00  0.00    -0.203 F 
ATOM     86  C   UNL A   1      45.773  26.245  36.367  1.00  0.00     0.198 A 
ATOM     87  C   UNL A   1      47.087  28.084  35.555  1.00  0.00     0.198 A 
ATOM     88  F   UNL A   1      46.197  29.540  33.936  1.00  0.00    -0.203 F 
ATOM     89  F   UNL A   1      45.627  25.197  37.190  1.00  0.00    -0.200 F 
ATOM     90  C   UNL A   1      46.948  26.981  36.385  1.00  0.00     0.200 A 
ATOM     91  F   UNL A   1      48.224  28.790  35.564  1.00  0.00    -0.200 F 
ATOM     92  F   UNL A   1      47.945  26.635  37.211  1.00  0.00    -0.200 F 
ENDBRANCH  59  82
ENDBRANCH  33  34
ENDBRANCH  26  28
ENDBRANCH  25  26
ENDBRANCH   1  25
TORSDOF 12
ENDMDL
