MODEL 1
REMARK VINA RESULT:     -11.1      0.000      0.000
REMARK SMILES CN(C)c1ccc(C(=O)NCCCC(=O)OCCOC(=O)c2ccc(-c3c4nc(c(-c5c(F)c(F)c(F)c(F)c5F)c5ccc([nH]5)c(-c5c(F)c(F)c(F)c(F)c5F)c5nc(c(-c6c(F)c(F)c(F)c(F)c6F)c6ccc3[nH]6)C=C5)C=C4)cc2)cn1
REMARK SMILES IDX 16 1 14 2 15 3 13 4 12 5 11 6 10 7 8 8 9 9 7 11 4 12 5 13
REMARK SMILES IDX 86 14 6 15 85 16 2 17 1 18 3 19 17 20 18 21 19 22 20 23
REMARK SMILES IDX 21 24 22 25 23 26 84 27 24 28 83 29 25 30 26 31 27 32 77 33
REMARK SMILES IDX 28 34 82 35 76 36 78 37 29 38 81 39 75 40 74 41 30 43 62 44
REMARK SMILES IDX 42 45 61 46 43 47 46 48 60 49 79 50 44 51 45 52 59 54 80 55
REMARK SMILES IDX 47 56 31 57 32 58 40 59 33 60 34 61 38 62 41 63 35 64 36 65
REMARK SMILES IDX 39 66 37 67 63 68 64 69 72 70 65 71 66 72 70 73 73 74 67 75
REMARK SMILES IDX 68 76 71 77 69 78 48 79 49 80 57 81 50 82 51 83 55 84 58 85
REMARK SMILES IDX 52 86 53 87 56 88 54 89
REMARK H PARENT 10 10 78 42 46 53
REMARK Flexibility Score: inf
ROOT
ATOM      1  O   UNL A   1      30.179  29.412  23.806  1.00  0.00    -0.462 OA
ENDROOT
BRANCH   1   2
ATOM      2  C   UNL A   1      29.852  28.352  23.024  1.00  0.00     0.305 C 
ATOM      3  O   UNL A   1      30.486  27.978  22.045  1.00  0.00    -0.252 OA
BRANCH   2   4
ATOM      4  C   UNL A   1      28.564  27.700  23.466  1.00  0.00     0.124 C 
BRANCH   4   5
ATOM      5  C   UNL A   1      28.714  26.332  24.129  1.00  0.00     0.033 C 
BRANCH   5   6
ATOM      6  C   UNL A   1      29.976  26.112  24.961  1.00  0.00     0.117 C 
BRANCH   6   7
ATOM      7  N   UNL A   1      29.765  25.162  26.037  1.00  0.00    -0.352 N 
ATOM      8  C   UNL A   1      30.517  24.113  26.493  1.00  0.00     0.252 C 
ATOM      9  O   UNL A   1      30.013  23.361  27.326  1.00  0.00    -0.269 OA
ATOM     10  H   UNL A   1      28.923  25.295  26.530  1.00  0.00     0.163 HD
BRANCH   8  11
ATOM     11  C   UNL A   1      31.895  23.847  26.032  1.00  0.00     0.058 A 
ATOM     12  C   UNL A   1      34.438  23.043  25.193  1.00  0.00     0.127 A 
ATOM     13  C   UNL A   1      34.256  24.272  25.830  1.00  0.00     0.048 A 
ATOM     14  N   UNL A   1      33.375  22.238  24.979  1.00  0.00    -0.239 NA
ATOM     15  C   UNL A   1      32.986  24.672  26.266  1.00  0.00     0.019 A 
ATOM     16  C   UNL A   1      32.150  22.637  25.409  1.00  0.00     0.127 A 
BRANCH  12  17
ATOM     17  N   UNL A   1      35.683  22.605  24.782  1.00  0.00    -0.363 N 
ATOM     18  C   UNL A   1      36.503  21.725  25.588  1.00  0.00     0.144 C 
ATOM     19  C   UNL A   1      36.073  22.886  23.410  1.00  0.00     0.144 C 
ENDBRANCH  12  17
ENDBRANCH   8  11
ENDBRANCH   6   7
ENDBRANCH   5   6
ENDBRANCH   4   5
ENDBRANCH   2   4
ENDBRANCH   1   2
BRANCH   1  20
ATOM     20  C   UNL A   1      31.503  29.401  24.379  1.00  0.00     0.274 C 
BRANCH  20  21
ATOM     21  C   UNL A   1      31.591  30.271  25.636  1.00  0.00     0.275 C 
BRANCH  21  22
ATOM     22  O   UNL A   1      32.878  30.153  26.273  1.00  0.00    -0.458 OA
BRANCH  22  23
ATOM     23  C   UNL A   1      33.281  31.239  26.967  1.00  0.00     0.338 C 
ATOM     24  O   UNL A   1      32.648  32.271  27.153  1.00  0.00    -0.246 OA
BRANCH  23  25
ATOM     25  C   UNL A   1      34.570  30.966  27.621  1.00  0.00     0.060 A 
ATOM     26  C   UNL A   1      34.863  29.645  27.973  1.00  0.00     0.016 A 
ATOM     27  C   UNL A   1      35.458  31.994  27.945  1.00  0.00     0.016 A 
ATOM     28  C   UNL A   1      36.030  29.343  28.665  1.00  0.00     0.010 A 
ATOM     29  C   UNL A   1      36.636  31.690  28.636  1.00  0.00     0.010 A 
ATOM     30  C   UNL A   1      36.921  30.365  29.013  1.00  0.00    -0.014 A 
BRANCH  30  31
ATOM     31  C   UNL A   1      38.119  30.040  29.821  1.00  0.00     0.031 A 
ATOM     32  C   UNL A   1      39.174  29.137  29.255  1.00  0.00     0.074 A 
ATOM     33  C   UNL A   1      38.274  30.585  31.041  1.00  0.00     0.049 A 
ATOM     34  N   UNL A   1      40.270  28.689  29.813  1.00  0.00    -0.248 NA
ATOM     35  C   UNL A   1      38.971  28.676  27.872  1.00  0.00     0.031 C 
ATOM     36  C   UNL A   1      37.340  31.516  31.675  1.00  0.00     0.029 A 
ATOM     37  N   UNL A   1      39.276  30.433  31.966  1.00  0.00    -0.354 N 
ATOM     38  C   UNL A   1      40.874  27.878  28.862  1.00  0.00     0.074 A 
ATOM     39  C   UNL A   1      40.019  27.884  27.694  1.00  0.00     0.031 C 
ATOM     40  C   UNL A   1      37.815  31.855  32.884  1.00  0.00     0.029 A 
ATOM     41  C   UNL A   1      39.063  31.134  33.127  1.00  0.00     0.049 A 
ATOM     42  H   UNL A   1      40.073  29.875  31.811  1.00  0.00     0.167 HD
ATOM     43  C   UNL A   1      42.037  27.193  28.957  1.00  0.00     0.037 A 
ATOM     44  C   UNL A   1      39.784  31.171  34.263  1.00  0.00     0.037 A 
ATOM     45  C   UNL A   1      42.896  27.207  30.113  1.00  0.00     0.049 A 
ATOM     46  C   UNL A   1      41.048  30.358  34.359  1.00  0.00     0.074 A 
ATOM     47  C   UNL A   1      44.105  26.560  30.299  1.00  0.00     0.029 A 
ATOM     48  N   UNL A   1      42.633  27.908  31.281  1.00  0.00    -0.354 N 
ATOM     49  N   UNL A   1      41.614  29.598  33.453  1.00  0.00    -0.248 NA
ATOM     50  C   UNL A   1      41.770  30.407  35.638  1.00  0.00     0.031 C 
ATOM     51  C   UNL A   1      44.556  26.837  31.594  1.00  0.00     0.029 A 
ATOM     52  C   UNL A   1      43.648  27.693  32.199  1.00  0.00     0.049 A 
ATOM     53  H   UNL A   1      41.843  28.474  31.435  1.00  0.00     0.167 HD
ATOM     54  C   UNL A   1      42.771  29.104  34.041  1.00  0.00     0.074 A 
ATOM     55  C   UNL A   1      42.832  29.658  35.377  1.00  0.00     0.031 C 
ATOM     56  C   UNL A   1      43.702  28.268  33.518  1.00  0.00     0.037 A 
BRANCH  43  57
ATOM     57  C   UNL A   1      42.439  26.343  27.791  1.00  0.00     0.064 A 
ATOM     58  C   UNL A   1      43.336  26.803  26.817  1.00  0.00     0.173 A 
ATOM     59  C   UNL A   1      41.951  25.033  27.671  1.00  0.00     0.173 A 
ATOM     60  F   UNL A   1      43.818  28.053  26.879  1.00  0.00    -0.203 F 
ATOM     61  C   UNL A   1      43.715  25.987  25.752  1.00  0.00     0.198 A 
ATOM     62  C   UNL A   1      42.352  24.213  26.620  1.00  0.00     0.198 A 
ATOM     63  F   UNL A   1      41.093  24.545  28.579  1.00  0.00    -0.203 F 
ATOM     64  F   UNL A   1      44.545  26.460  24.811  1.00  0.00    -0.200 F 
ATOM     65  C   UNL A   1      43.230  24.692  25.659  1.00  0.00     0.200 A 
ATOM     66  F   UNL A   1      41.887  22.958  26.537  1.00  0.00    -0.200 F 
ATOM     67  F   UNL A   1      43.600  23.906  24.638  1.00  0.00    -0.200 F 
ENDBRANCH  43  57
BRANCH  44  68
ATOM     68  C   UNL A   1      39.326  31.997  35.409  1.00  0.00     0.064 A 
ATOM     69  C   UNL A   1      38.512  31.452  36.412  1.00  0.00     0.173 A 
ATOM     70  C   UNL A   1      39.670  33.352  35.512  1.00  0.00     0.173 A 
ATOM     71  F   UNL A   1      38.134  30.168  36.342  1.00  0.00    -0.203 F 
ATOM     72  C   UNL A   1      38.044  32.237  37.464  1.00  0.00     0.198 A 
ATOM     73  C   UNL A   1      39.225  34.130  36.580  1.00  0.00     0.198 A 
ATOM     74  F   UNL A   1      40.444  33.923  34.576  1.00  0.00    -0.203 F 
ATOM     75  F   UNL A   1      37.227  31.704  38.382  1.00  0.00    -0.200 F 
ATOM     76  C   UNL A   1      38.405  33.573  37.549  1.00  0.00     0.200 A 
ATOM     77  F   UNL A   1      39.582  35.418  36.662  1.00  0.00    -0.200 F 
ATOM     78  F   UNL A   1      37.952  34.328  38.560  1.00  0.00    -0.200 F 
ENDBRANCH  44  68
BRANCH  56  79
ATOM     79  C   UNL A   1      44.887  27.939  34.376  1.00  0.00     0.064 A 
ATOM     80  C   UNL A   1      44.908  26.807  35.202  1.00  0.00     0.173 A 
ATOM     81  C   UNL A   1      46.033  28.750  34.340  1.00  0.00     0.173 A 
ATOM     82  F   UNL A   1      43.831  26.010  35.282  1.00  0.00    -0.203 F 
ATOM     83  C   UNL A   1      46.023  26.511  35.980  1.00  0.00     0.198 A 
ATOM     84  C   UNL A   1      47.155  28.436  35.099  1.00  0.00     0.198 A 
ATOM     85  F   UNL A   1      46.065  29.841  33.560  1.00  0.00    -0.203 F 
ATOM     86  F   UNL A   1      46.005  25.448  36.796  1.00  0.00    -0.200 F 
ATOM     87  C   UNL A   1      47.148  27.321  35.923  1.00  0.00     0.200 A 
ATOM     88  F   UNL A   1      48.245  29.213  35.034  1.00  0.00    -0.200 F 
ATOM     89  F   UNL A   1      48.223  27.031  36.669  1.00  0.00    -0.200 F 
ENDBRANCH  56  79
ENDBRANCH  30  31
ENDBRANCH  23  25
ENDBRANCH  22  23
ENDBRANCH  21  22
ENDBRANCH  20  21
ENDBRANCH   1  20
TORSDOF 16
ENDMDL
MODEL 2
REMARK VINA RESULT:     -11.0      1.958      8.212
REMARK SMILES CN(C)c1ccc(C(=O)NCCCC(=O)OCCOC(=O)c2ccc(-c3c4nc(c(-c5c(F)c(F)c(F)c(F)c5F)c5ccc([nH]5)c(-c5c(F)c(F)c(F)c(F)c5F)c5nc(c(-c6c(F)c(F)c(F)c(F)c6F)c6ccc3[nH]6)C=C5)C=C4)cc2)cn1
REMARK SMILES IDX 16 1 14 2 15 3 13 4 12 5 11 6 10 7 8 8 9 9 7 11 4 12 5 13
REMARK SMILES IDX 86 14 6 15 85 16 2 17 1 18 3 19 17 20 18 21 19 22 20 23
REMARK SMILES IDX 21 24 22 25 23 26 84 27 24 28 83 29 25 30 26 31 27 32 77 33
REMARK SMILES IDX 28 34 82 35 76 36 78 37 29 38 81 39 75 40 74 41 30 43 62 44
REMARK SMILES IDX 42 45 61 46 43 47 46 48 60 49 79 50 44 51 45 52 59 54 80 55
REMARK SMILES IDX 47 56 31 57 32 58 40 59 33 60 34 61 38 62 41 63 35 64 36 65
REMARK SMILES IDX 39 66 37 67 63 68 64 69 72 70 65 71 66 72 70 73 73 74 67 75
REMARK SMILES IDX 68 76 71 77 69 78 48 79 49 80 57 81 50 82 51 83 55 84 58 85
REMARK SMILES IDX 52 86 53 87 56 88 54 89
REMARK H PARENT 10 10 78 42 46 53
REMARK Flexibility Score: inf
ROOT
ATOM      1  O   UNL A   1      33.056  30.590  26.544  1.00  0.00    -0.462 OA
ENDROOT
BRANCH   1   2
ATOM      2  C   UNL A   1      33.066  29.301  26.967  1.00  0.00     0.305 C 
ATOM      3  O   UNL A   1      34.063  28.684  27.320  1.00  0.00    -0.252 OA
BRANCH   2   4
ATOM      4  C   UNL A   1      31.694  28.674  26.903  1.00  0.00     0.124 C 
BRANCH   4   5
ATOM      5  C   UNL A   1      31.647  27.246  26.363  1.00  0.00     0.033 C 
BRANCH   5   6
ATOM      6  C   UNL A   1      32.437  26.975  25.083  1.00  0.00     0.117 C 
BRANCH   6   7
ATOM      7  N   UNL A   1      31.849  25.910  24.292  1.00  0.00    -0.352 N 
ATOM      8  C   UNL A   1      30.739  25.871  23.491  1.00  0.00     0.252 C 
ATOM      9  O   UNL A   1      30.375  24.777  23.064  1.00  0.00    -0.269 OA
ATOM     10  H   UNL A   1      32.337  25.057  24.341  1.00  0.00     0.163 HD
BRANCH   8  11
ATOM     11  C   UNL A   1      29.968  27.075  23.120  1.00  0.00     0.058 A 
ATOM     12  C   UNL A   1      28.778  29.507  22.421  1.00  0.00     0.127 A 
ATOM     13  C   UNL A   1      28.063  28.548  23.141  1.00  0.00     0.048 A 
ATOM     14  N   UNL A   1      30.054  29.255  22.058  1.00  0.00    -0.239 NA
ATOM     15  C   UNL A   1      28.660  27.334  23.507  1.00  0.00     0.019 A 
ATOM     16  C   UNL A   1      30.622  28.076  22.421  1.00  0.00     0.127 A 
BRANCH  12  17
ATOM     17  N   UNL A   1      28.228  30.727  22.075  1.00  0.00    -0.363 N 
ATOM     18  C   UNL A   1      28.027  31.126  20.697  1.00  0.00     0.144 C 
ATOM     19  C   UNL A   1      27.658  31.533  23.142  1.00  0.00     0.144 C 
ENDBRANCH  12  17
ENDBRANCH   8  11
ENDBRANCH   6   7
ENDBRANCH   5   6
ENDBRANCH   4   5
ENDBRANCH   2   4
ENDBRANCH   1   2
BRANCH   1  20
ATOM     20  C   UNL A   1      31.834  31.326  26.759  1.00  0.00     0.274 C 
BRANCH  20  21
ATOM     21  C   UNL A   1      32.084  32.831  26.877  1.00  0.00     0.275 C 
BRANCH  21  22
ATOM     22  O   UNL A   1      32.852  33.151  28.053  1.00  0.00    -0.458 OA
BRANCH  22  23
ATOM     23  C   UNL A   1      34.000  33.825  27.829  1.00  0.00     0.338 C 
ATOM     24  O   UNL A   1      34.115  34.947  27.351  1.00  0.00    -0.246 OA
BRANCH  23  25
ATOM     25  C   UNL A   1      35.139  33.075  28.382  1.00  0.00     0.060 A 
ATOM     26  C   UNL A   1      34.872  31.885  29.065  1.00  0.00     0.016 A 
ATOM     27  C   UNL A   1      36.446  33.556  28.289  1.00  0.00     0.016 A 
ATOM     28  C   UNL A   1      35.902  31.178  29.677  1.00  0.00     0.010 A 
ATOM     29  C   UNL A   1      37.484  32.842  28.898  1.00  0.00     0.010 A 
ATOM     30  C   UNL A   1      37.215  31.658  29.608  1.00  0.00    -0.014 A 
BRANCH  30  31
ATOM     31  C   UNL A   1      38.289  30.940  30.332  1.00  0.00     0.031 A 
ATOM     32  C   UNL A   1      38.524  31.225  31.786  1.00  0.00     0.074 A 
ATOM     33  C   UNL A   1      39.024  30.010  29.694  1.00  0.00     0.049 A 
ATOM     34  N   UNL A   1      39.440  30.745  32.588  1.00  0.00    -0.248 NA
ATOM     35  C   UNL A   1      37.601  32.176  32.426  1.00  0.00     0.031 C 
ATOM     36  C   UNL A   1      38.855  29.613  28.297  1.00  0.00     0.029 A 
ATOM     37  N   UNL A   1      40.062  29.232  30.141  1.00  0.00    -0.354 N 
ATOM     38  C   UNL A   1      39.220  31.352  33.818  1.00  0.00     0.074 A 
ATOM     39  C   UNL A   1      38.091  32.243  33.656  1.00  0.00     0.031 C 
ATOM     40  C   UNL A   1      39.755  28.662  28.001  1.00  0.00     0.029 A 
ATOM     41  C   UNL A   1      40.590  28.414  29.174  1.00  0.00     0.049 A 
ATOM     42  H   UNL A   1      40.395  29.258  31.068  1.00  0.00     0.167 HD
ATOM     43  C   UNL A   1      39.899  31.177  34.975  1.00  0.00     0.037 A 
ATOM     44  C   UNL A   1      41.643  27.577  29.227  1.00  0.00     0.037 A 
ATOM     45  C   UNL A   1      41.008  30.272  35.138  1.00  0.00     0.049 A 
ATOM     46  C   UNL A   1      42.412  27.441  30.514  1.00  0.00     0.074 A 
ATOM     47  C   UNL A   1      41.749  30.011  36.277  1.00  0.00     0.029 A 
ATOM     48  N   UNL A   1      41.532  29.480  34.128  1.00  0.00    -0.354 N 
ATOM     49  N   UNL A   1      42.194  28.014  31.672  1.00  0.00    -0.248 NA
ATOM     50  C   UNL A   1      43.575  26.542  30.498  1.00  0.00     0.031 C 
ATOM     51  C   UNL A   1      42.749  29.089  35.947  1.00  0.00     0.029 A 
ATOM     52  C   UNL A   1      42.601  28.743  34.613  1.00  0.00     0.049 A 
ATOM     53  H   UNL A   1      41.196  29.445  33.204  1.00  0.00     0.167 HD
ATOM     54  C   UNL A   1      43.171  27.524  32.529  1.00  0.00     0.074 A 
ATOM     55  C   UNL A   1      43.977  26.599  31.760  1.00  0.00     0.031 C 
ATOM     56  C   UNL A   1      43.380  27.813  33.837  1.00  0.00     0.037 A 
BRANCH  43  57
ATOM     57  C   UNL A   1      39.484  32.002  36.155  1.00  0.00     0.064 A 
ATOM     58  C   UNL A   1      40.125  33.207  36.475  1.00  0.00     0.173 A 
ATOM     59  C   UNL A   1      38.401  31.601  36.952  1.00  0.00     0.173 A 
ATOM     60  F   UNL A   1      41.175  33.626  35.753  1.00  0.00    -0.203 F 
ATOM     61  C   UNL A   1      39.708  33.972  37.562  1.00  0.00     0.198 A 
ATOM     62  C   UNL A   1      37.973  32.380  38.022  1.00  0.00     0.198 A 
ATOM     63  F   UNL A   1      37.754  30.457  36.685  1.00  0.00    -0.203 F 
ATOM     64  F   UNL A   1      40.359  35.102  37.873  1.00  0.00    -0.200 F 
ATOM     65  C   UNL A   1      38.629  33.562  38.329  1.00  0.00     0.200 A 
ATOM     66  F   UNL A   1      36.923  31.985  38.758  1.00  0.00    -0.200 F 
ATOM     67  F   UNL A   1      38.225  34.302  39.372  1.00  0.00    -0.200 F 
ENDBRANCH  43  57
BRANCH  44  68
ATOM     68  C   UNL A   1      42.044  26.807  28.021  1.00  0.00     0.064 A 
ATOM     69  C   UNL A   1      42.937  27.347  27.084  1.00  0.00     0.173 A 
ATOM     70  C   UNL A   1      41.523  25.531  27.766  1.00  0.00     0.173 A 
ATOM     71  F   UNL A   1      43.440  28.576  27.271  1.00  0.00    -0.203 F 
ATOM     72  C   UNL A   1      43.279  26.645  25.930  1.00  0.00     0.198 A 
ATOM     73  C   UNL A   1      41.887  24.818  26.626  1.00  0.00     0.198 A 
ATOM     74  F   UNL A   1      40.661  24.972  28.630  1.00  0.00    -0.203 F 
ATOM     75  F   UNL A   1      44.095  27.204  25.027  1.00  0.00    -0.200 F 
ATOM     76  C   UNL A   1      42.757  25.380  25.704  1.00  0.00     0.200 A 
ATOM     77  F   UNL A   1      41.387  23.593  26.415  1.00  0.00    -0.200 F 
ATOM     78  F   UNL A   1      43.085  24.708  24.592  1.00  0.00    -0.200 F 
ENDBRANCH  44  68
BRANCH  56  79
ATOM     79  C   UNL A   1      44.495  27.087  34.531  1.00  0.00     0.064 A 
ATOM     80  C   UNL A   1      44.298  25.836  35.130  1.00  0.00     0.173 A 
ATOM     81  C   UNL A   1      45.785  27.638  34.562  1.00  0.00     0.173 A 
ATOM     82  F   UNL A   1      43.078  25.276  35.140  1.00  0.00    -0.203 F 
ATOM     83  C   UNL A   1      45.348  25.171  35.757  1.00  0.00     0.198 A 
ATOM     84  C   UNL A   1      46.839  26.959  35.166  1.00  0.00     0.198 A 
ATOM     85  F   UNL A   1      46.025  28.831  33.996  1.00  0.00    -0.203 F 
ATOM     86  F   UNL A   1      45.129  23.995  36.362  1.00  0.00    -0.200 F 
ATOM     87  C   UNL A   1      46.619  25.729  35.768  1.00  0.00     0.200 A 
ATOM     88  F   UNL A   1      48.067  27.494  35.166  1.00  0.00    -0.200 F 
ATOM     89  F   UNL A   1      47.630  25.085  36.367  1.00  0.00    -0.200 F 
ENDBRANCH  56  79
ENDBRANCH  30  31
ENDBRANCH  23  25
ENDBRANCH  22  23
ENDBRANCH  21  22
ENDBRANCH  20  21
ENDBRANCH   1  20
TORSDOF 16
ENDMDL
MODEL 3
REMARK VINA RESULT:     -10.9      4.648      7.575
REMARK SMILES CN(C)c1ccc(C(=O)NCCCC(=O)OCCOC(=O)c2ccc(-c3c4nc(c(-c5c(F)c(F)c(F)c(F)c5F)c5ccc([nH]5)c(-c5c(F)c(F)c(F)c(F)c5F)c5nc(c(-c6c(F)c(F)c(F)c(F)c6F)c6ccc3[nH]6)C=C5)C=C4)cc2)cn1
REMARK SMILES IDX 16 1 14 2 15 3 13 4 12 5 11 6 10 7 8 8 9 9 7 11 4 12 5 13
REMARK SMILES IDX 86 14 6 15 85 16 2 17 1 18 3 19 17 20 18 21 19 22 20 23
REMARK SMILES IDX 21 24 22 25 23 26 84 27 24 28 83 29 25 30 26 31 27 32 77 33
REMARK SMILES IDX 28 34 82 35 76 36 78 37 29 38 81 39 75 40 74 41 30 43 62 44
REMARK SMILES IDX 42 45 61 46 43 47 46 48 60 49 79 50 44 51 45 52 59 54 80 55
REMARK SMILES IDX 47 56 31 57 32 58 40 59 33 60 34 61 38 62 41 63 35 64 36 65
REMARK SMILES IDX 39 66 37 67 63 68 64 69 72 70 65 71 66 72 70 73 73 74 67 75
REMARK SMILES IDX 68 76 71 77 69 78 48 79 49 80 57 81 50 82 51 83 55 84 58 85
REMARK SMILES IDX 52 86 53 87 56 88 54 89
REMARK H PARENT 10 10 78 42 46 53
REMARK Flexibility Score: inf
ROOT
ATOM      1  O   UNL A   1      37.085  20.995  25.377  1.00  0.00    -0.462 OA
ENDROOT
BRANCH   1   2
ATOM      2  C   UNL A   1      36.042  21.503  24.674  1.00  0.00     0.305 C 
ATOM      3  O   UNL A   1      36.129  22.374  23.817  1.00  0.00    -0.252 OA
BRANCH   2   4
ATOM      4  C   UNL A   1      34.724  20.906  25.107  1.00  0.00     0.124 C 
BRANCH   4   5
ATOM      5  C   UNL A   1      33.744  21.879  25.760  1.00  0.00     0.033 C 
BRANCH   5   6
ATOM      6  C   UNL A   1      32.380  22.025  25.087  1.00  0.00     0.117 C 
BRANCH   6   7
ATOM      7  N   UNL A   1      31.305  22.163  26.053  1.00  0.00    -0.352 N 
ATOM      8  C   UNL A   1      30.756  23.259  26.662  1.00  0.00     0.252 C 
ATOM      9  O   UNL A   1      29.955  23.070  27.576  1.00  0.00    -0.269 OA
ATOM     10  H   UNL A   1      30.896  21.309  26.321  1.00  0.00     0.163 HD
BRANCH   8  11
ATOM     11  C   UNL A   1      31.081  24.646  26.272  1.00  0.00     0.058 A 
ATOM     12  C   UNL A   1      31.507  27.231  25.294  1.00  0.00     0.127 A 
ATOM     13  C   UNL A   1      32.502  26.574  26.019  1.00  0.00     0.048 A 
ATOM     14  N   UNL A   1      30.327  26.612  25.067  1.00  0.00    -0.239 NA
ATOM     15  C   UNL A   1      32.299  25.273  26.498  1.00  0.00     0.019 A 
ATOM     16  C   UNL A   1      30.145  25.351  25.534  1.00  0.00     0.127 A 
BRANCH  12  17
ATOM     17  N   UNL A   1      31.689  28.501  24.779  1.00  0.00    -0.363 N 
ATOM     18  C   UNL A   1      32.879  29.282  25.041  1.00  0.00     0.144 C 
ATOM     19  C   UNL A   1      30.734  28.964  23.785  1.00  0.00     0.144 C 
ENDBRANCH  12  17
ENDBRANCH   8  11
ENDBRANCH   6   7
ENDBRANCH   5   6
ENDBRANCH   4   5
ENDBRANCH   2   4
ENDBRANCH   1   2
BRANCH   1  20
ATOM     20  C   UNL A   1      37.583  19.712  24.947  1.00  0.00     0.274 C 
BRANCH  20  21
ATOM     21  C   UNL A   1      38.940  19.383  25.577  1.00  0.00     0.275 C 
BRANCH  21  22
ATOM     22  O   UNL A   1      39.722  20.571  25.802  1.00  0.00    -0.458 OA
BRANCH  22  23
ATOM     23  C   UNL A   1      40.402  20.604  26.968  1.00  0.00     0.338 C 
ATOM     24  O   UNL A   1      40.768  19.644  27.635  1.00  0.00    -0.246 OA
BRANCH  23  25
ATOM     25  C   UNL A   1      40.791  21.987  27.283  1.00  0.00     0.060 A 
ATOM     26  C   UNL A   1      40.243  23.017  26.511  1.00  0.00     0.016 A 
ATOM     27  C   UNL A   1      41.726  22.275  28.279  1.00  0.00     0.016 A 
ATOM     28  C   UNL A   1      40.637  24.335  26.714  1.00  0.00     0.010 A 
ATOM     29  C   UNL A   1      42.119  23.602  28.488  1.00  0.00     0.010 A 
ATOM     30  C   UNL A   1      41.588  24.636  27.696  1.00  0.00    -0.014 A 
BRANCH  30  31
ATOM     31  C   UNL A   1      42.059  26.032  27.845  1.00  0.00     0.031 A 
ATOM     32  C   UNL A   1      43.371  26.442  27.243  1.00  0.00     0.074 A 
ATOM     33  C   UNL A   1      41.295  26.935  28.487  1.00  0.00     0.049 A 
ATOM     34  N   UNL A   1      43.986  27.596  27.301  1.00  0.00    -0.248 NA
ATOM     35  C   UNL A   1      44.086  25.416  26.467  1.00  0.00     0.031 C 
ATOM     36  C   UNL A   1      39.981  26.666  29.070  1.00  0.00     0.029 A 
ATOM     37  N   UNL A   1      41.515  28.262  28.755  1.00  0.00    -0.354 N 
ATOM     38  C   UNL A   1      45.169  27.429  26.592  1.00  0.00     0.074 A 
ATOM     39  C   UNL A   1      45.192  26.060  26.121  1.00  0.00     0.031 C 
ATOM     40  C   UNL A   1      39.510  27.794  29.625  1.00  0.00     0.029 A 
ATOM     41  C   UNL A   1      40.506  28.852  29.474  1.00  0.00     0.049 A 
ATOM     42  H   UNL A   1      42.322  28.745  28.460  1.00  0.00     0.167 HD
ATOM     43  C   UNL A   1      46.143  28.338  26.356  1.00  0.00     0.037 A 
ATOM     44  C   UNL A   1      40.409  30.100  29.970  1.00  0.00     0.037 A 
ATOM     45  C   UNL A   1      46.106  29.704  26.807  1.00  0.00     0.049 A 
ATOM     46  C   UNL A   1      41.532  31.075  29.734  1.00  0.00     0.074 A 
ATOM     47  C   UNL A   1      47.037  30.707  26.602  1.00  0.00     0.029 A 
ATOM     48  N   UNL A   1      45.078  30.259  27.556  1.00  0.00    -0.354 N 
ATOM     49  N   UNL A   1      42.643  30.910  29.059  1.00  0.00    -0.248 NA
ATOM     50  C   UNL A   1      41.386  32.408  30.335  1.00  0.00     0.031 C 
ATOM     51  C   UNL A   1      46.592  31.859  27.260  1.00  0.00     0.029 A 
ATOM     52  C   UNL A   1      45.362  31.586  27.837  1.00  0.00     0.049 A 
ATOM     53  H   UNL A   1      44.267  29.782  27.844  1.00  0.00     0.167 HD
ATOM     54  C   UNL A   1      43.313  32.125  29.127  1.00  0.00     0.074 A 
ATOM     55  C   UNL A   1      42.480  33.020  29.902  1.00  0.00     0.031 C 
ATOM     56  C   UNL A   1      44.511  32.467  28.593  1.00  0.00     0.037 A 
BRANCH  43  57
ATOM     57  C   UNL A   1      47.351  27.878  25.598  1.00  0.00     0.064 A 
ATOM     58  C   UNL A   1      47.376  27.845  24.197  1.00  0.00     0.173 A 
ATOM     59  C   UNL A   1      48.517  27.506  26.286  1.00  0.00     0.173 A 
ATOM     60  F   UNL A   1      46.282  28.176  23.495  1.00  0.00    -0.203 F 
ATOM     61  C   UNL A   1      48.518  27.437  23.512  1.00  0.00     0.198 A 
ATOM     62  C   UNL A   1      49.663  27.122  25.597  1.00  0.00     0.198 A 
ATOM     63  F   UNL A   1      48.544  27.524  27.627  1.00  0.00    -0.203 F 
ATOM     64  F   UNL A   1      48.508  27.376  22.172  1.00  0.00    -0.200 F 
ATOM     65  C   UNL A   1      49.662  27.084  24.211  1.00  0.00     0.200 A 
ATOM     66  F   UNL A   1      50.771  26.790  26.276  1.00  0.00    -0.200 F 
ATOM     67  F   UNL A   1      50.762  26.698  23.550  1.00  0.00    -0.200 F 
ENDBRANCH  43  57
BRANCH  44  68
ATOM     68  C   UNL A   1      39.210  30.500  30.749  1.00  0.00     0.064 A 
ATOM     69  C   UNL A   1      38.125  31.137  30.130  1.00  0.00     0.173 A 
ATOM     70  C   UNL A   1      39.134  30.280  32.132  1.00  0.00     0.173 A 
ATOM     71  F   UNL A   1      38.164  31.394  28.815  1.00  0.00    -0.203 F 
ATOM     72  C   UNL A   1      37.019  31.554  30.868  1.00  0.00     0.198 A 
ATOM     73  C   UNL A   1      38.015  30.672  32.865  1.00  0.00     0.198 A 
ATOM     74  F   UNL A   1      40.147  29.678  32.773  1.00  0.00    -0.203 F 
ATOM     75  F   UNL A   1      36.019  32.205  30.259  1.00  0.00    -0.200 F 
ATOM     76  C   UNL A   1      36.964  31.318  32.233  1.00  0.00     0.200 A 
ATOM     77  F   UNL A   1      37.962  30.435  34.182  1.00  0.00    -0.200 F 
ATOM     78  F   UNL A   1      35.900  31.722  32.941  1.00  0.00    -0.200 F 
ENDBRANCH  44  68
BRANCH  56  79
ATOM     79  C   UNL A   1      44.970  33.882  28.789  1.00  0.00     0.064 A 
ATOM     80  C   UNL A   1      45.785  34.249  29.868  1.00  0.00     0.173 A 
ATOM     81  C   UNL A   1      44.617  34.875  27.861  1.00  0.00     0.173 A 
ATOM     82  F   UNL A   1      46.136  33.339  30.790  1.00  0.00    -0.203 F 
ATOM     83  C   UNL A   1      46.212  35.565  30.025  1.00  0.00     0.198 A 
ATOM     84  C   UNL A   1      45.067  36.183  28.007  1.00  0.00     0.198 A 
ATOM     85  F   UNL A   1      43.843  34.571  26.808  1.00  0.00    -0.203 F 
ATOM     86  F   UNL A   1      46.956  35.904  31.088  1.00  0.00    -0.200 F 
ATOM     87  C   UNL A   1      45.859  36.528  29.091  1.00  0.00     0.200 A 
ATOM     88  F   UNL A   1      44.735  37.110  27.098  1.00  0.00    -0.200 F 
ATOM     89  F   UNL A   1      46.276  37.794  29.241  1.00  0.00    -0.200 F 
ENDBRANCH  56  79
ENDBRANCH  30  31
ENDBRANCH  23  25
ENDBRANCH  22  23
ENDBRANCH  21  22
ENDBRANCH  20  21
ENDBRANCH   1  20
TORSDOF 16
ENDMDL
