MODEL 1
REMARK VINA RESULT:     -11.5      0.000      0.000
REMARK SMILES Nc1oc(-c2ccccc2)cc1C(=O)OCCOC(=O)c1ccc(-c2c3nc(c(-c4c(F)c(F)c(F)c(F)c4F)c4ccc([nH]4)c(-c4c(F)c(F)c(F)c(F)c4F)c4nc(c(-c5c(F)c(F)c(F)c(F)c5F)c5ccc2[nH]5)C=C4)C=C3)cc1
REMARK SMILES IDX 17 1 16 2 15 3 13 4 14 5 12 6 2 7 3 8 4 9 11 10 1 11 5 14
REMARK SMILES IDX 6 15 10 16 7 17 9 18 8 19 18 20 19 21 20 22 21 23 22 24
REMARK SMILES IDX 83 25 23 26 82 27 24 28 25 29 26 30 76 31 27 32 81 33 75 34
REMARK SMILES IDX 77 35 28 36 80 37 74 38 73 39 29 41 61 42 41 43 60 44 42 45
REMARK SMILES IDX 45 46 59 47 78 48 43 49 44 50 58 52 79 53 46 54 30 55 31 56
REMARK SMILES IDX 39 57 32 58 33 59 37 60 40 61 34 62 35 63 38 64 36 65 62 66
REMARK SMILES IDX 63 67 71 68 64 69 65 70 69 71 72 72 66 73 67 74 70 75 68 76
REMARK SMILES IDX 47 77 48 78 56 79 49 80 50 81 54 82 57 83 51 84 52 85 55 86
REMARK SMILES IDX 53 87
REMARK H PARENT 1 12 1 13 77 40 45 51
REMARK Flexibility Score: inf
ROOT
ATOM      1  C   UNL A   1      40.426  19.928  26.215  1.00  0.00     0.275 C 
ENDROOT
BRANCH   1   2
ATOM      2  C   UNL A   1      41.772  19.213  26.153  1.00  0.00     0.275 C 
BRANCH   2   3
ATOM      3  O   UNL A   1      42.526  19.597  24.990  1.00  0.00    -0.458 OA
BRANCH   3   4
ATOM      4  C   UNL A   1      43.865  19.314  25.004  1.00  0.00     0.343 C 
ATOM      5  O   UNL A   1      44.342  18.216  24.726  1.00  0.00    -0.246 OA
BRANCH   4   6
ATOM      6  C   UNL A   1      44.660  20.483  25.308  1.00  0.00     0.123 A 
ATOM      7  C   UNL A   1      45.964  20.714  24.918  1.00  0.00     0.205 A 
ATOM      8  O   UNL A   1      46.398  21.920  25.370  1.00  0.00    -0.440 OA
ATOM      9  C   UNL A   1      45.373  22.470  26.080  1.00  0.00     0.137 A 
ATOM     10  C   UNL A   1      44.269  21.651  26.023  1.00  0.00     0.069 A 
BRANCH   7  11
ATOM     11  N   UNL A   1      46.857  20.009  24.215  1.00  0.00    -0.369 N 
ATOM     12  H   UNL A   1      47.712  19.747  24.628  1.00  0.00     0.159 HD
ATOM     13  H   UNL A   1      46.660  19.754  23.285  1.00  0.00     0.159 HD
ENDBRANCH   7  11
BRANCH   9  14
ATOM     14  C   UNL A   1      45.667  23.692  26.803  1.00  0.00     0.017 A 
ATOM     15  C   UNL A   1      46.274  24.791  26.186  1.00  0.00     0.012 A 
ATOM     16  C   UNL A   1      45.356  23.762  28.168  1.00  0.00     0.012 A 
ATOM     17  C   UNL A   1      46.565  25.939  26.926  1.00  0.00     0.001 A 
ATOM     18  C   UNL A   1      45.660  24.902  28.910  1.00  0.00     0.001 A 
ATOM     19  C   UNL A   1      46.265  25.991  28.288  1.00  0.00     0.000 A 
ENDBRANCH   9  14
ENDBRANCH   4   6
ENDBRANCH   3   4
ENDBRANCH   2   3
ENDBRANCH   1   2
BRANCH   1  20
ATOM     20  O   UNL A   1      40.491  21.080  27.056  1.00  0.00    -0.458 OA
BRANCH  20  21
ATOM     21  C   UNL A   1      39.675  22.091  26.684  1.00  0.00     0.338 C 
ATOM     22  O   UNL A   1      38.588  22.002  26.139  1.00  0.00    -0.246 OA
BRANCH  21  23
ATOM     23  C   UNL A   1      40.363  23.368  26.868  1.00  0.00     0.060 A 
ATOM     24  C   UNL A   1      41.494  23.382  27.692  1.00  0.00     0.016 A 
ATOM     25  C   UNL A   1      39.705  24.540  26.481  1.00  0.00     0.016 A 
ATOM     26  C   UNL A   1      41.867  24.573  28.279  1.00  0.00     0.010 A 
ATOM     27  C   UNL A   1      40.070  25.722  27.073  1.00  0.00     0.010 A 
ATOM     28  C   UNL A   1      41.093  25.708  28.026  1.00  0.00    -0.014 A 
BRANCH  28  29
ATOM     29  C   UNL A   1      41.379  26.928  28.757  1.00  0.00     0.031 A 
ATOM     30  C   UNL A   1      42.568  27.678  28.274  1.00  0.00     0.074 A 
ATOM     31  C   UNL A   1      40.472  27.403  29.636  1.00  0.00     0.049 A 
ATOM     32  N   UNL A   1      43.515  28.228  28.960  1.00  0.00    -0.248 NA
ATOM     33  C   UNL A   1      42.761  27.766  26.812  1.00  0.00     0.031 C 
ATOM     34  C   UNL A   1      39.138  26.857  29.919  1.00  0.00     0.029 A 
ATOM     35  N   UNL A   1      40.480  28.563  30.343  1.00  0.00    -0.354 N 
ATOM     36  C   UNL A   1      44.332  28.868  28.030  1.00  0.00     0.074 A 
ATOM     37  C   UNL A   1      43.901  28.444  26.726  1.00  0.00     0.031 C 
ATOM     38  C   UNL A   1      38.391  27.805  30.524  1.00  0.00     0.029 A 
ATOM     39  C   UNL A   1      39.222  28.974  30.760  1.00  0.00     0.049 A 
ATOM     40  H   UNL A   1      41.303  29.067  30.541  1.00  0.00     0.167 HD
ATOM     41  C   UNL A   1      45.156  29.889  28.385  1.00  0.00     0.037 A 
ATOM     42  C   UNL A   1      38.871  30.221  31.157  1.00  0.00     0.037 A 
ATOM     43  C   UNL A   1      45.494  29.837  29.779  1.00  0.00     0.049 A 
ATOM     44  C   UNL A   1      40.122  30.970  31.448  1.00  0.00     0.074 A 
ATOM     45  C   UNL A   1      46.116  28.898  30.581  1.00  0.00     0.029 A 
ATOM     46  N   UNL A   1      44.885  30.711  30.643  1.00  0.00    -0.354 N 
ATOM     47  N   UNL A   1      40.914  30.718  32.452  1.00  0.00    -0.248 NA
ATOM     48  C   UNL A   1      40.719  31.729  30.358  1.00  0.00     0.031 C 
ATOM     49  C   UNL A   1      45.442  28.974  31.833  1.00  0.00     0.029 A 
ATOM     50  C   UNL A   1      44.483  29.981  31.731  1.00  0.00     0.049 A 
ATOM     51  H   UNL A   1      44.760  31.678  30.507  1.00  0.00     0.167 HD
ATOM     52  C   UNL A   1      42.193  30.913  31.950  1.00  0.00     0.074 A 
ATOM     53  C   UNL A   1      42.007  31.626  30.690  1.00  0.00     0.031 C 
ATOM     54  C   UNL A   1      43.261  30.231  32.457  1.00  0.00     0.037 A 
BRANCH  41  55
ATOM     55  C   UNL A   1      45.356  31.114  27.532  1.00  0.00     0.064 A 
ATOM     56  C   UNL A   1      46.649  31.439  27.082  1.00  0.00     0.173 A 
ATOM     57  C   UNL A   1      44.386  32.133  27.392  1.00  0.00     0.173 A 
ATOM     58  F   UNL A   1      47.652  30.555  27.192  1.00  0.00    -0.203 F 
ATOM     59  C   UNL A   1      46.960  32.712  26.597  1.00  0.00     0.198 A 
ATOM     60  C   UNL A   1      44.688  33.382  26.855  1.00  0.00     0.198 A 
ATOM     61  F   UNL A   1      43.141  32.005  27.869  1.00  0.00    -0.203 F 
ATOM     62  F   UNL A   1      48.231  33.017  26.300  1.00  0.00    -0.200 F 
ATOM     63  C   UNL A   1      45.981  33.684  26.490  1.00  0.00     0.200 A 
ATOM     64  F   UNL A   1      43.728  34.315  26.778  1.00  0.00    -0.200 F 
ATOM     65  F   UNL A   1      46.291  34.921  26.084  1.00  0.00    -0.200 F 
ENDBRANCH  41  55
BRANCH  42  66
ATOM     66  C   UNL A   1      37.561  30.897  30.984  1.00  0.00     0.064 A 
ATOM     67  C   UNL A   1      36.782  31.261  32.094  1.00  0.00     0.173 A 
ATOM     68  C   UNL A   1      37.155  31.418  29.740  1.00  0.00     0.173 A 
ATOM     69  F   UNL A   1      37.129  30.853  33.323  1.00  0.00    -0.203 F 
ATOM     70  C   UNL A   1      35.671  32.102  31.966  1.00  0.00     0.198 A 
ATOM     71  C   UNL A   1      36.037  32.243  29.611  1.00  0.00     0.198 A 
ATOM     72  F   UNL A   1      37.884  31.215  28.633  1.00  0.00    -0.203 F 
ATOM     73  F   UNL A   1      34.987  32.474  33.057  1.00  0.00    -0.200 F 
ATOM     74  C   UNL A   1      35.301  32.595  30.726  1.00  0.00     0.200 A 
ATOM     75  F   UNL A   1      35.713  32.739  28.408  1.00  0.00    -0.200 F 
ATOM     76  F   UNL A   1      34.268  33.439  30.610  1.00  0.00    -0.200 F 
ENDBRANCH  42  66
BRANCH  54  77
ATOM     77  C   UNL A   1      43.061  29.458  33.729  1.00  0.00     0.064 A 
ATOM     78  C   UNL A   1      42.600  28.131  33.771  1.00  0.00     0.173 A 
ATOM     79  C   UNL A   1      43.497  30.026  34.933  1.00  0.00     0.173 A 
ATOM     80  F   UNL A   1      42.271  27.480  32.649  1.00  0.00    -0.203 F 
ATOM     81  C   UNL A   1      42.529  27.426  34.970  1.00  0.00     0.198 A 
ATOM     82  C   UNL A   1      43.464  29.307  36.124  1.00  0.00     0.198 A 
ATOM     83  F   UNL A   1      44.008  31.268  34.944  1.00  0.00    -0.203 F 
ATOM     84  F   UNL A   1      42.071  26.166  34.983  1.00  0.00    -0.200 F 
ATOM     85  C   UNL A   1      42.968  28.011  36.145  1.00  0.00     0.200 A 
ATOM     86  F   UNL A   1      43.939  29.857  37.249  1.00  0.00    -0.200 F 
ATOM     87  F   UNL A   1      42.943  27.320  37.292  1.00  0.00    -0.200 F 
ENDBRANCH  54  77
ENDBRANCH  28  29
ENDBRANCH  21  23
ENDBRANCH  20  21
ENDBRANCH   1  20
TORSDOF 13
ENDMDL
MODEL 2
REMARK VINA RESULT:     -11.5      0.477      1.709
REMARK SMILES Nc1oc(-c2ccccc2)cc1C(=O)OCCOC(=O)c1ccc(-c2c3nc(c(-c4c(F)c(F)c(F)c(F)c4F)c4ccc([nH]4)c(-c4c(F)c(F)c(F)c(F)c4F)c4nc(c(-c5c(F)c(F)c(F)c(F)c5F)c5ccc2[nH]5)C=C4)C=C3)cc1
REMARK SMILES IDX 17 1 16 2 15 3 13 4 14 5 12 6 2 7 3 8 4 9 11 10 1 11 5 14
REMARK SMILES IDX 6 15 10 16 7 17 9 18 8 19 18 20 19 21 20 22 21 23 22 24
REMARK SMILES IDX 83 25 23 26 82 27 24 28 25 29 26 30 76 31 27 32 81 33 75 34
REMARK SMILES IDX 77 35 28 36 80 37 74 38 73 39 29 41 61 42 41 43 60 44 42 45
REMARK SMILES IDX 45 46 59 47 78 48 43 49 44 50 58 52 79 53 46 54 30 55 31 56
REMARK SMILES IDX 39 57 32 58 33 59 37 60 40 61 34 62 35 63 38 64 36 65 62 66
REMARK SMILES IDX 63 67 71 68 64 69 65 70 69 71 72 72 66 73 67 74 70 75 68 76
REMARK SMILES IDX 47 77 48 78 56 79 49 80 50 81 54 82 57 83 51 84 52 85 55 86
REMARK SMILES IDX 53 87
REMARK H PARENT 1 12 1 13 77 40 45 51
REMARK Flexibility Score: inf
ROOT
ATOM      1  C   UNL A   1      40.342  19.906  26.163  1.00  0.00     0.275 C 
ENDROOT
BRANCH   1   2
ATOM      2  C   UNL A   1      41.674  19.164  26.126  1.00  0.00     0.275 C 
BRANCH   2   3
ATOM      3  O   UNL A   1      42.503  19.612  25.040  1.00  0.00    -0.458 OA
BRANCH   3   4
ATOM      4  C   UNL A   1      43.830  19.282  25.102  1.00  0.00     0.343 C 
ATOM      5  O   UNL A   1      44.269  18.149  24.919  1.00  0.00    -0.246 OA
BRANCH   4   6
ATOM      6  C   UNL A   1      44.664  20.441  25.331  1.00  0.00     0.123 A 
ATOM      7  C   UNL A   1      45.911  20.676  24.786  1.00  0.00     0.205 A 
ATOM      8  O   UNL A   1      46.405  21.869  25.207  1.00  0.00    -0.440 OA
ATOM      9  C   UNL A   1      45.481  22.407  26.053  1.00  0.00     0.137 A 
ATOM     10  C   UNL A   1      44.373  21.593  26.116  1.00  0.00     0.069 A 
BRANCH   7  11
ATOM     11  N   UNL A   1      46.704  19.985  23.960  1.00  0.00    -0.369 N 
ATOM     12  H   UNL A   1      46.354  19.663  23.098  1.00  0.00     0.159 HD
ATOM     13  H   UNL A   1      47.636  19.797  24.215  1.00  0.00     0.159 HD
ENDBRANCH   7  11
BRANCH   9  14
ATOM     14  C   UNL A   1      45.871  23.610  26.761  1.00  0.00     0.017 A 
ATOM     15  C   UNL A   1      46.668  24.594  26.167  1.00  0.00     0.012 A 
ATOM     16  C   UNL A   1      45.456  23.778  28.090  1.00  0.00     0.012 A 
ATOM     17  C   UNL A   1      47.045  25.726  26.895  1.00  0.00     0.001 A 
ATOM     18  C   UNL A   1      45.844  24.900  28.820  1.00  0.00     0.001 A 
ATOM     19  C   UNL A   1      46.638  25.874  28.222  1.00  0.00     0.000 A 
ENDBRANCH   9  14
ENDBRANCH   4   6
ENDBRANCH   3   4
ENDBRANCH   2   3
ENDBRANCH   1   2
BRANCH   1  20
ATOM     20  O   UNL A   1      40.411  21.054  27.009  1.00  0.00    -0.458 OA
BRANCH  20  21
ATOM     21  C   UNL A   1      39.601  22.071  26.640  1.00  0.00     0.338 C 
ATOM     22  O   UNL A   1      38.500  21.989  26.124  1.00  0.00    -0.246 OA
BRANCH  21  23
ATOM     23  C   UNL A   1      40.312  23.339  26.787  1.00  0.00     0.060 A 
ATOM     24  C   UNL A   1      41.493  23.338  27.537  1.00  0.00     0.016 A 
ATOM     25  C   UNL A   1      39.642  24.520  26.449  1.00  0.00     0.016 A 
ATOM     26  C   UNL A   1      41.914  24.523  28.106  1.00  0.00     0.010 A 
ATOM     27  C   UNL A   1      40.056  25.696  27.022  1.00  0.00     0.010 A 
ATOM     28  C   UNL A   1      41.137  25.667  27.908  1.00  0.00    -0.014 A 
BRANCH  28  29
ATOM     29  C   UNL A   1      41.479  26.879  28.626  1.00  0.00     0.031 A 
ATOM     30  C   UNL A   1      42.738  27.532  28.178  1.00  0.00     0.074 A 
ATOM     31  C   UNL A   1      40.575  27.437  29.456  1.00  0.00     0.049 A 
ATOM     32  N   UNL A   1      43.694  28.029  28.891  1.00  0.00    -0.248 NA
ATOM     33  C   UNL A   1      42.995  27.572  26.724  1.00  0.00     0.031 C 
ATOM     34  C   UNL A   1      39.194  26.994  29.695  1.00  0.00     0.029 A 
ATOM     35  N   UNL A   1      40.639  28.610  30.140  1.00  0.00    -0.354 N 
ATOM     36  C   UNL A   1      44.591  28.588  27.983  1.00  0.00     0.074 A 
ATOM     37  C   UNL A   1      44.183  28.166  26.672  1.00  0.00     0.031 C 
ATOM     38  C   UNL A   1      38.495  28.007  30.249  1.00  0.00     0.029 A 
ATOM     39  C   UNL A   1      39.397  29.119  30.496  1.00  0.00     0.049 A 
ATOM     40  H   UNL A   1      41.486  29.058  30.362  1.00  0.00     0.167 HD
ATOM     41  C   UNL A   1      45.472  29.555  28.352  1.00  0.00     0.037 A 
ATOM     42  C   UNL A   1      39.121  30.397  30.853  1.00  0.00     0.037 A 
ATOM     43  C   UNL A   1      45.750  29.511  29.759  1.00  0.00     0.049 A 
ATOM     44  C   UNL A   1      40.410  31.061  31.181  1.00  0.00     0.074 A 
ATOM     45  C   UNL A   1      46.270  28.549  30.605  1.00  0.00     0.029 A 
ATOM     46  N   UNL A   1      45.171  30.446  30.579  1.00  0.00    -0.354 N 
ATOM     47  N   UNL A   1      41.142  30.777  32.222  1.00  0.00    -0.248 NA
ATOM     48  C   UNL A   1      41.103  31.750  30.101  1.00  0.00     0.031 C 
ATOM     49  C   UNL A   1      45.554  28.701  31.826  1.00  0.00     0.029 A 
ATOM     50  C   UNL A   1      44.674  29.771  31.665  1.00  0.00     0.049 A 
ATOM     51  H   UNL A   1      45.121  31.416  30.419  1.00  0.00     0.167 HD
ATOM     52  C   UNL A   1      42.450  30.869  31.769  1.00  0.00     0.074 A 
ATOM     53  C   UNL A   1      42.367  31.564  30.489  1.00  0.00     0.031 C 
ATOM     54  C   UNL A   1      43.445  30.124  32.333  1.00  0.00     0.037 A 
BRANCH  41  55
ATOM     55  C   UNL A   1      45.793  30.743  27.483  1.00  0.00     0.064 A 
ATOM     56  C   UNL A   1      47.138  31.089  27.256  1.00  0.00     0.173 A 
ATOM     57  C   UNL A   1      44.840  31.721  27.117  1.00  0.00     0.173 A 
ATOM     58  F   UNL A   1      48.126  30.245  27.592  1.00  0.00    -0.203 F 
ATOM     59  C   UNL A   1      47.502  32.346  26.767  1.00  0.00     0.198 A 
ATOM     60  C   UNL A   1      45.205  32.952  26.576  1.00  0.00     0.198 A 
ATOM     61  F   UNL A   1      43.533  31.575  27.369  1.00  0.00    -0.203 F 
ATOM     62  F   UNL A   1      48.797  32.678  26.686  1.00  0.00    -0.200 F 
ATOM     63  C   UNL A   1      46.535  33.278  26.433  1.00  0.00     0.200 A 
ATOM     64  F   UNL A   1      44.252  33.847  26.277  1.00  0.00    -0.200 F 
ATOM     65  F   UNL A   1      46.883  34.504  26.023  1.00  0.00    -0.200 F 
ENDBRANCH  41  55
BRANCH  42  66
ATOM     66  C   UNL A   1      37.872  31.160  30.613  1.00  0.00     0.064 A 
ATOM     67  C   UNL A   1      37.403  31.389  29.309  1.00  0.00     0.173 A 
ATOM     68  C   UNL A   1      36.982  31.474  31.659  1.00  0.00     0.173 A 
ATOM     69  F   UNL A   1      38.165  31.069  28.254  1.00  0.00    -0.203 F 
ATOM     70  C   UNL A   1      36.120  31.893  29.069  1.00  0.00     0.198 A 
ATOM     71  C   UNL A   1      35.709  31.991  31.419  1.00  0.00     0.198 A 
ATOM     72  F   UNL A   1      37.290  31.201  32.935  1.00  0.00    -0.203 F 
ATOM     73  F   UNL A   1      35.687  32.043  27.810  1.00  0.00    -0.200 F 
ATOM     74  C   UNL A   1      35.273  32.190  30.123  1.00  0.00     0.200 A 
ATOM     75  F   UNL A   1      34.888  32.242  32.450  1.00  0.00    -0.200 F 
ATOM     76  F   UNL A   1      34.027  32.626  29.893  1.00  0.00    -0.200 F 
ENDBRANCH  42  66
BRANCH  54  77
ATOM     77  C   UNL A   1      43.139  29.397  33.612  1.00  0.00     0.064 A 
ATOM     78  C   UNL A   1      43.222  29.990  34.884  1.00  0.00     0.173 A 
ATOM     79  C   UNL A   1      42.597  28.109  33.537  1.00  0.00     0.173 A 
ATOM     80  F   UNL A   1      43.624  31.259  35.029  1.00  0.00    -0.203 F 
ATOM     81  C   UNL A   1      42.829  29.304  36.030  1.00  0.00     0.198 A 
ATOM     82  C   UNL A   1      42.168  27.439  34.679  1.00  0.00     0.198 A 
ATOM     83  F   UNL A   1      42.434  27.516  32.343  1.00  0.00    -0.203 F 
ATOM     84  F   UNL A   1      42.933  29.888  37.233  1.00  0.00    -0.200 F 
ATOM     85  C   UNL A   1      42.295  28.031  35.927  1.00  0.00     0.200 A 
ATOM     86  F   UNL A   1      41.602  26.229  34.570  1.00  0.00    -0.200 F 
ATOM     87  F   UNL A   1      41.876  27.386  37.023  1.00  0.00    -0.200 F 
ENDBRANCH  54  77
ENDBRANCH  28  29
ENDBRANCH  21  23
ENDBRANCH  20  21
ENDBRANCH   1  20
TORSDOF 13
ENDMDL
MODEL 3
REMARK VINA RESULT:     -11.5      4.453     11.118
REMARK SMILES Nc1oc(-c2ccccc2)cc1C(=O)OCCOC(=O)c1ccc(-c2c3nc(c(-c4c(F)c(F)c(F)c(F)c4F)c4ccc([nH]4)c(-c4c(F)c(F)c(F)c(F)c4F)c4nc(c(-c5c(F)c(F)c(F)c(F)c5F)c5ccc2[nH]5)C=C4)C=C3)cc1
REMARK SMILES IDX 17 1 16 2 15 3 13 4 14 5 12 6 2 7 3 8 4 9 11 10 1 11 5 14
REMARK SMILES IDX 6 15 10 16 7 17 9 18 8 19 18 20 19 21 20 22 21 23 22 24
REMARK SMILES IDX 83 25 23 26 82 27 24 28 25 29 26 30 76 31 27 32 81 33 75 34
REMARK SMILES IDX 77 35 28 36 80 37 74 38 73 39 29 41 61 42 41 43 60 44 42 45
REMARK SMILES IDX 45 46 59 47 78 48 43 49 44 50 58 52 79 53 46 54 30 55 31 56
REMARK SMILES IDX 39 57 32 58 33 59 37 60 40 61 34 62 35 63 38 64 36 65 62 66
REMARK SMILES IDX 63 67 71 68 64 69 65 70 69 71 72 72 66 73 67 74 70 75 68 76
REMARK SMILES IDX 47 77 48 78 56 79 49 80 50 81 54 82 57 83 51 84 52 85 55 86
REMARK SMILES IDX 53 87
REMARK H PARENT 1 12 1 13 77 40 45 51
REMARK Flexibility Score: inf
ROOT
ATOM      1  C   UNL A   1      33.396  33.694  28.032  1.00  0.00     0.275 C 
ENDROOT
BRANCH   1   2
ATOM      2  C   UNL A   1      33.143  35.001  28.777  1.00  0.00     0.275 C 
BRANCH   2   3
ATOM      3  O   UNL A   1      32.660  34.769  30.111  1.00  0.00    -0.458 OA
BRANCH   3   4
ATOM      4  C   UNL A   1      32.927  35.738  31.040  1.00  0.00     0.343 C 
ATOM      5  O   UNL A   1      32.205  36.708  31.255  1.00  0.00    -0.246 OA
BRANCH   4   6
ATOM      6  C   UNL A   1      34.125  35.443  31.797  1.00  0.00     0.123 A 
ATOM      7  C   UNL A   1      34.424  35.892  33.067  1.00  0.00     0.205 A 
ATOM      8  O   UNL A   1      35.627  35.413  33.479  1.00  0.00    -0.440 OA
ATOM      9  C   UNL A   1      36.126  34.662  32.457  1.00  0.00     0.137 A 
ATOM     10  C   UNL A   1      35.215  34.605  31.427  1.00  0.00     0.069 A 
BRANCH   7  11
ATOM     11  N   UNL A   1      33.792  36.683  33.941  1.00  0.00    -0.369 N 
ATOM     12  H   UNL A   1      32.982  37.170  33.666  1.00  0.00     0.159 HD
ATOM     13  H   UNL A   1      34.138  36.780  34.858  1.00  0.00     0.159 HD
ENDBRANCH   7  11
BRANCH   9  14
ATOM     14  C   UNL A   1      37.487  34.184  32.606  1.00  0.00     0.017 A 
ATOM     15  C   UNL A   1      37.847  33.274  33.605  1.00  0.00     0.012 A 
ATOM     16  C   UNL A   1      38.474  34.671  31.738  1.00  0.00     0.012 A 
ATOM     17  C   UNL A   1      39.176  32.861  33.732  1.00  0.00     0.001 A 
ATOM     18  C   UNL A   1      39.802  34.270  31.873  1.00  0.00     0.001 A 
ATOM     19  C   UNL A   1      40.153  33.365  32.871  1.00  0.00     0.000 A 
ENDBRANCH   9  14
ENDBRANCH   4   6
ENDBRANCH   3   4
ENDBRANCH   2   3
ENDBRANCH   1   2
BRANCH   1  20
ATOM     20  O   UNL A   1      34.725  33.223  28.252  1.00  0.00    -0.458 OA
BRANCH  20  21
ATOM     21  C   UNL A   1      34.895  31.902  28.023  1.00  0.00     0.338 C 
ATOM     22  O   UNL A   1      34.176  31.166  27.369  1.00  0.00    -0.246 OA
BRANCH  21  23
ATOM     23  C   UNL A   1      36.004  31.404  28.835  1.00  0.00     0.060 A 
ATOM     24  C   UNL A   1      37.005  32.314  29.192  1.00  0.00     0.016 A 
ATOM     25  C   UNL A   1      36.175  30.020  28.952  1.00  0.00     0.016 A 
ATOM     26  C   UNL A   1      38.257  31.828  29.506  1.00  0.00     0.010 A 
ATOM     27  C   UNL A   1      37.423  29.538  29.254  1.00  0.00     0.010 A 
ATOM     28  C   UNL A   1      38.467  30.448  29.446  1.00  0.00    -0.014 A 
BRANCH  28  29
ATOM     29  C   UNL A   1      39.813  29.935  29.618  1.00  0.00     0.031 A 
ATOM     30  C   UNL A   1      40.289  29.901  31.026  1.00  0.00     0.074 A 
ATOM     31  C   UNL A   1      40.435  29.343  28.579  1.00  0.00     0.049 A 
ATOM     32  N   UNL A   1      41.435  30.257  31.505  1.00  0.00    -0.248 NA
ATOM     33  C   UNL A   1      39.320  29.471  32.054  1.00  0.00     0.031 C 
ATOM     34  C   UNL A   1      39.881  29.075  27.245  1.00  0.00     0.029 A 
ATOM     35  N   UNL A   1      41.636  28.707  28.540  1.00  0.00    -0.354 N 
ATOM     36  C   UNL A   1      41.391  29.945  32.862  1.00  0.00     0.074 A 
ATOM     37  C   UNL A   1      40.033  29.591  33.170  1.00  0.00     0.031 C 
ATOM     38  C   UNL A   1      40.629  28.130  26.636  1.00  0.00     0.029 A 
ATOM     39  C   UNL A   1      41.761  27.809  27.488  1.00  0.00     0.049 A 
ATOM     40  H   UNL A   1      42.352  28.867  29.196  1.00  0.00     0.167 HD
ATOM     41  C   UNL A   1      42.523  29.770  33.593  1.00  0.00     0.037 A 
ATOM     42  C   UNL A   1      42.661  26.801  27.391  1.00  0.00     0.037 A 
ATOM     43  C   UNL A   1      43.641  30.457  33.012  1.00  0.00     0.049 A 
ATOM     44  C   UNL A   1      43.731  27.055  28.391  1.00  0.00     0.074 A 
ATOM     45  C   UNL A   1      43.900  31.780  32.706  1.00  0.00     0.029 A 
ATOM     46  N   UNL A   1      44.584  29.731  32.329  1.00  0.00    -0.354 N 
ATOM     47  N   UNL A   1      44.597  28.027  28.313  1.00  0.00    -0.248 NA
ATOM     48  C   UNL A   1      43.563  26.475  29.716  1.00  0.00     0.031 C 
ATOM     49  C   UNL A   1      44.647  31.742  31.494  1.00  0.00     0.029 A 
ATOM     50  C   UNL A   1      44.833  30.401  31.159  1.00  0.00     0.049 A 
ATOM     51  H   UNL A   1      45.002  28.889  32.624  1.00  0.00     0.167 HD
ATOM     52  C   UNL A   1      44.767  28.454  29.622  1.00  0.00     0.074 A 
ATOM     53  C   UNL A   1      44.183  27.403  30.449  1.00  0.00     0.031 C 
ATOM     54  C   UNL A   1      45.106  29.745  29.903  1.00  0.00     0.037 A 
BRANCH  41  55
ATOM     55  C   UNL A   1      42.667  28.689  34.632  1.00  0.00     0.064 A 
ATOM     56  C   UNL A   1      43.271  28.993  35.866  1.00  0.00     0.173 A 
ATOM     57  C   UNL A   1      42.511  27.312  34.351  1.00  0.00     0.173 A 
ATOM     58  F   UNL A   1      43.492  30.267  36.222  1.00  0.00    -0.203 F 
ATOM     59  C   UNL A   1      43.745  27.993  36.719  1.00  0.00     0.198 A 
ATOM     60  C   UNL A   1      42.934  26.318  35.230  1.00  0.00     0.198 A 
ATOM     61  F   UNL A   1      42.049  26.871  33.174  1.00  0.00    -0.203 F 
ATOM     62  F   UNL A   1      44.427  28.329  37.822  1.00  0.00    -0.200 F 
ATOM     63  C   UNL A   1      43.582  26.657  36.398  1.00  0.00     0.200 A 
ATOM     64  F   UNL A   1      42.783  25.031  34.890  1.00  0.00    -0.200 F 
ATOM     65  F   UNL A   1      44.091  25.700  37.183  1.00  0.00    -0.200 F 
ENDBRANCH  41  55
BRANCH  42  66
ATOM     66  C   UNL A   1      42.485  25.483  26.732  1.00  0.00     0.064 A 
ATOM     67  C   UNL A   1      43.278  25.110  25.635  1.00  0.00     0.173 A 
ATOM     68  C   UNL A   1      41.703  24.464  27.310  1.00  0.00     0.173 A 
ATOM     69  F   UNL A   1      44.092  26.006  25.058  1.00  0.00    -0.203 F 
ATOM     70  C   UNL A   1      43.293  23.797  25.154  1.00  0.00     0.198 A 
ATOM     71  C   UNL A   1      41.706  23.158  26.820  1.00  0.00     0.198 A 
ATOM     72  F   UNL A   1      40.986  24.688  28.422  1.00  0.00    -0.203 F 
ATOM     73  F   UNL A   1      44.108  23.466  24.142  1.00  0.00    -0.200 F 
ATOM     74  C   UNL A   1      42.511  22.821  25.748  1.00  0.00     0.200 A 
ATOM     75  F   UNL A   1      40.968  22.218  27.428  1.00  0.00    -0.200 F 
ATOM     76  F   UNL A   1      42.562  21.553  25.319  1.00  0.00    -0.200 F 
ENDBRANCH  42  66
BRANCH  54  77
ATOM     77  C   UNL A   1      45.536  30.623  28.763  1.00  0.00     0.064 A 
ATOM     78  C   UNL A   1      44.640  31.343  27.954  1.00  0.00     0.173 A 
ATOM     79  C   UNL A   1      46.903  30.865  28.582  1.00  0.00     0.173 A 
ATOM     80  F   UNL A   1      43.317  31.254  28.140  1.00  0.00    -0.203 F 
ATOM     81  C   UNL A   1      45.094  32.223  26.974  1.00  0.00     0.198 A 
ATOM     82  C   UNL A   1      47.355  31.774  27.630  1.00  0.00     0.198 A 
ATOM     83  F   UNL A   1      47.804  30.255  29.368  1.00  0.00    -0.203 F 
ATOM     84  F   UNL A   1      44.218  32.886  26.206  1.00  0.00    -0.200 F 
ATOM     85  C   UNL A   1      46.452  32.444  26.818  1.00  0.00     0.200 A 
ATOM     86  F   UNL A   1      48.666  32.025  27.517  1.00  0.00    -0.200 F 
ATOM     87  F   UNL A   1      46.890  33.323  25.907  1.00  0.00    -0.200 F 
ENDBRANCH  54  77
ENDBRANCH  28  29
ENDBRANCH  21  23
ENDBRANCH  20  21
ENDBRANCH   1  20
TORSDOF 13
ENDMDL
