MODEL 1
REMARK VINA RESULT:     -10.9      0.000      0.000
REMARK SMILES O=C(OCCOC(=O)[C@@H](CCOCCO)c1cccc(F)c1)c1ccc(-c2c3nc(c(-c4c(F)c(F)c(F)c(F)c4F)c4ccc([nH]4)c(-c4c(F)c(F)c(F)c(F)c4F)c4nc(c(-c5c(F)c(F)c(F)c(F)c5F)c5ccc2[nH]5)C=C4)C=C3)cc1
REMARK SMILES IDX 7 1 8 2 6 3 5 4 4 5 3 6 2 7 1 8 23 9 24 10 85 11 25 12 84 13
REMARK SMILES IDX 26 14 27 15 28 16 78 17 29 18 83 19 77 20 79 21 30 22 82 23
REMARK SMILES IDX 76 24 75 25 31 27 63 28 43 29 62 30 44 31 47 32 61 33 80 34
REMARK SMILES IDX 45 35 46 36 60 38 81 39 48 40 32 41 33 42 41 43 34 44 35 45
REMARK SMILES IDX 39 46 42 47 36 48 37 49 40 50 38 51 64 52 65 53 73 54 66 55
REMARK SMILES IDX 67 56 71 57 74 58 68 59 69 60 72 61 70 62 49 63 50 64 58 65
REMARK SMILES IDX 51 66 52 67 56 68 59 69 53 70 54 71 57 72 55 73 9 74 10 75
REMARK SMILES IDX 11 76 12 77 13 78 14 79 15 80 16 82 17 83 22 84 18 85 20 86
REMARK SMILES IDX 19 87 21 88
REMARK H PARENT 79 26 47 37 15 81
REMARK Flexibility Score: inf
ROOT
ATOM      1  C   UNL A   1      32.619  28.776  23.679  1.00  0.00     0.313 C 
ATOM      2  O   UNL A   1      33.409  28.682  22.753  1.00  0.00    -0.252 OA
ENDROOT
BRANCH   1   3
ATOM      3  O   UNL A   1      32.847  29.530  24.813  1.00  0.00    -0.462 OA
BRANCH   3   4
ATOM      4  C   UNL A   1      31.701  30.064  25.514  1.00  0.00     0.274 C 
BRANCH   4   5
ATOM      5  C   UNL A   1      32.090  30.676  26.883  1.00  0.00     0.275 C 
BRANCH   5   6
ATOM      6  O   UNL A   1      32.254  32.115  26.875  1.00  0.00    -0.458 OA
BRANCH   6   7
ATOM      7  C   UNL A   1      33.145  32.840  27.596  1.00  0.00     0.338 C 
ATOM      8  O   UNL A   1      32.825  33.956  27.999  1.00  0.00    -0.246 OA
BRANCH   7   9
ATOM      9  C   UNL A   1      34.506  32.321  27.963  1.00  0.00     0.060 A 
ATOM     10  C   UNL A   1      35.687  33.072  27.970  1.00  0.00     0.016 A 
ATOM     11  C   UNL A   1      34.588  30.965  28.345  1.00  0.00     0.016 A 
ATOM     12  C   UNL A   1      36.867  32.532  28.533  1.00  0.00     0.010 A 
ATOM     13  C   UNL A   1      35.760  30.422  28.901  1.00  0.00     0.010 A 
ATOM     14  C   UNL A   1      36.893  31.224  29.074  1.00  0.00    -0.014 A 
BRANCH  14  15
ATOM     15  C   UNL A   1      38.129  30.689  29.721  1.00  0.00     0.031 A 
ATOM     16  C   UNL A   1      38.370  31.095  31.132  1.00  0.00     0.074 A 
ATOM     17  C   UNL A   1      39.039  29.895  29.111  1.00  0.00     0.049 A 
ATOM     18  N   UNL A   1      39.296  30.704  31.960  1.00  0.00    -0.248 NA
ATOM     19  C   UNL A   1      37.471  32.136  31.650  1.00  0.00     0.031 C 
ATOM     20  C   UNL A   1      39.066  29.581  27.695  1.00  0.00     0.029 A 
ATOM     21  N   UNL A   1      40.119  29.185  29.596  1.00  0.00    -0.354 N 
ATOM     22  C   UNL A   1      39.088  31.445  33.107  1.00  0.00     0.074 A 
ATOM     23  C   UNL A   1      37.989  32.350  32.846  1.00  0.00     0.031 C 
ATOM     24  C   UNL A   1      39.987  28.642  27.436  1.00  0.00     0.029 A 
ATOM     25  C   UNL A   1      40.697  28.339  28.665  1.00  0.00     0.049 A 
ATOM     26  H   UNL A   1      40.448  29.273  30.520  1.00  0.00     0.167 HD
ATOM     27  C   UNL A   1      39.750  31.373  34.282  1.00  0.00     0.037 A 
ATOM     28  C   UNL A   1      41.689  27.430  28.784  1.00  0.00     0.037 A 
ATOM     29  C   UNL A   1      40.899  30.547  34.502  1.00  0.00     0.049 A 
ATOM     30  C   UNL A   1      42.399  27.344  30.108  1.00  0.00     0.074 A 
ATOM     31  C   UNL A   1      41.698  30.458  35.625  1.00  0.00     0.029 A 
ATOM     32  N   UNL A   1      41.430  29.678  33.556  1.00  0.00    -0.354 N 
ATOM     33  N   UNL A   1      42.153  28.005  31.214  1.00  0.00    -0.248 NA
ATOM     34  C   UNL A   1      43.550  26.433  30.196  1.00  0.00     0.031 C 
ATOM     35  C   UNL A   1      42.728  29.552  35.350  1.00  0.00     0.029 A 
ATOM     36  C   UNL A   1      42.543  29.039  34.074  1.00  0.00     0.049 A 
ATOM     37  H   UNL A   1      41.068  29.537  32.652  1.00  0.00     0.167 HD
ATOM     38  C   UNL A   1      43.118  27.603  32.122  1.00  0.00     0.074 A 
ATOM     39  C   UNL A   1      43.933  26.607  31.455  1.00  0.00     0.031 C 
ATOM     40  C   UNL A   1      43.325  28.040  33.388  1.00  0.00     0.037 A 
BRANCH  27  41
ATOM     41  C   UNL A   1      39.218  32.260  35.361  1.00  0.00     0.064 A 
ATOM     42  C   UNL A   1      38.411  31.744  36.380  1.00  0.00     0.173 A 
ATOM     43  C   UNL A   1      39.661  33.591  35.470  1.00  0.00     0.173 A 
ATOM     44  F   UNL A   1      37.984  30.473  36.329  1.00  0.00    -0.203 F 
ATOM     45  C   UNL A   1      38.091  32.518  37.493  1.00  0.00     0.198 A 
ATOM     46  C   UNL A   1      39.367  34.347  36.598  1.00  0.00     0.198 A 
ATOM     47  F   UNL A   1      40.478  34.108  34.540  1.00  0.00    -0.203 F 
ATOM     48  F   UNL A   1      37.347  31.996  38.477  1.00  0.00    -0.200 F 
ATOM     49  C   UNL A   1      38.586  33.809  37.611  1.00  0.00     0.200 A 
ATOM     50  F   UNL A   1      39.894  35.572  36.735  1.00  0.00    -0.200 F 
ATOM     51  F   UNL A   1      38.338  34.524  38.716  1.00  0.00    -0.200 F 
ENDBRANCH  27  41
BRANCH  28  52
ATOM     52  C   UNL A   1      42.066  26.525  27.653  1.00  0.00     0.064 A 
ATOM     53  C   UNL A   1      43.088  26.838  26.743  1.00  0.00     0.173 A 
ATOM     54  C   UNL A   1      41.412  25.294  27.478  1.00  0.00     0.173 A 
ATOM     55  F   UNL A   1      43.765  27.989  26.865  1.00  0.00    -0.203 F 
ATOM     56  C   UNL A   1      43.427  25.971  25.701  1.00  0.00     0.198 A 
ATOM     57  C   UNL A   1      41.772  24.414  26.455  1.00  0.00     0.198 A 
ATOM     58  F   UNL A   1      40.450  24.920  28.334  1.00  0.00    -0.203 F 
ATOM     59  F   UNL A   1      44.398  26.307  24.841  1.00  0.00    -0.200 F 
ATOM     60  C   UNL A   1      42.774  24.756  25.562  1.00  0.00     0.200 A 
ATOM     61  F   UNL A   1      41.164  23.223  26.353  1.00  0.00    -0.200 F 
ATOM     62  F   UNL A   1      43.124  23.909  24.584  1.00  0.00    -0.200 F 
ENDBRANCH  28  52
BRANCH  40  63
ATOM     63  C   UNL A   1      44.464  27.436  34.149  1.00  0.00     0.064 A 
ATOM     64  C   UNL A   1      44.228  26.382  35.044  1.00  0.00     0.173 A 
ATOM     65  C   UNL A   1      45.757  27.974  34.083  1.00  0.00     0.173 A 
ATOM     66  F   UNL A   1      43.005  25.839  35.141  1.00  0.00    -0.203 F 
ATOM     67  C   UNL A   1      45.240  25.910  35.871  1.00  0.00     0.198 A 
ATOM     68  C   UNL A   1      46.774  27.481  34.894  1.00  0.00     0.198 A 
ATOM     69  F   UNL A   1      46.031  28.972  33.229  1.00  0.00    -0.203 F 
ATOM     70  F   UNL A   1      44.982  24.936  36.754  1.00  0.00    -0.200 F 
ATOM     71  C   UNL A   1      46.512  26.460  35.797  1.00  0.00     0.200 A 
ATOM     72  F   UNL A   1      48.008  27.998  34.808  1.00  0.00    -0.200 F 
ATOM     73  F   UNL A   1      47.484  26.010  36.601  1.00  0.00    -0.200 F 
ENDBRANCH  40  63
ENDBRANCH  14  15
ENDBRANCH   7   9
ENDBRANCH   6   7
ENDBRANCH   5   6
ENDBRANCH   4   5
ENDBRANCH   3   4
ENDBRANCH   1   3
BRANCH   1  74
ATOM     74  C   UNL A   1      31.228  28.113  23.744  1.00  0.00     0.131 C 
BRANCH  74  75
ATOM     75  C   UNL A   1      30.459  28.406  22.454  1.00  0.00     0.048 C 
BRANCH  75  76
ATOM     76  C   UNL A   1      30.263  29.893  22.103  1.00  0.00     0.161 C 
BRANCH  76  77
ATOM     77  O   UNL A   1      29.304  30.270  21.136  1.00  0.00    -0.379 OA
BRANCH  77  78
ATOM     78  C   UNL A   1      27.949  30.256  21.579  1.00  0.00     0.188 C 
BRANCH  78  79
ATOM     79  C   UNL A   1      27.656  31.417  22.522  1.00  0.00     0.184 C 
BRANCH  79  80
ATOM     80  O   UNL A   1      27.113  30.956  23.756  1.00  0.00    -0.394 OA
ATOM     81  H   UNL A   1      26.649  30.117  23.611  1.00  0.00     0.210 HD
ENDBRANCH  79  80
ENDBRANCH  78  79
ENDBRANCH  77  78
ENDBRANCH  76  77
ENDBRANCH  75  76
ENDBRANCH  74  75
BRANCH  74  82
ATOM     82  C   UNL A   1      31.167  26.622  24.122  1.00  0.00    -0.031 A 
ATOM     83  C   UNL A   1      30.618  25.688  23.233  1.00  0.00     0.005 A 
ATOM     84  C   UNL A   1      31.745  26.096  25.293  1.00  0.00     0.043 A 
ATOM     85  C   UNL A   1      30.617  24.314  23.534  1.00  0.00     0.003 A 
ATOM     86  C   UNL A   1      31.698  24.746  25.615  1.00  0.00     0.123 A 
ATOM     87  C   UNL A   1      31.136  23.843  24.739  1.00  0.00     0.039 A 
ATOM     88  F   UNL A   1      32.228  24.329  26.775  1.00  0.00    -0.207 F 
ENDBRANCH  74  82
ENDBRANCH   1  74
TORSDOF 18
ENDMDL
MODEL 2
REMARK VINA RESULT:     -10.7      6.203     11.774
REMARK SMILES O=C(OCCOC(=O)[C@@H](CCOCCO)c1cccc(F)c1)c1ccc(-c2c3nc(c(-c4c(F)c(F)c(F)c(F)c4F)c4ccc([nH]4)c(-c4c(F)c(F)c(F)c(F)c4F)c4nc(c(-c5c(F)c(F)c(F)c(F)c5F)c5ccc2[nH]5)C=C4)C=C3)cc1
REMARK SMILES IDX 7 1 8 2 6 3 5 4 4 5 3 6 2 7 1 8 23 9 24 10 85 11 25 12 84 13
REMARK SMILES IDX 26 14 27 15 28 16 78 17 29 18 83 19 77 20 79 21 30 22 82 23
REMARK SMILES IDX 76 24 75 25 31 27 63 28 43 29 62 30 44 31 47 32 61 33 80 34
REMARK SMILES IDX 45 35 46 36 60 38 81 39 48 40 32 41 33 42 41 43 34 44 35 45
REMARK SMILES IDX 39 46 42 47 36 48 37 49 40 50 38 51 64 52 65 53 73 54 66 55
REMARK SMILES IDX 67 56 71 57 74 58 68 59 69 60 72 61 70 62 49 63 50 64 58 65
REMARK SMILES IDX 51 66 52 67 56 68 59 69 53 70 54 71 57 72 55 73 9 74 10 75
REMARK SMILES IDX 11 76 12 77 13 78 14 79 15 80 16 82 17 83 22 84 18 85 20 86
REMARK SMILES IDX 19 87 21 88
REMARK H PARENT 79 26 47 37 15 81
REMARK Flexibility Score: inf
ROOT
ATOM      1  C   UNL A   1      43.251  23.178  25.409  1.00  0.00     0.313 C 
ATOM      2  O   UNL A   1      43.123  24.294  24.929  1.00  0.00    -0.252 OA
ENDROOT
BRANCH   1   3
ATOM      3  O   UNL A   1      42.434  22.108  25.099  1.00  0.00    -0.462 OA
BRANCH   3   4
ATOM      4  C   UNL A   1      42.290  21.058  26.083  1.00  0.00     0.274 C 
BRANCH   4   5
ATOM      5  C   UNL A   1      40.819  20.591  26.222  1.00  0.00     0.275 C 
BRANCH   5   6
ATOM      6  O   UNL A   1      39.962  21.504  26.948  1.00  0.00    -0.458 OA
BRANCH   6   7
ATOM      7  C   UNL A   1      39.319  22.590  26.454  1.00  0.00     0.338 C 
ATOM      8  O   UNL A   1      38.511  22.446  25.540  1.00  0.00    -0.246 OA
BRANCH   7   9
ATOM      9  C   UNL A   1      39.520  23.974  27.005  1.00  0.00     0.060 A 
ATOM     10  C   UNL A   1      39.253  24.371  28.319  1.00  0.00     0.016 A 
ATOM     11  C   UNL A   1      40.034  24.943  26.118  1.00  0.00     0.016 A 
ATOM     12  C   UNL A   1      39.678  25.641  28.777  1.00  0.00     0.010 A 
ATOM     13  C   UNL A   1      40.453  26.208  26.566  1.00  0.00     0.010 A 
ATOM     14  C   UNL A   1      40.352  26.543  27.921  1.00  0.00    -0.014 A 
BRANCH  14  15
ATOM     15  C   UNL A   1      40.848  27.856  28.433  1.00  0.00     0.031 A 
ATOM     16  C   UNL A   1      42.301  28.129  28.263  1.00  0.00     0.074 A 
ATOM     17  C   UNL A   1      40.083  28.785  29.052  1.00  0.00     0.049 A 
ATOM     18  N   UNL A   1      42.976  29.214  28.518  1.00  0.00    -0.248 NA
ATOM     19  C   UNL A   1      43.106  26.991  27.798  1.00  0.00     0.031 C 
ATOM     20  C   UNL A   1      38.710  28.592  29.481  1.00  0.00     0.029 A 
ATOM     21  N   UNL A   1      40.332  30.090  29.423  1.00  0.00    -0.354 N 
ATOM     22  C   UNL A   1      44.289  28.894  28.236  1.00  0.00     0.074 A 
ATOM     23  C   UNL A   1      44.324  27.500  27.850  1.00  0.00     0.031 C 
ATOM     24  C   UNL A   1      38.182  29.748  29.909  1.00  0.00     0.029 A 
ATOM     25  C   UNL A   1      39.213  30.768  29.874  1.00  0.00     0.049 A 
ATOM     26  H   UNL A   1      41.225  30.502  29.372  1.00  0.00     0.167 HD
ATOM     27  C   UNL A   1      45.375  29.695  28.286  1.00  0.00     0.037 A 
ATOM     28  C   UNL A   1      39.037  32.060  30.227  1.00  0.00     0.037 A 
ATOM     29  C   UNL A   1      45.351  31.046  28.763  1.00  0.00     0.049 A 
ATOM     30  C   UNL A   1      40.253  32.947  30.251  1.00  0.00     0.074 A 
ATOM     31  C   UNL A   1      46.405  31.921  28.936  1.00  0.00     0.029 A 
ATOM     32  N   UNL A   1      44.200  31.710  29.172  1.00  0.00    -0.354 N 
ATOM     33  N   UNL A   1      41.487  32.653  29.919  1.00  0.00    -0.248 NA
ATOM     34  C   UNL A   1      40.074  34.320  30.744  1.00  0.00     0.031 C 
ATOM     35  C   UNL A   1      45.895  33.108  29.473  1.00  0.00     0.029 A 
ATOM     36  C   UNL A   1      44.517  32.990  29.589  1.00  0.00     0.049 A 
ATOM     37  H   UNL A   1      43.293  31.326  29.166  1.00  0.00     0.167 HD
ATOM     38  C   UNL A   1      42.232  33.794  30.170  1.00  0.00     0.074 A 
ATOM     39  C   UNL A   1      41.306  34.803  30.644  1.00  0.00     0.031 C 
ATOM     40  C   UNL A   1      43.569  33.978  30.043  1.00  0.00     0.037 A 
BRANCH  27  41
ATOM     41  C   UNL A   1      46.649  29.059  27.833  1.00  0.00     0.064 A 
ATOM     42  C   UNL A   1      47.467  28.370  28.735  1.00  0.00     0.173 A 
ATOM     43  C   UNL A   1      46.962  28.992  26.463  1.00  0.00     0.173 A 
ATOM     44  F   UNL A   1      47.194  28.387  30.048  1.00  0.00    -0.203 F 
ATOM     45  C   UNL A   1      48.537  27.603  28.279  1.00  0.00     0.198 A 
ATOM     46  C   UNL A   1      48.010  28.199  26.011  1.00  0.00     0.198 A 
ATOM     47  F   UNL A   1      46.174  29.597  25.561  1.00  0.00    -0.203 F 
ATOM     48  F   UNL A   1      49.288  26.921  29.153  1.00  0.00    -0.200 F 
ATOM     49  C   UNL A   1      48.794  27.502  26.919  1.00  0.00     0.200 A 
ATOM     50  F   UNL A   1      48.219  28.057  24.695  1.00  0.00    -0.200 F 
ATOM     51  F   UNL A   1      49.777  26.705  26.480  1.00  0.00    -0.200 F 
ENDBRANCH  27  41
BRANCH  28  52
ATOM     52  C   UNL A   1      37.686  32.606  30.567  1.00  0.00     0.064 A 
ATOM     53  C   UNL A   1      37.112  32.467  31.841  1.00  0.00     0.173 A 
ATOM     54  C   UNL A   1      36.941  33.314  29.608  1.00  0.00     0.173 A 
ATOM     55  F   UNL A   1      37.778  31.818  32.808  1.00  0.00    -0.203 F 
ATOM     56  C   UNL A   1      35.852  32.994  32.135  1.00  0.00     0.198 A 
ATOM     57  C   UNL A   1      35.695  33.867  29.911  1.00  0.00     0.198 A 
ATOM     58  F   UNL A   1      37.448  33.512  28.382  1.00  0.00    -0.203 F 
ATOM     59  F   UNL A   1      35.328  32.831  33.358  1.00  0.00    -0.200 F 
ATOM     60  C   UNL A   1      35.148  33.700  31.172  1.00  0.00     0.200 A 
ATOM     61  F   UNL A   1      35.040  34.585  28.987  1.00  0.00    -0.200 F 
ATOM     62  F   UNL A   1      33.955  34.237  31.466  1.00  0.00    -0.200 F 
ENDBRANCH  28  52
BRANCH  40  63
ATOM     63  C   UNL A   1      44.117  35.324  30.402  1.00  0.00     0.064 A 
ATOM     64  C   UNL A   1      44.248  36.313  29.416  1.00  0.00     0.173 A 
ATOM     65  C   UNL A   1      44.618  35.593  31.683  1.00  0.00     0.173 A 
ATOM     66  F   UNL A   1      43.783  36.097  28.176  1.00  0.00    -0.203 F 
ATOM     67  C   UNL A   1      44.893  37.512  29.691  1.00  0.00     0.198 A 
ATOM     68  C   UNL A   1      45.241  36.806  31.962  1.00  0.00     0.198 A 
ATOM     69  F   UNL A   1      44.500  34.682  32.660  1.00  0.00    -0.203 F 
ATOM     70  F   UNL A   1      45.052  38.424  28.722  1.00  0.00    -0.200 F 
ATOM     71  C   UNL A   1      45.391  37.758  30.963  1.00  0.00     0.200 A 
ATOM     72  F   UNL A   1      45.703  37.052  33.195  1.00  0.00    -0.200 F 
ATOM     73  F   UNL A   1      46.020  38.911  31.225  1.00  0.00    -0.200 F 
ENDBRANCH  40  63
ENDBRANCH  14  15
ENDBRANCH   7   9
ENDBRANCH   6   7
ENDBRANCH   5   6
ENDBRANCH   4   5
ENDBRANCH   3   4
ENDBRANCH   1   3
BRANCH   1  74
ATOM     74  C   UNL A   1      44.347  22.747  26.404  1.00  0.00     0.131 C 
BRANCH  74  75
ATOM     75  C   UNL A   1      45.713  22.796  25.715  1.00  0.00     0.048 C 
BRANCH  75  76
ATOM     76  C   UNL A   1      46.079  21.577  24.847  1.00  0.00     0.161 C 
BRANCH  76  77
ATOM     77  O   UNL A   1      46.374  20.338  25.458  1.00  0.00    -0.379 OA
BRANCH  77  78
ATOM     78  C   UNL A   1      46.118  19.185  24.659  1.00  0.00     0.188 C 
BRANCH  78  79
ATOM     79  C   UNL A   1      44.695  19.187  24.113  1.00  0.00     0.184 C 
BRANCH  79  80
ATOM     80  O   UNL A   1      44.641  19.773  22.815  1.00  0.00    -0.394 OA
ATOM     81  H   UNL A   1      45.539  19.847  22.457  1.00  0.00     0.210 HD
ENDBRANCH  79  80
ENDBRANCH  78  79
ENDBRANCH  77  78
ENDBRANCH  76  77
ENDBRANCH  75  76
ENDBRANCH  74  75
BRANCH  74  82
ATOM     82  C   UNL A   1      44.373  23.441  27.778  1.00  0.00    -0.031 A 
ATOM     83  C   UNL A   1      43.257  23.380  28.623  1.00  0.00     0.005 A 
ATOM     84  C   UNL A   1      45.520  24.060  28.311  1.00  0.00     0.043 A 
ATOM     85  C   UNL A   1      43.289  23.950  29.909  1.00  0.00     0.003 A 
ATOM     86  C   UNL A   1      45.536  24.668  29.560  1.00  0.00     0.123 A 
ATOM     87  C   UNL A   1      44.423  24.617  30.370  1.00  0.00     0.039 A 
ATOM     88  F   UNL A   1      46.654  25.280  29.977  1.00  0.00    -0.207 F 
ENDBRANCH  74  82
ENDBRANCH   1  74
TORSDOF 18
ENDMDL
MODEL 3
REMARK VINA RESULT:     -10.6      4.811     10.051
REMARK SMILES O=C(OCCOC(=O)[C@@H](CCOCCO)c1cccc(F)c1)c1ccc(-c2c3nc(c(-c4c(F)c(F)c(F)c(F)c4F)c4ccc([nH]4)c(-c4c(F)c(F)c(F)c(F)c4F)c4nc(c(-c5c(F)c(F)c(F)c(F)c5F)c5ccc2[nH]5)C=C4)C=C3)cc1
REMARK SMILES IDX 7 1 8 2 6 3 5 4 4 5 3 6 2 7 1 8 23 9 24 10 85 11 25 12 84 13
REMARK SMILES IDX 26 14 27 15 28 16 78 17 29 18 83 19 77 20 79 21 30 22 82 23
REMARK SMILES IDX 76 24 75 25 31 27 63 28 43 29 62 30 44 31 47 32 61 33 80 34
REMARK SMILES IDX 45 35 46 36 60 38 81 39 48 40 32 41 33 42 41 43 34 44 35 45
REMARK SMILES IDX 39 46 42 47 36 48 37 49 40 50 38 51 64 52 65 53 73 54 66 55
REMARK SMILES IDX 67 56 71 57 74 58 68 59 69 60 72 61 70 62 49 63 50 64 58 65
REMARK SMILES IDX 51 66 52 67 56 68 59 69 53 70 54 71 57 72 55 73 9 74 10 75
REMARK SMILES IDX 11 76 12 77 13 78 14 79 15 80 16 82 17 83 22 84 18 85 20 86
REMARK SMILES IDX 19 87 21 88
REMARK H PARENT 79 26 47 37 15 81
REMARK Flexibility Score: inf
ROOT
ATOM      1  C   UNL A   1      34.377  23.315  23.259  1.00  0.00     0.313 C 
ATOM      2  O   UNL A   1      34.566  23.316  22.053  1.00  0.00    -0.252 OA
ENDROOT
BRANCH   1   3
ATOM      3  O   UNL A   1      35.379  23.152  24.196  1.00  0.00    -0.462 OA
BRANCH   3   4
ATOM      4  C   UNL A   1      36.680  22.726  23.731  1.00  0.00     0.274 C 
BRANCH   4   5
ATOM      5  C   UNL A   1      37.044  21.309  24.242  1.00  0.00     0.275 C 
BRANCH   5   6
ATOM      6  O   UNL A   1      37.559  21.270  25.594  1.00  0.00    -0.458 OA
BRANCH   6   7
ATOM      7  C   UNL A   1      38.857  21.353  25.978  1.00  0.00     0.338 C 
ATOM      8  O   UNL A   1      39.626  20.436  25.702  1.00  0.00    -0.246 OA
BRANCH   7   9
ATOM      9  C   UNL A   1      39.416  22.548  26.699  1.00  0.00     0.060 A 
ATOM     10  C   UNL A   1      40.505  22.531  27.576  1.00  0.00     0.016 A 
ATOM     11  C   UNL A   1      38.790  23.789  26.453  1.00  0.00     0.016 A 
ATOM     12  C   UNL A   1      41.069  23.747  28.030  1.00  0.00     0.010 A 
ATOM     13  C   UNL A   1      39.343  24.999  26.906  1.00  0.00     0.010 A 
ATOM     14  C   UNL A   1      40.537  24.997  27.636  1.00  0.00    -0.014 A 
BRANCH  14  15
ATOM     15  C   UNL A   1      41.180  26.274  28.073  1.00  0.00     0.031 A 
ATOM     16  C   UNL A   1      42.567  26.516  27.596  1.00  0.00     0.074 A 
ATOM     17  C   UNL A   1      40.601  27.194  28.879  1.00  0.00     0.049 A 
ATOM     18  N   UNL A   1      43.319  27.571  27.736  1.00  0.00    -0.248 NA
ATOM     19  C   UNL A   1      43.211  25.378  26.924  1.00  0.00     0.031 C 
ATOM     20  C   UNL A   1      39.351  27.018  29.594  1.00  0.00     0.029 A 
ATOM     21  N   UNL A   1      40.971  28.475  29.233  1.00  0.00    -0.354 N 
ATOM     22  C   UNL A   1      44.527  27.230  27.159  1.00  0.00     0.074 A 
ATOM     23  C   UNL A   1      44.427  25.853  26.724  1.00  0.00     0.031 C 
ATOM     24  C   UNL A   1      38.970  28.168  30.170  1.00  0.00     0.029 A 
ATOM     25  C   UNL A   1      40.003  29.162  29.945  1.00  0.00     0.049 A 
ATOM     26  H   UNL A   1      41.845  28.866  29.001  1.00  0.00     0.167 HD
ATOM     27  C   UNL A   1      45.625  27.999  26.997  1.00  0.00     0.037 A 
ATOM     28  C   UNL A   1      39.954  30.441  30.374  1.00  0.00     0.037 A 
ATOM     29  C   UNL A   1      45.752  29.328  27.516  1.00  0.00     0.049 A 
ATOM     30  C   UNL A   1      41.176  31.294  30.162  1.00  0.00     0.074 A 
ATOM     31  C   UNL A   1      46.849  30.167  27.483  1.00  0.00     0.029 A 
ATOM     32  N   UNL A   1      44.744  30.003  28.194  1.00  0.00    -0.354 N 
ATOM     33  N   UNL A   1      42.295  30.984  29.555  1.00  0.00    -0.248 NA
ATOM     34  C   UNL A   1      41.157  32.650  30.732  1.00  0.00     0.031 C 
ATOM     35  C   UNL A   1      46.511  31.343  28.163  1.00  0.00     0.029 A 
ATOM     36  C   UNL A   1      45.189  31.256  28.576  1.00  0.00     0.049 A 
ATOM     37  H   UNL A   1      43.845  29.644  28.374  1.00  0.00     0.167 HD
ATOM     38  C   UNL A   1      43.117  32.092  29.677  1.00  0.00     0.074 A 
ATOM     39  C   UNL A   1      42.354  33.104  30.380  1.00  0.00     0.031 C 
ATOM     40  C   UNL A   1      44.398  32.248  29.264  1.00  0.00     0.037 A 
BRANCH  27  41
ATOM     41  C   UNL A   1      46.745  27.350  26.250  1.00  0.00     0.064 A 
ATOM     42  C   UNL A   1      46.882  27.525  24.869  1.00  0.00     0.173 A 
ATOM     43  C   UNL A   1      47.780  26.699  26.946  1.00  0.00     0.173 A 
ATOM     44  F   UNL A   1      45.932  28.161  24.168  1.00  0.00    -0.203 F 
ATOM     45  C   UNL A   1      48.034  27.100  24.211  1.00  0.00     0.198 A 
ATOM     46  C   UNL A   1      48.941  26.307  26.290  1.00  0.00     0.198 A 
ATOM     47  F   UNL A   1      47.710  26.556  28.279  1.00  0.00    -0.203 F 
ATOM     48  F   UNL A   1      48.164  27.307  22.894  1.00  0.00    -0.200 F 
ATOM     49  C   UNL A   1      49.069  26.512  24.925  1.00  0.00     0.200 A 
ATOM     50  F   UNL A   1      49.961  25.793  26.992  1.00  0.00    -0.200 F 
ATOM     51  F   UNL A   1      50.205  26.172  24.301  1.00  0.00    -0.200 F 
ENDBRANCH  27  41
BRANCH  28  52
ATOM     52  C   UNL A   1      38.730  31.007  31.025  1.00  0.00     0.064 A 
ATOM     53  C   UNL A   1      37.682  31.584  30.291  1.00  0.00     0.173 A 
ATOM     54  C   UNL A   1      38.577  30.955  32.421  1.00  0.00     0.173 A 
ATOM     55  F   UNL A   1      37.756  31.648  28.953  1.00  0.00    -0.203 F 
ATOM     56  C   UNL A   1      36.546  32.096  30.922  1.00  0.00     0.198 A 
ATOM     57  C   UNL A   1      37.428  31.440  33.049  1.00  0.00     0.198 A 
ATOM     58  F   UNL A   1      39.528  30.386  33.176  1.00  0.00    -0.203 F 
ATOM     59  F   UNL A   1      35.569  32.653  30.193  1.00  0.00    -0.200 F 
ATOM     60  C   UNL A   1      36.416  32.018  32.300  1.00  0.00     0.200 A 
ATOM     61  F   UNL A   1      37.292  31.322  34.378  1.00  0.00    -0.200 F 
ATOM     62  F   UNL A   1      35.310  32.477  32.902  1.00  0.00    -0.200 F 
ENDBRANCH  28  52
BRANCH  40  63
ATOM     63  C   UNL A   1      45.059  33.562  29.541  1.00  0.00     0.064 A 
ATOM     64  C   UNL A   1      45.695  33.780  30.772  1.00  0.00     0.173 A 
ATOM     65  C   UNL A   1      44.959  34.635  28.646  1.00  0.00     0.173 A 
ATOM     66  F   UNL A   1      45.811  32.780  31.660  1.00  0.00    -0.203 F 
ATOM     67  C   UNL A   1      46.179  35.038  31.111  1.00  0.00     0.198 A 
ATOM     68  C   UNL A   1      45.469  35.887  28.978  1.00  0.00     0.198 A 
ATOM     69  F   UNL A   1      44.373  34.467  27.451  1.00  0.00    -0.203 F 
ATOM     70  F   UNL A   1      46.740  35.237  32.311  1.00  0.00    -0.200 F 
ATOM     71  C   UNL A   1      46.065  36.091  30.215  1.00  0.00     0.200 A 
ATOM     72  F   UNL A   1      45.377  36.899  28.104  1.00  0.00    -0.200 F 
ATOM     73  F   UNL A   1      46.525  37.304  30.545  1.00  0.00    -0.200 F 
ENDBRANCH  40  63
ENDBRANCH  14  15
ENDBRANCH   7   9
ENDBRANCH   6   7
ENDBRANCH   5   6
ENDBRANCH   4   5
ENDBRANCH   3   4
ENDBRANCH   1   3
BRANCH   1  74
ATOM     74  C   UNL A   1      33.018  23.526  23.957  1.00  0.00     0.131 C 
BRANCH  74  75
ATOM     75  C   UNL A   1      32.697  22.313  24.833  1.00  0.00     0.048 C 
BRANCH  75  76
ATOM     76  C   UNL A   1      32.644  20.952  24.114  1.00  0.00     0.161 C 
BRANCH  76  77
ATOM     77  O   UNL A   1      33.410  19.867  24.598  1.00  0.00    -0.379 OA
BRANCH  77  78
ATOM     78  C   UNL A   1      32.965  18.574  24.192  1.00  0.00     0.188 C 
BRANCH  78  79
ATOM     79  C   UNL A   1      32.498  17.744  25.382  1.00  0.00     0.184 C 
BRANCH  79  80
ATOM     80  O   UNL A   1      32.651  18.462  26.604  1.00  0.00    -0.394 OA
ATOM     81  H   UNL A   1      33.012  17.870  27.282  1.00  0.00     0.210 HD
ENDBRANCH  79  80
ENDBRANCH  78  79
ENDBRANCH  77  78
ENDBRANCH  76  77
ENDBRANCH  75  76
ENDBRANCH  74  75
BRANCH  74  82
ATOM     82  C   UNL A   1      32.804  24.851  24.711  1.00  0.00    -0.031 A 
ATOM     83  C   UNL A   1      31.862  24.932  25.746  1.00  0.00     0.005 A 
ATOM     84  C   UNL A   1      33.593  25.998  24.501  1.00  0.00     0.043 A 
ATOM     85  C   UNL A   1      31.703  26.116  26.490  1.00  0.00     0.003 A 
ATOM     86  C   UNL A   1      33.401  27.183  25.200  1.00  0.00     0.123 A 
ATOM     87  C   UNL A   1      32.457  27.252  26.201  1.00  0.00     0.039 A 
ATOM     88  F   UNL A   1      34.162  28.248  24.908  1.00  0.00    -0.207 F 
ENDBRANCH  74  82
ENDBRANCH   1  74
TORSDOF 18
ENDMDL
