MODEL 1
REMARK VINA RESULT:     -11.1      0.000      0.000
REMARK SMILES CC(C)S(=O)(=O)N[C@](C)(C(=O)OCCOC(=O)c1ccc(-c2c3nc(c(-c4c(F)c(F)c(F)c(F)c4F)c4ccc([nH]4)c(-c4c(F)c(F)c(F)c(F)c4F)c4nc(c(-c5c(F)c(F)c(F)c(F)c5F)c5ccc2[nH]5)C=C4)C=C3)cc1)C(F)(F)F
REMARK SMILES IDX 13 1 12 2 10 3 11 4 8 5 9 6 7 7 4 9 5 10 6 11 2 12 1 13 3 14
REMARK SMILES IDX 81 15 82 16 83 17 84 18 14 19 15 20 16 21 17 22 18 23 19 24
REMARK SMILES IDX 80 25 20 26 79 27 21 28 22 29 23 30 73 31 24 32 78 33 72 34
REMARK SMILES IDX 74 35 25 36 77 37 71 38 70 39 26 41 58 42 38 43 57 44 39 45
REMARK SMILES IDX 42 46 56 47 75 48 40 49 41 50 55 52 76 53 43 54 27 55 28 56
REMARK SMILES IDX 36 57 29 58 30 59 34 60 37 61 31 62 32 63 35 64 33 65 59 66
REMARK SMILES IDX 60 67 68 68 61 69 62 70 66 71 69 72 63 73 64 74 67 75 65 76
REMARK SMILES IDX 44 77 45 78 53 79 46 80 47 81 51 82 54 83 48 84 49 85 52 86
REMARK SMILES IDX 50 87
REMARK H PARENT 7 8 74 40 42 51
REMARK Flexibility Score: inf
ROOT
ATOM      1  C   UNL A   1      31.800  28.866  26.914  1.00  0.00     0.274 C 
ENDROOT
BRANCH   1   2
ATOM      2  O   UNL A   1      31.851  28.341  25.568  1.00  0.00    -0.460 OA
BRANCH   2   3
ATOM      3  C   UNL A   1      30.950  27.371  25.227  1.00  0.00     0.336 C 
ATOM      4  O   UNL A   1      30.709  26.409  25.945  1.00  0.00    -0.250 OA
BRANCH   3   5
ATOM      5  C   UNL A   1      30.411  27.548  23.788  1.00  0.00     0.222 C 
ATOM      6  C   UNL A   1      29.218  26.618  23.560  1.00  0.00     0.052 C 
BRANCH   5   7
ATOM      7  N   UNL A   1      29.987  29.009  23.782  1.00  0.00    -0.190 NA
ATOM      8  H   UNL A   1      29.568  29.186  24.694  1.00  0.00     0.142 HD
BRANCH   7   9
ATOM      9  S   UNL A   1      28.926  29.631  22.655  1.00  0.00     0.215 S 
ATOM     10  O   UNL A   1      27.679  28.907  22.716  1.00  0.00    -0.212 OA
ATOM     11  O   UNL A   1      29.703  29.671  21.439  1.00  0.00    -0.212 OA
BRANCH   9  12
ATOM     12  C   UNL A   1      28.623  31.338  23.161  1.00  0.00     0.118 C 
ATOM     13  C   UNL A   1      28.779  32.349  22.029  1.00  0.00     0.026 C 
ATOM     14  C   UNL A   1      27.288  31.498  23.874  1.00  0.00     0.026 C 
ENDBRANCH   9  12
ENDBRANCH   7   9
ENDBRANCH   5   7
BRANCH   5  15
ATOM     15  C   UNL A   1      31.553  27.178  22.809  1.00  0.00     0.418 C 
ATOM     16  F   UNL A   1      31.041  26.692  21.652  1.00  0.00    -0.168 F 
ATOM     17  F   UNL A   1      32.330  28.213  22.442  1.00  0.00    -0.168 F 
ATOM     18  F   UNL A   1      32.401  26.242  23.290  1.00  0.00    -0.168 F 
ENDBRANCH   5  15
ENDBRANCH   3   5
ENDBRANCH   2   3
ENDBRANCH   1   2
BRANCH   1  19
ATOM     19  C   UNL A   1      31.773  30.391  26.865  1.00  0.00     0.275 C 
BRANCH  19  20
ATOM     20  O   UNL A   1      33.082  30.875  26.510  1.00  0.00    -0.458 OA
BRANCH  20  21
ATOM     21  C   UNL A   1      33.593  31.813  27.336  1.00  0.00     0.338 C 
ATOM     22  O   UNL A   1      33.028  32.793  27.792  1.00  0.00    -0.246 OA
BRANCH  21  23
ATOM     23  C   UNL A   1      34.947  31.428  27.758  1.00  0.00     0.060 A 
ATOM     24  C   UNL A   1      35.166  30.111  28.139  1.00  0.00     0.016 A 
ATOM     25  C   UNL A   1      35.919  32.394  28.002  1.00  0.00     0.016 A 
ATOM     26  C   UNL A   1      36.273  29.793  28.918  1.00  0.00     0.010 A 
ATOM     27  C   UNL A   1      37.112  32.026  28.639  1.00  0.00     0.010 A 
ATOM     28  C   UNL A   1      37.286  30.729  29.156  1.00  0.00    -0.014 A 
BRANCH  28  29
ATOM     29  C   UNL A   1      38.499  30.353  29.946  1.00  0.00     0.031 A 
ATOM     30  C   UNL A   1      39.540  29.427  29.366  1.00  0.00     0.074 A 
ATOM     31  C   UNL A   1      38.678  30.838  31.194  1.00  0.00     0.049 A 
ATOM     32  N   UNL A   1      40.516  28.791  29.968  1.00  0.00    -0.248 NA
ATOM     33  C   UNL A   1      39.464  29.164  27.920  1.00  0.00     0.031 C 
ATOM     34  C   UNL A   1      37.801  31.796  31.871  1.00  0.00     0.029 A 
ATOM     35  N   UNL A   1      39.664  30.596  32.121  1.00  0.00    -0.354 N 
ATOM     36  C   UNL A   1      41.119  28.002  28.994  1.00  0.00     0.074 A 
ATOM     37  C   UNL A   1      40.399  28.237  27.760  1.00  0.00     0.031 C 
ATOM     38  C   UNL A   1      38.310  32.099  33.071  1.00  0.00     0.029 A 
ATOM     39  C   UNL A   1      39.471  31.256  33.311  1.00  0.00     0.049 A 
ATOM     40  H   UNL A   1      40.435  30.007  31.949  1.00  0.00     0.167 HD
ATOM     41  C   UNL A   1      42.171  27.156  29.124  1.00  0.00     0.037 A 
ATOM     42  C   UNL A   1      40.102  31.150  34.495  1.00  0.00     0.037 A 
ATOM     43  C   UNL A   1      42.919  26.980  30.345  1.00  0.00     0.049 A 
ATOM     44  C   UNL A   1      41.220  30.160  34.633  1.00  0.00     0.074 A 
ATOM     45  C   UNL A   1      44.018  26.169  30.576  1.00  0.00     0.029 A 
ATOM     46  N   UNL A   1      42.655  27.639  31.538  1.00  0.00    -0.354 N 
ATOM     47  N   UNL A   1      41.739  29.367  33.728  1.00  0.00    -0.248 NA
ATOM     48  C   UNL A   1      41.824  30.031  35.965  1.00  0.00     0.031 C 
ATOM     49  C   UNL A   1      44.376  26.288  31.923  1.00  0.00     0.029 A 
ATOM     50  C   UNL A   1      43.550  27.228  32.515  1.00  0.00     0.049 A 
ATOM     51  H   UNL A   1      41.936  28.299  31.671  1.00  0.00     0.167 HD
ATOM     52  C   UNL A   1      42.748  28.665  34.371  1.00  0.00     0.074 A 
ATOM     53  C   UNL A   1      42.778  29.140  35.740  1.00  0.00     0.031 C 
ATOM     54  C   UNL A   1      43.574  27.714  33.871  1.00  0.00     0.037 A 
BRANCH  41  55
ATOM     55  C   UNL A   1      42.553  26.311  27.938  1.00  0.00     0.064 A 
ATOM     56  C   UNL A   1      41.967  25.063  27.680  1.00  0.00     0.173 A 
ATOM     57  C   UNL A   1      43.497  26.789  27.013  1.00  0.00     0.173 A 
ATOM     58  F   UNL A   1      41.065  24.551  28.531  1.00  0.00    -0.203 F 
ATOM     59  C   UNL A   1      42.333  24.314  26.562  1.00  0.00     0.198 A 
ATOM     60  C   UNL A   1      43.834  26.055  25.879  1.00  0.00     0.198 A 
ATOM     61  F   UNL A   1      44.085  27.982  27.201  1.00  0.00    -0.203 F 
ATOM     62  F   UNL A   1      41.797  23.103  26.365  1.00  0.00    -0.200 F 
ATOM     63  C   UNL A   1      43.259  24.815  25.659  1.00  0.00     0.200 A 
ATOM     64  F   UNL A   1      44.715  26.551  24.999  1.00  0.00    -0.200 F 
ATOM     65  F   UNL A   1      43.601  24.098  24.580  1.00  0.00    -0.200 F 
ENDBRANCH  41  55
BRANCH  42  66
ATOM     66  C   UNL A   1      39.647  31.965  35.654  1.00  0.00     0.064 A 
ATOM     67  C   UNL A   1      40.257  33.189  35.958  1.00  0.00     0.173 A 
ATOM     68  C   UNL A   1      38.589  31.544  36.477  1.00  0.00     0.173 A 
ATOM     69  F   UNL A   1      41.288  33.624  35.219  1.00  0.00    -0.203 F 
ATOM     70  C   UNL A   1      39.835  33.954  37.043  1.00  0.00     0.198 A 
ATOM     71  C   UNL A   1      38.143  32.327  37.537  1.00  0.00     0.198 A 
ATOM     72  F   UNL A   1      37.969  30.379  36.232  1.00  0.00    -0.203 F 
ATOM     73  F   UNL A   1      40.467  35.097  37.340  1.00  0.00    -0.200 F 
ATOM     74  C   UNL A   1      38.772  33.528  37.826  1.00  0.00     0.200 A 
ATOM     75  F   UNL A   1      37.102  31.920  38.276  1.00  0.00    -0.200 F 
ATOM     76  F   UNL A   1      38.360  34.269  38.863  1.00  0.00    -0.200 F 
ENDBRANCH  42  66
BRANCH  54  77
ATOM     77  C   UNL A   1      44.618  27.163  34.798  1.00  0.00     0.064 A 
ATOM     78  C   UNL A   1      44.401  25.999  35.552  1.00  0.00     0.173 A 
ATOM     79  C   UNL A   1      45.863  27.799  34.917  1.00  0.00     0.173 A 
ATOM     80  F   UNL A   1      43.221  25.363  35.488  1.00  0.00    -0.203 F 
ATOM     81  C   UNL A   1      45.380  25.512  36.413  1.00  0.00     0.198 A 
ATOM     82  C   UNL A   1      46.853  27.289  35.751  1.00  0.00     0.198 A 
ATOM     83  F   UNL A   1      46.124  28.912  34.216  1.00  0.00    -0.203 F 
ATOM     84  F   UNL A   1      45.129  24.433  37.168  1.00  0.00    -0.200 F 
ATOM     85  C   UNL A   1      46.606  26.152  36.506  1.00  0.00     0.200 A 
ATOM     86  F   UNL A   1      48.043  27.899  35.828  1.00  0.00    -0.200 F 
ATOM     87  F   UNL A   1      47.551  25.677  37.331  1.00  0.00    -0.200 F 
ENDBRANCH  54  77
ENDBRANCH  28  29
ENDBRANCH  21  23
ENDBRANCH  20  21
ENDBRANCH  19  20
ENDBRANCH   1  19
TORSDOF 15
ENDMDL
MODEL 2
REMARK VINA RESULT:     -11.1      0.199      1.701
REMARK SMILES CC(C)S(=O)(=O)N[C@](C)(C(=O)OCCOC(=O)c1ccc(-c2c3nc(c(-c4c(F)c(F)c(F)c(F)c4F)c4ccc([nH]4)c(-c4c(F)c(F)c(F)c(F)c4F)c4nc(c(-c5c(F)c(F)c(F)c(F)c5F)c5ccc2[nH]5)C=C4)C=C3)cc1)C(F)(F)F
REMARK SMILES IDX 13 1 12 2 10 3 11 4 8 5 9 6 7 7 4 9 5 10 6 11 2 12 1 13 3 14
REMARK SMILES IDX 81 15 82 16 83 17 84 18 14 19 15 20 16 21 17 22 18 23 19 24
REMARK SMILES IDX 80 25 20 26 79 27 21 28 22 29 23 30 73 31 24 32 78 33 72 34
REMARK SMILES IDX 74 35 25 36 77 37 71 38 70 39 26 41 58 42 38 43 57 44 39 45
REMARK SMILES IDX 42 46 56 47 75 48 40 49 41 50 55 52 76 53 43 54 27 55 28 56
REMARK SMILES IDX 36 57 29 58 30 59 34 60 37 61 31 62 32 63 35 64 33 65 59 66
REMARK SMILES IDX 60 67 68 68 61 69 62 70 66 71 69 72 63 73 64 74 67 75 65 76
REMARK SMILES IDX 44 77 45 78 53 79 46 80 47 81 51 82 54 83 48 84 49 85 52 86
REMARK SMILES IDX 50 87
REMARK H PARENT 7 8 74 40 42 51
REMARK Flexibility Score: inf
ROOT
ATOM      1  C   UNL A   1      31.781  29.108  26.850  1.00  0.00     0.274 C 
ENDROOT
BRANCH   1   2
ATOM      2  O   UNL A   1      31.792  28.654  25.477  1.00  0.00    -0.460 OA
BRANCH   2   3
ATOM      3  C   UNL A   1      30.989  27.598  25.149  1.00  0.00     0.336 C 
ATOM      4  O   UNL A   1      30.839  26.626  25.880  1.00  0.00    -0.250 OA
BRANCH   3   5
ATOM      5  C   UNL A   1      30.439  27.701  23.706  1.00  0.00     0.222 C 
ATOM      6  C   UNL A   1      29.268  26.734  23.524  1.00  0.00     0.052 C 
BRANCH   5   7
ATOM      7  N   UNL A   1      29.981  29.150  23.642  1.00  0.00    -0.190 NA
ATOM      8  H   UNL A   1      29.518  29.341  24.531  1.00  0.00     0.142 HD
BRANCH   7   9
ATOM      9  S   UNL A   1      28.954  29.715  22.454  1.00  0.00     0.215 S 
ATOM     10  O   UNL A   1      27.715  28.978  22.497  1.00  0.00    -0.212 OA
ATOM     11  O   UNL A   1      29.776  29.719  21.267  1.00  0.00    -0.212 OA
BRANCH   9  12
ATOM     12  C   UNL A   1      28.613  31.436  22.883  1.00  0.00     0.118 C 
ATOM     13  C   UNL A   1      28.373  32.332  21.671  1.00  0.00     0.026 C 
ATOM     14  C   UNL A   1      27.492  31.562  23.903  1.00  0.00     0.026 C 
ENDBRANCH   9  12
ENDBRANCH   7   9
ENDBRANCH   5   7
BRANCH   5  15
ATOM     15  C   UNL A   1      31.586  27.318  22.738  1.00  0.00     0.418 C 
ATOM     16  F   UNL A   1      32.393  26.393  23.310  1.00  0.00    -0.168 F 
ATOM     17  F   UNL A   1      31.178  26.762  21.582  1.00  0.00    -0.168 F 
ATOM     18  F   UNL A   1      32.368  28.360  22.381  1.00  0.00    -0.168 F 
ENDBRANCH   5  15
ENDBRANCH   3   5
ENDBRANCH   2   3
ENDBRANCH   1   2
BRANCH   1  19
ATOM     19  C   UNL A   1      31.746  30.634  26.882  1.00  0.00     0.275 C 
BRANCH  19  20
ATOM     20  O   UNL A   1      33.032  31.144  26.483  1.00  0.00    -0.458 OA
BRANCH  20  21
ATOM     21  C   UNL A   1      33.560  32.078  27.303  1.00  0.00     0.338 C 
ATOM     22  O   UNL A   1      33.012  33.068  27.756  1.00  0.00    -0.246 OA
BRANCH  21  23
ATOM     23  C   UNL A   1      34.910  31.675  27.721  1.00  0.00     0.060 A 
ATOM     24  C   UNL A   1      35.125  30.344  28.051  1.00  0.00     0.016 A 
ATOM     25  C   UNL A   1      35.880  32.630  28.012  1.00  0.00     0.016 A 
ATOM     26  C   UNL A   1      36.225  29.995  28.827  1.00  0.00     0.010 A 
ATOM     27  C   UNL A   1      37.067  32.236  28.646  1.00  0.00     0.010 A 
ATOM     28  C   UNL A   1      37.236  30.920  29.112  1.00  0.00    -0.014 A 
BRANCH  28  29
ATOM     29  C   UNL A   1      38.441  30.511  29.897  1.00  0.00     0.031 A 
ATOM     30  C   UNL A   1      39.475  29.588  29.299  1.00  0.00     0.074 A 
ATOM     31  C   UNL A   1      38.621  30.964  31.157  1.00  0.00     0.049 A 
ATOM     32  N   UNL A   1      40.442  28.927  29.888  1.00  0.00    -0.248 NA
ATOM     33  C   UNL A   1      39.402  29.361  27.846  1.00  0.00     0.031 C 
ATOM     34  C   UNL A   1      37.751  31.915  31.854  1.00  0.00     0.029 A 
ATOM     35  N   UNL A   1      39.601  30.688  32.081  1.00  0.00    -0.354 N 
ATOM     36  C   UNL A   1      41.040  28.156  28.898  1.00  0.00     0.074 A 
ATOM     37  C   UNL A   1      40.327  28.428  27.668  1.00  0.00     0.031 C 
ATOM     38  C   UNL A   1      38.259  32.184  33.062  1.00  0.00     0.029 A 
ATOM     39  C   UNL A   1      39.409  31.322  33.286  1.00  0.00     0.049 A 
ATOM     40  H   UNL A   1      40.365  30.096  31.898  1.00  0.00     0.167 HD
ATOM     41  C   UNL A   1      42.082  27.295  29.012  1.00  0.00     0.037 A 
ATOM     42  C   UNL A   1      40.035  31.181  34.470  1.00  0.00     0.037 A 
ATOM     43  C   UNL A   1      42.824  27.082  30.231  1.00  0.00     0.049 A 
ATOM     44  C   UNL A   1      41.141  30.175  34.588  1.00  0.00     0.074 A 
ATOM     45  C   UNL A   1      43.912  26.254  30.446  1.00  0.00     0.029 A 
ATOM     46  N   UNL A   1      42.561  27.714  31.438  1.00  0.00    -0.354 N 
ATOM     47  N   UNL A   1      41.655  29.399  33.666  1.00  0.00    -0.248 NA
ATOM     48  C   UNL A   1      41.738  30.008  35.919  1.00  0.00     0.031 C 
ATOM     49  C   UNL A   1      44.266  26.336  31.797  1.00  0.00     0.029 A 
ATOM     50  C   UNL A   1      43.448  27.270  32.409  1.00  0.00     0.049 A 
ATOM     51  H   UNL A   1      41.849  28.379  31.585  1.00  0.00     0.167 HD
ATOM     52  C   UNL A   1      42.654  28.671  34.296  1.00  0.00     0.074 A 
ATOM     53  C   UNL A   1      42.684  29.112  35.676  1.00  0.00     0.031 C 
ATOM     54  C   UNL A   1      43.472  27.723  33.776  1.00  0.00     0.037 A 
BRANCH  41  55
ATOM     55  C   UNL A   1      42.460  26.475  27.807  1.00  0.00     0.064 A 
ATOM     56  C   UNL A   1      43.463  26.869  26.910  1.00  0.00     0.173 A 
ATOM     57  C   UNL A   1      41.830  25.240  27.575  1.00  0.00     0.173 A 
ATOM     58  F   UNL A   1      44.095  28.041  27.075  1.00  0.00    -0.203 F 
ATOM     59  C   UNL A   1      43.800  26.076  25.814  1.00  0.00     0.198 A 
ATOM     60  C   UNL A   1      42.192  24.434  26.500  1.00  0.00     0.198 A 
ATOM     61  F   UNL A   1      40.868  24.805  28.405  1.00  0.00    -0.203 F 
ATOM     62  F   UNL A   1      44.726  26.498  24.943  1.00  0.00    -0.200 F 
ATOM     63  C   UNL A   1      43.170  24.856  25.615  1.00  0.00     0.200 A 
ATOM     64  F   UNL A   1      41.595  23.247  26.322  1.00  0.00    -0.200 F 
ATOM     65  F   UNL A   1      43.502  24.091  24.566  1.00  0.00    -0.200 F 
ENDBRANCH  41  55
BRANCH  42  66
ATOM     66  C   UNL A   1      39.584  31.972  35.647  1.00  0.00     0.064 A 
ATOM     67  C   UNL A   1      40.166  33.210  35.948  1.00  0.00     0.173 A 
ATOM     68  C   UNL A   1      38.557  31.514  36.489  1.00  0.00     0.173 A 
ATOM     69  F   UNL A   1      41.167  33.681  35.190  1.00  0.00    -0.203 F 
ATOM     70  C   UNL A   1      39.748  33.953  37.050  1.00  0.00     0.198 A 
ATOM     71  C   UNL A   1      38.114  32.275  37.567  1.00  0.00     0.198 A 
ATOM     72  F   UNL A   1      37.965  30.334  36.248  1.00  0.00    -0.203 F 
ATOM     73  F   UNL A   1      40.354  35.111  37.343  1.00  0.00    -0.200 F 
ATOM     74  C   UNL A   1      38.715  33.490  37.852  1.00  0.00     0.200 A 
ATOM     75  F   UNL A   1      37.101  31.833  38.325  1.00  0.00    -0.200 F 
ATOM     76  F   UNL A   1      38.307  34.211  38.905  1.00  0.00    -0.200 F 
ENDBRANCH  42  66
BRANCH  54  77
ATOM     77  C   UNL A   1      44.506  27.138  34.694  1.00  0.00     0.064 A 
ATOM     78  C   UNL A   1      45.759  27.740  34.880  1.00  0.00     0.173 A 
ATOM     79  C   UNL A   1      44.226  25.966  35.414  1.00  0.00     0.173 A 
ATOM     80  F   UNL A   1      46.083  28.851  34.201  1.00  0.00    -0.203 F 
ATOM     81  C   UNL A   1      46.706  27.173  35.728  1.00  0.00     0.198 A 
ATOM     82  C   UNL A   1      45.161  25.422  36.289  1.00  0.00     0.198 A 
ATOM     83  F   UNL A   1      43.042  25.353  35.277  1.00  0.00    -0.203 F 
ATOM     84  F   UNL A   1      47.918  27.732  35.844  1.00  0.00    -0.200 F 
ATOM     85  C   UNL A   1      46.404  26.020  36.437  1.00  0.00     0.200 A 
ATOM     86  F   UNL A   1      44.862  24.318  36.986  1.00  0.00    -0.200 F 
ATOM     87  F   UNL A   1      47.315  25.479  37.259  1.00  0.00    -0.200 F 
ENDBRANCH  54  77
ENDBRANCH  28  29
ENDBRANCH  21  23
ENDBRANCH  20  21
ENDBRANCH  19  20
ENDBRANCH   1  19
TORSDOF 15
ENDMDL
MODEL 3
REMARK VINA RESULT:     -11.0      1.861      3.370
REMARK SMILES CC(C)S(=O)(=O)N[C@](C)(C(=O)OCCOC(=O)c1ccc(-c2c3nc(c(-c4c(F)c(F)c(F)c(F)c4F)c4ccc([nH]4)c(-c4c(F)c(F)c(F)c(F)c4F)c4nc(c(-c5c(F)c(F)c(F)c(F)c5F)c5ccc2[nH]5)C=C4)C=C3)cc1)C(F)(F)F
REMARK SMILES IDX 13 1 12 2 10 3 11 4 8 5 9 6 7 7 4 9 5 10 6 11 2 12 1 13 3 14
REMARK SMILES IDX 81 15 82 16 83 17 84 18 14 19 15 20 16 21 17 22 18 23 19 24
REMARK SMILES IDX 80 25 20 26 79 27 21 28 22 29 23 30 73 31 24 32 78 33 72 34
REMARK SMILES IDX 74 35 25 36 77 37 71 38 70 39 26 41 58 42 38 43 57 44 39 45
REMARK SMILES IDX 42 46 56 47 75 48 40 49 41 50 55 52 76 53 43 54 27 55 28 56
REMARK SMILES IDX 36 57 29 58 30 59 34 60 37 61 31 62 32 63 35 64 33 65 59 66
REMARK SMILES IDX 60 67 68 68 61 69 62 70 66 71 69 72 63 73 64 74 67 75 65 76
REMARK SMILES IDX 44 77 45 78 53 79 46 80 47 81 51 82 54 83 48 84 49 85 52 86
REMARK SMILES IDX 50 87
REMARK H PARENT 7 8 74 40 42 51
REMARK Flexibility Score: inf
ROOT
ATOM      1  C   UNL A   1      32.683  29.169  24.651  1.00  0.00     0.274 C 
ENDROOT
BRANCH   1   2
ATOM      2  O   UNL A   1      32.516  27.750  24.870  1.00  0.00    -0.460 OA
BRANCH   2   3
ATOM      3  C   UNL A   1      32.687  26.915  23.802  1.00  0.00     0.336 C 
ATOM      4  O   UNL A   1      33.183  27.285  22.744  1.00  0.00    -0.250 OA
BRANCH   3   5
ATOM      5  C   UNL A   1      32.044  25.527  24.029  1.00  0.00     0.222 C 
ATOM      6  C   UNL A   1      32.568  24.533  22.991  1.00  0.00     0.052 C 
BRANCH   5   7
ATOM      7  N   UNL A   1      32.526  25.176  25.429  1.00  0.00    -0.190 NA
ATOM      8  H   UNL A   1      33.543  25.253  25.406  1.00  0.00     0.142 HD
BRANCH   7   9
ATOM      9  S   UNL A   1      32.188  23.712  26.154  1.00  0.00     0.215 S 
ATOM     10  O   UNL A   1      31.735  22.773  25.157  1.00  0.00    -0.212 OA
ATOM     11  O   UNL A   1      31.348  24.071  27.272  1.00  0.00    -0.212 OA
BRANCH   9  12
ATOM     12  C   UNL A   1      33.760  23.125  26.822  1.00  0.00     0.118 C 
ATOM     13  C   UNL A   1      33.624  21.897  27.718  1.00  0.00     0.026 C 
ATOM     14  C   UNL A   1      34.802  22.912  25.735  1.00  0.00     0.026 C 
ENDBRANCH   9  12
ENDBRANCH   7   9
ENDBRANCH   5   7
BRANCH   5  15
ATOM     15  C   UNL A   1      30.511  25.687  23.869  1.00  0.00     0.418 C 
ATOM     16  F   UNL A   1      29.978  24.570  23.318  1.00  0.00    -0.168 F 
ATOM     17  F   UNL A   1      29.845  25.862  25.025  1.00  0.00    -0.168 F 
ATOM     18  F   UNL A   1      30.151  26.726  23.084  1.00  0.00    -0.168 F 
ENDBRANCH   5  15
ENDBRANCH   3   5
ENDBRANCH   2   3
ENDBRANCH   1   2
BRANCH   1  19
ATOM     19  C   UNL A   1      31.791  29.942  25.618  1.00  0.00     0.275 C 
BRANCH  19  20
ATOM     20  O   UNL A   1      32.452  30.040  26.894  1.00  0.00    -0.458 OA
BRANCH  20  21
ATOM     21  C   UNL A   1      33.054  31.224  27.141  1.00  0.00     0.338 C 
ATOM     22  O   UNL A   1      32.544  32.331  27.159  1.00  0.00    -0.246 OA
BRANCH  21  23
ATOM     23  C   UNL A   1      34.451  31.003  27.542  1.00  0.00     0.060 A 
ATOM     24  C   UNL A   1      34.864  29.702  27.793  1.00  0.00     0.016 A 
ATOM     25  C   UNL A   1      35.268  32.073  27.895  1.00  0.00     0.016 A 
ATOM     26  C   UNL A   1      36.006  29.475  28.552  1.00  0.00     0.010 A 
ATOM     27  C   UNL A   1      36.502  31.824  28.511  1.00  0.00     0.010 A 
ATOM     28  C   UNL A   1      36.868  30.522  28.898  1.00  0.00    -0.014 A 
BRANCH  28  29
ATOM     29  C   UNL A   1      38.124  30.252  29.664  1.00  0.00     0.031 A 
ATOM     30  C   UNL A   1      39.218  29.395  29.074  1.00  0.00     0.074 A 
ATOM     31  C   UNL A   1      38.296  30.773  30.898  1.00  0.00     0.049 A 
ATOM     32  N   UNL A   1      40.253  28.845  29.662  1.00  0.00    -0.248 NA
ATOM     33  C   UNL A   1      39.128  29.100  27.635  1.00  0.00     0.031 C 
ATOM     34  C   UNL A   1      37.365  31.675  31.580  1.00  0.00     0.029 A 
ATOM     35  N   UNL A   1      39.319  30.622  31.804  1.00  0.00    -0.354 N 
ATOM     36  C   UNL A   1      40.890  28.085  28.687  1.00  0.00     0.074 A 
ATOM     37  C   UNL A   1      40.125  28.242  27.468  1.00  0.00     0.031 C 
ATOM     38  C   UNL A   1      37.878  32.039  32.761  1.00  0.00     0.029 A 
ATOM     39  C   UNL A   1      39.104  31.289  32.987  1.00  0.00     0.049 A 
ATOM     40  H   UNL A   1      40.127  30.089  31.623  1.00  0.00     0.167 HD
ATOM     41  C   UNL A   1      42.005  27.322  28.806  1.00  0.00     0.037 A 
ATOM     42  C   UNL A   1      39.769  31.253  34.157  1.00  0.00     0.037 A 
ATOM     43  C   UNL A   1      42.793  27.225  30.011  1.00  0.00     0.049 A 
ATOM     44  C   UNL A   1      40.961  30.351  34.284  1.00  0.00     0.074 A 
ATOM     45  C   UNL A   1      43.954  26.503  30.228  1.00  0.00     0.029 A 
ATOM     46  N   UNL A   1      42.508  27.885  31.199  1.00  0.00    -0.354 N 
ATOM     47  N   UNL A   1      41.516  29.582  33.380  1.00  0.00    -0.248 NA
ATOM     48  C   UNL A   1      41.604  30.293  35.603  1.00  0.00     0.031 C 
ATOM     49  C   UNL A   1      44.334  26.674  31.563  1.00  0.00     0.029 A 
ATOM     50  C   UNL A   1      43.453  27.561  32.160  1.00  0.00     0.049 A 
ATOM     51  H   UNL A   1      41.745  28.493  31.338  1.00  0.00     0.167 HD
ATOM     52  C   UNL A   1      42.590  28.969  34.010  1.00  0.00     0.074 A 
ATOM     53  C   UNL A   1      42.617  29.471  35.369  1.00  0.00     0.031 C 
ATOM     54  C   UNL A   1      43.473  28.074  33.507  1.00  0.00     0.037 A 
BRANCH  41  55
ATOM     55  C   UNL A   1      42.421  26.486  27.626  1.00  0.00     0.064 A 
ATOM     56  C   UNL A   1      43.411  26.896  26.722  1.00  0.00     0.173 A 
ATOM     57  C   UNL A   1      41.843  25.220  27.426  1.00  0.00     0.173 A 
ATOM     58  F   UNL A   1      43.993  28.097  26.856  1.00  0.00    -0.203 F 
ATOM     59  C   UNL A   1      43.785  26.088  25.648  1.00  0.00     0.198 A 
ATOM     60  C   UNL A   1      42.243  24.400  26.374  1.00  0.00     0.198 A 
ATOM     61  F   UNL A   1      40.897  24.768  28.265  1.00  0.00    -0.203 F 
ATOM     62  F   UNL A   1      44.697  26.523  24.769  1.00  0.00    -0.200 F 
ATOM     63  C   UNL A   1      43.207  24.838  25.481  1.00  0.00     0.200 A 
ATOM     64  F   UNL A   1      41.696  23.185  26.227  1.00  0.00    -0.200 F 
ATOM     65  F   UNL A   1      43.575  24.059  24.455  1.00  0.00    -0.200 F 
ENDBRANCH  41  55
BRANCH  42  66
ATOM     66  C   UNL A   1      39.282  32.053  35.313  1.00  0.00     0.064 A 
ATOM     67  C   UNL A   1      39.619  33.406  35.445  1.00  0.00     0.173 A 
ATOM     68  C   UNL A   1      38.462  31.487  36.303  1.00  0.00     0.173 A 
ATOM     69  F   UNL A   1      40.419  33.988  34.540  1.00  0.00    -0.203 F 
ATOM     70  C   UNL A   1      39.166  34.159  36.527  1.00  0.00     0.198 A 
ATOM     71  C   UNL A   1      37.978  32.250  37.363  1.00  0.00     0.198 A 
ATOM     72  F   UNL A   1      38.108  30.195  36.227  1.00  0.00    -0.203 F 
ATOM     73  F   UNL A   1      39.543  35.437  36.655  1.00  0.00    -0.200 F 
ATOM     74  C   UNL A   1      38.338  33.583  37.479  1.00  0.00     0.200 A 
ATOM     75  F   UNL A   1      37.161  31.693  38.268  1.00  0.00    -0.200 F 
ATOM     76  F   UNL A   1      37.894  34.310  38.513  1.00  0.00    -0.200 F 
ENDBRANCH  42  66
BRANCH  54  77
ATOM     77  C   UNL A   1      44.576  27.619  34.417  1.00  0.00     0.064 A 
ATOM     78  C   UNL A   1      45.783  28.326  34.532  1.00  0.00     0.173 A 
ATOM     79  C   UNL A   1      44.413  26.467  35.202  1.00  0.00     0.173 A 
ATOM     80  F   UNL A   1      45.996  29.423  33.790  1.00  0.00    -0.203 F 
ATOM     81  C   UNL A   1      46.796  27.879  35.375  1.00  0.00     0.198 A 
ATOM     82  C   UNL A   1      45.413  26.043  36.071  1.00  0.00     0.198 A 
ATOM     83  F   UNL A   1      43.278  25.757  35.134  1.00  0.00    -0.203 F 
ATOM     84  F   UNL A   1      47.963  28.536  35.424  1.00  0.00    -0.200 F 
ATOM     85  C   UNL A   1      46.608  26.744  36.150  1.00  0.00     0.200 A 
ATOM     86  F   UNL A   1      45.223  24.956  36.831  1.00  0.00    -0.200 F 
ATOM     87  F   UNL A   1      47.582  26.319  36.967  1.00  0.00    -0.200 F 
ENDBRANCH  54  77
ENDBRANCH  28  29
ENDBRANCH  21  23
ENDBRANCH  20  21
ENDBRANCH  19  20
ENDBRANCH   1  19
TORSDOF 15
ENDMDL
