MODEL 1
REMARK VINA RESULT:     -11.3      0.000      0.000
REMARK SMILES COc1ccc2c(c1)[C@H]([NH2+][C@@H](C(=O)OCCOC(=O)c1ccc(-c3c4nc(c(-c5c(F)c(F)c(F)c(F)c5F)c5ccc([nH]5)c(-c5c(F)c(F)c(F)c(F)c5F)c5nc(c(-c6c(F)c(F)c(F)c(F)c6F)c6ccc3[nH]6)C=C5)C=C4)cc1)C1CC1)CC2
REMARK SMILES IDX 15 1 14 2 12 3 13 4 11 5 10 6 9 9 3 10 4 11 8 12 5 13 7 14
REMARK SMILES IDX 6 15 87 16 86 17 2 18 1 19 83 20 84 21 85 22 16 23 17 24
REMARK SMILES IDX 18 25 19 26 20 27 21 28 82 29 22 30 81 31 23 32 24 33 25 34
REMARK SMILES IDX 75 35 26 36 80 37 74 38 76 39 27 40 79 41 73 42 72 43 28 45
REMARK SMILES IDX 60 46 40 47 59 48 41 49 44 50 58 51 77 52 42 53 43 54 57 56
REMARK SMILES IDX 78 57 45 58 29 59 30 60 38 61 31 62 32 63 36 64 39 65 33 66
REMARK SMILES IDX 34 67 37 68 35 69 61 70 62 71 70 72 63 73 64 74 68 75 71 76
REMARK SMILES IDX 65 77 66 78 69 79 67 80 46 81 47 82 55 83 48 84 49 85 53 86
REMARK SMILES IDX 56 87 50 88 51 89 54 90 52 91
REMARK H PARENT 10 7 10 8 76 44 44 55
REMARK Flexibility Score: inf
ROOT
ATOM      1  C   UNL A   1      32.344  28.698  25.310  1.00  0.00     0.274 C 
ENDROOT
BRANCH   1   2
ATOM      2  O   UNL A   1      33.437  28.700  24.368  1.00  0.00    -0.458 OA
BRANCH   2   3
ATOM      3  C   UNL A   1      33.384  27.768  23.376  1.00  0.00     0.365 C 
ATOM      4  O   UNL A   1      33.796  27.957  22.234  1.00  0.00    -0.245 OA
BRANCH   3   5
ATOM      5  C   UNL A   1      32.768  26.412  23.826  1.00  0.00     0.297 C 
BRANCH   5   6
ATOM      6  N   UNL A   1      33.723  25.288  23.683  1.00  0.00    -0.328 N 
ATOM      7  H   UNL A   1      33.204  24.457  23.401  1.00  0.00     0.347 HD
ATOM      8  H   UNL A   1      34.414  25.567  22.985  1.00  0.00     0.347 HD
BRANCH   6   9
ATOM      9  C   UNL A   1      34.449  24.986  24.909  1.00  0.00     0.215 C 
ATOM     10  C   UNL A   1      32.065  23.107  27.272  1.00  0.00     0.119 A 
ATOM     11  C   UNL A   1      33.027  22.294  27.893  1.00  0.00     0.047 A 
ATOM     12  C   UNL A   1      32.431  23.970  26.232  1.00  0.00     0.056 A 
ATOM     13  C   UNL A   1      34.369  22.359  27.511  1.00  0.00     0.008 A 
ATOM     14  C   UNL A   1      33.764  24.032  25.855  1.00  0.00     0.016 A 
ATOM     15  C   UNL A   1      34.721  23.231  26.497  1.00  0.00    -0.038 A 
ATOM     16  C   UNL A   1      36.097  23.521  25.984  1.00  0.00     0.042 C 
ATOM     17  C   UNL A   1      35.766  24.217  24.661  1.00  0.00     0.075 C 
BRANCH  10  18
ATOM     18  O   UNL A   1      30.735  23.125  27.603  1.00  0.00    -0.497 OA
ATOM     19  C   UNL A   1      29.850  22.724  26.562  1.00  0.00     0.278 C 
ENDBRANCH  10  18
ENDBRANCH   6   9
ENDBRANCH   5   6
BRANCH   5  20
ATOM     20  C   UNL A   1      31.502  26.128  23.039  1.00  0.00     0.059 C 
ATOM     21  C   UNL A   1      30.165  25.852  23.694  1.00  0.00     0.011 C 
ATOM     22  C   UNL A   1      30.396  27.160  23.005  1.00  0.00     0.011 C 
ENDBRANCH   5  20
ENDBRANCH   3   5
ENDBRANCH   2   3
ENDBRANCH   1   2
BRANCH   1  23
ATOM     23  C   UNL A   1      31.927  30.129  25.634  1.00  0.00     0.275 C 
BRANCH  23  24
ATOM     24  O   UNL A   1      32.269  30.415  27.002  1.00  0.00    -0.458 OA
BRANCH  24  25
ATOM     25  C   UNL A   1      32.984  31.542  27.212  1.00  0.00     0.338 C 
ATOM     26  O   UNL A   1      32.624  32.695  27.029  1.00  0.00    -0.246 OA
BRANCH  25  27
ATOM     27  C   UNL A   1      34.315  31.194  27.746  1.00  0.00     0.060 A 
ATOM     28  C   UNL A   1      34.633  29.866  28.018  1.00  0.00     0.016 A 
ATOM     29  C   UNL A   1      35.207  32.208  28.096  1.00  0.00     0.016 A 
ATOM     30  C   UNL A   1      35.787  29.561  28.738  1.00  0.00     0.010 A 
ATOM     31  C   UNL A   1      36.419  31.886  28.721  1.00  0.00     0.010 A 
ATOM     32  C   UNL A   1      36.704  30.562  29.093  1.00  0.00    -0.014 A 
BRANCH  32  33
ATOM     33  C   UNL A   1      37.916  30.217  29.897  1.00  0.00     0.031 A 
ATOM     34  C   UNL A   1      39.043  29.426  29.281  1.00  0.00     0.074 A 
ATOM     35  C   UNL A   1      38.044  30.652  31.167  1.00  0.00     0.049 A 
ATOM     36  N   UNL A   1      40.107  28.916  29.853  1.00  0.00    -0.248 NA
ATOM     37  C   UNL A   1      38.959  29.159  27.837  1.00  0.00     0.031 C 
ATOM     38  C   UNL A   1      37.060  31.457  31.893  1.00  0.00     0.029 A 
ATOM     39  N   UNL A   1      39.075  30.506  32.065  1.00  0.00    -0.354 N 
ATOM     40  C   UNL A   1      40.771  28.208  28.860  1.00  0.00     0.074 A 
ATOM     41  C   UNL A   1      40.004  28.367  27.643  1.00  0.00     0.031 C 
ATOM     42  C   UNL A   1      37.566  31.799  33.088  1.00  0.00     0.029 A 
ATOM     43  C   UNL A   1      38.871  31.168  33.252  1.00  0.00     0.049 A 
ATOM     44  H   UNL A   1      39.883  29.977  31.875  1.00  0.00     0.167 HD
ATOM     45  C   UNL A   1      41.914  27.486  28.954  1.00  0.00     0.037 A 
ATOM     46  C   UNL A   1      39.634  31.243  34.358  1.00  0.00     0.037 A 
ATOM     47  C   UNL A   1      42.730  27.394  30.137  1.00  0.00     0.049 A 
ATOM     48  C   UNL A   1      40.921  30.472  34.425  1.00  0.00     0.074 A 
ATOM     49  C   UNL A   1      43.905  26.686  30.325  1.00  0.00     0.029 A 
ATOM     50  N   UNL A   1      42.473  28.062  31.324  1.00  0.00    -0.354 N 
ATOM     51  N   UNL A   1      41.482  29.723  33.510  1.00  0.00    -0.248 NA
ATOM     52  C   UNL A   1      41.661  30.530  35.693  1.00  0.00     0.031 C 
ATOM     53  C   UNL A   1      44.353  26.916  31.631  1.00  0.00     0.029 A 
ATOM     54  C   UNL A   1      43.470  27.786  32.247  1.00  0.00     0.049 A 
ATOM     55  H   UNL A   1      41.697  28.646  31.488  1.00  0.00     0.167 HD
ATOM     56  C   UNL A   1      42.630  29.206  34.093  1.00  0.00     0.074 A 
ATOM     57  C   UNL A   1      42.707  29.759  35.430  1.00  0.00     0.031 C 
ATOM     58  C   UNL A   1      43.526  28.333  33.576  1.00  0.00     0.037 A 
BRANCH  45  59
ATOM     59  C   UNL A   1      42.340  26.704  27.750  1.00  0.00     0.064 A 
ATOM     60  C   UNL A   1      43.275  27.203  26.832  1.00  0.00     0.173 A 
ATOM     61  C   UNL A   1      41.833  25.412  27.538  1.00  0.00     0.173 A 
ATOM     62  F   UNL A   1      43.776  28.438  26.985  1.00  0.00    -0.203 F 
ATOM     63  C   UNL A   1      43.675  26.443  25.736  1.00  0.00     0.198 A 
ATOM     64  C   UNL A   1      42.250  24.647  26.453  1.00  0.00     0.198 A 
ATOM     65  F   UNL A   1      40.939  24.889  28.390  1.00  0.00    -0.203 F 
ATOM     66  F   UNL A   1      44.544  26.951  24.852  1.00  0.00    -0.200 F 
ATOM     67  C   UNL A   1      43.167  25.164  25.551  1.00  0.00     0.200 A 
ATOM     68  F   UNL A   1      41.766  23.410  26.280  1.00  0.00    -0.200 F 
ATOM     69  F   UNL A   1      43.560  24.432  24.498  1.00  0.00    -0.200 F 
ENDBRANCH  45  59
BRANCH  46  70
ATOM     70  C   UNL A   1      39.185  32.068  35.508  1.00  0.00     0.064 A 
ATOM     71  C   UNL A   1      38.406  31.508  36.530  1.00  0.00     0.173 A 
ATOM     72  C   UNL A   1      39.532  33.422  35.615  1.00  0.00     0.173 A 
ATOM     73  F   UNL A   1      38.026  30.224  36.454  1.00  0.00    -0.203 F 
ATOM     74  C   UNL A   1      37.992  32.273  37.617  1.00  0.00     0.198 A 
ATOM     75  C   UNL A   1      39.139  34.179  36.716  1.00  0.00     0.198 A 
ATOM     76  F   UNL A   1      40.272  34.003  34.660  1.00  0.00    -0.203 F 
ATOM     77  F   UNL A   1      37.224  31.723  38.567  1.00  0.00    -0.200 F 
ATOM     78  C   UNL A   1      38.366  33.605  37.714  1.00  0.00     0.200 A 
ATOM     79  F   UNL A   1      39.511  35.463  36.810  1.00  0.00    -0.200 F 
ATOM     80  F   UNL A   1      37.977  34.338  38.767  1.00  0.00    -0.200 F 
ENDBRANCH  46  70
BRANCH  58  81
ATOM     81  C   UNL A   1      44.657  27.916  34.463  1.00  0.00     0.064 A 
ATOM     82  C   UNL A   1      45.852  28.650  34.505  1.00  0.00     0.173 A 
ATOM     83  C   UNL A   1      44.544  26.789  35.289  1.00  0.00     0.173 A 
ATOM     84  F   UNL A   1      46.009  29.727  33.720  1.00  0.00    -0.203 F 
ATOM     85  C   UNL A   1      46.901  28.259  35.329  1.00  0.00     0.198 A 
ATOM     86  C   UNL A   1      45.590  26.409  36.124  1.00  0.00     0.198 A 
ATOM     87  F   UNL A   1      43.420  26.057  35.282  1.00  0.00    -0.203 F 
ATOM     88  F   UNL A   1      48.048  28.953  35.327  1.00  0.00    -0.200 F 
ATOM     89  C   UNL A   1      46.770  27.141  36.141  1.00  0.00     0.200 A 
ATOM     90  F   UNL A   1      45.461  25.332  36.910  1.00  0.00    -0.200 F 
ATOM     91  F   UNL A   1      47.783  26.763  36.931  1.00  0.00    -0.200 F 
ENDBRANCH  58  81
ENDBRANCH  32  33
ENDBRANCH  25  27
ENDBRANCH  24  25
ENDBRANCH  23  24
ENDBRANCH   1  23
TORSDOF 15
ENDMDL
MODEL 2
REMARK VINA RESULT:     -11.3      1.341      2.834
REMARK SMILES COc1ccc2c(c1)[C@H]([NH2+][C@@H](C(=O)OCCOC(=O)c1ccc(-c3c4nc(c(-c5c(F)c(F)c(F)c(F)c5F)c5ccc([nH]5)c(-c5c(F)c(F)c(F)c(F)c5F)c5nc(c(-c6c(F)c(F)c(F)c(F)c6F)c6ccc3[nH]6)C=C5)C=C4)cc1)C1CC1)CC2
REMARK SMILES IDX 15 1 14 2 12 3 13 4 11 5 10 6 9 9 3 10 4 11 8 12 5 13 7 14
REMARK SMILES IDX 6 15 87 16 86 17 2 18 1 19 83 20 84 21 85 22 16 23 17 24
REMARK SMILES IDX 18 25 19 26 20 27 21 28 82 29 22 30 81 31 23 32 24 33 25 34
REMARK SMILES IDX 75 35 26 36 80 37 74 38 76 39 27 40 79 41 73 42 72 43 28 45
REMARK SMILES IDX 60 46 40 47 59 48 41 49 44 50 58 51 77 52 42 53 43 54 57 56
REMARK SMILES IDX 78 57 45 58 29 59 30 60 38 61 31 62 32 63 36 64 39 65 33 66
REMARK SMILES IDX 34 67 37 68 35 69 61 70 62 71 70 72 63 73 64 74 68 75 71 76
REMARK SMILES IDX 65 77 66 78 69 79 67 80 46 81 47 82 55 83 48 84 49 85 53 86
REMARK SMILES IDX 56 87 50 88 51 89 54 90 52 91
REMARK H PARENT 10 7 10 8 76 44 44 55
REMARK Flexibility Score: inf
ROOT
ATOM      1  C   UNL A   1      31.486  28.376  27.118  1.00  0.00     0.274 C 
ENDROOT
BRANCH   1   2
ATOM      2  O   UNL A   1      32.477  27.705  26.311  1.00  0.00    -0.458 OA
BRANCH   2   3
ATOM      3  C   UNL A   1      32.022  27.081  25.188  1.00  0.00     0.365 C 
ATOM      4  O   UNL A   1      30.833  26.895  24.941  1.00  0.00    -0.245 OA
BRANCH   3   5
ATOM      5  C   UNL A   1      33.154  26.638  24.218  1.00  0.00     0.297 C 
BRANCH   5   6
ATOM      6  N   UNL A   1      34.083  25.671  24.846  1.00  0.00    -0.328 N 
ATOM      7  H   UNL A   1      34.988  26.125  24.971  1.00  0.00     0.347 HD
ATOM      8  H   UNL A   1      33.667  25.388  25.734  1.00  0.00     0.347 HD
BRANCH   6   9
ATOM      9  C   UNL A   1      34.279  24.461  24.059  1.00  0.00     0.215 C 
ATOM     10  C   UNL A   1      37.283  22.560  25.530  1.00  0.00     0.119 A 
ATOM     11  C   UNL A   1      36.832  21.260  25.248  1.00  0.00     0.047 A 
ATOM     12  C   UNL A   1      36.478  23.668  25.239  1.00  0.00     0.056 A 
ATOM     13  C   UNL A   1      35.592  21.052  24.639  1.00  0.00     0.008 A 
ATOM     14  C   UNL A   1      35.248  23.458  24.634  1.00  0.00     0.016 A 
ATOM     15  C   UNL A   1      34.816  22.156  24.337  1.00  0.00    -0.038 A 
ATOM     16  C   UNL A   1      33.503  22.176  23.620  1.00  0.00     0.042 C 
ATOM     17  C   UNL A   1      33.011  23.583  23.967  1.00  0.00     0.075 C 
BRANCH  10  18
ATOM     18  O   UNL A   1      38.495  22.852  26.099  1.00  0.00    -0.497 OA
ATOM     19  C   UNL A   1      39.407  21.761  26.167  1.00  0.00     0.278 C 
ENDBRANCH  10  18
ENDBRANCH   6   9
ENDBRANCH   5   6
BRANCH   5  20
ATOM     20  C   UNL A   1      33.918  27.850  23.717  1.00  0.00     0.059 C 
ATOM     21  C   UNL A   1      34.045  28.201  22.250  1.00  0.00     0.011 C 
ATOM     22  C   UNL A   1      33.159  29.022  23.133  1.00  0.00     0.011 C 
ENDBRANCH   5  20
ENDBRANCH   3   5
ENDBRANCH   2   3
ENDBRANCH   1   2
BRANCH   1  23
ATOM     23  C   UNL A   1      31.520  29.877  26.849  1.00  0.00     0.275 C 
BRANCH  23  24
ATOM     24  O   UNL A   1      32.859  30.255  26.484  1.00  0.00    -0.458 OA
BRANCH  24  25
ATOM     25  C   UNL A   1      33.372  31.324  27.130  1.00  0.00     0.338 C 
ATOM     26  O   UNL A   1      32.863  32.427  27.263  1.00  0.00    -0.246 OA
BRANCH  25  27
ATOM     27  C   UNL A   1      34.681  30.972  27.712  1.00  0.00     0.060 A 
ATOM     28  C   UNL A   1      34.986  29.643  27.994  1.00  0.00     0.016 A 
ATOM     29  C   UNL A   1      35.563  31.983  28.097  1.00  0.00     0.016 A 
ATOM     30  C   UNL A   1      36.111  29.334  28.756  1.00  0.00     0.010 A 
ATOM     31  C   UNL A   1      36.750  31.656  28.766  1.00  0.00     0.010 A 
ATOM     32  C   UNL A   1      37.017  30.331  29.147  1.00  0.00    -0.014 A 
BRANCH  32  33
ATOM     33  C   UNL A   1      38.197  29.982  29.994  1.00  0.00     0.031 A 
ATOM     34  C   UNL A   1      39.341  29.184  29.421  1.00  0.00     0.074 A 
ATOM     35  C   UNL A   1      38.282  30.420  31.267  1.00  0.00     0.049 A 
ATOM     36  N   UNL A   1      40.382  28.670  30.032  1.00  0.00    -0.248 NA
ATOM     37  C   UNL A   1      39.308  28.914  27.976  1.00  0.00     0.031 C 
ATOM     38  C   UNL A   1      37.277  31.231  31.956  1.00  0.00     0.029 A 
ATOM     39  N   UNL A   1      39.279  30.270  32.203  1.00  0.00    -0.354 N 
ATOM     40  C   UNL A   1      41.078  27.956  29.066  1.00  0.00     0.074 A 
ATOM     41  C   UNL A   1      40.356  28.115  27.822  1.00  0.00     0.031 C 
ATOM     42  C   UNL A   1      37.740  31.574  33.167  1.00  0.00     0.029 A 
ATOM     43  C   UNL A   1      39.036  30.937  33.379  1.00  0.00     0.049 A 
ATOM     44  H   UNL A   1      40.090  29.737  32.043  1.00  0.00     0.167 HD
ATOM     45  C   UNL A   1      42.212  27.228  29.203  1.00  0.00     0.037 A 
ATOM     46  C   UNL A   1      39.759  31.010  34.512  1.00  0.00     0.037 A 
ATOM     47  C   UNL A   1      42.984  27.135  30.414  1.00  0.00     0.049 A 
ATOM     48  C   UNL A   1      41.038  30.232  34.627  1.00  0.00     0.074 A 
ATOM     49  C   UNL A   1      44.148  26.421  30.646  1.00  0.00     0.029 A 
ATOM     50  N   UNL A   1      42.688  27.807  31.590  1.00  0.00    -0.354 N 
ATOM     51  N   UNL A   1      41.628  29.479  33.734  1.00  0.00    -0.248 NA
ATOM     52  C   UNL A   1      41.732  30.290  35.921  1.00  0.00     0.031 C 
ATOM     53  C   UNL A   1      44.550  26.652  31.967  1.00  0.00     0.029 A 
ATOM     54  C   UNL A   1      43.650  27.528  32.548  1.00  0.00     0.049 A 
ATOM     55  H   UNL A   1      41.910  28.395  31.724  1.00  0.00     0.167 HD
ATOM     56  C   UNL A   1      42.751  28.957  34.360  1.00  0.00     0.074 A 
ATOM     57  C   UNL A   1      42.783  29.512  35.697  1.00  0.00     0.031 C 
ATOM     58  C   UNL A   1      43.661  28.078  33.877  1.00  0.00     0.037 A 
BRANCH  45  59
ATOM     59  C   UNL A   1      42.677  26.441  28.016  1.00  0.00     0.064 A 
ATOM     60  C   UNL A   1      42.277  25.115  27.801  1.00  0.00     0.173 A 
ATOM     61  C   UNL A   1      43.504  27.044  27.055  1.00  0.00     0.173 A 
ATOM     62  F   UNL A   1      41.500  24.492  28.699  1.00  0.00    -0.203 F 
ATOM     63  C   UNL A   1      42.702  24.415  26.675  1.00  0.00     0.198 A 
ATOM     64  C   UNL A   1      43.910  26.348  25.920  1.00  0.00     0.198 A 
ATOM     65  F   UNL A   1      43.910  28.313  27.214  1.00  0.00    -0.203 F 
ATOM     66  F   UNL A   1      42.336  23.137  26.504  1.00  0.00    -0.200 F 
ATOM     67  C   UNL A   1      43.512  25.034  25.732  1.00  0.00     0.200 A 
ATOM     68  F   UNL A   1      44.685  26.951  25.007  1.00  0.00    -0.200 F 
ATOM     69  F   UNL A   1      43.913  24.360  24.646  1.00  0.00    -0.200 F 
ENDBRANCH  45  59
BRANCH  46  70
ATOM     70  C   UNL A   1      39.272  31.840  35.643  1.00  0.00     0.064 A 
ATOM     71  C   UNL A   1      39.692  33.169  35.788  1.00  0.00     0.173 A 
ATOM     72  C   UNL A   1      38.374  31.329  36.590  1.00  0.00     0.173 A 
ATOM     73  F   UNL A   1      40.574  33.691  34.922  1.00  0.00    -0.203 F 
ATOM     74  C   UNL A   1      39.230  33.957  36.839  1.00  0.00     0.198 A 
ATOM     75  C   UNL A   1      37.892  32.126  37.626  1.00  0.00     0.198 A 
ATOM     76  F   UNL A   1      37.948  30.062  36.496  1.00  0.00    -0.203 F 
ATOM     77  F   UNL A   1      39.668  35.216  36.973  1.00  0.00    -0.200 F 
ATOM     78  C   UNL A   1      38.324  33.438  37.752  1.00  0.00     0.200 A 
ATOM     79  F   UNL A   1      37.010  31.623  38.499  1.00  0.00    -0.200 F 
ATOM     80  F   UNL A   1      37.870  34.201  38.757  1.00  0.00    -0.200 F 
ENDBRANCH  46  70
BRANCH  58  81
ATOM     81  C   UNL A   1      44.757  27.657  34.806  1.00  0.00     0.064 A 
ATOM     82  C   UNL A   1      44.620  26.522  35.618  1.00  0.00     0.173 A 
ATOM     83  C   UNL A   1      45.957  28.379  34.873  1.00  0.00     0.173 A 
ATOM     84  F   UNL A   1      43.482  25.811  35.597  1.00  0.00    -0.203 F 
ATOM     85  C   UNL A   1      45.640  26.136  36.481  1.00  0.00     0.198 A 
ATOM     86  C   UNL A   1      46.982  27.979  35.727  1.00  0.00     0.198 A 
ATOM     87  F   UNL A   1      46.133  29.470  34.115  1.00  0.00    -0.203 F 
ATOM     88  F   UNL A   1      45.475  25.069  37.277  1.00  0.00    -0.200 F 
ATOM     89  C   UNL A   1      46.821  26.861  36.533  1.00  0.00     0.200 A 
ATOM     90  F   UNL A   1      48.123  28.679  35.774  1.00  0.00    -0.200 F 
ATOM     91  F   UNL A   1      47.800  26.490  37.368  1.00  0.00    -0.200 F 
ENDBRANCH  58  81
ENDBRANCH  32  33
ENDBRANCH  25  27
ENDBRANCH  24  25
ENDBRANCH  23  24
ENDBRANCH   1  23
TORSDOF 15
ENDMDL
MODEL 3
REMARK VINA RESULT:     -11.3      0.950      2.038
REMARK SMILES COc1ccc2c(c1)[C@H]([NH2+][C@@H](C(=O)OCCOC(=O)c1ccc(-c3c4nc(c(-c5c(F)c(F)c(F)c(F)c5F)c5ccc([nH]5)c(-c5c(F)c(F)c(F)c(F)c5F)c5nc(c(-c6c(F)c(F)c(F)c(F)c6F)c6ccc3[nH]6)C=C5)C=C4)cc1)C1CC1)CC2
REMARK SMILES IDX 15 1 14 2 12 3 13 4 11 5 10 6 9 9 3 10 4 11 8 12 5 13 7 14
REMARK SMILES IDX 6 15 87 16 86 17 2 18 1 19 83 20 84 21 85 22 16 23 17 24
REMARK SMILES IDX 18 25 19 26 20 27 21 28 82 29 22 30 81 31 23 32 24 33 25 34
REMARK SMILES IDX 75 35 26 36 80 37 74 38 76 39 27 40 79 41 73 42 72 43 28 45
REMARK SMILES IDX 60 46 40 47 59 48 41 49 44 50 58 51 77 52 42 53 43 54 57 56
REMARK SMILES IDX 78 57 45 58 29 59 30 60 38 61 31 62 32 63 36 64 39 65 33 66
REMARK SMILES IDX 34 67 37 68 35 69 61 70 62 71 70 72 63 73 64 74 68 75 71 76
REMARK SMILES IDX 65 77 66 78 69 79 67 80 46 81 47 82 55 83 48 84 49 85 53 86
REMARK SMILES IDX 56 87 50 88 51 89 54 90 52 91
REMARK H PARENT 10 7 10 8 76 44 44 55
REMARK Flexibility Score: inf
ROOT
ATOM      1  C   UNL A   1      31.910  28.613  25.566  1.00  0.00     0.274 C 
ENDROOT
BRANCH   1   2
ATOM      2  O   UNL A   1      32.953  28.777  24.582  1.00  0.00    -0.458 OA
BRANCH   2   3
ATOM      3  C   UNL A   1      32.661  28.369  23.315  1.00  0.00     0.365 C 
ATOM      4  O   UNL A   1      33.350  28.634  22.333  1.00  0.00    -0.245 OA
BRANCH   3   5
ATOM      5  C   UNL A   1      31.370  27.507  23.219  1.00  0.00     0.297 C 
BRANCH   5   6
ATOM      6  N   UNL A   1      31.632  26.169  22.642  1.00  0.00    -0.328 N 
ATOM      7  H   UNL A   1      31.011  26.032  21.845  1.00  0.00     0.347 HD
ATOM      8  H   UNL A   1      32.616  26.145  22.373  1.00  0.00     0.347 HD
BRANCH   6   9
ATOM      9  C   UNL A   1      31.418  25.079  23.585  1.00  0.00     0.215 C 
ATOM     10  C   UNL A   1      34.840  24.050  25.009  1.00  0.00     0.119 A 
ATOM     11  C   UNL A   1      34.400  23.679  26.291  1.00  0.00     0.047 A 
ATOM     12  C   UNL A   1      33.942  24.588  24.080  1.00  0.00     0.056 A 
ATOM     13  C   UNL A   1      33.055  23.804  26.646  1.00  0.00     0.008 A 
ATOM     14  C   UNL A   1      32.607  24.710  24.435  1.00  0.00     0.016 A 
ATOM     15  C   UNL A   1      32.174  24.316  25.712  1.00  0.00    -0.038 A 
ATOM     16  C   UNL A   1      30.691  24.463  25.845  1.00  0.00     0.042 C 
ATOM     17  C   UNL A   1      30.396  25.424  24.690  1.00  0.00     0.075 C 
BRANCH  10  18
ATOM     18  O   UNL A   1      36.134  23.936  24.572  1.00  0.00    -0.497 OA
ATOM     19  C   UNL A   1      37.068  23.513  25.560  1.00  0.00     0.278 C 
ENDBRANCH  10  18
ENDBRANCH   6   9
ENDBRANCH   5   6
BRANCH   5  20
ATOM     20  C   UNL A   1      30.317  28.234  22.402  1.00  0.00     0.059 C 
ATOM     21  C   UNL A   1      28.955  28.607  22.951  1.00  0.00     0.011 C 
ATOM     22  C   UNL A   1      29.981  29.673  22.727  1.00  0.00     0.011 C 
ENDBRANCH   5  20
ENDBRANCH   3   5
ENDBRANCH   2   3
ENDBRANCH   1   2
BRANCH   1  23
ATOM     23  C   UNL A   1      31.801  29.867  26.428  1.00  0.00     0.275 C 
BRANCH  23  24
ATOM     24  O   UNL A   1      32.896  30.745  26.113  1.00  0.00    -0.458 OA
BRANCH  24  25
ATOM     25  C   UNL A   1      33.260  31.612  27.083  1.00  0.00     0.338 C 
ATOM     26  O   UNL A   1      32.631  32.576  27.493  1.00  0.00    -0.246 OA
BRANCH  25  27
ATOM     27  C   UNL A   1      34.569  31.216  27.638  1.00  0.00     0.060 A 
ATOM     28  C   UNL A   1      34.823  29.882  27.945  1.00  0.00     0.016 A 
ATOM     29  C   UNL A   1      35.505  32.196  27.971  1.00  0.00     0.016 A 
ATOM     30  C   UNL A   1      35.955  29.542  28.683  1.00  0.00     0.010 A 
ATOM     31  C   UNL A   1      36.696  31.833  28.615  1.00  0.00     0.010 A 
ATOM     32  C   UNL A   1      36.915  30.507  29.022  1.00  0.00    -0.014 A 
BRANCH  32  33
ATOM     33  C   UNL A   1      38.103  30.127  29.845  1.00  0.00     0.031 A 
ATOM     34  C   UNL A   1      39.221  29.313  29.244  1.00  0.00     0.074 A 
ATOM     35  C   UNL A   1      38.219  30.550  31.121  1.00  0.00     0.049 A 
ATOM     36  N   UNL A   1      40.262  28.772  29.831  1.00  0.00    -0.248 NA
ATOM     37  C   UNL A   1      39.157  29.058  27.797  1.00  0.00     0.031 C 
ATOM     38  C   UNL A   1      37.242  31.374  31.835  1.00  0.00     0.029 A 
ATOM     39  N   UNL A   1      39.229  30.371  32.037  1.00  0.00    -0.354 N 
ATOM     40  C   UNL A   1      40.927  28.055  28.846  1.00  0.00     0.074 A 
ATOM     41  C   UNL A   1      40.186  28.241  27.616  1.00  0.00     0.031 C 
ATOM     42  C   UNL A   1      37.733  31.695  33.041  1.00  0.00     0.029 A 
ATOM     43  C   UNL A   1      39.019  31.031  33.224  1.00  0.00     0.049 A 
ATOM     44  H   UNL A   1      40.026  29.824  31.857  1.00  0.00     0.167 HD
ATOM     45  C   UNL A   1      42.049  27.304  28.956  1.00  0.00     0.037 A 
ATOM     46  C   UNL A   1      39.764  31.078  34.344  1.00  0.00     0.037 A 
ATOM     47  C   UNL A   1      42.840  27.183  30.152  1.00  0.00     0.049 A 
ATOM     48  C   UNL A   1      41.029  30.275  34.429  1.00  0.00     0.074 A 
ATOM     49  C   UNL A   1      43.994  26.445  30.357  1.00  0.00     0.029 A 
ATOM     50  N   UNL A   1      42.578  27.849  31.339  1.00  0.00    -0.354 N 
ATOM     51  N   UNL A   1      41.589  29.519  33.519  1.00  0.00    -0.248 NA
ATOM     52  C   UNL A   1      41.747  30.306  35.711  1.00  0.00     0.031 C 
ATOM     53  C   UNL A   1      44.423  26.654  31.672  1.00  0.00     0.029 A 
ATOM     54  C   UNL A   1      43.550  27.542  32.278  1.00  0.00     0.049 A 
ATOM     55  H   UNL A   1      41.814  28.451  31.493  1.00  0.00     0.167 HD
ATOM     56  C   UNL A   1      42.712  28.969  34.119  1.00  0.00     0.074 A 
ATOM     57  C   UNL A   1      42.778  29.511  35.461  1.00  0.00     0.031 C 
ATOM     58  C   UNL A   1      43.596  28.078  33.612  1.00  0.00     0.037 A 
BRANCH  45  59
ATOM     59  C   UNL A   1      42.478  26.520  27.753  1.00  0.00     0.064 A 
ATOM     60  C   UNL A   1      43.425  27.012  26.844  1.00  0.00     0.173 A 
ATOM     61  C   UNL A   1      41.961  25.233  27.535  1.00  0.00     0.173 A 
ATOM     62  F   UNL A   1      43.935  28.242  27.003  1.00  0.00    -0.203 F 
ATOM     63  C   UNL A   1      43.826  26.250  25.750  1.00  0.00     0.198 A 
ATOM     64  C   UNL A   1      42.380  24.466  26.452  1.00  0.00     0.198 A 
ATOM     65  F   UNL A   1      41.055  24.717  28.380  1.00  0.00    -0.203 F 
ATOM     66  F   UNL A   1      44.707  26.751  24.874  1.00  0.00    -0.200 F 
ATOM     67  C   UNL A   1      43.309  24.976  25.558  1.00  0.00     0.200 A 
ATOM     68  F   UNL A   1      41.886  23.233  26.274  1.00  0.00    -0.200 F 
ATOM     69  F   UNL A   1      43.703  24.242  24.508  1.00  0.00    -0.200 F 
ENDBRANCH  45  59
BRANCH  46  70
ATOM     70  C   UNL A   1      39.313  31.906  35.492  1.00  0.00     0.064 A 
ATOM     71  C   UNL A   1      39.702  33.248  35.603  1.00  0.00     0.173 A 
ATOM     72  C   UNL A   1      38.480  31.380  36.489  1.00  0.00     0.173 A 
ATOM     73  F   UNL A   1      40.523  33.785  34.687  1.00  0.00    -0.203 F 
ATOM     74  C   UNL A   1      39.273  34.034  36.670  1.00  0.00     0.198 A 
ATOM     75  C   UNL A   1      38.031  32.174  37.542  1.00  0.00     0.198 A 
ATOM     76  F   UNL A   1      38.085  30.101  36.428  1.00  0.00    -0.203 F 
ATOM     77  F   UNL A   1      39.682  35.305  36.769  1.00  0.00    -0.200 F 
ATOM     78  C   UNL A   1      38.431  33.499  37.633  1.00  0.00     0.200 A 
ATOM     79  F   UNL A   1      37.209  31.656  38.464  1.00  0.00    -0.200 F 
ATOM     80  F   UNL A   1      38.009  34.259  38.654  1.00  0.00    -0.200 F 
ENDBRANCH  46  70
BRANCH  58  81
ATOM     81  C   UNL A   1      44.700  27.627  34.517  1.00  0.00     0.064 A 
ATOM     82  C   UNL A   1      45.911  28.331  34.586  1.00  0.00     0.173 A 
ATOM     83  C   UNL A   1      44.543  26.497  35.332  1.00  0.00     0.173 A 
ATOM     84  F   UNL A   1      46.109  29.409  33.812  1.00  0.00    -0.203 F 
ATOM     85  C   UNL A   1      46.935  27.907  35.426  1.00  0.00     0.198 A 
ATOM     86  C   UNL A   1      45.565  26.086  36.183  1.00  0.00     0.198 A 
ATOM     87  F   UNL A   1      43.403  25.793  35.299  1.00  0.00    -0.203 F 
ATOM     88  F   UNL A   1      48.099  28.573  35.451  1.00  0.00    -0.200 F 
ATOM     89  C   UNL A   1      46.761  26.788  36.227  1.00  0.00     0.200 A 
ATOM     90  F   UNL A   1      45.395  25.006  36.958  1.00  0.00    -0.200 F 
ATOM     91  F   UNL A   1      47.750  26.379  37.032  1.00  0.00    -0.200 F 
ENDBRANCH  58  81
ENDBRANCH  32  33
ENDBRANCH  25  27
ENDBRANCH  24  25
ENDBRANCH  23  24
ENDBRANCH   1  23
TORSDOF 15
ENDMDL
