MODEL 1
REMARK VINA RESULT:     -11.9      0.000      0.000
REMARK SMILES CCOc1cc(C[NH+]2CCC3(CC2)[C@H](C(=O)OCCOC(=O)c2ccc(-c4c5nc(c(-c6c(F)c(F)c(F)c(F)c6F)c6ccc([nH]6)c(-c6c(F)c(F)c(F)c(F)c6F)c6nc(c(-c7c(F)c(F)c(F)c(F)c7F)c7ccc4[nH]7)C=C6)C=C5)cc2)CC(=O)N3C)ccc1OC
REMARK SMILES IDX 18 1 17 2 15 3 16 4 14 5 8 6 9 7 13 8 10 10 12 11 11 12
REMARK SMILES IDX 89 13 86 14 87 15 90 16 88 17 7 18 6 19 4 20 5 21 93 22
REMARK SMILES IDX 92 23 91 24 3 25 2 26 1 27 94 28 95 29 19 30 20 31 21 32
REMARK SMILES IDX 22 33 23 34 24 35 85 36 25 37 84 38 26 39 27 40 28 41 78 42
REMARK SMILES IDX 29 43 83 44 77 45 79 46 30 47 82 48 76 49 75 50 31 52 63 53
REMARK SMILES IDX 43 54 62 55 44 56 47 57 61 58 80 59 45 60 46 61 60 63 81 64
REMARK SMILES IDX 48 65 32 66 33 67 41 68 34 69 35 70 39 71 42 72 36 73 37 74
REMARK SMILES IDX 40 75 38 76 64 77 65 78 73 79 66 80 67 81 71 82 74 83 68 84
REMARK SMILES IDX 69 85 72 86 70 87 49 88 50 89 58 90 51 91 52 92 56 93 59 94
REMARK SMILES IDX 53 95 54 96 57 97 55 98
REMARK H PARENT 8 9 79 51 47 62
REMARK Flexibility Score: inf
ROOT
ATOM      1  C   UNL A   1      35.441  21.899  26.622  1.00  0.00     0.274 C 
ENDROOT
BRANCH   1   2
ATOM      2  O   UNL A   1      34.085  21.374  26.655  1.00  0.00    -0.462 OA
BRANCH   2   3
ATOM      3  C   UNL A   1      33.127  22.225  27.088  1.00  0.00     0.311 C 
ATOM      4  O   UNL A   1      32.959  22.482  28.281  1.00  0.00    -0.252 OA
BRANCH   3   5
ATOM      5  C   UNL A   1      32.262  22.922  26.029  1.00  0.00     0.134 C 
ATOM      6  N   UNL A   1      32.529  27.136  25.388  1.00  0.00    -0.331 N 
ATOM      7  C   UNL A   1      33.822  26.463  25.388  1.00  0.00     0.265 C 
ATOM      8  C   UNL A   1      31.595  26.470  24.500  1.00  0.00     0.265 C 
ATOM      9  H   UNL A   1      32.739  28.051  24.990  1.00  0.00     0.348 HD
ATOM     10  C   UNL A   1      33.808  24.953  25.656  1.00  0.00     0.091 C 
ATOM     11  C   UNL A   1      31.372  24.985  24.801  1.00  0.00     0.091 C 
ATOM     12  C   UNL A   1      32.640  24.119  25.084  1.00  0.00     0.067 C 
ATOM     13  N   UNL A   1      32.948  23.414  23.826  1.00  0.00    -0.339 N 
ATOM     14  C   UNL A   1      31.732  21.840  25.094  1.00  0.00     0.118 C 
ATOM     15  C   UNL A   1      32.395  22.133  23.784  1.00  0.00     0.223 C 
ATOM     16  C   UNL A   1      33.127  24.102  22.560  1.00  0.00     0.147 C 
ATOM     17  O   UNL A   1      32.337  21.401  22.810  1.00  0.00    -0.275 OA
BRANCH   6  18
ATOM     18  C   UNL A   1      31.981  27.664  26.650  1.00  0.00     0.299 C 
BRANCH  18  19
ATOM     19  C   UNL A   1      32.648  28.912  27.193  1.00  0.00     0.010 A 
ATOM     20  C   UNL A   1      34.722  30.138  27.697  1.00  0.00     0.161 A 
ATOM     21  C   UNL A   1      33.986  28.928  27.666  1.00  0.00     0.060 A 
ATOM     22  C   UNL A   1      34.060  31.336  27.463  1.00  0.00     0.160 A 
ATOM     23  C   UNL A   1      32.738  31.281  27.039  1.00  0.00     0.051 A 
ATOM     24  C   UNL A   1      32.006  30.115  26.954  1.00  0.00     0.013 A 
BRANCH  20  25
ATOM     25  O   UNL A   1      36.023  30.083  27.239  1.00  0.00    -0.490 OA
BRANCH  25  26
ATOM     26  C   UNL A   1      36.976  29.322  27.957  1.00  0.00     0.226 C 
ATOM     27  C   UNL A   1      38.295  29.484  27.206  1.00  0.00     0.049 C 
ENDBRANCH  25  26
ENDBRANCH  20  25
BRANCH  22  28
ATOM     28  O   UNL A   1      34.532  32.608  27.585  1.00  0.00    -0.493 OA
ATOM     29  C   UNL A   1      33.718  33.591  28.195  1.00  0.00     0.278 C 
ENDBRANCH  22  28
ENDBRANCH  18  19
ENDBRANCH   6  18
ENDBRANCH   3   5
ENDBRANCH   2   3
ENDBRANCH   1   2
BRANCH   1  30
ATOM     30  C   UNL A   1      36.165  21.544  25.314  1.00  0.00     0.275 C 
BRANCH  30  31
ATOM     31  O   UNL A   1      37.353  22.343  25.107  1.00  0.00    -0.458 OA
BRANCH  31  32
ATOM     32  C   UNL A   1      38.447  21.934  25.819  1.00  0.00     0.338 C 
ATOM     33  O   UNL A   1      38.954  20.829  25.740  1.00  0.00    -0.246 OA
BRANCH  32  34
ATOM     34  C   UNL A   1      39.079  23.050  26.601  1.00  0.00     0.060 A 
ATOM     35  C   UNL A   1      38.726  24.381  26.416  1.00  0.00     0.016 A 
ATOM     36  C   UNL A   1      40.186  22.777  27.411  1.00  0.00     0.016 A 
ATOM     37  C   UNL A   1      39.615  25.397  26.804  1.00  0.00     0.010 A 
ATOM     38  C   UNL A   1      40.955  23.821  27.966  1.00  0.00     0.010 A 
ATOM     39  C   UNL A   1      40.721  25.165  27.630  1.00  0.00    -0.014 A 
BRANCH  39  40
ATOM     40  C   UNL A   1      41.591  26.278  28.168  1.00  0.00     0.031 A 
ATOM     41  C   UNL A   1      41.000  27.386  29.025  1.00  0.00     0.074 A 
ATOM     42  C   UNL A   1      42.908  26.375  27.863  1.00  0.00     0.049 A 
ATOM     43  N   UNL A   1      41.402  28.626  29.185  1.00  0.00    -0.248 NA
ATOM     44  C   UNL A   1      39.792  27.055  29.799  1.00  0.00     0.031 C 
ATOM     45  C   UNL A   1      43.719  25.376  27.166  1.00  0.00     0.029 A 
ATOM     46  N   UNL A   1      43.802  27.410  28.075  1.00  0.00    -0.354 N 
ATOM     47  C   UNL A   1      40.454  29.243  29.999  1.00  0.00     0.074 A 
ATOM     48  C   UNL A   1      39.467  28.233  30.322  1.00  0.00     0.031 C 
ATOM     49  C   UNL A   1      44.969  25.825  27.020  1.00  0.00     0.029 A 
ATOM     50  C   UNL A   1      45.013  27.210  27.449  1.00  0.00     0.049 A 
ATOM     51  H   UNL A   1      43.594  28.205  28.616  1.00  0.00     0.167 HD
ATOM     52  C   UNL A   1      40.409  30.534  30.418  1.00  0.00     0.037 A 
ATOM     53  C   UNL A   1      46.013  28.054  27.127  1.00  0.00     0.037 A 
ATOM     54  C   UNL A   1      41.438  31.512  30.152  1.00  0.00     0.049 A 
ATOM     55  C   UNL A   1      45.898  29.503  27.488  1.00  0.00     0.074 A 
ATOM     56  C   UNL A   1      41.481  32.848  30.519  1.00  0.00     0.029 A 
ATOM     57  N   UNL A   1      42.621  31.252  29.475  1.00  0.00    -0.354 N 
ATOM     58  N   UNL A   1      44.938  30.121  28.129  1.00  0.00    -0.248 NA
ATOM     59  C   UNL A   1      46.998  30.377  27.062  1.00  0.00     0.031 C 
ATOM     60  C   UNL A   1      42.665  33.405  30.025  1.00  0.00     0.029 A 
ATOM     61  C   UNL A   1      43.391  32.402  29.407  1.00  0.00     0.049 A 
ATOM     62  H   UNL A   1      42.875  30.377  29.100  1.00  0.00     0.167 HD
ATOM     63  C   UNL A   1      45.338  31.446  28.220  1.00  0.00     0.074 A 
ATOM     64  C   UNL A   1      46.629  31.542  27.572  1.00  0.00     0.031 C 
ATOM     65  C   UNL A   1      44.689  32.487  28.793  1.00  0.00     0.037 A 
BRANCH  52  66
ATOM     66  C   UNL A   1      39.196  31.008  31.178  1.00  0.00     0.064 A 
ATOM     67  C   UNL A   1      38.128  31.668  30.555  1.00  0.00     0.173 A 
ATOM     68  C   UNL A   1      39.058  30.692  32.542  1.00  0.00     0.173 A 
ATOM     69  F   UNL A   1      38.202  31.994  29.256  1.00  0.00    -0.203 F 
ATOM     70  C   UNL A   1      36.979  32.009  31.269  1.00  0.00     0.198 A 
ATOM     71  C   UNL A   1      37.896  31.007  33.244  1.00  0.00     0.198 A 
ATOM     72  F   UNL A   1      40.039  30.042  33.188  1.00  0.00    -0.203 F 
ATOM     73  F   UNL A   1      35.984  32.667  30.658  1.00  0.00    -0.200 F 
ATOM     74  C   UNL A   1      36.860  31.670  32.609  1.00  0.00     0.200 A 
ATOM     75  F   UNL A   1      37.776  30.655  34.532  1.00  0.00    -0.200 F 
ATOM     76  F   UNL A   1      35.745  31.980  33.286  1.00  0.00    -0.200 F 
ENDBRANCH  52  66
BRANCH  53  77
ATOM     77  C   UNL A   1      47.166  27.561  26.323  1.00  0.00     0.064 A 
ATOM     78  C   UNL A   1      48.297  27.014  26.942  1.00  0.00     0.173 A 
ATOM     79  C   UNL A   1      47.165  27.634  24.919  1.00  0.00     0.173 A 
ATOM     80  F   UNL A   1      48.359  26.947  28.281  1.00  0.00    -0.203 F 
ATOM     81  C   UNL A   1      49.387  26.577  26.193  1.00  0.00     0.198 A 
ATOM     82  C   UNL A   1      48.236  27.156  24.170  1.00  0.00     0.198 A 
ATOM     83  F   UNL A   1      46.109  28.148  24.272  1.00  0.00    -0.203 F 
ATOM     84  F   UNL A   1      50.479  26.112  26.814  1.00  0.00    -0.200 F 
ATOM     85  C   UNL A   1      49.352  26.639  24.807  1.00  0.00     0.200 A 
ATOM     86  F   UNL A   1      48.186  27.196  22.831  1.00  0.00    -0.200 F 
ATOM     87  F   UNL A   1      50.398  26.208  24.088  1.00  0.00    -0.200 F 
ENDBRANCH  53  77
BRANCH  65  88
ATOM     88  C   UNL A   1      45.407  33.803  28.830  1.00  0.00     0.064 A 
ATOM     89  C   UNL A   1      45.261  34.760  27.815  1.00  0.00     0.173 A 
ATOM     90  C   UNL A   1      46.242  34.116  29.914  1.00  0.00     0.173 A 
ATOM     91  F   UNL A   1      44.492  34.500  26.747  1.00  0.00    -0.203 F 
ATOM     92  C   UNL A   1      45.947  35.971  27.871  1.00  0.00     0.198 A 
ATOM     93  C   UNL A   1      46.900  35.340  29.983  1.00  0.00     0.198 A 
ATOM     94  F   UNL A   1      46.415  33.234  30.911  1.00  0.00    -0.203 F 
ATOM     95  F   UNL A   1      45.837  36.848  26.864  1.00  0.00    -0.200 F 
ATOM     96  C   UNL A   1      46.759  36.262  28.958  1.00  0.00     0.200 A 
ATOM     97  F   UNL A   1      47.675  35.623  31.039  1.00  0.00    -0.200 F 
ATOM     98  F   UNL A   1      47.414  37.430  29.012  1.00  0.00    -0.200 F 
ENDBRANCH  65  88
ENDBRANCH  39  40
ENDBRANCH  32  34
ENDBRANCH  31  32
ENDBRANCH  30  31
ENDBRANCH   1  30
TORSDOF 16
ENDMDL
MODEL 2
REMARK VINA RESULT:     -11.6      4.092     10.019
REMARK SMILES CCOc1cc(C[NH+]2CCC3(CC2)[C@H](C(=O)OCCOC(=O)c2ccc(-c4c5nc(c(-c6c(F)c(F)c(F)c(F)c6F)c6ccc([nH]6)c(-c6c(F)c(F)c(F)c(F)c6F)c6nc(c(-c7c(F)c(F)c(F)c(F)c7F)c7ccc4[nH]7)C=C6)C=C5)cc2)CC(=O)N3C)ccc1OC
REMARK SMILES IDX 18 1 17 2 15 3 16 4 14 5 8 6 9 7 13 8 10 10 12 11 11 12
REMARK SMILES IDX 89 13 86 14 87 15 90 16 88 17 7 18 6 19 4 20 5 21 93 22
REMARK SMILES IDX 92 23 91 24 3 25 2 26 1 27 94 28 95 29 19 30 20 31 21 32
REMARK SMILES IDX 22 33 23 34 24 35 85 36 25 37 84 38 26 39 27 40 28 41 78 42
REMARK SMILES IDX 29 43 83 44 77 45 79 46 30 47 82 48 76 49 75 50 31 52 63 53
REMARK SMILES IDX 43 54 62 55 44 56 47 57 61 58 80 59 45 60 46 61 60 63 81 64
REMARK SMILES IDX 48 65 32 66 33 67 41 68 34 69 35 70 39 71 42 72 36 73 37 74
REMARK SMILES IDX 40 75 38 76 64 77 65 78 73 79 66 80 67 81 71 82 74 83 68 84
REMARK SMILES IDX 69 85 72 86 70 87 49 88 50 89 58 90 51 91 52 92 56 93 59 94
REMARK SMILES IDX 53 95 54 96 57 97 55 98
REMARK H PARENT 8 9 79 51 47 62
REMARK Flexibility Score: inf
ROOT
ATOM      1  C   UNL A   1      31.541  29.985  25.094  1.00  0.00     0.274 C 
ENDROOT
BRANCH   1   2
ATOM      2  O   UNL A   1      32.701  29.166  24.774  1.00  0.00    -0.462 OA
BRANCH   2   3
ATOM      3  C   UNL A   1      32.862  28.846  23.471  1.00  0.00     0.311 C 
ATOM      4  O   UNL A   1      33.741  29.350  22.769  1.00  0.00    -0.252 OA
BRANCH   3   5
ATOM      5  C   UNL A   1      31.934  27.777  22.879  1.00  0.00     0.134 C 
ATOM      6  N   UNL A   1      32.445  23.645  23.828  1.00  0.00    -0.331 N 
ATOM      7  C   UNL A   1      32.409  24.512  24.999  1.00  0.00     0.265 C 
ATOM      8  C   UNL A   1      31.319  23.906  22.952  1.00  0.00     0.265 C 
ATOM      9  H   UNL A   1      32.323  22.712  24.222  1.00  0.00     0.348 HD
ATOM     10  C   UNL A   1      32.272  26.016  24.733  1.00  0.00     0.091 C 
ATOM     11  C   UNL A   1      31.196  25.357  22.480  1.00  0.00     0.091 C 
ATOM     12  C   UNL A   1      31.380  26.472  23.558  1.00  0.00     0.067 C 
ATOM     13  N   UNL A   1      30.022  26.898  23.946  1.00  0.00    -0.339 N 
ATOM     14  C   UNL A   1      30.698  28.495  22.347  1.00  0.00     0.118 C 
ATOM     15  C   UNL A   1      29.589  28.016  23.231  1.00  0.00     0.223 C 
ATOM     16  C   UNL A   1      29.006  25.969  24.406  1.00  0.00     0.147 C 
ATOM     17  O   UNL A   1      28.458  28.473  23.215  1.00  0.00    -0.275 OA
BRANCH   6  18
ATOM     18  C   UNL A   1      33.734  23.347  23.179  1.00  0.00     0.299 C 
BRANCH  18  19
ATOM     19  C   UNL A   1      34.785  22.695  24.055  1.00  0.00     0.010 A 
ATOM     20  C   UNL A   1      35.705  20.647  25.064  1.00  0.00     0.161 A 
ATOM     21  C   UNL A   1      34.592  21.436  24.682  1.00  0.00     0.060 A 
ATOM     22  C   UNL A   1      36.976  21.204  25.012  1.00  0.00     0.160 A 
ATOM     23  C   UNL A   1      37.119  22.456  24.426  1.00  0.00     0.051 A 
ATOM     24  C   UNL A   1      36.059  23.231  24.003  1.00  0.00     0.013 A 
BRANCH  20  25
ATOM     25  O   UNL A   1      35.639  19.300  24.770  1.00  0.00    -0.490 OA
BRANCH  25  26
ATOM     26  C   UNL A   1      34.378  18.712  24.509  1.00  0.00     0.226 C 
ATOM     27  C   UNL A   1      34.637  17.217  24.350  1.00  0.00     0.049 C 
ENDBRANCH  25  26
ENDBRANCH  20  25
BRANCH  22  28
ATOM     28  O   UNL A   1      38.152  20.686  25.463  1.00  0.00    -0.493 OA
ATOM     29  C   UNL A   1      39.171  21.563  25.904  1.00  0.00     0.278 C 
ENDBRANCH  22  28
ENDBRANCH  18  19
ENDBRANCH   6  18
ENDBRANCH   3   5
ENDBRANCH   2   3
ENDBRANCH   1   2
BRANCH   1  30
ATOM     30  C   UNL A   1      31.739  30.784  26.391  1.00  0.00     0.275 C 
BRANCH  30  31
ATOM     31  O   UNL A   1      32.988  30.468  27.048  1.00  0.00    -0.458 OA
BRANCH  31  32
ATOM     32  C   UNL A   1      33.689  31.554  27.495  1.00  0.00     0.338 C 
ATOM     33  O   UNL A   1      33.213  32.662  27.677  1.00  0.00    -0.246 OA
BRANCH  32  34
ATOM     34  C   UNL A   1      35.091  31.209  27.907  1.00  0.00     0.060 A 
ATOM     35  C   UNL A   1      35.460  29.924  28.287  1.00  0.00     0.016 A 
ATOM     36  C   UNL A   1      36.022  32.236  28.095  1.00  0.00     0.016 A 
ATOM     37  C   UNL A   1      36.607  29.735  29.075  1.00  0.00     0.010 A 
ATOM     38  C   UNL A   1      37.266  31.985  28.711  1.00  0.00     0.010 A 
ATOM     39  C   UNL A   1      37.570  30.732  29.269  1.00  0.00    -0.014 A 
BRANCH  39  40
ATOM     40  C   UNL A   1      38.874  30.484  29.992  1.00  0.00     0.031 A 
ATOM     41  C   UNL A   1      39.921  29.545  29.414  1.00  0.00     0.074 A 
ATOM     42  C   UNL A   1      39.142  31.030  31.204  1.00  0.00     0.049 A 
ATOM     43  N   UNL A   1      40.837  28.832  30.028  1.00  0.00    -0.248 NA
ATOM     44  C   UNL A   1      39.932  29.382  27.951  1.00  0.00     0.031 C 
ATOM     45  C   UNL A   1      38.353  32.049  31.896  1.00  0.00     0.029 A 
ATOM     46  N   UNL A   1      40.159  30.759  32.102  1.00  0.00    -0.354 N 
ATOM     47  C   UNL A   1      41.469  28.075  29.044  1.00  0.00     0.074 A 
ATOM     48  C   UNL A   1      40.848  28.433  27.785  1.00  0.00     0.031 C 
ATOM     49  C   UNL A   1      38.906  32.327  33.081  1.00  0.00     0.029 A 
ATOM     50  C   UNL A   1      39.984  31.386  33.316  1.00  0.00     0.049 A 
ATOM     51  H   UNL A   1      40.928  30.181  31.894  1.00  0.00     0.167 HD
ATOM     52  C   UNL A   1      42.460  27.157  29.187  1.00  0.00     0.037 A 
ATOM     53  C   UNL A   1      40.523  31.167  34.531  1.00  0.00     0.037 A 
ATOM     54  C   UNL A   1      43.123  26.864  30.437  1.00  0.00     0.049 A 
ATOM     55  C   UNL A   1      41.528  30.069  34.703  1.00  0.00     0.074 A 
ATOM     56  C   UNL A   1      44.127  25.942  30.691  1.00  0.00     0.029 A 
ATOM     57  N   UNL A   1      42.867  27.508  31.638  1.00  0.00    -0.354 N 
ATOM     58  N   UNL A   1      42.022  29.254  33.807  1.00  0.00    -0.248 NA
ATOM     59  C   UNL A   1      42.036  29.849  36.064  1.00  0.00     0.031 C 
ATOM     60  C   UNL A   1      44.444  25.997  32.052  1.00  0.00     0.029 A 
ATOM     61  C   UNL A   1      43.685  26.997  32.634  1.00  0.00     0.049 A 
ATOM     62  H   UNL A   1      42.201  28.223  31.765  1.00  0.00     0.167 HD
ATOM     63  C   UNL A   1      42.928  28.452  34.485  1.00  0.00     0.074 A 
ATOM     64  C   UNL A   1      42.920  28.883  35.866  1.00  0.00     0.031 C 
ATOM     65  C   UNL A   1      43.699  27.451  33.999  1.00  0.00     0.037 A 
BRANCH  52  66
ATOM     66  C   UNL A   1      42.882  26.353  27.984  1.00  0.00     0.064 A 
ATOM     67  C   UNL A   1      42.261  25.149  27.628  1.00  0.00     0.173 A 
ATOM     68  C   UNL A   1      43.861  26.862  27.112  1.00  0.00     0.173 A 
ATOM     69  F   UNL A   1      41.319  24.615  28.420  1.00  0.00    -0.203 F 
ATOM     70  C   UNL A   1      42.612  24.478  26.456  1.00  0.00     0.198 A 
ATOM     71  C   UNL A   1      44.188  26.205  25.927  1.00  0.00     0.198 A 
ATOM     72  F   UNL A   1      44.478  28.022  27.390  1.00  0.00    -0.203 F 
ATOM     73  F   UNL A   1      42.023  23.312  26.151  1.00  0.00    -0.200 F 
ATOM     74  C   UNL A   1      43.567  25.011  25.603  1.00  0.00     0.200 A 
ATOM     75  F   UNL A   1      45.093  26.737  25.094  1.00  0.00    -0.200 F 
ATOM     76  F   UNL A   1      43.886  24.374  24.467  1.00  0.00    -0.200 F 
ENDBRANCH  52  66
BRANCH  53  77
ATOM     77  C   UNL A   1      40.035  31.940  35.708  1.00  0.00     0.064 A 
ATOM     78  C   UNL A   1      40.716  33.079  36.155  1.00  0.00     0.173 A 
ATOM     79  C   UNL A   1      38.883  31.553  36.413  1.00  0.00     0.173 A 
ATOM     80  F   UNL A   1      41.837  33.475  35.533  1.00  0.00    -0.203 F 
ATOM     81  C   UNL A   1      40.276  33.789  37.271  1.00  0.00     0.198 A 
ATOM     82  C   UNL A   1      38.419  32.288  37.500  1.00  0.00     0.198 A 
ATOM     83  F   UNL A   1      38.190  30.470  36.029  1.00  0.00    -0.203 F 
ATOM     84  F   UNL A   1      40.979  34.840  37.711  1.00  0.00    -0.200 F 
ATOM     85  C   UNL A   1      39.123  33.399  37.936  1.00  0.00     0.200 A 
ATOM     86  F   UNL A   1      37.291  31.922  38.124  1.00  0.00    -0.200 F 
ATOM     87  F   UNL A   1      38.696  34.090  39.002  1.00  0.00    -0.200 F 
ENDBRANCH  53  77
BRANCH  65  88
ATOM     88  C   UNL A   1      44.668  26.812  34.948  1.00  0.00     0.064 A 
ATOM     89  C   UNL A   1      45.961  27.318  35.146  1.00  0.00     0.173 A 
ATOM     90  C   UNL A   1      44.284  25.682  35.687  1.00  0.00     0.173 A 
ATOM     91  F   UNL A   1      46.385  28.382  34.447  1.00  0.00    -0.203 F 
ATOM     92  C   UNL A   1      46.844  26.698  36.028  1.00  0.00     0.198 A 
ATOM     93  C   UNL A   1      45.157  25.086  36.592  1.00  0.00     0.198 A 
ATOM     94  F   UNL A   1      43.058  25.160  35.535  1.00  0.00    -0.203 F 
ATOM     95  F   UNL A   1      48.093  27.164  36.160  1.00  0.00    -0.200 F 
ATOM     96  C   UNL A   1      46.439  25.588  36.755  1.00  0.00     0.200 A 
ATOM     97  F   UNL A   1      44.759  24.020  37.301  1.00  0.00    -0.200 F 
ATOM     98  F   UNL A   1      47.287  24.998  37.607  1.00  0.00    -0.200 F 
ENDBRANCH  65  88
ENDBRANCH  39  40
ENDBRANCH  32  34
ENDBRANCH  31  32
ENDBRANCH  30  31
ENDBRANCH   1  30
TORSDOF 16
ENDMDL
MODEL 3
REMARK VINA RESULT:     -11.4      4.477      8.398
REMARK SMILES CCOc1cc(C[NH+]2CCC3(CC2)[C@H](C(=O)OCCOC(=O)c2ccc(-c4c5nc(c(-c6c(F)c(F)c(F)c(F)c6F)c6ccc([nH]6)c(-c6c(F)c(F)c(F)c(F)c6F)c6nc(c(-c7c(F)c(F)c(F)c(F)c7F)c7ccc4[nH]7)C=C6)C=C5)cc2)CC(=O)N3C)ccc1OC
REMARK SMILES IDX 18 1 17 2 15 3 16 4 14 5 8 6 9 7 13 8 10 10 12 11 11 12
REMARK SMILES IDX 89 13 86 14 87 15 90 16 88 17 7 18 6 19 4 20 5 21 93 22
REMARK SMILES IDX 92 23 91 24 3 25 2 26 1 27 94 28 95 29 19 30 20 31 21 32
REMARK SMILES IDX 22 33 23 34 24 35 85 36 25 37 84 38 26 39 27 40 28 41 78 42
REMARK SMILES IDX 29 43 83 44 77 45 79 46 30 47 82 48 76 49 75 50 31 52 63 53
REMARK SMILES IDX 43 54 62 55 44 56 47 57 61 58 80 59 45 60 46 61 60 63 81 64
REMARK SMILES IDX 48 65 32 66 33 67 41 68 34 69 35 70 39 71 42 72 36 73 37 74
REMARK SMILES IDX 40 75 38 76 64 77 65 78 73 79 66 80 67 81 71 82 74 83 68 84
REMARK SMILES IDX 69 85 72 86 70 87 49 88 50 89 58 90 51 91 52 92 56 93 59 94
REMARK SMILES IDX 53 95 54 96 57 97 55 98
REMARK H PARENT 8 9 79 51 47 62
REMARK Flexibility Score: inf
ROOT
ATOM      1  C   UNL A   1      37.709  21.139  25.011  1.00  0.00     0.274 C 
ENDROOT
BRANCH   1   2
ATOM      2  O   UNL A   1      36.885  22.065  25.772  1.00  0.00    -0.462 OA
BRANCH   2   3
ATOM      3  C   UNL A   1      36.413  23.136  25.096  1.00  0.00     0.311 C 
ATOM      4  O   UNL A   1      37.068  23.711  24.225  1.00  0.00    -0.252 OA
BRANCH   3   5
ATOM      5  C   UNL A   1      34.986  23.606  25.410  1.00  0.00     0.134 C 
ATOM      6  N   UNL A   1      32.189  24.407  22.285  1.00  0.00    -0.331 N 
ATOM      7  C   UNL A   1      32.849  23.114  22.160  1.00  0.00     0.265 C 
ATOM      8  C   UNL A   1      31.642  24.586  23.616  1.00  0.00     0.265 C 
ATOM      9  H   UNL A   1      31.408  24.338  21.633  1.00  0.00     0.348 HD
ATOM     10  C   UNL A   1      33.900  22.775  23.224  1.00  0.00     0.091 C 
ATOM     11  C   UNL A   1      32.659  24.445  24.752  1.00  0.00     0.091 C 
ATOM     12  C   UNL A   1      33.647  23.239  24.675  1.00  0.00     0.067 C 
ATOM     13  N   UNL A   1      33.099  22.199  25.566  1.00  0.00    -0.339 N 
ATOM     14  C   UNL A   1      34.722  23.295  26.880  1.00  0.00     0.118 C 
ATOM     15  C   UNL A   1      33.656  22.245  26.845  1.00  0.00     0.223 C 
ATOM     16  C   UNL A   1      31.741  21.697  25.450  1.00  0.00     0.147 C 
ATOM     17  O   UNL A   1      33.270  21.631  27.826  1.00  0.00    -0.275 OA
BRANCH   6  18
ATOM     18  C   UNL A   1      32.786  25.596  21.649  1.00  0.00     0.299 C 
BRANCH  18  19
ATOM     19  C   UNL A   1      32.333  26.937  22.190  1.00  0.00     0.010 A 
ATOM     20  C   UNL A   1      30.501  28.361  23.012  1.00  0.00     0.161 A 
ATOM     21  C   UNL A   1      30.989  27.387  22.107  1.00  0.00     0.060 A 
ATOM     22  C   UNL A   1      31.400  29.023  23.839  1.00  0.00     0.160 A 
ATOM     23  C   UNL A   1      32.716  28.579  23.863  1.00  0.00     0.051 A 
ATOM     24  C   UNL A   1      33.212  27.600  23.026  1.00  0.00     0.013 A 
BRANCH  20  25
ATOM     25  O   UNL A   1      29.256  28.130  23.560  1.00  0.00    -0.490 OA
BRANCH  25  26
ATOM     26  C   UNL A   1      28.101  28.447  22.807  1.00  0.00     0.226 C 
ATOM     27  C   UNL A   1      27.706  29.863  23.219  1.00  0.00     0.049 C 
ENDBRANCH  25  26
ENDBRANCH  20  25
BRANCH  22  28
ATOM     28  O   UNL A   1      31.176  30.081  24.667  1.00  0.00    -0.493 OA
ATOM     29  C   UNL A   1      31.735  30.073  25.966  1.00  0.00     0.278 C 
ENDBRANCH  22  28
ENDBRANCH  18  19
ENDBRANCH   6  18
ENDBRANCH   3   5
ENDBRANCH   2   3
ENDBRANCH   1   2
BRANCH   1  30
ATOM     30  C   UNL A   1      39.111  20.978  25.620  1.00  0.00     0.275 C 
BRANCH  30  31
ATOM     31  O   UNL A   1      39.394  21.981  26.623  1.00  0.00    -0.458 OA
BRANCH  31  32
ATOM     32  C   UNL A   1      40.535  22.703  26.402  1.00  0.00     0.338 C 
ATOM     33  O   UNL A   1      41.476  22.327  25.725  1.00  0.00    -0.246 OA
BRANCH  32  34
ATOM     34  C   UNL A   1      40.449  24.100  26.947  1.00  0.00     0.060 A 
ATOM     35  C   UNL A   1      41.340  25.099  26.574  1.00  0.00     0.016 A 
ATOM     36  C   UNL A   1      39.569  24.373  27.999  1.00  0.00     0.016 A 
ATOM     37  C   UNL A   1      41.520  26.217  27.406  1.00  0.00     0.010 A 
ATOM     38  C   UNL A   1      39.630  25.596  28.699  1.00  0.00     0.010 A 
ATOM     39  C   UNL A   1      40.648  26.532  28.454  1.00  0.00    -0.014 A 
BRANCH  39  40
ATOM     40  C   UNL A   1      40.756  27.811  29.254  1.00  0.00     0.031 A 
ATOM     41  C   UNL A   1      41.793  27.957  30.356  1.00  0.00     0.074 A 
ATOM     42  C   UNL A   1      39.904  28.849  29.072  1.00  0.00     0.049 A 
ATOM     43  N   UNL A   1      41.768  28.704  31.436  1.00  0.00    -0.248 NA
ATOM     44  C   UNL A   1      43.017  27.149  30.228  1.00  0.00     0.031 C 
ATOM     45  C   UNL A   1      38.914  28.990  28.003  1.00  0.00     0.029 A 
ATOM     46  N   UNL A   1      39.708  29.989  29.831  1.00  0.00    -0.354 N 
ATOM     47  C   UNL A   1      42.920  28.392  32.154  1.00  0.00     0.074 A 
ATOM     48  C   UNL A   1      43.638  27.403  31.376  1.00  0.00     0.031 C 
ATOM     49  C   UNL A   1      38.236  30.131  28.158  1.00  0.00     0.029 A 
ATOM     50  C   UNL A   1      38.611  30.720  29.428  1.00  0.00     0.049 A 
ATOM     51  H   UNL A   1      40.290  30.251  30.580  1.00  0.00     0.167 HD
ATOM     52  C   UNL A   1      43.325  28.875  33.357  1.00  0.00     0.037 A 
ATOM     53  C   UNL A   1      37.888  31.676  30.044  1.00  0.00     0.037 A 
ATOM     54  C   UNL A   1      42.640  29.916  34.088  1.00  0.00     0.049 A 
ATOM     55  C   UNL A   1      38.273  32.117  31.423  1.00  0.00     0.074 A 
ATOM     56  C   UNL A   1      42.959  30.465  35.321  1.00  0.00     0.029 A 
ATOM     57  N   UNL A   1      41.510  30.585  33.641  1.00  0.00    -0.354 N 
ATOM     58  N   UNL A   1      39.274  31.721  32.167  1.00  0.00    -0.248 NA
ATOM     59  C   UNL A   1      37.411  33.124  32.057  1.00  0.00     0.031 C 
ATOM     60  C   UNL A   1      41.999  31.431  35.637  1.00  0.00     0.029 A 
ATOM     61  C   UNL A   1      41.118  31.530  34.575  1.00  0.00     0.049 A 
ATOM     62  H   UNL A   1      41.055  30.413  32.784  1.00  0.00     0.167 HD
ATOM     63  C   UNL A   1      39.189  32.460  33.338  1.00  0.00     0.074 A 
ATOM     64  C   UNL A   1      38.041  33.330  33.204  1.00  0.00     0.031 C 
ATOM     65  C   UNL A   1      39.996  32.419  34.424  1.00  0.00     0.037 A 
BRANCH  52  66
ATOM     66  C   UNL A   1      44.544  28.272  34.008  1.00  0.00     0.064 A 
ATOM     67  C   UNL A   1      44.465  27.193  34.899  1.00  0.00     0.173 A 
ATOM     68  C   UNL A   1      45.826  28.719  33.641  1.00  0.00     0.173 A 
ATOM     69  F   UNL A   1      43.270  26.723  35.285  1.00  0.00    -0.203 F 
ATOM     70  C   UNL A   1      45.619  26.598  35.410  1.00  0.00     0.198 A 
ATOM     71  C   UNL A   1      46.976  28.102  34.129  1.00  0.00     0.198 A 
ATOM     72  F   UNL A   1      45.965  29.736  32.775  1.00  0.00    -0.203 F 
ATOM     73  F   UNL A   1      45.517  25.586  36.284  1.00  0.00    -0.200 F 
ATOM     74  C   UNL A   1      46.872  27.046  35.018  1.00  0.00     0.200 A 
ATOM     75  F   UNL A   1      48.184  28.522  33.728  1.00  0.00    -0.200 F 
ATOM     76  F   UNL A   1      47.977  26.456  35.494  1.00  0.00    -0.200 F 
ENDBRANCH  52  66
BRANCH  53  77
ATOM     77  C   UNL A   1      36.655  32.204  29.395  1.00  0.00     0.064 A 
ATOM     78  C   UNL A   1      35.533  31.388  29.206  1.00  0.00     0.173 A 
ATOM     79  C   UNL A   1      36.576  33.533  28.944  1.00  0.00     0.173 A 
ATOM     80  F   UNL A   1      35.567  30.104  29.594  1.00  0.00    -0.203 F 
ATOM     81  C   UNL A   1      34.388  31.872  28.576  1.00  0.00     0.198 A 
ATOM     82  C   UNL A   1      35.416  34.028  28.355  1.00  0.00     0.198 A 
ATOM     83  F   UNL A   1      37.620  34.360  29.099  1.00  0.00    -0.203 F 
ATOM     84  F   UNL A   1      33.352  31.053  28.356  1.00  0.00    -0.200 F 
ATOM     85  C   UNL A   1      34.327  33.195  28.160  1.00  0.00     0.200 A 
ATOM     86  F   UNL A   1      35.354  35.313  27.977  1.00  0.00    -0.200 F 
ATOM     87  F   UNL A   1      33.221  33.661  27.564  1.00  0.00    -0.200 F 
ENDBRANCH  53  77
BRANCH  65  88
ATOM     88  C   UNL A   1      39.722  33.407  35.517  1.00  0.00     0.064 A 
ATOM     89  C   UNL A   1      38.926  33.090  36.627  1.00  0.00     0.173 A 
ATOM     90  C   UNL A   1      40.286  34.692  35.458  1.00  0.00     0.173 A 
ATOM     91  F   UNL A   1      38.346  31.884  36.719  1.00  0.00    -0.203 F 
ATOM     92  C   UNL A   1      38.681  34.032  37.624  1.00  0.00     0.198 A 
ATOM     93  C   UNL A   1      40.066  35.619  36.472  1.00  0.00     0.198 A 
ATOM     94  F   UNL A   1      41.056  35.045  34.417  1.00  0.00    -0.203 F 
ATOM     95  F   UNL A   1      37.872  33.727  38.647  1.00  0.00    -0.200 F 
ATOM     96  C   UNL A   1      39.257  35.292  37.549  1.00  0.00     0.200 A 
ATOM     97  F   UNL A   1      40.633  36.832  36.402  1.00  0.00    -0.200 F 
ATOM     98  F   UNL A   1      39.025  36.194  38.512  1.00  0.00    -0.200 F 
ENDBRANCH  65  88
ENDBRANCH  39  40
ENDBRANCH  32  34
ENDBRANCH  31  32
ENDBRANCH  30  31
ENDBRANCH   1  30
TORSDOF 16
ENDMDL
