MODEL 1
REMARK VINA RESULT:     -11.2      0.000      0.000
REMARK SMILES C[C@H](C(=O)OCCOC(=O)c1ccc(-c2c3nc(c(-c4c(F)c(F)c(F)c(F)c4F)c4ccc([nH]4)c(-c4c(F)c(F)c(F)c(F)c4F)c4nc(c(-c5c(F)c(F)c(F)c(F)c5F)c5ccc2[nH]5)C=C4)C=C3)cc1)[C@H](C)[NH+]1CCN(S(C)(=O)=O)CC1
REMARK SMILES IDX 6 1 5 2 3 3 4 4 2 5 1 6 74 7 75 8 76 9 77 10 85 11 78 13
REMARK SMILES IDX 84 14 79 15 80 16 81 17 82 18 83 19 7 20 8 21 9 22 10 23
REMARK SMILES IDX 11 24 12 25 73 26 13 27 72 28 14 29 15 30 16 31 66 32 17 33
REMARK SMILES IDX 71 34 65 35 67 36 18 37 70 38 64 39 63 40 19 42 51 43 31 44
REMARK SMILES IDX 50 45 32 46 35 47 49 48 68 49 33 50 34 51 48 53 69 54 36 55
REMARK SMILES IDX 20 56 21 57 29 58 22 59 23 60 27 61 30 62 24 63 25 64 28 65
REMARK SMILES IDX 26 66 52 67 53 68 61 69 54 70 55 71 59 72 62 73 56 74 57 75
REMARK SMILES IDX 60 76 58 77 37 78 38 79 46 80 39 81 40 82 44 83 47 84 41 85
REMARK SMILES IDX 42 86 45 87 43 88
REMARK H PARENT 76 12 67 41 35 52
REMARK Flexibility Score: inf
ROOT
ATOM      1  C   UNL A   1      36.578  22.749  23.495  1.00  0.00     0.274 C 
ENDROOT
BRANCH   1   2
ATOM      2  O   UNL A   1      35.140  22.599  23.490  1.00  0.00    -0.462 OA
BRANCH   2   3
ATOM      3  C   UNL A   1      34.399  23.727  23.409  1.00  0.00     0.314 C 
ATOM      4  O   UNL A   1      34.425  24.461  22.423  1.00  0.00    -0.252 OA
BRANCH   3   5
ATOM      5  C   UNL A   1      33.651  24.117  24.698  1.00  0.00     0.154 C 
ATOM      6  C   UNL A   1      32.435  24.969  24.316  1.00  0.00     0.026 C 
BRANCH   5   7
ATOM      7  C   UNL A   1      33.434  23.111  25.908  1.00  0.00     0.195 C 
ATOM      8  C   UNL A   1      34.576  23.251  26.937  1.00  0.00     0.076 C 
BRANCH   7   9
ATOM      9  N   UNL A   1      32.848  21.747  25.861  1.00  0.00    -0.330 N 
ATOM     10  C   UNL A   1      31.790  21.342  24.944  1.00  0.00     0.279 C 
ATOM     11  C   UNL A   1      33.651  20.567  26.216  1.00  0.00     0.279 C 
ATOM     12  H   UNL A   1      32.358  22.117  26.676  1.00  0.00     0.348 HD
ATOM     13  C   UNL A   1      32.327  20.691  23.660  1.00  0.00     0.163 C 
ATOM     14  C   UNL A   1      34.251  19.831  25.009  1.00  0.00     0.163 C 
ATOM     15  N   UNL A   1      33.239  19.558  23.953  1.00  0.00    -0.191 NA
BRANCH  15  16
ATOM     16  S   UNL A   1      32.748  17.990  23.647  1.00  0.00     0.211 S 
ATOM     17  C   UNL A   1      34.258  17.068  23.837  1.00  0.00     0.176 C 
ATOM     18  O   UNL A   1      31.862  17.581  24.719  1.00  0.00    -0.212 OA
ATOM     19  O   UNL A   1      32.332  17.889  22.267  1.00  0.00    -0.212 OA
ENDBRANCH  15  16
ENDBRANCH   7   9
ENDBRANCH   5   7
ENDBRANCH   3   5
ENDBRANCH   2   3
ENDBRANCH   1   2
BRANCH   1  20
ATOM     20  C   UNL A   1      37.262  21.599  24.239  1.00  0.00     0.275 C 
BRANCH  20  21
ATOM     21  O   UNL A   1      37.457  21.912  25.634  1.00  0.00    -0.458 OA
BRANCH  21  22
ATOM     22  C   UNL A   1      38.717  21.676  26.058  1.00  0.00     0.338 C 
ATOM     23  O   UNL A   1      39.354  20.655  25.868  1.00  0.00    -0.246 OA
BRANCH  22  24
ATOM     24  C   UNL A   1      39.337  22.841  26.698  1.00  0.00     0.060 A 
ATOM     25  C   UNL A   1      38.968  24.104  26.244  1.00  0.00     0.016 A 
ATOM     26  C   UNL A   1      40.467  22.692  27.498  1.00  0.00     0.016 A 
ATOM     27  C   UNL A   1      39.772  25.207  26.514  1.00  0.00     0.010 A 
ATOM     28  C   UNL A   1      41.196  23.828  27.882  1.00  0.00     0.010 A 
ATOM     29  C   UNL A   1      40.867  25.102  27.384  1.00  0.00    -0.014 A 
BRANCH  29  30
ATOM     30  C   UNL A   1      41.609  26.332  27.799  1.00  0.00     0.031 A 
ATOM     31  C   UNL A   1      40.961  27.409  28.631  1.00  0.00     0.074 A 
ATOM     32  C   UNL A   1      42.893  26.488  27.410  1.00  0.00     0.049 A 
ATOM     33  N   UNL A   1      41.407  28.604  28.939  1.00  0.00    -0.248 NA
ATOM     34  C   UNL A   1      39.635  27.110  29.184  1.00  0.00     0.031 C 
ATOM     35  C   UNL A   1      43.664  25.522  26.624  1.00  0.00     0.029 A 
ATOM     36  N   UNL A   1      43.780  27.516  27.621  1.00  0.00    -0.354 N 
ATOM     37  C   UNL A   1      40.401  29.208  29.685  1.00  0.00     0.074 A 
ATOM     38  C   UNL A   1      39.318  28.253  29.777  1.00  0.00     0.031 C 
ATOM     39  C   UNL A   1      44.911  25.977  26.457  1.00  0.00     0.029 A 
ATOM     40  C   UNL A   1      44.996  27.320  27.011  1.00  0.00     0.049 A 
ATOM     41  H   UNL A   1      43.566  28.315  28.155  1.00  0.00     0.167 HD
ATOM     42  C   UNL A   1      40.381  30.449  30.235  1.00  0.00     0.037 A 
ATOM     43  C   UNL A   1      46.046  28.145  26.846  1.00  0.00     0.037 A 
ATOM     44  C   UNL A   1      41.469  31.393  30.150  1.00  0.00     0.049 A 
ATOM     45  C   UNL A   1      45.973  29.537  27.400  1.00  0.00     0.074 A 
ATOM     46  C   UNL A   1      41.549  32.670  30.677  1.00  0.00     0.029 A 
ATOM     47  N   UNL A   1      42.668  31.161  29.490  1.00  0.00    -0.354 N 
ATOM     48  N   UNL A   1      45.008  30.108  28.077  1.00  0.00    -0.248 NA
ATOM     49  C   UNL A   1      47.130  30.405  27.151  1.00  0.00     0.031 C 
ATOM     50  C   UNL A   1      42.770  33.232  30.288  1.00  0.00     0.029 A 
ATOM     51  C   UNL A   1      43.482  32.282  29.577  1.00  0.00     0.049 A 
ATOM     52  H   UNL A   1      42.906  30.324  29.028  1.00  0.00     0.167 HD
ATOM     53  C   UNL A   1      45.448  31.393  28.355  1.00  0.00     0.074 A 
ATOM     54  C   UNL A   1      46.776  31.511  27.790  1.00  0.00     0.031 C 
ATOM     55  C   UNL A   1      44.805  32.387  29.014  1.00  0.00     0.037 A 
BRANCH  42  56
ATOM     56  C   UNL A   1      39.127  30.884  30.946  1.00  0.00     0.064 A 
ATOM     57  C   UNL A   1      38.047  31.463  30.265  1.00  0.00     0.173 A 
ATOM     58  C   UNL A   1      38.985  30.665  32.327  1.00  0.00     0.173 A 
ATOM     59  F   UNL A   1      38.125  31.695  28.945  1.00  0.00    -0.203 F 
ATOM     60  C   UNL A   1      36.885  31.833  30.942  1.00  0.00     0.198 A 
ATOM     61  C   UNL A   1      37.811  31.005  32.994  1.00  0.00     0.198 A 
ATOM     62  F   UNL A   1      39.979  30.098  33.027  1.00  0.00    -0.203 F 
ATOM     63  F   UNL A   1      35.882  32.423  30.277  1.00  0.00    -0.200 F 
ATOM     64  C   UNL A   1      36.765  31.597  32.303  1.00  0.00     0.200 A 
ATOM     65  F   UNL A   1      37.689  30.753  34.305  1.00  0.00    -0.200 F 
ATOM     66  F   UNL A   1      35.642  31.939  32.949  1.00  0.00    -0.200 F 
ENDBRANCH  42  56
BRANCH  43  67
ATOM     67  C   UNL A   1      47.228  27.684  26.070  1.00  0.00     0.064 A 
ATOM     68  C   UNL A   1      47.247  27.754  24.672  1.00  0.00     0.173 A 
ATOM     69  C   UNL A   1      48.369  27.178  26.714  1.00  0.00     0.173 A 
ATOM     70  F   UNL A   1      46.173  28.210  24.009  1.00  0.00    -0.203 F 
ATOM     71  C   UNL A   1      48.355  27.324  23.945  1.00  0.00     0.198 A 
ATOM     72  C   UNL A   1      49.491  26.787  25.989  1.00  0.00     0.198 A 
ATOM     73  F   UNL A   1      48.406  27.093  28.051  1.00  0.00    -0.203 F 
ATOM     74  F   UNL A   1      48.329  27.356  22.606  1.00  0.00    -0.200 F 
ATOM     75  C   UNL A   1      49.480  26.850  24.605  1.00  0.00     0.200 A 
ATOM     76  F   UNL A   1      50.584  26.353  26.633  1.00  0.00    -0.200 F 
ATOM     77  F   UNL A   1      50.551  26.450  23.905  1.00  0.00    -0.200 F 
ENDBRANCH  43  67
BRANCH  55  78
ATOM     78  C   UNL A   1      45.553  33.675  29.204  1.00  0.00     0.064 A 
ATOM     79  C   UNL A   1      46.381  33.894  30.316  1.00  0.00     0.173 A 
ATOM     80  C   UNL A   1      45.452  34.699  28.250  1.00  0.00     0.173 A 
ATOM     81  F   UNL A   1      46.495  32.955  31.268  1.00  0.00    -0.203 F 
ATOM     82  C   UNL A   1      47.052  35.103  30.481  1.00  0.00     0.198 A 
ATOM     83  C   UNL A   1      46.153  35.892  28.400  1.00  0.00     0.198 A 
ATOM     84  F   UNL A   1      44.677  34.540  27.166  1.00  0.00    -0.203 F 
ATOM     85  F   UNL A   1      47.788  35.313  31.582  1.00  0.00    -0.200 F 
ATOM     86  C   UNL A   1      46.944  36.097  29.520  1.00  0.00     0.200 A 
ATOM     87  F   UNL A   1      46.058  36.846  27.464  1.00  0.00    -0.200 F 
ATOM     88  F   UNL A   1      47.595  37.258  29.678  1.00  0.00    -0.200 F 
ENDBRANCH  55  78
ENDBRANCH  29  30
ENDBRANCH  22  24
ENDBRANCH  21  22
ENDBRANCH  20  21
ENDBRANCH   1  20
TORSDOF 14
ENDMDL
MODEL 2
REMARK VINA RESULT:     -11.2      4.745      9.778
REMARK SMILES C[C@H](C(=O)OCCOC(=O)c1ccc(-c2c3nc(c(-c4c(F)c(F)c(F)c(F)c4F)c4ccc([nH]4)c(-c4c(F)c(F)c(F)c(F)c4F)c4nc(c(-c5c(F)c(F)c(F)c(F)c5F)c5ccc2[nH]5)C=C4)C=C3)cc1)[C@H](C)[NH+]1CCN(S(C)(=O)=O)CC1
REMARK SMILES IDX 6 1 5 2 3 3 4 4 2 5 1 6 74 7 75 8 76 9 77 10 85 11 78 13
REMARK SMILES IDX 84 14 79 15 80 16 81 17 82 18 83 19 7 20 8 21 9 22 10 23
REMARK SMILES IDX 11 24 12 25 73 26 13 27 72 28 14 29 15 30 16 31 66 32 17 33
REMARK SMILES IDX 71 34 65 35 67 36 18 37 70 38 64 39 63 40 19 42 51 43 31 44
REMARK SMILES IDX 50 45 32 46 35 47 49 48 68 49 33 50 34 51 48 53 69 54 36 55
REMARK SMILES IDX 20 56 21 57 29 58 22 59 23 60 27 61 30 62 24 63 25 64 28 65
REMARK SMILES IDX 26 66 52 67 53 68 61 69 54 70 55 71 59 72 62 73 56 74 57 75
REMARK SMILES IDX 60 76 58 77 37 78 38 79 46 80 39 81 40 82 44 83 47 84 41 85
REMARK SMILES IDX 42 86 45 87 43 88
REMARK H PARENT 76 12 67 41 35 52
REMARK Flexibility Score: inf
ROOT
ATOM      1  C   UNL A   1      31.394  29.179  25.105  1.00  0.00     0.274 C 
ENDROOT
BRANCH   1   2
ATOM      2  O   UNL A   1      31.735  29.218  23.700  1.00  0.00    -0.462 OA
BRANCH   2   3
ATOM      3  C   UNL A   1      31.566  28.081  22.989  1.00  0.00     0.314 C 
ATOM      4  O   UNL A   1      30.515  27.445  23.007  1.00  0.00    -0.252 OA
BRANCH   3   5
ATOM      5  C   UNL A   1      32.830  27.548  22.288  1.00  0.00     0.154 C 
ATOM      6  C   UNL A   1      34.037  28.353  22.782  1.00  0.00     0.026 C 
BRANCH   5   7
ATOM      7  C   UNL A   1      33.090  26.001  22.035  1.00  0.00     0.195 C 
ATOM      8  C   UNL A   1      32.531  25.577  20.660  1.00  0.00     0.076 C 
BRANCH   7   9
ATOM      9  N   UNL A   1      33.083  24.904  23.036  1.00  0.00    -0.330 N 
ATOM     10  C   UNL A   1      33.397  25.083  24.448  1.00  0.00     0.279 C 
ATOM     11  C   UNL A   1      32.180  23.752  22.889  1.00  0.00     0.279 C 
ATOM     12  H   UNL A   1      33.983  24.725  22.590  1.00  0.00     0.348 HD
ATOM     13  C   UNL A   1      32.149  25.305  25.316  1.00  0.00     0.163 C 
ATOM     14  C   UNL A   1      30.885  23.862  23.709  1.00  0.00     0.163 C 
ATOM     15  N   UNL A   1      31.145  24.229  25.127  1.00  0.00    -0.191 NA
BRANCH  15  16
ATOM     16  S   UNL A   1      30.873  23.118  26.345  1.00  0.00     0.211 S 
ATOM     17  C   UNL A   1      32.437  23.081  27.191  1.00  0.00     0.176 C 
ATOM     18  O   UNL A   1      29.906  23.686  27.263  1.00  0.00    -0.212 OA
ATOM     19  O   UNL A   1      30.653  21.818  25.753  1.00  0.00    -0.212 OA
ENDBRANCH  15  16
ENDBRANCH   7   9
ENDBRANCH   5   7
ENDBRANCH   3   5
ENDBRANCH   2   3
ENDBRANCH   1   2
BRANCH   1  20
ATOM     20  C   UNL A   1      31.632  30.532  25.781  1.00  0.00     0.275 C 
BRANCH  20  21
ATOM     21  O   UNL A   1      32.439  30.396  26.970  1.00  0.00    -0.458 OA
BRANCH  21  22
ATOM     22  C   UNL A   1      33.164  31.500  27.246  1.00  0.00     0.338 C 
ATOM     23  O   UNL A   1      32.759  32.649  27.202  1.00  0.00    -0.246 OA
BRANCH  22  24
ATOM     24  C   UNL A   1      34.510  31.195  27.741  1.00  0.00     0.060 A 
ATOM     25  C   UNL A   1      34.772  29.891  28.153  1.00  0.00     0.016 A 
ATOM     26  C   UNL A   1      35.390  32.221  28.080  1.00  0.00     0.016 A 
ATOM     27  C   UNL A   1      35.862  29.623  28.974  1.00  0.00     0.010 A 
ATOM     28  C   UNL A   1      36.561  31.920  28.791  1.00  0.00     0.010 A 
ATOM     29  C   UNL A   1      36.808  30.617  29.261  1.00  0.00    -0.014 A 
BRANCH  29  30
ATOM     30  C   UNL A   1      38.060  30.263  29.998  1.00  0.00     0.031 A 
ATOM     31  C   UNL A   1      39.108  29.362  29.396  1.00  0.00     0.074 A 
ATOM     32  C   UNL A   1      38.255  30.757  31.240  1.00  0.00     0.049 A 
ATOM     33  N   UNL A   1      40.168  28.828  29.956  1.00  0.00    -0.248 NA
ATOM     34  C   UNL A   1      38.942  29.005  27.983  1.00  0.00     0.031 C 
ATOM     35  C   UNL A   1      37.344  31.662  31.945  1.00  0.00     0.029 A 
ATOM     36  N   UNL A   1      39.282  30.569  32.133  1.00  0.00    -0.354 N 
ATOM     37  C   UNL A   1      40.767  28.045  28.976  1.00  0.00     0.074 A 
ATOM     38  C   UNL A   1      39.950  28.165  27.788  1.00  0.00     0.031 C 
ATOM     39  C   UNL A   1      37.868  31.984  33.133  1.00  0.00     0.029 A 
ATOM     40  C   UNL A   1      39.086  31.213  33.331  1.00  0.00     0.049 A 
ATOM     41  H   UNL A   1      40.079  30.027  31.935  1.00  0.00     0.167 HD
ATOM     42  C   UNL A   1      41.891  27.289  29.064  1.00  0.00     0.037 A 
ATOM     43  C   UNL A   1      39.763  31.147  34.493  1.00  0.00     0.037 A 
ATOM     44  C   UNL A   1      42.708  27.182  30.248  1.00  0.00     0.049 A 
ATOM     45  C   UNL A   1      40.960  30.249  34.588  1.00  0.00     0.074 A 
ATOM     46  C   UNL A   1      43.867  26.449  30.436  1.00  0.00     0.029 A 
ATOM     47  N   UNL A   1      42.448  27.826  31.450  1.00  0.00    -0.354 N 
ATOM     48  N   UNL A   1      41.501  29.492  33.666  1.00  0.00    -0.248 NA
ATOM     49  C   UNL A   1      41.631  30.184  35.891  1.00  0.00     0.031 C 
ATOM     50  C   UNL A   1      44.276  26.603  31.765  1.00  0.00     0.029 A 
ATOM     51  C   UNL A   1      43.412  27.487  32.389  1.00  0.00     0.049 A 
ATOM     52  H   UNL A   1      41.691  28.435  31.612  1.00  0.00     0.167 HD
ATOM     53  C   UNL A   1      42.587  28.877  34.269  1.00  0.00     0.074 A 
ATOM     54  C   UNL A   1      42.641  29.366  35.630  1.00  0.00     0.031 C 
ATOM     55  C   UNL A   1      43.459  27.983  33.741  1.00  0.00     0.037 A 
BRANCH  42  56
ATOM     56  C   UNL A   1      42.289  26.478  27.860  1.00  0.00     0.064 A 
ATOM     57  C   UNL A   1      43.263  26.919  26.952  1.00  0.00     0.173 A 
ATOM     58  C   UNL A   1      41.722  25.211  27.641  1.00  0.00     0.173 A 
ATOM     59  F   UNL A   1      43.840  28.121  27.111  1.00  0.00    -0.203 F 
ATOM     60  C   UNL A   1      43.633  26.138  25.858  1.00  0.00     0.198 A 
ATOM     61  C   UNL A   1      42.119  24.419  26.567  1.00  0.00     0.198 A 
ATOM     62  F   UNL A   1      40.798  24.729  28.486  1.00  0.00    -0.203 F 
ATOM     63  F   UNL A   1      44.537  26.599  24.983  1.00  0.00    -0.200 F 
ATOM     64  C   UNL A   1      43.067  24.886  25.671  1.00  0.00     0.200 A 
ATOM     65  F   UNL A   1      41.586  23.199  26.402  1.00  0.00    -0.200 F 
ATOM     66  F   UNL A   1      43.435  24.130  24.627  1.00  0.00    -0.200 F 
ENDBRANCH  42  56
BRANCH  43  67
ATOM     67  C   UNL A   1      39.277  31.914  35.671  1.00  0.00     0.064 A 
ATOM     68  C   UNL A   1      38.377  31.348  36.581  1.00  0.00     0.173 A 
ATOM     69  C   UNL A   1      39.718  33.225  35.917  1.00  0.00     0.173 A 
ATOM     70  F   UNL A   1      37.910  30.107  36.378  1.00  0.00    -0.203 F 
ATOM     71  C   UNL A   1      37.924  32.067  37.686  1.00  0.00     0.198 A 
ATOM     72  C   UNL A   1      39.296  33.927  37.043  1.00  0.00     0.198 A 
ATOM     73  F   UNL A   1      40.583  33.813  35.079  1.00  0.00    -0.203 F 
ATOM     74  F   UNL A   1      37.026  31.520  38.515  1.00  0.00    -0.200 F 
ATOM     75  C   UNL A   1      38.392  33.352  37.921  1.00  0.00     0.200 A 
ATOM     76  F   UNL A   1      39.771  35.159  37.277  1.00  0.00    -0.200 F 
ATOM     77  F   UNL A   1      37.967  34.036  38.991  1.00  0.00    -0.200 F 
ENDBRANCH  43  67
BRANCH  55  78
ATOM     78  C   UNL A   1      44.576  27.515  34.628  1.00  0.00     0.064 A 
ATOM     79  C   UNL A   1      45.792  28.210  34.717  1.00  0.00     0.173 A 
ATOM     80  C   UNL A   1      44.421  26.361  35.412  1.00  0.00     0.173 A 
ATOM     81  F   UNL A   1      45.999  29.306  33.973  1.00  0.00    -0.203 F 
ATOM     82  C   UNL A   1      46.822  27.748  35.533  1.00  0.00     0.198 A 
ATOM     83  C   UNL A   1      45.439  25.923  36.253  1.00  0.00     0.198 A 
ATOM     84  F   UNL A   1      43.277  25.660  35.367  1.00  0.00    -0.203 F 
ATOM     85  F   UNL A   1      47.996  28.394  35.555  1.00  0.00    -0.200 F 
ATOM     86  C   UNL A   1      46.642  26.610  36.306  1.00  0.00     0.200 A 
ATOM     87  F   UNL A   1      45.258  24.831  37.009  1.00  0.00    -0.200 F 
ATOM     88  F   UNL A   1      47.632  26.171  37.094  1.00  0.00    -0.200 F 
ENDBRANCH  55  78
ENDBRANCH  29  30
ENDBRANCH  22  24
ENDBRANCH  21  22
ENDBRANCH  20  21
ENDBRANCH   1  20
TORSDOF 14
ENDMDL
MODEL 3
REMARK VINA RESULT:     -11.1      0.660      2.145
REMARK SMILES C[C@H](C(=O)OCCOC(=O)c1ccc(-c2c3nc(c(-c4c(F)c(F)c(F)c(F)c4F)c4ccc([nH]4)c(-c4c(F)c(F)c(F)c(F)c4F)c4nc(c(-c5c(F)c(F)c(F)c(F)c5F)c5ccc2[nH]5)C=C4)C=C3)cc1)[C@H](C)[NH+]1CCN(S(C)(=O)=O)CC1
REMARK SMILES IDX 6 1 5 2 3 3 4 4 2 5 1 6 74 7 75 8 76 9 77 10 85 11 78 13
REMARK SMILES IDX 84 14 79 15 80 16 81 17 82 18 83 19 7 20 8 21 9 22 10 23
REMARK SMILES IDX 11 24 12 25 73 26 13 27 72 28 14 29 15 30 16 31 66 32 17 33
REMARK SMILES IDX 71 34 65 35 67 36 18 37 70 38 64 39 63 40 19 42 51 43 31 44
REMARK SMILES IDX 50 45 32 46 35 47 49 48 68 49 33 50 34 51 48 53 69 54 36 55
REMARK SMILES IDX 20 56 21 57 29 58 22 59 23 60 27 61 30 62 24 63 25 64 28 65
REMARK SMILES IDX 26 66 52 67 53 68 61 69 54 70 55 71 59 72 62 73 56 74 57 75
REMARK SMILES IDX 60 76 58 77 37 78 38 79 46 80 39 81 40 82 44 83 47 84 41 85
REMARK SMILES IDX 42 86 45 87 43 88
REMARK H PARENT 76 12 67 41 35 52
REMARK Flexibility Score: inf
ROOT
ATOM      1  C   UNL A   1      36.613  22.463  23.493  1.00  0.00     0.274 C 
ENDROOT
BRANCH   1   2
ATOM      2  O   UNL A   1      36.158  23.567  24.311  1.00  0.00    -0.462 OA
BRANCH   2   3
ATOM      3  C   UNL A   1      34.944  24.089  24.027  1.00  0.00     0.314 C 
ATOM      4  O   UNL A   1      34.587  24.337  22.878  1.00  0.00    -0.252 OA
BRANCH   3   5
ATOM      5  C   UNL A   1      34.104  24.504  25.250  1.00  0.00     0.154 C 
ATOM      6  C   UNL A   1      34.255  26.015  25.454  1.00  0.00     0.026 C 
BRANCH   5   7
ATOM      7  C   UNL A   1      32.662  23.909  25.549  1.00  0.00     0.195 C 
ATOM      8  C   UNL A   1      31.871  24.852  26.482  1.00  0.00     0.076 C 
BRANCH   7   9
ATOM      9  N   UNL A   1      32.282  22.481  25.697  1.00  0.00    -0.330 N 
ATOM     10  C   UNL A   1      31.549  21.720  24.693  1.00  0.00     0.279 C 
ATOM     11  C   UNL A   1      33.110  21.556  26.487  1.00  0.00     0.279 C 
ATOM     12  H   UNL A   1      31.559  22.912  26.275  1.00  0.00     0.348 HD
ATOM     13  C   UNL A   1      32.469  20.934  23.747  1.00  0.00     0.163 C 
ATOM     14  C   UNL A   1      34.082  20.714  25.648  1.00  0.00     0.163 C 
ATOM     15  N   UNL A   1      33.412  20.061  24.491  1.00  0.00    -0.191 NA
BRANCH  15  16
ATOM     16  S   UNL A   1      33.213  18.402  24.462  1.00  0.00     0.211 S 
ATOM     17  C   UNL A   1      32.527  18.123  22.844  1.00  0.00     0.176 C 
ATOM     18  O   UNL A   1      34.528  17.793  24.477  1.00  0.00    -0.212 OA
ATOM     19  O   UNL A   1      32.217  18.032  25.441  1.00  0.00    -0.212 OA
ENDBRANCH  15  16
ENDBRANCH   7   9
ENDBRANCH   5   7
ENDBRANCH   3   5
ENDBRANCH   2   3
ENDBRANCH   1   2
BRANCH   1  20
ATOM     20  C   UNL A   1      37.313  21.391  24.332  1.00  0.00     0.275 C 
BRANCH  20  21
ATOM     21  O   UNL A   1      37.504  21.826  25.695  1.00  0.00    -0.458 OA
BRANCH  21  22
ATOM     22  C   UNL A   1      38.764  21.632  26.140  1.00  0.00     0.338 C 
ATOM     23  O   UNL A   1      39.430  20.623  25.981  1.00  0.00    -0.246 OA
BRANCH  22  24
ATOM     24  C   UNL A   1      39.345  22.827  26.761  1.00  0.00     0.060 A 
ATOM     25  C   UNL A   1      38.990  24.068  26.239  1.00  0.00     0.016 A 
ATOM     26  C   UNL A   1      40.437  22.719  27.618  1.00  0.00     0.016 A 
ATOM     27  C   UNL A   1      39.773  25.187  26.502  1.00  0.00     0.010 A 
ATOM     28  C   UNL A   1      41.140  23.876  27.990  1.00  0.00     0.010 A 
ATOM     29  C   UNL A   1      40.826  25.127  27.427  1.00  0.00    -0.014 A 
BRANCH  29  30
ATOM     30  C   UNL A   1      41.539  26.378  27.826  1.00  0.00     0.031 A 
ATOM     31  C   UNL A   1      40.860  27.460  28.625  1.00  0.00     0.074 A 
ATOM     32  C   UNL A   1      42.826  26.549  27.453  1.00  0.00     0.049 A 
ATOM     33  N   UNL A   1      41.279  28.669  28.915  1.00  0.00    -0.248 NA
ATOM     34  C   UNL A   1      39.531  27.149  29.166  1.00  0.00     0.031 C 
ATOM     35  C   UNL A   1      43.627  25.582  26.699  1.00  0.00     0.029 A 
ATOM     36  N   UNL A   1      43.691  27.598  27.655  1.00  0.00    -0.354 N 
ATOM     37  C   UNL A   1      40.251  29.271  29.633  1.00  0.00     0.074 A 
ATOM     38  C   UNL A   1      39.184  28.298  29.729  1.00  0.00     0.031 C 
ATOM     39  C   UNL A   1      44.867  26.056  26.540  1.00  0.00     0.029 A 
ATOM     40  C   UNL A   1      44.919  27.412  27.067  1.00  0.00     0.049 A 
ATOM     41  H   UNL A   1      43.454  28.404  28.168  1.00  0.00     0.167 HD
ATOM     42  C   UNL A   1      40.201  30.523  30.156  1.00  0.00     0.037 A 
ATOM     43  C   UNL A   1      45.957  28.253  26.900  1.00  0.00     0.037 A 
ATOM     44  C   UNL A   1      41.273  31.484  30.067  1.00  0.00     0.049 A 
ATOM     45  C   UNL A   1      45.851  29.654  27.423  1.00  0.00     0.074 A 
ATOM     46  C   UNL A   1      41.322  32.773  30.568  1.00  0.00     0.029 A 
ATOM     47  N   UNL A   1      42.485  31.260  29.429  1.00  0.00    -0.354 N 
ATOM     48  N   UNL A   1      44.865  30.221  28.074  1.00  0.00    -0.248 NA
ATOM     49  C   UNL A   1      46.995  30.538  27.173  1.00  0.00     0.031 C 
ATOM     50  C   UNL A   1      42.538  33.349  30.185  1.00  0.00     0.029 A 
ATOM     51  C   UNL A   1      43.278  32.397  29.504  1.00  0.00     0.049 A 
ATOM     52  H   UNL A   1      42.745  30.419  28.989  1.00  0.00     0.167 HD
ATOM     53  C   UNL A   1      45.277  31.520  28.330  1.00  0.00     0.074 A 
ATOM     54  C   UNL A   1      46.612  31.650  27.783  1.00  0.00     0.031 C 
ATOM     55  C   UNL A   1      44.607  32.515  28.959  1.00  0.00     0.037 A 
BRANCH  42  56
ATOM     56  C   UNL A   1      38.929  30.948  30.839  1.00  0.00     0.064 A 
ATOM     57  C   UNL A   1      38.766  30.868  32.230  1.00  0.00     0.173 A 
ATOM     58  C   UNL A   1      37.874  31.498  30.090  1.00  0.00     0.173 A 
ATOM     59  F   UNL A   1      39.740  30.353  32.996  1.00  0.00    -0.203 F 
ATOM     60  C   UNL A   1      37.588  31.294  32.841  1.00  0.00     0.198 A 
ATOM     61  C   UNL A   1      36.712  31.954  30.708  1.00  0.00     0.198 A 
ATOM     62  F   UNL A   1      37.980  31.617  28.758  1.00  0.00    -0.203 F 
ATOM     63  F   UNL A   1      37.440  31.169  34.167  1.00  0.00    -0.200 F 
ATOM     64  C   UNL A   1      36.566  31.843  32.082  1.00  0.00     0.200 A 
ATOM     65  F   UNL A   1      35.736  32.506  29.973  1.00  0.00    -0.200 F 
ATOM     66  F   UNL A   1      35.440  32.266  32.673  1.00  0.00    -0.200 F 
ENDBRANCH  42  56
BRANCH  43  67
ATOM     67  C   UNL A   1      47.158  27.797  26.150  1.00  0.00     0.064 A 
ATOM     68  C   UNL A   1      48.301  27.345  26.821  1.00  0.00     0.173 A 
ATOM     69  C   UNL A   1      47.180  27.791  24.745  1.00  0.00     0.173 A 
ATOM     70  F   UNL A   1      48.338  27.352  28.162  1.00  0.00    -0.203 F 
ATOM     71  C   UNL A   1      49.425  26.917  26.118  1.00  0.00     0.198 A 
ATOM     72  C   UNL A   1      48.289  27.325  24.044  1.00  0.00     0.198 A 
ATOM     73  F   UNL A   1      46.111  28.210  24.054  1.00  0.00    -0.203 F 
ATOM     74  F   UNL A   1      50.523  26.535  26.783  1.00  0.00    -0.200 F 
ATOM     75  C   UNL A   1      49.414  26.898  24.730  1.00  0.00     0.200 A 
ATOM     76  F   UNL A   1      48.262  27.285  22.705  1.00  0.00    -0.200 F 
ATOM     77  F   UNL A   1      50.490  26.472  24.056  1.00  0.00    -0.200 F 
ENDBRANCH  43  67
BRANCH  55  78
ATOM     78  C   UNL A   1      45.328  33.820  29.132  1.00  0.00     0.064 A 
ATOM     79  C   UNL A   1      45.221  34.857  28.193  1.00  0.00     0.173 A 
ATOM     80  C   UNL A   1      46.127  34.042  30.265  1.00  0.00     0.173 A 
ATOM     81  F   UNL A   1      44.487  34.688  27.083  1.00  0.00    -0.203 F 
ATOM     82  C   UNL A   1      45.913  36.054  28.365  1.00  0.00     0.198 A 
ATOM     83  C   UNL A   1      46.788  35.252  30.452  1.00  0.00     0.198 A 
ATOM     84  F   UNL A   1      46.262  33.085  31.196  1.00  0.00    -0.203 F 
ATOM     85  F   UNL A   1      45.844  37.006  27.424  1.00  0.00    -0.200 F 
ATOM     86  C   UNL A   1      46.689  36.253  29.497  1.00  0.00     0.200 A 
ATOM     87  F   UNL A   1      47.527  35.448  31.553  1.00  0.00    -0.200 F 
ATOM     88  F   UNL A   1      47.349  37.407  29.664  1.00  0.00    -0.200 F 
ENDBRANCH  55  78
ENDBRANCH  29  30
ENDBRANCH  22  24
ENDBRANCH  21  22
ENDBRANCH  20  21
ENDBRANCH   1  20
TORSDOF 14
ENDMDL
