MODEL 1
REMARK VINA RESULT:     -13.5      0.000      0.000
REMARK SMILES Cc1ccc(Cn2c(C)c(C[NH2+]C[C@@H]3CCCO3)c(C(=O)OCCOC(=O)c3ccc(-c4c5nc(c(-c6c(F)c(F)c(F)c(F)c6F)c6ccc([nH]6)c(-c6c(F)c(F)c(F)c(F)c6F)c6nc(c(-c7c(F)c(F)c(F)c(F)c7F)c7ccc4[nH]7)C=C6)C=C5)cc3)c2C)cc1
REMARK SMILES IDX 23 1 22 2 20 3 21 4 19 5 7 6 8 7 91 8 9 9 10 10 92 11 6 12
REMARK SMILES IDX 5 13 1 14 2 15 3 16 94 17 4 18 93 19 11 20 12 21 13 24 14 25
REMARK SMILES IDX 15 26 18 27 16 28 17 29 24 30 25 31 26 32 27 33 28 34 29 35
REMARK SMILES IDX 90 36 30 37 89 38 31 39 32 40 33 41 83 42 34 43 88 44 82 45
REMARK SMILES IDX 84 46 35 47 87 48 81 49 80 50 36 52 68 53 48 54 67 55 49 56
REMARK SMILES IDX 52 57 66 58 85 59 50 60 51 61 65 63 86 64 53 65 37 66 38 67
REMARK SMILES IDX 46 68 39 69 40 70 44 71 47 72 41 73 42 74 45 75 43 76 69 77
REMARK SMILES IDX 70 78 78 79 71 80 72 81 76 82 79 83 73 84 74 85 77 86 75 87
REMARK SMILES IDX 54 88 55 89 63 90 56 91 57 92 61 93 64 94 58 95 59 96 62 97
REMARK SMILES IDX 60 98
REMARK H PARENT 12 22 12 23 84 51 52 62
REMARK Flexibility Score: inf
ROOT
ATOM      1  C   UNL A   1      36.723  23.297  24.116  1.00  0.00     0.275 C 
ENDROOT
BRANCH   1   2
ATOM      2  O   UNL A   1      35.437  22.626  24.053  1.00  0.00    -0.458 OA
BRANCH   2   3
ATOM      3  C   UNL A   1      34.359  23.446  23.823  1.00  0.00     0.340 C 
ATOM      4  O   UNL A   1      34.344  24.263  22.915  1.00  0.00    -0.246 OA
BRANCH   3   5
ATOM      5  C   UNL A   1      33.410  23.591  24.925  1.00  0.00     0.089 A 
ATOM      6  N   UNL A   1      32.114  25.063  25.976  1.00  0.00    -0.343 N 
ATOM      7  C   UNL A   1      31.476  23.832  26.073  1.00  0.00     0.025 A 
ATOM      8  C   UNL A   1      33.407  24.828  25.561  1.00  0.00     0.030 A 
ATOM      9  C   UNL A   1      30.148  23.611  26.724  1.00  0.00     0.065 C 
ATOM     10  C   UNL A   1      32.248  22.866  25.402  1.00  0.00     0.042 A 
ATOM     11  C   UNL A   1      34.532  25.806  25.560  1.00  0.00     0.065 C 
BRANCH   6  12
ATOM     12  C   UNL A   1      31.575  26.384  26.343  1.00  0.00     0.157 C 
BRANCH  12  13
ATOM     13  C   UNL A   1      31.053  27.248  25.197  1.00  0.00    -0.028 A 
ATOM     14  C   UNL A   1      29.264  29.793  22.146  1.00  0.00     0.044 C 
ATOM     15  C   UNL A   1      29.863  28.902  23.194  1.00  0.00    -0.051 A 
ATOM     16  C   UNL A   1      30.785  29.425  24.095  1.00  0.00     0.004 A 
ATOM     17  C   UNL A   1      29.548  27.542  23.285  1.00  0.00     0.004 A 
ATOM     18  C   UNL A   1      31.344  28.615  25.088  1.00  0.00     0.006 A 
ATOM     19  C   UNL A   1      30.137  26.726  24.268  1.00  0.00     0.006 A 
ENDBRANCH  12  13
ENDBRANCH   6  12
BRANCH  10  20
ATOM     20  C   UNL A   1      31.780  21.418  25.198  1.00  0.00     0.300 C 
BRANCH  20  21
ATOM     21  N   UNL A   1      32.616  20.484  25.965  1.00  0.00    -0.340 N 
ATOM     22  H   UNL A   1      32.023  19.717  26.285  1.00  0.00     0.346 HD
ATOM     23  H   UNL A   1      33.023  21.025  26.728  1.00  0.00     0.346 HD
BRANCH  21  24
ATOM     24  C   UNL A   1      33.759  19.899  25.212  1.00  0.00     0.293 C 
BRANCH  24  25
ATOM     25  C   UNL A   1      33.539  18.455  24.703  1.00  0.00     0.173 C 
ATOM     26  C   UNL A   1      34.730  17.595  24.299  1.00  0.00     0.040 C 
ATOM     27  O   UNL A   1      32.694  18.470  23.548  1.00  0.00    -0.372 OA
ATOM     28  C   UNL A   1      34.095  16.585  23.360  1.00  0.00     0.031 C 
ATOM     29  C   UNL A   1      33.056  17.414  22.654  1.00  0.00     0.161 C 
ENDBRANCH  24  25
ENDBRANCH  21  24
ENDBRANCH  20  21
ENDBRANCH  10  20
ENDBRANCH   3   5
ENDBRANCH   2   3
ENDBRANCH   1   2
BRANCH   1  30
ATOM     30  C   UNL A   1      37.538  22.926  25.376  1.00  0.00     0.275 C 
BRANCH  30  31
ATOM     31  O   UNL A   1      38.112  24.022  26.109  1.00  0.00    -0.458 OA
BRANCH  31  32
ATOM     32  C   UNL A   1      39.212  23.689  26.812  1.00  0.00     0.338 C 
ATOM     33  O   UNL A   1      39.748  22.587  26.744  1.00  0.00    -0.246 OA
BRANCH  32  34
ATOM     34  C   UNL A   1      39.822  24.946  27.320  1.00  0.00     0.060 A 
ATOM     35  C   UNL A   1      40.234  25.923  26.404  1.00  0.00     0.016 A 
ATOM     36  C   UNL A   1      39.598  25.283  28.654  1.00  0.00     0.016 A 
ATOM     37  C   UNL A   1      40.280  27.266  26.762  1.00  0.00     0.010 A 
ATOM     38  C   UNL A   1      39.533  26.608  28.988  1.00  0.00     0.010 A 
ATOM     39  C   UNL A   1      39.879  27.594  28.045  1.00  0.00    -0.014 A 
BRANCH  39  40
ATOM     40  C   UNL A   1      40.046  28.904  28.633  1.00  0.00     0.031 A 
ATOM     41  C   UNL A   1      38.961  29.897  28.708  1.00  0.00     0.074 A 
ATOM     42  C   UNL A   1      41.146  28.864  29.415  1.00  0.00     0.049 A 
ATOM     43  N   UNL A   1      39.133  31.074  29.202  1.00  0.00    -0.248 NA
ATOM     44  C   UNL A   1      37.597  29.706  28.214  1.00  0.00     0.031 C 
ATOM     45  C   UNL A   1      41.434  29.511  30.676  1.00  0.00     0.029 A 
ATOM     46  N   UNL A   1      42.291  28.085  29.166  1.00  0.00    -0.354 N 
ATOM     47  C   UNL A   1      37.885  31.628  29.410  1.00  0.00     0.074 A 
ATOM     48  C   UNL A   1      36.980  30.818  28.639  1.00  0.00     0.031 C 
ATOM     49  C   UNL A   1      42.745  29.346  30.947  1.00  0.00     0.029 A 
ATOM     50  C   UNL A   1      43.368  28.740  29.778  1.00  0.00     0.049 A 
ATOM     51  H   UNL A   1      42.328  27.242  28.659  1.00  0.00     0.167 HD
ATOM     52  C   UNL A   1      37.767  32.597  30.363  1.00  0.00     0.037 A 
ATOM     53  C   UNL A   1      44.271  29.345  28.940  1.00  0.00     0.037 A 
ATOM     54  C   UNL A   1      39.081  32.868  30.941  1.00  0.00     0.049 A 
ATOM     55  C   UNL A   1      44.114  30.843  28.918  1.00  0.00     0.074 A 
ATOM     56  C   UNL A   1      39.758  32.369  32.041  1.00  0.00     0.029 A 
ATOM     57  N   UNL A   1      40.037  33.438  30.130  1.00  0.00    -0.354 N 
ATOM     58  N   UNL A   1      43.137  31.480  29.497  1.00  0.00    -0.248 NA
ATOM     59  C   UNL A   1      45.011  31.734  28.190  1.00  0.00     0.031 C 
ATOM     60  C   UNL A   1      41.150  32.618  31.846  1.00  0.00     0.029 A 
ATOM     61  C   UNL A   1      41.309  33.269  30.635  1.00  0.00     0.049 A 
ATOM     62  H   UNL A   1      39.837  33.909  29.289  1.00  0.00     0.167 HD
ATOM     63  C   UNL A   1      43.267  32.814  29.279  1.00  0.00     0.074 A 
ATOM     64  C   UNL A   1      44.432  32.925  28.416  1.00  0.00     0.031 C 
ATOM     65  C   UNL A   1      42.425  33.732  29.830  1.00  0.00     0.037 A 
BRANCH  52  66
ATOM     66  C   UNL A   1      36.493  33.136  30.966  1.00  0.00     0.064 A 
ATOM     67  C   UNL A   1      35.680  34.016  30.211  1.00  0.00     0.173 A 
ATOM     68  C   UNL A   1      36.002  32.840  32.252  1.00  0.00     0.173 A 
ATOM     69  F   UNL A   1      35.986  34.348  28.950  1.00  0.00    -0.203 F 
ATOM     70  C   UNL A   1      34.516  34.596  30.716  1.00  0.00     0.198 A 
ATOM     71  C   UNL A   1      34.843  33.441  32.766  1.00  0.00     0.198 A 
ATOM     72  F   UNL A   1      36.595  31.929  33.033  1.00  0.00    -0.203 F 
ATOM     73  F   UNL A   1      33.799  35.424  29.943  1.00  0.00    -0.200 F 
ATOM     74  C   UNL A   1      34.105  34.323  32.000  1.00  0.00     0.200 A 
ATOM     75  F   UNL A   1      34.441  33.153  34.013  1.00  0.00    -0.200 F 
ATOM     76  F   UNL A   1      32.994  34.890  32.490  1.00  0.00    -0.200 F 
ENDBRANCH  52  66
BRANCH  53  77
ATOM     77  C   UNL A   1      44.545  28.499  27.731  1.00  0.00     0.064 A 
ATOM     78  C   UNL A   1      45.151  27.249  27.984  1.00  0.00     0.173 A 
ATOM     79  C   UNL A   1      43.759  28.628  26.574  1.00  0.00     0.173 A 
ATOM     80  F   UNL A   1      45.946  27.087  29.052  1.00  0.00    -0.203 F 
ATOM     81  C   UNL A   1      44.746  26.122  27.294  1.00  0.00     0.198 A 
ATOM     82  C   UNL A   1      43.394  27.494  25.852  1.00  0.00     0.198 A 
ATOM     83  F   UNL A   1      43.223  29.809  26.235  1.00  0.00    -0.203 F 
ATOM     84  F   UNL A   1      45.131  24.901  27.693  1.00  0.00    -0.200 F 
ATOM     85  C   UNL A   1      43.820  26.246  26.283  1.00  0.00     0.200 A 
ATOM     86  F   UNL A   1      42.531  27.593  24.829  1.00  0.00    -0.200 F 
ATOM     87  F   UNL A   1      43.272  25.129  25.812  1.00  0.00    -0.200 F 
ENDBRANCH  53  77
BRANCH  65  88
ATOM     88  C   UNL A   1      42.631  35.197  29.646  1.00  0.00     0.064 A 
ATOM     89  C   UNL A   1      42.111  35.866  28.532  1.00  0.00     0.173 A 
ATOM     90  C   UNL A   1      43.448  35.951  30.514  1.00  0.00     0.173 A 
ATOM     91  F   UNL A   1      41.395  35.208  27.607  1.00  0.00    -0.203 F 
ATOM     92  C   UNL A   1      42.325  37.227  28.341  1.00  0.00     0.198 A 
ATOM     93  C   UNL A   1      43.727  37.289  30.275  1.00  0.00     0.198 A 
ATOM     94  F   UNL A   1      43.972  35.425  31.630  1.00  0.00    -0.203 F 
ATOM     95  F   UNL A   1      41.734  37.851  27.314  1.00  0.00    -0.200 F 
ATOM     96  C   UNL A   1      43.143  37.934  29.204  1.00  0.00     0.200 A 
ATOM     97  F   UNL A   1      44.554  37.949  31.097  1.00  0.00    -0.200 F 
ATOM     98  F   UNL A   1      43.364  39.239  29.008  1.00  0.00    -0.200 F 
ENDBRANCH  65  88
ENDBRANCH  39  40
ENDBRANCH  32  34
ENDBRANCH  31  32
ENDBRANCH  30  31
ENDBRANCH   1  30
TORSDOF 17
ENDMDL
MODEL 2
REMARK VINA RESULT:     -13.5      3.713     10.135
REMARK SMILES Cc1ccc(Cn2c(C)c(C[NH2+]C[C@@H]3CCCO3)c(C(=O)OCCOC(=O)c3ccc(-c4c5nc(c(-c6c(F)c(F)c(F)c(F)c6F)c6ccc([nH]6)c(-c6c(F)c(F)c(F)c(F)c6F)c6nc(c(-c7c(F)c(F)c(F)c(F)c7F)c7ccc4[nH]7)C=C6)C=C5)cc3)c2C)cc1
REMARK SMILES IDX 23 1 22 2 20 3 21 4 19 5 7 6 8 7 91 8 9 9 10 10 92 11 6 12
REMARK SMILES IDX 5 13 1 14 2 15 3 16 94 17 4 18 93 19 11 20 12 21 13 24 14 25
REMARK SMILES IDX 15 26 18 27 16 28 17 29 24 30 25 31 26 32 27 33 28 34 29 35
REMARK SMILES IDX 90 36 30 37 89 38 31 39 32 40 33 41 83 42 34 43 88 44 82 45
REMARK SMILES IDX 84 46 35 47 87 48 81 49 80 50 36 52 68 53 48 54 67 55 49 56
REMARK SMILES IDX 52 57 66 58 85 59 50 60 51 61 65 63 86 64 53 65 37 66 38 67
REMARK SMILES IDX 46 68 39 69 40 70 44 71 47 72 41 73 42 74 45 75 43 76 69 77
REMARK SMILES IDX 70 78 78 79 71 80 72 81 76 82 79 83 73 84 74 85 77 86 75 87
REMARK SMILES IDX 54 88 55 89 63 90 56 91 57 92 61 93 64 94 58 95 59 96 62 97
REMARK SMILES IDX 60 98
REMARK H PARENT 12 22 12 23 84 51 52 62
REMARK Flexibility Score: inf
ROOT
ATOM      1  C   UNL A   1      33.063  28.717  25.961  1.00  0.00     0.275 C 
ENDROOT
BRANCH   1   2
ATOM      2  O   UNL A   1      32.830  27.435  26.601  1.00  0.00    -0.458 OA
BRANCH   2   3
ATOM      3  C   UNL A   1      32.160  26.510  25.835  1.00  0.00     0.340 C 
ATOM      4  O   UNL A   1      31.412  25.679  26.325  1.00  0.00    -0.246 OA
BRANCH   3   5
ATOM      5  C   UNL A   1      32.675  26.295  24.484  1.00  0.00     0.089 A 
ATOM      6  N   UNL A   1      33.645  24.786  23.168  1.00  0.00    -0.343 N 
ATOM      7  C   UNL A   1      32.855  25.581  22.346  1.00  0.00     0.025 A 
ATOM      8  C   UNL A   1      33.759  25.430  24.381  1.00  0.00     0.030 A 
ATOM      9  C   UNL A   1      32.686  25.378  20.874  1.00  0.00     0.065 C 
ATOM     10  C   UNL A   1      32.200  26.543  23.136  1.00  0.00     0.042 A 
ATOM     11  C   UNL A   1      34.706  25.092  25.482  1.00  0.00     0.065 C 
BRANCH   6  12
ATOM     12  C   UNL A   1      34.337  23.535  22.811  1.00  0.00     0.157 C 
BRANCH  12  13
ATOM     13  C   UNL A   1      33.895  22.278  23.556  1.00  0.00    -0.028 A 
ATOM     14  C   UNL A   1      32.785  18.488  25.396  1.00  0.00     0.044 C 
ATOM     15  C   UNL A   1      33.153  19.788  24.745  1.00  0.00    -0.051 A 
ATOM     16  C   UNL A   1      34.358  20.402  25.071  1.00  0.00     0.004 A 
ATOM     17  C   UNL A   1      32.308  20.431  23.835  1.00  0.00     0.004 A 
ATOM     18  C   UNL A   1      34.725  21.608  24.465  1.00  0.00     0.006 A 
ATOM     19  C   UNL A   1      32.671  21.659  23.252  1.00  0.00     0.006 A 
ENDBRANCH  12  13
ENDBRANCH   6  12
BRANCH  10  20
ATOM     20  C   UNL A   1      31.146  27.508  22.575  1.00  0.00     0.300 C 
BRANCH  20  21
ATOM     21  N   UNL A   1      30.160  27.864  23.605  1.00  0.00    -0.340 N 
ATOM     22  H   UNL A   1      30.596  28.527  24.246  1.00  0.00     0.346 HD
ATOM     23  H   UNL A   1      29.885  26.990  24.052  1.00  0.00     0.346 HD
BRANCH  21  24
ATOM     24  C   UNL A   1      28.907  28.480  23.089  1.00  0.00     0.293 C 
BRANCH  24  25
ATOM     25  C   UNL A   1      29.021  29.972  22.698  1.00  0.00     0.173 C 
ATOM     26  C   UNL A   1      28.043  30.991  23.270  1.00  0.00     0.040 C 
ATOM     27  O   UNL A   1      28.905  30.115  21.280  1.00  0.00    -0.372 OA
ATOM     28  C   UNL A   1      28.107  32.110  22.245  1.00  0.00     0.031 C 
ATOM     29  C   UNL A   1      28.267  31.352  20.955  1.00  0.00     0.161 C 
ENDBRANCH  24  25
ENDBRANCH  21  24
ENDBRANCH  20  21
ENDBRANCH  10  20
ENDBRANCH   3   5
ENDBRANCH   2   3
ENDBRANCH   1   2
BRANCH   1  30
ATOM     30  C   UNL A   1      33.683  29.765  26.913  1.00  0.00     0.275 C 
BRANCH  30  31
ATOM     31  O   UNL A   1      34.999  29.471  27.413  1.00  0.00    -0.458 OA
BRANCH  31  32
ATOM     32  C   UNL A   1      35.727  30.567  27.704  1.00  0.00     0.338 C 
ATOM     33  O   UNL A   1      35.265  31.704  27.700  1.00  0.00    -0.246 OA
BRANCH  32  34
ATOM     34  C   UNL A   1      36.976  30.115  28.369  1.00  0.00     0.060 A 
ATOM     35  C   UNL A   1      36.890  29.268  29.482  1.00  0.00     0.016 A 
ATOM     36  C   UNL A   1      38.166  30.209  27.648  1.00  0.00     0.016 A 
ATOM     37  C   UNL A   1      37.924  28.394  29.799  1.00  0.00     0.010 A 
ATOM     38  C   UNL A   1      39.143  29.279  27.882  1.00  0.00     0.010 A 
ATOM     39  C   UNL A   1      39.023  28.380  28.957  1.00  0.00    -0.014 A 
BRANCH  39  40
ATOM     40  C   UNL A   1      40.252  27.678  29.247  1.00  0.00     0.031 A 
ATOM     41  C   UNL A   1      40.559  26.340  28.715  1.00  0.00     0.074 A 
ATOM     42  C   UNL A   1      41.149  28.587  29.684  1.00  0.00     0.049 A 
ATOM     43  N   UNL A   1      41.643  25.710  29.011  1.00  0.00    -0.248 NA
ATOM     44  C   UNL A   1      39.689  25.552  27.842  1.00  0.00     0.031 C 
ATOM     45  C   UNL A   1      42.579  28.677  29.486  1.00  0.00     0.029 A 
ATOM     46  N   UNL A   1      40.839  29.740  30.429  1.00  0.00    -0.354 N 
ATOM     47  C   UNL A   1      41.769  24.655  28.127  1.00  0.00     0.074 A 
ATOM     48  C   UNL A   1      40.466  24.502  27.535  1.00  0.00     0.031 C 
ATOM     49  C   UNL A   1      43.062  29.631  30.307  1.00  0.00     0.029 A 
ATOM     50  C   UNL A   1      41.977  30.055  31.183  1.00  0.00     0.049 A 
ATOM     51  H   UNL A   1      39.986  30.231  30.421  1.00  0.00     0.167 HD
ATOM     52  C   UNL A   1      43.021  24.171  27.885  1.00  0.00     0.037 A 
ATOM     53  C   UNL A   1      41.897  29.829  32.534  1.00  0.00     0.037 A 
ATOM     54  C   UNL A   1      43.987  24.898  28.705  1.00  0.00     0.049 A 
ATOM     55  C   UNL A   1      42.660  28.600  32.954  1.00  0.00     0.074 A 
ATOM     56  C   UNL A   1      44.766  26.021  28.485  1.00  0.00     0.029 A 
ATOM     57  N   UNL A   1      43.923  24.738  30.071  1.00  0.00    -0.354 N 
ATOM     58  N   UNL A   1      43.199  27.758  32.119  1.00  0.00    -0.248 NA
ATOM     59  C   UNL A   1      42.822  28.191  34.345  1.00  0.00     0.031 C 
ATOM     60  C   UNL A   1      45.132  26.553  29.759  1.00  0.00     0.029 A 
ATOM     61  C   UNL A   1      44.578  25.750  30.740  1.00  0.00     0.049 A 
ATOM     62  H   UNL A   1      43.464  23.990  30.517  1.00  0.00     0.167 HD
ATOM     63  C   UNL A   1      43.795  26.750  32.806  1.00  0.00     0.074 A 
ATOM     64  C   UNL A   1      43.496  27.038  34.199  1.00  0.00     0.031 C 
ATOM     65  C   UNL A   1      44.504  25.763  32.190  1.00  0.00     0.037 A 
BRANCH  52  66
ATOM     66  C   UNL A   1      43.443  23.243  26.771  1.00  0.00     0.064 A 
ATOM     67  C   UNL A   1      43.096  21.872  26.834  1.00  0.00     0.173 A 
ATOM     68  C   UNL A   1      44.170  23.613  25.625  1.00  0.00     0.173 A 
ATOM     69  F   UNL A   1      42.357  21.379  27.838  1.00  0.00    -0.203 F 
ATOM     70  C   UNL A   1      43.492  20.943  25.872  1.00  0.00     0.198 A 
ATOM     71  C   UNL A   1      44.587  22.674  24.669  1.00  0.00     0.198 A 
ATOM     72  F   UNL A   1      44.461  24.893  25.365  1.00  0.00    -0.203 F 
ATOM     73  F   UNL A   1      43.130  19.659  26.002  1.00  0.00    -0.200 F 
ATOM     74  C   UNL A   1      44.253  21.340  24.796  1.00  0.00     0.200 A 
ATOM     75  F   UNL A   1      45.313  23.075  23.614  1.00  0.00    -0.200 F 
ATOM     76  F   UNL A   1      44.645  20.446  23.878  1.00  0.00    -0.200 F 
ENDBRANCH  52  66
BRANCH  53  77
ATOM     77  C   UNL A   1      40.554  30.224  33.074  1.00  0.00     0.064 A 
ATOM     78  C   UNL A   1      40.234  31.596  32.974  1.00  0.00     0.173 A 
ATOM     79  C   UNL A   1      39.495  29.301  33.105  1.00  0.00     0.173 A 
ATOM     80  F   UNL A   1      41.206  32.520  32.983  1.00  0.00    -0.203 F 
ATOM     81  C   UNL A   1      38.958  31.993  32.616  1.00  0.00     0.198 A 
ATOM     82  C   UNL A   1      38.203  29.715  32.794  1.00  0.00     0.198 A 
ATOM     83  F   UNL A   1      39.729  27.993  33.281  1.00  0.00    -0.203 F 
ATOM     84  F   UNL A   1      38.709  33.266  32.278  1.00  0.00    -0.200 F 
ATOM     85  C   UNL A   1      37.974  31.043  32.462  1.00  0.00     0.200 A 
ATOM     86  F   UNL A   1      37.213  28.816  32.686  1.00  0.00    -0.200 F 
ATOM     87  F   UNL A   1      36.839  31.424  31.883  1.00  0.00    -0.200 F 
ENDBRANCH  53  77
BRANCH  65  88
ATOM     88  C   UNL A   1      45.221  24.710  32.964  1.00  0.00     0.064 A 
ATOM     89  C   UNL A   1      44.572  23.533  33.356  1.00  0.00     0.173 A 
ATOM     90  C   UNL A   1      46.536  24.896  33.436  1.00  0.00     0.173 A 
ATOM     91  F   UNL A   1      43.290  23.312  33.026  1.00  0.00    -0.203 F 
ATOM     92  C   UNL A   1      45.228  22.560  34.103  1.00  0.00     0.198 A 
ATOM     93  C   UNL A   1      47.158  23.961  34.251  1.00  0.00     0.198 A 
ATOM     94  F   UNL A   1      47.266  25.968  33.098  1.00  0.00    -0.203 F 
ATOM     95  F   UNL A   1      44.605  21.407  34.378  1.00  0.00    -0.200 F 
ATOM     96  C   UNL A   1      46.515  22.781  34.561  1.00  0.00     0.200 A 
ATOM     97  F   UNL A   1      48.389  24.208  34.720  1.00  0.00    -0.200 F 
ATOM     98  F   UNL A   1      47.138  21.852  35.297  1.00  0.00    -0.200 F 
ENDBRANCH  65  88
ENDBRANCH  39  40
ENDBRANCH  32  34
ENDBRANCH  31  32
ENDBRANCH  30  31
ENDBRANCH   1  30
TORSDOF 17
ENDMDL
MODEL 3
REMARK VINA RESULT:     -13.2      3.522      9.737
REMARK SMILES Cc1ccc(Cn2c(C)c(C[NH2+]C[C@@H]3CCCO3)c(C(=O)OCCOC(=O)c3ccc(-c4c5nc(c(-c6c(F)c(F)c(F)c(F)c6F)c6ccc([nH]6)c(-c6c(F)c(F)c(F)c(F)c6F)c6nc(c(-c7c(F)c(F)c(F)c(F)c7F)c7ccc4[nH]7)C=C6)C=C5)cc3)c2C)cc1
REMARK SMILES IDX 23 1 22 2 20 3 21 4 19 5 7 6 8 7 91 8 9 9 10 10 92 11 6 12
REMARK SMILES IDX 5 13 1 14 2 15 3 16 94 17 4 18 93 19 11 20 12 21 13 24 14 25
REMARK SMILES IDX 15 26 18 27 16 28 17 29 24 30 25 31 26 32 27 33 28 34 29 35
REMARK SMILES IDX 90 36 30 37 89 38 31 39 32 40 33 41 83 42 34 43 88 44 82 45
REMARK SMILES IDX 84 46 35 47 87 48 81 49 80 50 36 52 68 53 48 54 67 55 49 56
REMARK SMILES IDX 52 57 66 58 85 59 50 60 51 61 65 63 86 64 53 65 37 66 38 67
REMARK SMILES IDX 46 68 39 69 40 70 44 71 47 72 41 73 42 74 45 75 43 76 69 77
REMARK SMILES IDX 70 78 78 79 71 80 72 81 76 82 79 83 73 84 74 85 77 86 75 87
REMARK SMILES IDX 54 88 55 89 63 90 56 91 57 92 61 93 64 94 58 95 59 96 62 97
REMARK SMILES IDX 60 98
REMARK H PARENT 12 22 12 23 84 51 52 62
REMARK Flexibility Score: inf
ROOT
ATOM      1  C   UNL A   1      32.404  29.034  26.480  1.00  0.00     0.275 C 
ENDROOT
BRANCH   1   2
ATOM      2  O   UNL A   1      32.300  27.715  27.078  1.00  0.00    -0.458 OA
BRANCH   2   3
ATOM      3  C   UNL A   1      31.793  26.737  26.256  1.00  0.00     0.340 C 
ATOM      4  O   UNL A   1      31.169  25.781  26.690  1.00  0.00    -0.246 OA
BRANCH   3   5
ATOM      5  C   UNL A   1      32.359  26.665  24.910  1.00  0.00     0.089 A 
ATOM      6  N   UNL A   1      33.480  25.338  23.520  1.00  0.00    -0.343 N 
ATOM      7  C   UNL A   1      32.653  26.130  22.732  1.00  0.00     0.025 A 
ATOM      8  C   UNL A   1      33.511  25.895  24.780  1.00  0.00     0.030 A 
ATOM      9  C   UNL A   1      32.541  26.027  21.245  1.00  0.00     0.065 C 
ATOM     10  C   UNL A   1      31.903  26.976  23.570  1.00  0.00     0.042 A 
ATOM     11  C   UNL A   1      34.450  25.548  25.884  1.00  0.00     0.065 C 
BRANCH   6  12
ATOM     12  C   UNL A   1      34.279  24.175  23.096  1.00  0.00     0.157 C 
BRANCH  12  13
ATOM     13  C   UNL A   1      33.762  22.803  23.524  1.00  0.00    -0.028 A 
ATOM     14  C   UNL A   1      32.484  18.744  24.457  1.00  0.00     0.044 C 
ATOM     15  C   UNL A   1      32.913  20.140  24.116  1.00  0.00    -0.051 A 
ATOM     16  C   UNL A   1      34.042  20.680  24.725  1.00  0.00     0.004 A 
ATOM     17  C   UNL A   1      32.196  20.942  23.223  1.00  0.00     0.004 A 
ATOM     18  C   UNL A   1      34.465  21.975  24.410  1.00  0.00     0.006 A 
ATOM     19  C   UNL A   1      32.612  22.255  22.934  1.00  0.00     0.006 A 
ENDBRANCH  12  13
ENDBRANCH   6  12
BRANCH  10  20
ATOM     20  C   UNL A   1      30.792  27.897  23.046  1.00  0.00     0.300 C 
BRANCH  20  21
ATOM     21  N   UNL A   1      29.474  27.261  23.185  1.00  0.00    -0.340 N 
ATOM     22  H   UNL A   1      29.448  26.779  24.084  1.00  0.00     0.346 HD
ATOM     23  H   UNL A   1      29.373  26.634  22.387  1.00  0.00     0.346 HD
BRANCH  21  24
ATOM     24  C   UNL A   1      28.316  28.195  23.129  1.00  0.00     0.293 C 
BRANCH  24  25
ATOM     25  C   UNL A   1      28.666  29.650  22.737  1.00  0.00     0.173 C 
ATOM     26  C   UNL A   1      27.926  30.816  23.381  1.00  0.00     0.040 C 
ATOM     27  O   UNL A   1      28.476  29.833  21.331  1.00  0.00    -0.372 OA
ATOM     28  C   UNL A   1      28.114  31.922  22.358  1.00  0.00     0.031 C 
ATOM     29  C   UNL A   1      28.046  31.169  21.057  1.00  0.00     0.161 C 
ENDBRANCH  24  25
ENDBRANCH  21  24
ENDBRANCH  20  21
ENDBRANCH  10  20
ENDBRANCH   3   5
ENDBRANCH   2   3
ENDBRANCH   1   2
BRANCH   1  30
ATOM     30  C   UNL A   1      32.904  30.109  27.471  1.00  0.00     0.275 C 
BRANCH  30  31
ATOM     31  O   UNL A   1      34.136  30.767  27.128  1.00  0.00    -0.458 OA
BRANCH  31  32
ATOM     32  C   UNL A   1      34.902  31.076  28.193  1.00  0.00     0.338 C 
ATOM     33  O   UNL A   1      34.528  31.811  29.101  1.00  0.00    -0.246 OA
BRANCH  32  34
ATOM     34  C   UNL A   1      36.025  30.104  28.238  1.00  0.00     0.060 A 
ATOM     35  C   UNL A   1      36.943  30.072  27.180  1.00  0.00     0.016 A 
ATOM     36  C   UNL A   1      36.359  29.556  29.476  1.00  0.00     0.016 A 
ATOM     37  C   UNL A   1      38.249  29.639  27.379  1.00  0.00     0.010 A 
ATOM     38  C   UNL A   1      37.667  29.232  29.711  1.00  0.00     0.010 A 
ATOM     39  C   UNL A   1      38.606  29.268  28.664  1.00  0.00    -0.014 A 
BRANCH  39  40
ATOM     40  C   UNL A   1      39.853  28.620  28.999  1.00  0.00     0.031 A 
ATOM     41  C   UNL A   1      40.137  27.209  28.691  1.00  0.00     0.074 A 
ATOM     42  C   UNL A   1      40.770  29.587  29.220  1.00  0.00     0.049 A 
ATOM     43  N   UNL A   1      41.239  26.634  29.028  1.00  0.00    -0.248 NA
ATOM     44  C   UNL A   1      39.222  26.286  28.019  1.00  0.00     0.031 C 
ATOM     45  C   UNL A   1      42.185  29.635  28.926  1.00  0.00     0.029 A 
ATOM     46  N   UNL A   1      40.497  30.853  29.770  1.00  0.00    -0.354 N 
ATOM     47  C   UNL A   1      41.319  25.442  28.335  1.00  0.00     0.074 A 
ATOM     48  C   UNL A   1      39.986  25.195  27.854  1.00  0.00     0.031 C 
ATOM     49  C   UNL A   1      42.710  30.714  29.541  1.00  0.00     0.029 A 
ATOM     50  C   UNL A   1      41.675  31.288  30.391  1.00  0.00     0.049 A 
ATOM     51  H   UNL A   1      39.643  31.340  29.727  1.00  0.00     0.167 HD
ATOM     52  C   UNL A   1      42.558  24.917  28.109  1.00  0.00     0.037 A 
ATOM     53  C   UNL A   1      41.674  31.301  31.763  1.00  0.00     0.037 A 
ATOM     54  C   UNL A   1      43.566  25.770  28.733  1.00  0.00     0.049 A 
ATOM     55  C   UNL A   1      42.467  30.160  32.346  1.00  0.00     0.074 A 
ATOM     56  C   UNL A   1      44.325  26.834  28.277  1.00  0.00     0.029 A 
ATOM     57  N   UNL A   1      43.581  25.850  30.108  1.00  0.00    -0.354 N 
ATOM     58  N   UNL A   1      42.961  29.183  31.640  1.00  0.00    -0.248 NA
ATOM     59  C   UNL A   1      42.711  29.997  33.774  1.00  0.00     0.031 C 
ATOM     60  C   UNL A   1      44.761  27.578  29.416  1.00  0.00     0.029 A 
ATOM     61  C   UNL A   1      44.268  26.960  30.552  1.00  0.00     0.049 A 
ATOM     62  H   UNL A   1      43.153  25.193  30.702  1.00  0.00     0.167 HD
ATOM     63  C   UNL A   1      43.601  28.307  32.454  1.00  0.00     0.074 A 
ATOM     64  C   UNL A   1      43.381  28.833  33.792  1.00  0.00     0.031 C 
ATOM     65  C   UNL A   1      44.278  27.224  31.979  1.00  0.00     0.037 A 
BRANCH  52  66
ATOM     66  C   UNL A   1      42.920  23.808  27.150  1.00  0.00     0.064 A 
ATOM     67  C   UNL A   1      42.604  22.468  27.480  1.00  0.00     0.173 A 
ATOM     68  C   UNL A   1      43.560  23.973  25.907  1.00  0.00     0.173 A 
ATOM     69  F   UNL A   1      41.945  22.158  28.605  1.00  0.00    -0.203 F 
ATOM     70  C   UNL A   1      42.950  21.385  26.672  1.00  0.00     0.198 A 
ATOM     71  C   UNL A   1      43.928  22.881  25.106  1.00  0.00     0.198 A 
ATOM     72  F   UNL A   1      43.808  25.188  25.404  1.00  0.00    -0.203 F 
ATOM     73  F   UNL A   1      42.622  20.142  27.053  1.00  0.00    -0.200 F 
ATOM     74  C   UNL A   1      43.628  21.588  25.492  1.00  0.00     0.200 A 
ATOM     75  F   UNL A   1      44.572  23.092  23.948  1.00  0.00    -0.200 F 
ATOM     76  F   UNL A   1      43.973  20.548  24.722  1.00  0.00    -0.200 F 
ENDBRANCH  52  66
BRANCH  53  77
ATOM     77  C   UNL A   1      40.362  31.790  32.303  1.00  0.00     0.064 A 
ATOM     78  C   UNL A   1      39.532  30.803  32.878  1.00  0.00     0.173 A 
ATOM     79  C   UNL A   1      40.222  33.113  32.754  1.00  0.00     0.173 A 
ATOM     80  F   UNL A   1      39.597  29.532  32.453  1.00  0.00    -0.203 F 
ATOM     81  C   UNL A   1      38.831  31.068  34.041  1.00  0.00     0.198 A 
ATOM     82  C   UNL A   1      39.473  33.382  33.896  1.00  0.00     0.198 A 
ATOM     83  F   UNL A   1      40.922  34.108  32.191  1.00  0.00    -0.203 F 
ATOM     84  F   UNL A   1      38.244  30.076  34.726  1.00  0.00    -0.200 F 
ATOM     85  C   UNL A   1      38.865  32.335  34.575  1.00  0.00     0.200 A 
ATOM     86  F   UNL A   1      39.448  34.621  34.411  1.00  0.00    -0.200 F 
ATOM     87  F   UNL A   1      38.394  32.495  35.809  1.00  0.00    -0.200 F 
ENDBRANCH  53  77
BRANCH  65  88
ATOM     88  C   UNL A   1      45.044  26.318  32.882  1.00  0.00     0.064 A 
ATOM     89  C   UNL A   1      46.438  26.225  32.799  1.00  0.00     0.173 A 
ATOM     90  C   UNL A   1      44.401  25.435  33.774  1.00  0.00     0.173 A 
ATOM     91  F   UNL A   1      47.126  26.965  31.916  1.00  0.00    -0.203 F 
ATOM     92  C   UNL A   1      47.155  25.360  33.620  1.00  0.00     0.198 A 
ATOM     93  C   UNL A   1      45.113  24.515  34.530  1.00  0.00     0.198 A 
ATOM     94  F   UNL A   1      43.074  25.457  33.961  1.00  0.00    -0.203 F 
ATOM     95  F   UNL A   1      48.493  25.366  33.577  1.00  0.00    -0.200 F 
ATOM     96  C   UNL A   1      46.491  24.497  34.474  1.00  0.00     0.200 A 
ATOM     97  F   UNL A   1      44.454  23.658  35.322  1.00  0.00    -0.200 F 
ATOM     98  F   UNL A   1      47.181  23.651  35.249  1.00  0.00    -0.200 F 
ENDBRANCH  65  88
ENDBRANCH  39  40
ENDBRANCH  32  34
ENDBRANCH  31  32
ENDBRANCH  30  31
ENDBRANCH   1  30
TORSDOF 17
ENDMDL
