MODEL 1
REMARK VINA RESULT:     -13.2      0.000      0.000
REMARK SMILES O=C(OCCOC(=O)c1cc(NC(=O)c2cccs2)ccc1N1CCC[C@H](C[NH+]2CCCC2)C1)c1ccc(-c2c3nc(c(-c4c(F)c(F)c(F)c(F)c4F)c4ccc([nH]4)c(-c4c(F)c(F)c(F)c(F)c4F)c4nc(c(-c5c(F)c(F)c(F)c(F)c5F)c5ccc2[nH]5)C=C4)C=C3)cc1
REMARK SMILES IDX 5 1 4 2 3 3 2 4 1 5 35 6 36 7 97 8 37 9 96 10 38 11 39 12
REMARK SMILES IDX 40 13 90 14 41 15 95 16 89 17 91 18 42 19 94 20 88 21 87 22
REMARK SMILES IDX 43 24 75 25 55 26 74 27 56 28 59 29 73 30 92 31 57 32 58 33
REMARK SMILES IDX 72 35 93 36 60 37 44 38 45 39 53 40 46 41 47 42 51 43 54 44
REMARK SMILES IDX 48 45 49 46 52 47 50 48 76 49 77 50 85 51 78 52 79 53 83 54
REMARK SMILES IDX 86 55 80 56 81 57 84 58 82 59 61 60 62 61 70 62 63 63 64 64
REMARK SMILES IDX 68 65 71 66 65 67 66 68 69 69 67 70 6 71 7 72 8 73 9 74
REMARK SMILES IDX 10 75 22 76 11 77 21 78 20 79 23 80 24 81 34 82 25 83 27 84
REMARK SMILES IDX 26 85 28 86 29 87 30 88 33 89 31 91 32 92 12 93 13 94 14 96
REMARK SMILES IDX 15 97 16 98 19 99 17 100 18 101
REMARK H PARENT 91 23 59 34 29 90 12 95
REMARK Flexibility Score: inf
ROOT
ATOM      1  C   UNL A   1      36.252  20.623  25.156  1.00  0.00     0.275 C 
ENDROOT
BRANCH   1   2
ATOM      2  C   UNL A   1      37.775  20.712  25.014  1.00  0.00     0.275 C 
BRANCH   2   3
ATOM      3  O   UNL A   1      38.473  21.882  25.500  1.00  0.00    -0.458 OA
BRANCH   3   4
ATOM      4  C   UNL A   1      39.471  21.763  26.399  1.00  0.00     0.338 C 
ATOM      5  O   UNL A   1      39.978  20.686  26.691  1.00  0.00    -0.246 OA
BRANCH   4   6
ATOM      6  C   UNL A   1      40.003  23.066  26.900  1.00  0.00     0.060 A 
ATOM      7  C   UNL A   1      39.504  24.296  26.471  1.00  0.00     0.016 A 
ATOM      8  C   UNL A   1      40.986  23.050  27.899  1.00  0.00     0.016 A 
ATOM      9  C   UNL A   1      39.953  25.479  27.056  1.00  0.00     0.010 A 
ATOM     10  C   UNL A   1      41.437  24.233  28.497  1.00  0.00     0.010 A 
ATOM     11  C   UNL A   1      40.913  25.456  28.078  1.00  0.00    -0.014 A 
BRANCH  11  12
ATOM     12  C   UNL A   1      41.450  26.755  28.552  1.00  0.00     0.031 A 
ATOM     13  C   UNL A   1      42.821  27.117  28.120  1.00  0.00     0.074 A 
ATOM     14  C   UNL A   1      40.704  27.623  29.256  1.00  0.00     0.049 A 
ATOM     15  N   UNL A   1      43.430  28.265  28.206  1.00  0.00    -0.248 NA
ATOM     16  C   UNL A   1      43.627  26.028  27.547  1.00  0.00     0.031 C 
ATOM     17  C   UNL A   1      39.423  27.285  29.835  1.00  0.00     0.029 A 
ATOM     18  N   UNL A   1      40.853  28.948  29.574  1.00  0.00    -0.354 N 
ATOM     19  C   UNL A   1      44.705  28.032  27.727  1.00  0.00     0.074 A 
ATOM     20  C   UNL A   1      44.782  26.637  27.349  1.00  0.00     0.031 C 
ATOM     21  C   UNL A   1      38.812  28.385  30.293  1.00  0.00     0.029 A 
ATOM     22  C   UNL A   1      39.710  29.512  30.108  1.00  0.00     0.049 A 
ATOM     23  H   UNL A   1      41.691  29.447  29.435  1.00  0.00     0.167 HD
ATOM     24  C   UNL A   1      45.723  28.915  27.647  1.00  0.00     0.037 A 
ATOM     25  C   UNL A   1      39.427  30.799  30.391  1.00  0.00     0.037 A 
ATOM     26  C   UNL A   1      45.619  30.276  28.098  1.00  0.00     0.049 A 
ATOM     27  C   UNL A   1      40.544  31.788  30.194  1.00  0.00     0.074 A 
ATOM     28  C   UNL A   1      46.591  31.253  28.134  1.00  0.00     0.029 A 
ATOM     29  N   UNL A   1      44.457  30.842  28.616  1.00  0.00    -0.354 N 
ATOM     30  N   UNL A   1      41.743  31.578  29.703  1.00  0.00    -0.248 NA
ATOM     31  C   UNL A   1      40.303  33.168  30.629  1.00  0.00     0.031 C 
ATOM     32  C   UNL A   1      46.029  32.401  28.708  1.00  0.00     0.029 A 
ATOM     33  C   UNL A   1      44.690  32.157  28.978  1.00  0.00     0.049 A 
ATOM     34  H   UNL A   1      43.595  30.375  28.710  1.00  0.00     0.167 HD
ATOM     35  C   UNL A   1      42.412  32.785  29.799  1.00  0.00     0.074 A 
ATOM     36  C   UNL A   1      41.459  33.742  30.331  1.00  0.00     0.031 C 
ATOM     37  C   UNL A   1      43.707  33.070  29.512  1.00  0.00     0.037 A 
BRANCH  24  38
ATOM     38  C   UNL A   1      47.022  28.371  27.139  1.00  0.00     0.064 A 
ATOM     39  C   UNL A   1      47.287  28.264  25.765  1.00  0.00     0.173 A 
ATOM     40  C   UNL A   1      47.961  27.841  28.035  1.00  0.00     0.173 A 
ATOM     41  F   UNL A   1      46.396  28.713  24.868  1.00  0.00    -0.203 F 
ATOM     42  C   UNL A   1      48.424  27.605  25.306  1.00  0.00     0.198 A 
ATOM     43  C   UNL A   1      49.112  27.211  27.573  1.00  0.00     0.198 A 
ATOM     44  F   UNL A   1      47.742  27.898  29.357  1.00  0.00    -0.203 F 
ATOM     45  F   UNL A   1      48.611  27.434  23.990  1.00  0.00    -0.200 F 
ATOM     46  C   UNL A   1      49.336  27.080  26.210  1.00  0.00     0.200 A 
ATOM     47  F   UNL A   1      49.989  26.700  28.447  1.00  0.00    -0.200 F 
ATOM     48  F   UNL A   1      50.418  26.425  25.768  1.00  0.00    -0.200 F 
ENDBRANCH  24  38
BRANCH  25  49
ATOM     49  C   UNL A   1      38.073  31.226  30.856  1.00  0.00     0.064 A 
ATOM     50  C   UNL A   1      37.810  31.426  32.221  1.00  0.00     0.173 A 
ATOM     51  C   UNL A   1      37.009  31.446  29.966  1.00  0.00     0.173 A 
ATOM     52  F   UNL A   1      38.778  31.217  33.126  1.00  0.00    -0.203 F 
ATOM     53  C   UNL A   1      36.545  31.806  32.675  1.00  0.00     0.198 A 
ATOM     54  C   UNL A   1      35.755  31.863  30.417  1.00  0.00     0.198 A 
ATOM     55  F   UNL A   1      37.188  31.271  28.649  1.00  0.00    -0.203 F 
ATOM     56  F   UNL A   1      36.319  31.941  33.990  1.00  0.00    -0.200 F 
ATOM     57  C   UNL A   1      35.521  32.034  31.771  1.00  0.00     0.200 A 
ATOM     58  F   UNL A   1      34.772  32.094  29.536  1.00  0.00    -0.200 F 
ATOM     59  F   UNL A   1      34.309  32.408  32.207  1.00  0.00    -0.200 F 
ENDBRANCH  25  49
BRANCH  37  60
ATOM     60  C   UNL A   1      44.153  34.473  29.780  1.00  0.00     0.064 A 
ATOM     61  C   UNL A   1      44.724  34.835  31.009  1.00  0.00     0.173 A 
ATOM     62  C   UNL A   1      44.050  35.449  28.780  1.00  0.00     0.173 A 
ATOM     63  F   UNL A   1      44.825  33.936  32.000  1.00  0.00    -0.203 F 
ATOM     64  C   UNL A   1      45.160  36.137  31.234  1.00  0.00     0.198 A 
ATOM     65  C   UNL A   1      44.515  36.741  28.998  1.00  0.00     0.198 A 
ATOM     66  F   UNL A   1      43.513  35.144  27.590  1.00  0.00    -0.203 F 
ATOM     67  F   UNL A   1      45.661  36.476  32.429  1.00  0.00    -0.200 F 
ATOM     68  C   UNL A   1      45.062  37.086  30.225  1.00  0.00     0.200 A 
ATOM     69  F   UNL A   1      44.432  37.653  28.020  1.00  0.00    -0.200 F 
ATOM     70  F   UNL A   1      45.491  38.337  30.440  1.00  0.00    -0.200 F 
ENDBRANCH  37  60
ENDBRANCH  11  12
ENDBRANCH   4   6
ENDBRANCH   3   4
ENDBRANCH   2   3
ENDBRANCH   1   2
BRANCH   1  71
ATOM     71  O   UNL A   1      35.708  21.756  25.840  1.00  0.00    -0.458 OA
BRANCH  71  72
ATOM     72  C   UNL A   1      34.424  21.619  26.246  1.00  0.00     0.340 C 
ATOM     73  O   UNL A   1      34.035  21.455  27.400  1.00  0.00    -0.246 OA
BRANCH  72  74
ATOM     74  C   UNL A   1      33.490  21.751  25.117  1.00  0.00     0.085 A 
ATOM     75  C   UNL A   1      33.186  20.563  24.402  1.00  0.00     0.044 A 
ATOM     76  C   UNL A   1      32.994  22.998  24.720  1.00  0.00     0.051 A 
ATOM     77  C   UNL A   1      32.405  20.601  23.252  1.00  0.00     0.042 A 
ATOM     78  C   UNL A   1      32.321  23.024  23.493  1.00  0.00     0.029 A 
ATOM     79  C   UNL A   1      32.014  21.857  22.782  1.00  0.00     0.028 A 
BRANCH  76  80
ATOM     80  N   UNL A   1      33.144  24.182  25.411  1.00  0.00    -0.370 N 
ATOM     81  C   UNL A   1      32.426  24.438  26.658  1.00  0.00     0.116 C 
ATOM     82  C   UNL A   1      34.249  25.078  25.129  1.00  0.00     0.126 C 
ATOM     83  C   UNL A   1      31.840  25.848  26.636  1.00  0.00     0.022 C 
ATOM     84  C   UNL A   1      33.671  26.495  24.977  1.00  0.00     0.064 C 
ATOM     85  C   UNL A   1      32.914  26.873  26.270  1.00  0.00     0.013 C 
BRANCH  84  86
ATOM     86  C   UNL A   1      32.809  26.541  23.685  1.00  0.00     0.267 C 
BRANCH  86  87
ATOM     87  N   UNL A   1      32.495  27.828  23.067  1.00  0.00    -0.335 N 
ATOM     88  C   UNL A   1      32.769  28.987  23.914  1.00  0.00     0.262 C 
ATOM     89  C   UNL A   1      31.147  27.972  22.528  1.00  0.00     0.262 C 
ATOM     90  H   UNL A   1      33.144  27.815  22.280  1.00  0.00     0.348 HD
ATOM     91  C   UNL A   1      31.419  29.396  24.467  1.00  0.00     0.067 C 
ATOM     92  C   UNL A   1      30.451  29.049  23.351  1.00  0.00     0.067 C 
ENDBRANCH  86  87
ENDBRANCH  84  86
ENDBRANCH  76  80
BRANCH  77  93
ATOM     93  N   UNL A   1      31.990  19.505  22.473  1.00  0.00    -0.321 N 
ATOM     94  C   UNL A   1      32.250  18.152  22.450  1.00  0.00     0.265 C 
ATOM     95  H   UNL A   1      31.357  19.771  21.769  1.00  0.00     0.170 HD
ATOM     96  O   UNL A   1      31.702  17.508  21.550  1.00  0.00    -0.268 OA
BRANCH  94  97
ATOM     97  C   UNL A   1      33.006  17.504  23.490  1.00  0.00     0.092 A 
ATOM     98  C   UNL A   1      34.357  17.218  23.494  1.00  0.00     0.025 A 
ATOM     99  S   UNL A   1      32.292  17.208  25.016  1.00  0.00    -0.139 S 
ATOM    100  C   UNL A   1      34.766  16.589  24.704  1.00  0.00     0.012 A 
ATOM    101  C   UNL A   1      33.731  16.490  25.606  1.00  0.00     0.065 A 
ENDBRANCH  94  97
ENDBRANCH  77  93
ENDBRANCH  72  74
ENDBRANCH  71  72
ENDBRANCH   1  71
TORSDOF 16
ENDMDL
MODEL 2
REMARK VINA RESULT:     -13.2      4.688      9.957
REMARK SMILES O=C(OCCOC(=O)c1cc(NC(=O)c2cccs2)ccc1N1CCC[C@H](C[NH+]2CCCC2)C1)c1ccc(-c2c3nc(c(-c4c(F)c(F)c(F)c(F)c4F)c4ccc([nH]4)c(-c4c(F)c(F)c(F)c(F)c4F)c4nc(c(-c5c(F)c(F)c(F)c(F)c5F)c5ccc2[nH]5)C=C4)C=C3)cc1
REMARK SMILES IDX 5 1 4 2 3 3 2 4 1 5 35 6 36 7 97 8 37 9 96 10 38 11 39 12
REMARK SMILES IDX 40 13 90 14 41 15 95 16 89 17 91 18 42 19 94 20 88 21 87 22
REMARK SMILES IDX 43 24 75 25 55 26 74 27 56 28 59 29 73 30 92 31 57 32 58 33
REMARK SMILES IDX 72 35 93 36 60 37 44 38 45 39 53 40 46 41 47 42 51 43 54 44
REMARK SMILES IDX 48 45 49 46 52 47 50 48 76 49 77 50 85 51 78 52 79 53 83 54
REMARK SMILES IDX 86 55 80 56 81 57 84 58 82 59 61 60 62 61 70 62 63 63 64 64
REMARK SMILES IDX 68 65 71 66 65 67 66 68 69 69 67 70 6 71 7 72 8 73 9 74
REMARK SMILES IDX 10 75 22 76 11 77 21 78 20 79 23 80 24 81 34 82 25 83 27 84
REMARK SMILES IDX 26 85 28 86 29 87 30 88 33 89 31 91 32 92 12 93 13 94 14 96
REMARK SMILES IDX 15 97 16 98 19 99 17 100 18 101
REMARK H PARENT 91 23 59 34 29 90 12 95
REMARK Flexibility Score: inf
ROOT
ATOM      1  C   UNL A   1      33.104  29.146  24.824  1.00  0.00     0.275 C 
ENDROOT
BRANCH   1   2
ATOM      2  C   UNL A   1      32.275  30.044  25.748  1.00  0.00     0.275 C 
BRANCH   2   3
ATOM      3  O   UNL A   1      32.742  30.320  27.089  1.00  0.00    -0.458 OA
BRANCH   3   4
ATOM      4  C   UNL A   1      33.549  31.373  27.331  1.00  0.00     0.338 C 
ATOM      5  O   UNL A   1      33.198  32.534  27.159  1.00  0.00    -0.246 OA
BRANCH   4   6
ATOM      6  C   UNL A   1      34.854  31.010  27.962  1.00  0.00     0.060 A 
ATOM      7  C   UNL A   1      35.151  29.714  28.383  1.00  0.00     0.016 A 
ATOM      8  C   UNL A   1      35.849  31.994  28.061  1.00  0.00     0.016 A 
ATOM      9  C   UNL A   1      36.426  29.404  28.857  1.00  0.00     0.010 A 
ATOM     10  C   UNL A   1      37.132  31.690  28.528  1.00  0.00     0.010 A 
ATOM     11  C   UNL A   1      37.427  30.385  28.923  1.00  0.00    -0.014 A 
BRANCH  11  12
ATOM     12  C   UNL A   1      38.710  30.021  29.571  1.00  0.00     0.031 A 
ATOM     13  C   UNL A   1      38.891  30.426  30.985  1.00  0.00     0.074 A 
ATOM     14  C   UNL A   1      39.635  29.267  28.953  1.00  0.00     0.049 A 
ATOM     15  N   UNL A   1      39.803  30.049  31.835  1.00  0.00    -0.248 NA
ATOM     16  C   UNL A   1      37.937  31.421  31.500  1.00  0.00     0.031 C 
ATOM     17  C   UNL A   1      39.596  28.960  27.541  1.00  0.00     0.029 A 
ATOM     18  N   UNL A   1      40.739  28.586  29.393  1.00  0.00    -0.354 N 
ATOM     19  C   UNL A   1      39.554  30.783  32.979  1.00  0.00     0.074 A 
ATOM     20  C   UNL A   1      38.406  31.624  32.718  1.00  0.00     0.031 C 
ATOM     21  C   UNL A   1      40.511  28.029  27.240  1.00  0.00     0.029 A 
ATOM     22  C   UNL A   1      41.266  27.729  28.445  1.00  0.00     0.049 A 
ATOM     23  H   UNL A   1      41.120  28.696  30.296  1.00  0.00     0.167 HD
ATOM     24  C   UNL A   1      40.257  30.765  34.132  1.00  0.00     0.037 A 
ATOM     25  C   UNL A   1      42.233  26.798  28.557  1.00  0.00     0.037 A 
ATOM     26  C   UNL A   1      41.434  29.962  34.321  1.00  0.00     0.049 A 
ATOM     27  C   UNL A   1      42.936  26.721  29.886  1.00  0.00     0.074 A 
ATOM     28  C   UNL A   1      42.273  29.900  35.413  1.00  0.00     0.029 A 
ATOM     29  N   UNL A   1      41.945  29.085  33.367  1.00  0.00    -0.354 N 
ATOM     30  N   UNL A   1      42.677  27.388  30.986  1.00  0.00    -0.248 NA
ATOM     31  C   UNL A   1      44.084  25.813  29.985  1.00  0.00     0.031 C 
ATOM     32  C   UNL A   1      43.315  29.014  35.107  1.00  0.00     0.029 A 
ATOM     33  C   UNL A   1      43.094  28.480  33.846  1.00  0.00     0.049 A 
ATOM     34  H   UNL A   1      41.546  28.919  32.482  1.00  0.00     0.167 HD
ATOM     35  C   UNL A   1      43.646  27.010  31.898  1.00  0.00     0.074 A 
ATOM     36  C   UNL A   1      44.457  26.000  31.243  1.00  0.00     0.031 C 
ATOM     37  C   UNL A   1      43.872  27.482  33.150  1.00  0.00     0.037 A 
BRANCH  24  38
ATOM     38  C   UNL A   1      39.795  31.713  35.193  1.00  0.00     0.064 A 
ATOM     39  C   UNL A   1      38.843  31.335  36.154  1.00  0.00     0.173 A 
ATOM     40  C   UNL A   1      40.220  33.049  35.177  1.00  0.00     0.173 A 
ATOM     41  F   UNL A   1      38.370  30.079  36.177  1.00  0.00    -0.203 F 
ATOM     42  C   UNL A   1      38.300  32.272  37.028  1.00  0.00     0.198 A 
ATOM     43  C   UNL A   1      39.698  33.976  36.074  1.00  0.00     0.198 A 
ATOM     44  F   UNL A   1      41.110  33.465  34.264  1.00  0.00    -0.203 F 
ATOM     45  F   UNL A   1      37.326  31.908  37.875  1.00  0.00    -0.200 F 
ATOM     46  C   UNL A   1      38.728  33.590  36.988  1.00  0.00     0.200 A 
ATOM     47  F   UNL A   1      40.108  35.250  36.032  1.00  0.00    -0.200 F 
ATOM     48  F   UNL A   1      38.187  34.496  37.815  1.00  0.00    -0.200 F 
ENDBRANCH  24  38
BRANCH  25  49
ATOM     49  C   UNL A   1      42.578  25.878  27.432  1.00  0.00     0.064 A 
ATOM     50  C   UNL A   1      41.857  24.691  27.224  1.00  0.00     0.173 A 
ATOM     51  C   UNL A   1      43.627  26.147  26.537  1.00  0.00     0.173 A 
ATOM     52  F   UNL A   1      40.854  24.364  28.053  1.00  0.00    -0.203 F 
ATOM     53  C   UNL A   1      42.178  23.810  26.190  1.00  0.00     0.198 A 
ATOM     54  C   UNL A   1      43.924  25.285  25.480  1.00  0.00     0.198 A 
ATOM     55  F   UNL A   1      44.360  27.261  26.677  1.00  0.00    -0.203 F 
ATOM     56  F   UNL A   1      41.498  22.663  26.052  1.00  0.00    -0.200 F 
ATOM     57  C   UNL A   1      43.206  24.112  25.312  1.00  0.00     0.200 A 
ATOM     58  F   UNL A   1      44.911  25.591  24.626  1.00  0.00    -0.200 F 
ATOM     59  F   UNL A   1      43.509  23.271  24.313  1.00  0.00    -0.200 F 
ENDBRANCH  25  49
BRANCH  37  60
ATOM     60  C   UNL A   1      45.049  26.908  33.874  1.00  0.00     0.064 A 
ATOM     61  C   UNL A   1      46.306  27.526  33.829  1.00  0.00     0.173 A 
ATOM     62  C   UNL A   1      44.901  25.755  34.656  1.00  0.00     0.173 A 
ATOM     63  F   UNL A   1      46.496  28.621  33.077  1.00  0.00    -0.203 F 
ATOM     64  C   UNL A   1      47.385  26.995  34.529  1.00  0.00     0.198 A 
ATOM     65  C   UNL A   1      45.973  25.245  35.380  1.00  0.00     0.198 A 
ATOM     66  F   UNL A   1      43.714  25.135  34.730  1.00  0.00    -0.203 F 
ATOM     67  F   UNL A   1      48.590  27.573  34.439  1.00  0.00    -0.200 F 
ATOM     68  C   UNL A   1      47.214  25.861  35.310  1.00  0.00     0.200 A 
ATOM     69  F   UNL A   1      45.805  24.158  36.144  1.00  0.00    -0.200 F 
ATOM     70  F   UNL A   1      48.252  25.357  35.993  1.00  0.00    -0.200 F 
ENDBRANCH  37  60
ENDBRANCH  11  12
ENDBRANCH   4   6
ENDBRANCH   3   4
ENDBRANCH   2   3
ENDBRANCH   1   2
BRANCH   1  71
ATOM     71  O   UNL A   1      32.763  29.331  23.447  1.00  0.00    -0.458 OA
BRANCH  71  72
ATOM     72  C   UNL A   1      32.791  28.206  22.693  1.00  0.00     0.340 C 
ATOM     73  O   UNL A   1      33.630  27.917  21.842  1.00  0.00    -0.246 OA
BRANCH  72  74
ATOM     74  C   UNL A   1      31.694  27.295  23.053  1.00  0.00     0.085 A 
ATOM     75  C   UNL A   1      30.385  27.843  23.052  1.00  0.00     0.044 A 
ATOM     76  C   UNL A   1      31.941  25.977  23.454  1.00  0.00     0.051 A 
ATOM     77  C   UNL A   1      29.297  27.096  23.487  1.00  0.00     0.042 A 
ATOM     78  C   UNL A   1      30.851  25.293  24.005  1.00  0.00     0.029 A 
ATOM     79  C   UNL A   1      29.556  25.826  24.007  1.00  0.00     0.028 A 
BRANCH  76  80
ATOM     80  N   UNL A   1      33.155  25.326  23.382  1.00  0.00    -0.370 N 
ATOM     81  C   UNL A   1      33.627  24.719  22.140  1.00  0.00     0.116 C 
ATOM     82  C   UNL A   1      34.158  25.497  24.416  1.00  0.00     0.126 C 
ATOM     83  C   UNL A   1      34.190  23.328  22.425  1.00  0.00     0.022 C 
ATOM     84  C   UNL A   1      34.656  24.098  24.816  1.00  0.00     0.064 C 
ATOM     85  C   UNL A   1      35.210  23.383  23.563  1.00  0.00     0.013 C 
BRANCH  84  86
ATOM     86  C   UNL A   1      33.499  23.348  25.532  1.00  0.00     0.267 C 
BRANCH  86  87
ATOM     87  N   UNL A   1      33.749  22.044  26.146  1.00  0.00    -0.335 N 
ATOM     88  C   UNL A   1      35.147  21.799  26.492  1.00  0.00     0.262 C 
ATOM     89  C   UNL A   1      33.254  20.883  25.416  1.00  0.00     0.262 C 
ATOM     90  H   UNL A   1      33.194  22.135  26.998  1.00  0.00     0.348 HD
ATOM     91  C   UNL A   1      35.675  20.910  25.384  1.00  0.00     0.067 C 
ATOM     92  C   UNL A   1      34.472  20.073  24.989  1.00  0.00     0.067 C 
ENDBRANCH  86  87
ENDBRANCH  84  86
ENDBRANCH  76  80
BRANCH  77  93
ATOM     93  N   UNL A   1      27.947  27.494  23.501  1.00  0.00    -0.321 N 
ATOM     94  C   UNL A   1      27.253  28.650  23.221  1.00  0.00     0.265 C 
ATOM     95  H   UNL A   1      27.350  26.763  23.780  1.00  0.00     0.170 HD
ATOM     96  O   UNL A   1      26.032  28.610  23.401  1.00  0.00    -0.268 OA
BRANCH  94  97
ATOM     97  C   UNL A   1      27.891  29.796  22.626  1.00  0.00     0.092 A 
ATOM     98  C   UNL A   1      28.028  30.079  21.282  1.00  0.00     0.025 A 
ATOM     99  S   UNL A   1      28.377  31.114  23.602  1.00  0.00    -0.139 S 
ATOM    100  C   UNL A   1      28.698  31.316  21.061  1.00  0.00     0.012 A 
ATOM    101  C   UNL A   1      28.977  31.965  22.242  1.00  0.00     0.065 A 
ENDBRANCH  94  97
ENDBRANCH  77  93
ENDBRANCH  72  74
ENDBRANCH  71  72
ENDBRANCH   1  71
TORSDOF 16
ENDMDL
MODEL 3
REMARK VINA RESULT:     -13.0      1.359      1.904
REMARK SMILES O=C(OCCOC(=O)c1cc(NC(=O)c2cccs2)ccc1N1CCC[C@H](C[NH+]2CCCC2)C1)c1ccc(-c2c3nc(c(-c4c(F)c(F)c(F)c(F)c4F)c4ccc([nH]4)c(-c4c(F)c(F)c(F)c(F)c4F)c4nc(c(-c5c(F)c(F)c(F)c(F)c5F)c5ccc2[nH]5)C=C4)C=C3)cc1
REMARK SMILES IDX 5 1 4 2 3 3 2 4 1 5 35 6 36 7 97 8 37 9 96 10 38 11 39 12
REMARK SMILES IDX 40 13 90 14 41 15 95 16 89 17 91 18 42 19 94 20 88 21 87 22
REMARK SMILES IDX 43 24 75 25 55 26 74 27 56 28 59 29 73 30 92 31 57 32 58 33
REMARK SMILES IDX 72 35 93 36 60 37 44 38 45 39 53 40 46 41 47 42 51 43 54 44
REMARK SMILES IDX 48 45 49 46 52 47 50 48 76 49 77 50 85 51 78 52 79 53 83 54
REMARK SMILES IDX 86 55 80 56 81 57 84 58 82 59 61 60 62 61 70 62 63 63 64 64
REMARK SMILES IDX 68 65 71 66 65 67 66 68 69 69 67 70 6 71 7 72 8 73 9 74
REMARK SMILES IDX 10 75 22 76 11 77 21 78 20 79 23 80 24 81 34 82 25 83 27 84
REMARK SMILES IDX 26 85 28 86 29 87 30 88 33 89 31 91 32 92 12 93 13 94 14 96
REMARK SMILES IDX 15 97 16 98 19 99 17 100 18 101
REMARK H PARENT 91 23 59 34 29 90 12 95
REMARK Flexibility Score: inf
ROOT
ATOM      1  C   UNL A   1      36.976  22.906  23.356  1.00  0.00     0.275 C 
ENDROOT
BRANCH   1   2
ATOM      2  C   UNL A   1      37.083  21.662  24.244  1.00  0.00     0.275 C 
BRANCH   2   3
ATOM      3  O   UNL A   1      37.461  21.803  25.633  1.00  0.00    -0.458 OA
BRANCH   3   4
ATOM      4  C   UNL A   1      38.746  21.646  26.014  1.00  0.00     0.338 C 
ATOM      5  O   UNL A   1      39.370  20.607  25.835  1.00  0.00    -0.246 OA
BRANCH   4   6
ATOM      6  C   UNL A   1      39.384  22.890  26.540  1.00  0.00     0.060 A 
ATOM      7  C   UNL A   1      38.944  24.166  26.190  1.00  0.00     0.016 A 
ATOM      8  C   UNL A   1      40.414  22.768  27.484  1.00  0.00     0.016 A 
ATOM      9  C   UNL A   1      39.497  25.291  26.800  1.00  0.00     0.010 A 
ATOM     10  C   UNL A   1      40.969  23.892  28.106  1.00  0.00     0.010 A 
ATOM     11  C   UNL A   1      40.504  25.163  27.768  1.00  0.00    -0.014 A 
BRANCH  11  12
ATOM     12  C   UNL A   1      41.147  26.403  28.267  1.00  0.00     0.031 A 
ATOM     13  C   UNL A   1      42.521  26.690  27.792  1.00  0.00     0.074 A 
ATOM     14  C   UNL A   1      40.489  27.290  29.034  1.00  0.00     0.049 A 
ATOM     15  N   UNL A   1      43.209  27.790  27.895  1.00  0.00    -0.248 NA
ATOM     16  C   UNL A   1      43.228  25.573  27.146  1.00  0.00     0.031 C 
ATOM     17  C   UNL A   1      39.212  27.015  29.652  1.00  0.00     0.029 A 
ATOM     18  N   UNL A   1      40.741  28.588  29.393  1.00  0.00    -0.354 N 
ATOM     19  C   UNL A   1      44.446  27.492  27.355  1.00  0.00     0.074 A 
ATOM     20  C   UNL A   1      44.413  26.112  26.923  1.00  0.00     0.031 C 
ATOM     21  C   UNL A   1      38.696  28.134  30.175  1.00  0.00     0.029 A 
ATOM     22  C   UNL A   1      39.661  29.206  29.996  1.00  0.00     0.049 A 
ATOM     23  H   UNL A   1      41.604  29.036  29.238  1.00  0.00     0.167 HD
ATOM     24  C   UNL A   1      45.518  28.308  27.265  1.00  0.00     0.037 A 
ATOM     25  C   UNL A   1      39.477  30.496  30.337  1.00  0.00     0.037 A 
ATOM     26  C   UNL A   1      45.524  29.654  27.771  1.00  0.00     0.049 A 
ATOM     27  C   UNL A   1      40.651  31.416  30.131  1.00  0.00     0.074 A 
ATOM     28  C   UNL A   1      46.562  30.562  27.802  1.00  0.00     0.029 A 
ATOM     29  N   UNL A   1      44.425  30.275  28.357  1.00  0.00    -0.354 N 
ATOM     30  N   UNL A   1      41.812  31.146  29.583  1.00  0.00    -0.248 NA
ATOM     31  C   UNL A   1      40.521  32.790  30.626  1.00  0.00     0.031 C 
ATOM     32  C   UNL A   1      46.102  31.721  28.441  1.00  0.00     0.029 A 
ATOM     33  C   UNL A   1      44.761  31.556  28.758  1.00  0.00     0.049 A 
ATOM     34  H   UNL A   1      43.537  29.863  28.469  1.00  0.00     0.167 HD
ATOM     35  C   UNL A   1      42.565  32.301  29.695  1.00  0.00     0.074 A 
ATOM     36  C   UNL A   1      41.701  33.298  30.302  1.00  0.00     0.031 C 
ATOM     37  C   UNL A   1      43.864  32.510  29.366  1.00  0.00     0.037 A 
BRANCH  24  38
ATOM     38  C   UNL A   1      46.756  27.700  26.684  1.00  0.00     0.064 A 
ATOM     39  C   UNL A   1      46.985  27.679  25.299  1.00  0.00     0.173 A 
ATOM     40  C   UNL A   1      47.664  27.025  27.512  1.00  0.00     0.173 A 
ATOM     41  F   UNL A   1      46.117  28.269  24.462  1.00  0.00    -0.203 F 
ATOM     42  C   UNL A   1      48.052  26.966  24.762  1.00  0.00     0.198 A 
ATOM     43  C   UNL A   1      48.748  26.340  26.974  1.00  0.00     0.198 A 
ATOM     44  F   UNL A   1      47.476  26.996  28.840  1.00  0.00    -0.203 F 
ATOM     45  F   UNL A   1      48.199  26.883  23.432  1.00  0.00    -0.200 F 
ATOM     46  C   UNL A   1      48.933  26.298  25.600  1.00  0.00     0.200 A 
ATOM     47  F   UNL A   1      49.596  25.690  27.783  1.00  0.00    -0.200 F 
ATOM     48  F   UNL A   1      49.948  25.592  25.080  1.00  0.00    -0.200 F 
ENDBRANCH  24  38
BRANCH  25  49
ATOM     49  C   UNL A   1      38.174  30.994  30.874  1.00  0.00     0.064 A 
ATOM     50  C   UNL A   1      37.980  31.158  32.255  1.00  0.00     0.173 A 
ATOM     51  C   UNL A   1      37.093  31.318  30.038  1.00  0.00     0.173 A 
ATOM     52  F   UNL A   1      38.967  30.851  33.111  1.00  0.00    -0.203 F 
ATOM     53  C   UNL A   1      36.763  31.603  32.775  1.00  0.00     0.198 A 
ATOM     54  C   UNL A   1      35.889  31.799  30.556  1.00  0.00     0.198 A 
ATOM     55  F   UNL A   1      37.208  31.183  28.709  1.00  0.00    -0.203 F 
ATOM     56  F   UNL A   1      36.598  31.702  34.103  1.00  0.00    -0.200 F 
ATOM     57  C   UNL A   1      35.721  31.932  31.924  1.00  0.00     0.200 A 
ATOM     58  F   UNL A   1      34.890  32.129  29.726  1.00  0.00    -0.200 F 
ATOM     59  F   UNL A   1      34.556  32.369  32.424  1.00  0.00    -0.200 F 
ENDBRANCH  25  49
BRANCH  37  60
ATOM     60  C   UNL A   1      44.415  33.869  29.667  1.00  0.00     0.064 A 
ATOM     61  C   UNL A   1      45.076  34.137  30.874  1.00  0.00     0.173 A 
ATOM     62  C   UNL A   1      44.320  34.895  28.717  1.00  0.00     0.173 A 
ATOM     63  F   UNL A   1      45.173  33.189  31.818  1.00  0.00    -0.203 F 
ATOM     64  C   UNL A   1      45.607  35.398  31.129  1.00  0.00     0.198 A 
ATOM     65  C   UNL A   1      44.879  36.144  28.962  1.00  0.00     0.198 A 
ATOM     66  F   UNL A   1      43.699  34.679  27.548  1.00  0.00    -0.203 F 
ATOM     67  F   UNL A   1      46.195  35.649  32.305  1.00  0.00    -0.200 F 
ATOM     68  C   UNL A   1      45.515  36.396  30.169  1.00  0.00     0.200 A 
ATOM     69  F   UNL A   1      44.802  37.104  28.031  1.00  0.00    -0.200 F 
ATOM     70  F   UNL A   1      46.037  37.607  30.412  1.00  0.00    -0.200 F 
ENDBRANCH  37  60
ENDBRANCH  11  12
ENDBRANCH   4   6
ENDBRANCH   3   4
ENDBRANCH   2   3
ENDBRANCH   1   2
BRANCH   1  71
ATOM     71  O   UNL A   1      35.624  23.354  23.218  1.00  0.00    -0.458 OA
BRANCH  71  72
ATOM     72  C   UNL A   1      35.073  23.871  24.343  1.00  0.00     0.340 C 
ATOM     73  O   UNL A   1      35.517  24.800  25.014  1.00  0.00    -0.246 OA
BRANCH  72  74
ATOM     74  C   UNL A   1      33.798  23.213  24.663  1.00  0.00     0.085 A 
ATOM     75  C   UNL A   1      33.878  21.939  25.286  1.00  0.00     0.044 A 
ATOM     76  C   UNL A   1      32.571  23.778  24.297  1.00  0.00     0.051 A 
ATOM     77  C   UNL A   1      32.733  21.187  25.525  1.00  0.00     0.042 A 
ATOM     78  C   UNL A   1      31.452  22.948  24.432  1.00  0.00     0.029 A 
ATOM     79  C   UNL A   1      31.521  21.691  25.047  1.00  0.00     0.028 A 
BRANCH  76  80
ATOM     80  N   UNL A   1      32.388  25.049  23.793  1.00  0.00    -0.370 N 
ATOM     81  C   UNL A   1      32.886  25.429  22.473  1.00  0.00     0.116 C 
ATOM     82  C   UNL A   1      31.422  25.956  24.383  1.00  0.00     0.126 C 
ATOM     83  C   UNL A   1      33.570  26.793  22.552  1.00  0.00     0.022 C 
ATOM     84  C   UNL A   1      32.123  27.309  24.592  1.00  0.00     0.064 C 
ATOM     85  C   UNL A   1      32.659  27.814  23.234  1.00  0.00     0.013 C 
BRANCH  84  86
ATOM     86  C   UNL A   1      33.204  27.140  25.694  1.00  0.00     0.267 C 
BRANCH  86  87
ATOM     87  N   UNL A   1      33.102  27.906  26.936  1.00  0.00    -0.335 N 
ATOM     88  C   UNL A   1      31.837  28.618  27.103  1.00  0.00     0.262 C 
ATOM     89  C   UNL A   1      34.186  28.844  27.206  1.00  0.00     0.262 C 
ATOM     90  H   UNL A   1      33.166  27.152  27.621  1.00  0.00     0.348 HD
ATOM     91  C   UNL A   1      32.144  30.055  26.733  1.00  0.00     0.067 C 
ATOM     92  C   UNL A   1      33.583  30.242  27.177  1.00  0.00     0.067 C 
ENDBRANCH  86  87
ENDBRANCH  84  86
ENDBRANCH  76  80
BRANCH  77  93
ATOM     93  N   UNL A   1      32.659  19.938  26.168  1.00  0.00    -0.321 N 
ATOM     94  C   UNL A   1      32.614  18.620  25.767  1.00  0.00     0.265 C 
ATOM     95  H   UNL A   1      32.633  20.027  27.147  1.00  0.00     0.170 HD
ATOM     96  O   UNL A   1      32.505  17.782  26.667  1.00  0.00    -0.268 OA
BRANCH  94  97
ATOM     97  C   UNL A   1      32.817  18.234  24.395  1.00  0.00     0.092 A 
ATOM     98  C   UNL A   1      32.135  18.690  23.284  1.00  0.00     0.025 A 
ATOM     99  S   UNL A   1      34.164  17.274  23.961  1.00  0.00    -0.139 S 
ATOM    100  C   UNL A   1      32.621  18.103  22.081  1.00  0.00     0.012 A 
ATOM    101  C   UNL A   1      33.703  17.283  22.312  1.00  0.00     0.065 A 
ENDBRANCH  94  97
ENDBRANCH  77  93
ENDBRANCH  72  74
ENDBRANCH  71  72
ENDBRANCH   1  71
TORSDOF 16
ENDMDL
