MODEL 1
REMARK VINA RESULT:     -11.0      0.000      0.000
REMARK SMILES CO[C@H]1C[C@H](C(=O)OCCOC(=O)c2ccc(-c3c4nc(c(-c5c(F)c(F)c(F)c(F)c5F)c5ccc([nH]5)c(-c5c(F)c(F)c(F)c(F)c5F)c5nc(c(-c6c(F)c(F)c(F)c(F)c6F)c6ccc3[nH]6)C=C5)C=C4)cc2)N(C(=O)CCSCC(N)=O)C1
REMARK SMILES IDX 6 1 7 2 5 3 3 4 4 5 87 6 77 7 2 8 1 9 78 10 79 11 80 12
REMARK SMILES IDX 81 13 82 14 83 15 84 16 85 17 86 18 8 21 9 22 10 23 11 24
REMARK SMILES IDX 12 25 13 26 14 27 15 28 76 29 16 30 75 31 17 32 18 33 19 34
REMARK SMILES IDX 69 35 20 36 74 37 68 38 70 39 21 40 73 41 67 42 66 43 22 45
REMARK SMILES IDX 54 46 34 47 53 48 35 49 38 50 52 51 71 52 36 53 37 54 51 56
REMARK SMILES IDX 72 57 39 58 23 59 24 60 32 61 25 62 26 63 30 64 33 65 27 66
REMARK SMILES IDX 28 67 31 68 29 69 55 70 56 71 64 72 57 73 58 74 62 75 65 76
REMARK SMILES IDX 59 77 60 78 63 79 61 80 40 81 41 82 49 83 42 84 43 85 47 86
REMARK SMILES IDX 50 87 44 88 45 89 48 90 46 91
REMARK H PARENT 85 19 85 20 70 44 38 55
REMARK Flexibility Score: inf
ROOT
ATOM      1  C   UNL A   1      32.240  27.006  25.703  1.00  0.00     0.329 C 
ATOM      2  O   UNL A   1      33.090  26.388  26.334  1.00  0.00    -0.250 OA
ENDROOT
BRANCH   1   3
ATOM      3  C   UNL A   1      32.260  27.086  24.167  1.00  0.00     0.197 C 
ATOM      4  C   UNL A   1      32.990  24.998  23.272  1.00  0.00     0.140 C 
ATOM      5  C   UNL A   1      33.458  26.430  23.511  1.00  0.00     0.071 C 
ATOM      6  C   UNL A   1      31.498  25.178  22.943  1.00  0.00     0.152 C 
ATOM      7  N   UNL A   1      31.103  26.445  23.554  1.00  0.00    -0.326 N 
BRANCH   4   8
ATOM      8  O   UNL A   1      33.690  24.383  22.196  1.00  0.00    -0.380 OA
ATOM      9  C   UNL A   1      33.265  23.044  21.953  1.00  0.00     0.195 C 
ENDBRANCH   4   8
BRANCH   7  10
ATOM     10  C   UNL A   1      29.829  26.951  23.415  1.00  0.00     0.224 C 
ATOM     11  O   UNL A   1      28.842  26.230  23.579  1.00  0.00    -0.275 OA
BRANCH  10  12
ATOM     12  C   UNL A   1      29.645  28.428  23.094  1.00  0.00     0.111 C 
BRANCH  12  13
ATOM     13  C   UNL A   1      28.181  28.879  23.016  1.00  0.00     0.080 C 
BRANCH  13  14
ATOM     14  S   UNL A   1      27.789  30.675  22.984  1.00  0.00    -0.152 SA
BRANCH  14  15
ATOM     15  C   UNL A   1      28.020  31.017  21.229  1.00  0.00     0.169 C 
BRANCH  15  16
ATOM     16  C   UNL A   1      27.928  32.471  20.833  1.00  0.00     0.227 C 
ATOM     17  N   UNL A   1      27.972  32.658  19.473  1.00  0.00    -0.369 N 
ATOM     18  O   UNL A   1      27.737  33.415  21.587  1.00  0.00    -0.274 OA
ATOM     19  H   UNL A   1      28.127  31.890  18.875  1.00  0.00     0.159 HD
ATOM     20  H   UNL A   1      27.849  33.558  19.095  1.00  0.00     0.159 HD
ENDBRANCH  15  16
ENDBRANCH  14  15
ENDBRANCH  13  14
ENDBRANCH  12  13
ENDBRANCH  10  12
ENDBRANCH   7  10
ENDBRANCH   1   3
BRANCH   1  21
ATOM     21  O   UNL A   1      31.251  27.733  26.284  1.00  0.00    -0.461 OA
BRANCH  21  22
ATOM     22  C   UNL A   1      31.669  28.597  27.365  1.00  0.00     0.274 C 
BRANCH  22  23
ATOM     23  C   UNL A   1      31.832  30.055  26.914  1.00  0.00     0.275 C 
BRANCH  23  24
ATOM     24  O   UNL A   1      33.202  30.393  26.617  1.00  0.00    -0.458 OA
BRANCH  24  25
ATOM     25  C   UNL A   1      33.677  31.492  27.243  1.00  0.00     0.338 C 
ATOM     26  O   UNL A   1      33.063  32.523  27.494  1.00  0.00    -0.246 OA
BRANCH  25  27
ATOM     27  C   UNL A   1      34.997  31.209  27.823  1.00  0.00     0.060 A 
ATOM     28  C   UNL A   1      35.222  29.906  28.275  1.00  0.00     0.016 A 
ATOM     29  C   UNL A   1      35.971  32.187  27.995  1.00  0.00     0.016 A 
ATOM     30  C   UNL A   1      36.415  29.546  28.870  1.00  0.00     0.010 A 
ATOM     31  C   UNL A   1      37.168  31.840  28.631  1.00  0.00     0.010 A 
ATOM     32  C   UNL A   1      37.386  30.521  29.074  1.00  0.00    -0.014 A 
BRANCH  32  33
ATOM     33  C   UNL A   1      38.555  30.169  29.901  1.00  0.00     0.031 A 
ATOM     34  C   UNL A   1      39.584  29.251  29.319  1.00  0.00     0.074 A 
ATOM     35  C   UNL A   1      38.726  30.734  31.108  1.00  0.00     0.049 A 
ATOM     36  N   UNL A   1      40.620  28.699  29.888  1.00  0.00    -0.248 NA
ATOM     37  C   UNL A   1      39.424  28.915  27.894  1.00  0.00     0.031 C 
ATOM     38  C   UNL A   1      37.846  31.740  31.703  1.00  0.00     0.029 A 
ATOM     39  N   UNL A   1      39.699  30.535  32.050  1.00  0.00    -0.354 N 
ATOM     40  C   UNL A   1      41.216  27.922  28.905  1.00  0.00     0.074 A 
ATOM     41  C   UNL A   1      40.425  28.071  27.703  1.00  0.00     0.031 C 
ATOM     42  C   UNL A   1      38.309  32.054  32.923  1.00  0.00     0.029 A 
ATOM     43  C   UNL A   1      39.476  31.226  33.215  1.00  0.00     0.049 A 
ATOM     44  H   UNL A   1      40.481  29.954  31.907  1.00  0.00     0.167 HD
ATOM     45  C   UNL A   1      42.320  27.148  29.011  1.00  0.00     0.037 A 
ATOM     46  C   UNL A   1      40.117  31.149  34.395  1.00  0.00     0.037 A 
ATOM     47  C   UNL A   1      43.089  27.025  30.221  1.00  0.00     0.049 A 
ATOM     48  C   UNL A   1      41.277  30.195  34.521  1.00  0.00     0.074 A 
ATOM     49  C   UNL A   1      44.214  26.258  30.456  1.00  0.00     0.029 A 
ATOM     50  N   UNL A   1      42.804  27.696  31.403  1.00  0.00    -0.354 N 
ATOM     51  N   UNL A   1      41.815  29.419  33.610  1.00  0.00    -0.248 NA
ATOM     52  C   UNL A   1      41.913  30.098  35.841  1.00  0.00     0.031 C 
ATOM     53  C   UNL A   1      44.576  26.419  31.797  1.00  0.00     0.029 A 
ATOM     54  C   UNL A   1      43.716  27.339  32.381  1.00  0.00     0.049 A 
ATOM     55  H   UNL A   1      42.062  28.330  31.528  1.00  0.00     0.167 HD
ATOM     56  C   UNL A   1      42.867  28.764  34.236  1.00  0.00     0.074 A 
ATOM     57  C   UNL A   1      42.899  29.247  35.602  1.00  0.00     0.031 C 
ATOM     58  C   UNL A   1      43.730  27.848  33.730  1.00  0.00     0.037 A 
BRANCH  45  59
ATOM     59  C   UNL A   1      42.712  26.334  27.813  1.00  0.00     0.064 A 
ATOM     60  C   UNL A   1      43.666  26.780  26.887  1.00  0.00     0.173 A 
ATOM     61  C   UNL A   1      42.120  25.080  27.592  1.00  0.00     0.173 A 
ATOM     62  F   UNL A   1      44.245  27.981  27.038  1.00  0.00    -0.203 F 
ATOM     63  C   UNL A   1      43.992  26.014  25.770  1.00  0.00     0.198 A 
ATOM     64  C   UNL A   1      42.472  24.304  26.492  1.00  0.00     0.198 A 
ATOM     65  F   UNL A   1      41.198  24.609  28.443  1.00  0.00    -0.203 F 
ATOM     66  F   UNL A   1      44.865  26.485  24.867  1.00  0.00    -0.200 F 
ATOM     67  C   UNL A   1      43.400  24.775  25.577  1.00  0.00     0.200 A 
ATOM     68  F   UNL A   1      41.904  23.103  26.313  1.00  0.00    -0.200 F 
ATOM     69  F   UNL A   1      43.717  24.038  24.503  1.00  0.00    -0.200 F 
ENDBRANCH  45  59
BRANCH  46  70
ATOM     70  C   UNL A   1      39.646  31.950  35.556  1.00  0.00     0.064 A 
ATOM     71  C   UNL A   1      38.623  31.483  36.391  1.00  0.00     0.173 A 
ATOM     72  C   UNL A   1      40.197  33.210  35.844  1.00  0.00     0.173 A 
ATOM     73  F   UNL A   1      38.046  30.298  36.144  1.00  0.00    -0.203 F 
ATOM     74  C   UNL A   1      38.155  32.251  37.456  1.00  0.00     0.198 A 
ATOM     75  C   UNL A   1      39.751  33.962  36.928  1.00  0.00     0.198 A 
ATOM     76  F   UNL A   1      41.175  33.708  35.073  1.00  0.00    -0.203 F 
ATOM     77  F   UNL A   1      37.140  31.803  38.207  1.00  0.00    -0.200 F 
ATOM     78  C   UNL A   1      38.724  33.487  37.728  1.00  0.00     0.200 A 
ATOM     79  F   UNL A   1      40.312  35.150  37.193  1.00  0.00    -0.200 F 
ATOM     80  F   UNL A   1      38.274  34.223  38.753  1.00  0.00    -0.200 F 
ENDBRANCH  46  70
BRANCH  58  81
ATOM     81  C   UNL A   1      44.810  27.345  34.644  1.00  0.00     0.064 A 
ATOM     82  C   UNL A   1      46.035  28.012  34.779  1.00  0.00     0.173 A 
ATOM     83  C   UNL A   1      44.589  26.205  35.433  1.00  0.00     0.173 A 
ATOM     84  F   UNL A   1      46.299  29.098  34.036  1.00  0.00    -0.203 F 
ATOM     85  C   UNL A   1      47.012  27.541  35.651  1.00  0.00     0.198 A 
ATOM     86  C   UNL A   1      45.555  25.758  36.329  1.00  0.00     0.198 A 
ATOM     87  F   UNL A   1      43.430  25.536  35.348  1.00  0.00    -0.203 F 
ATOM     88  F   UNL A   1      48.196  28.165  35.728  1.00  0.00    -0.200 F 
ATOM     89  C   UNL A   1      46.767  26.421  36.432  1.00  0.00     0.200 A 
ATOM     90  F   UNL A   1      45.309  24.687  37.096  1.00  0.00    -0.200 F 
ATOM     91  F   UNL A   1      47.705  25.977  37.281  1.00  0.00    -0.200 F 
ENDBRANCH  58  81
ENDBRANCH  32  33
ENDBRANCH  25  27
ENDBRANCH  24  25
ENDBRANCH  23  24
ENDBRANCH  22  23
ENDBRANCH  21  22
ENDBRANCH   1  21
TORSDOF 18
ENDMDL
MODEL 2
REMARK VINA RESULT:     -10.9      2.487      4.333
REMARK SMILES CO[C@H]1C[C@H](C(=O)OCCOC(=O)c2ccc(-c3c4nc(c(-c5c(F)c(F)c(F)c(F)c5F)c5ccc([nH]5)c(-c5c(F)c(F)c(F)c(F)c5F)c5nc(c(-c6c(F)c(F)c(F)c(F)c6F)c6ccc3[nH]6)C=C5)C=C4)cc2)N(C(=O)CCSCC(N)=O)C1
REMARK SMILES IDX 6 1 7 2 5 3 3 4 4 5 87 6 77 7 2 8 1 9 78 10 79 11 80 12
REMARK SMILES IDX 81 13 82 14 83 15 84 16 85 17 86 18 8 21 9 22 10 23 11 24
REMARK SMILES IDX 12 25 13 26 14 27 15 28 76 29 16 30 75 31 17 32 18 33 19 34
REMARK SMILES IDX 69 35 20 36 74 37 68 38 70 39 21 40 73 41 67 42 66 43 22 45
REMARK SMILES IDX 54 46 34 47 53 48 35 49 38 50 52 51 71 52 36 53 37 54 51 56
REMARK SMILES IDX 72 57 39 58 23 59 24 60 32 61 25 62 26 63 30 64 33 65 27 66
REMARK SMILES IDX 28 67 31 68 29 69 55 70 56 71 64 72 57 73 58 74 62 75 65 76
REMARK SMILES IDX 59 77 60 78 63 79 61 80 40 81 41 82 49 83 42 84 43 85 47 86
REMARK SMILES IDX 50 87 44 88 45 89 48 90 46 91
REMARK H PARENT 85 19 85 20 70 44 38 55
REMARK Flexibility Score: inf
ROOT
ATOM      1  C   UNL A   1      32.383  26.748  26.161  1.00  0.00     0.329 C 
ATOM      2  O   UNL A   1      31.437  26.742  26.939  1.00  0.00    -0.250 OA
ENDROOT
BRANCH   1   3
ATOM      3  C   UNL A   1      32.736  25.527  25.294  1.00  0.00     0.197 C 
ATOM      4  C   UNL A   1      34.994  24.878  25.714  1.00  0.00     0.140 C 
ATOM      5  C   UNL A   1      34.116  25.565  24.672  1.00  0.00     0.071 C 
ATOM      6  C   UNL A   1      34.058  23.800  26.290  1.00  0.00     0.152 C 
ATOM      7  N   UNL A   1      32.699  24.275  26.042  1.00  0.00    -0.326 N 
BRANCH   4   8
ATOM      8  O   UNL A   1      36.157  24.302  25.133  1.00  0.00    -0.380 OA
ATOM      9  C   UNL A   1      36.987  23.649  26.091  1.00  0.00     0.195 C 
ENDBRANCH   4   8
BRANCH   7  10
ATOM     10  C   UNL A   1      31.595  23.526  26.386  1.00  0.00     0.224 C 
ATOM     11  O   UNL A   1      31.157  23.539  27.539  1.00  0.00    -0.275 OA
BRANCH  10  12
ATOM     12  C   UNL A   1      30.889  22.705  25.315  1.00  0.00     0.111 C 
BRANCH  12  13
ATOM     13  C   UNL A   1      31.657  22.599  23.992  1.00  0.00     0.080 C 
BRANCH  13  14
ATOM     14  S   UNL A   1      32.415  20.993  23.514  1.00  0.00    -0.152 SA
BRANCH  14  15
ATOM     15  C   UNL A   1      32.746  20.302  25.146  1.00  0.00     0.169 C 
BRANCH  15  16
ATOM     16  C   UNL A   1      32.523  18.814  25.278  1.00  0.00     0.227 C 
ATOM     17  N   UNL A   1      32.819  18.340  26.532  1.00  0.00    -0.369 N 
ATOM     18  O   UNL A   1      32.043  18.076  24.428  1.00  0.00    -0.274 OA
ATOM     19  H   UNL A   1      33.206  18.943  27.209  1.00  0.00     0.159 HD
ATOM     20  H   UNL A   1      32.644  17.397  26.756  1.00  0.00     0.159 HD
ENDBRANCH  15  16
ENDBRANCH  14  15
ENDBRANCH  13  14
ENDBRANCH  12  13
ENDBRANCH  10  12
ENDBRANCH   7  10
ENDBRANCH   1   3
BRANCH   1  21
ATOM     21  O   UNL A   1      33.249  27.786  26.035  1.00  0.00    -0.461 OA
BRANCH  21  22
ATOM     22  C   UNL A   1      32.861  28.807  25.087  1.00  0.00     0.274 C 
BRANCH  22  23
ATOM     23  C   UNL A   1      32.189  30.008  25.767  1.00  0.00     0.275 C 
BRANCH  23  24
ATOM     24  O   UNL A   1      32.685  30.237  27.101  1.00  0.00    -0.458 OA
BRANCH  24  25
ATOM     25  C   UNL A   1      33.339  31.405  27.283  1.00  0.00     0.338 C 
ATOM     26  O   UNL A   1      32.871  32.535  27.202  1.00  0.00    -0.246 OA
BRANCH  25  27
ATOM     27  C   UNL A   1      34.673  31.152  27.846  1.00  0.00     0.060 A 
ATOM     28  C   UNL A   1      34.922  29.864  28.327  1.00  0.00     0.016 A 
ATOM     29  C   UNL A   1      35.639  32.144  27.974  1.00  0.00     0.016 A 
ATOM     30  C   UNL A   1      36.129  29.532  28.908  1.00  0.00     0.010 A 
ATOM     31  C   UNL A   1      36.851  31.828  28.597  1.00  0.00     0.010 A 
ATOM     32  C   UNL A   1      37.093  30.524  29.069  1.00  0.00    -0.014 A 
BRANCH  32  33
ATOM     33  C   UNL A   1      38.280  30.206  29.883  1.00  0.00     0.031 A 
ATOM     34  C   UNL A   1      39.318  29.301  29.298  1.00  0.00     0.074 A 
ATOM     35  C   UNL A   1      38.458  30.790  31.079  1.00  0.00     0.049 A 
ATOM     36  N   UNL A   1      40.374  28.777  29.858  1.00  0.00    -0.248 NA
ATOM     37  C   UNL A   1      39.145  28.942  27.880  1.00  0.00     0.031 C 
ATOM     38  C   UNL A   1      37.567  31.787  31.674  1.00  0.00     0.029 A 
ATOM     39  N   UNL A   1      39.449  30.624  32.009  1.00  0.00    -0.354 N 
ATOM     40  C   UNL A   1      40.970  27.999  28.877  1.00  0.00     0.074 A 
ATOM     41  C   UNL A   1      40.159  28.115  27.685  1.00  0.00     0.031 C 
ATOM     42  C   UNL A   1      38.042  32.127  32.883  1.00  0.00     0.029 A 
ATOM     43  C   UNL A   1      39.229  31.326  33.168  1.00  0.00     0.049 A 
ATOM     44  H   UNL A   1      40.240  30.057  31.862  1.00  0.00     0.167 HD
ATOM     45  C   UNL A   1      42.091  27.247  28.976  1.00  0.00     0.037 A 
ATOM     46  C   UNL A   1      39.890  31.278  34.339  1.00  0.00     0.037 A 
ATOM     47  C   UNL A   1      42.881  27.157  30.176  1.00  0.00     0.049 A 
ATOM     48  C   UNL A   1      41.070  30.350  34.460  1.00  0.00     0.074 A 
ATOM     49  C   UNL A   1      44.024  26.415  30.405  1.00  0.00     0.029 A 
ATOM     50  N   UNL A   1      42.600  27.838  31.353  1.00  0.00    -0.354 N 
ATOM     51  N   UNL A   1      41.610  29.572  33.552  1.00  0.00    -0.248 NA
ATOM     52  C   UNL A   1      41.728  30.283  35.772  1.00  0.00     0.031 C 
ATOM     53  C   UNL A   1      44.403  26.602  31.737  1.00  0.00     0.029 A 
ATOM     54  C   UNL A   1      43.534  27.513  32.322  1.00  0.00     0.049 A 
ATOM     55  H   UNL A   1      41.847  28.459  31.481  1.00  0.00     0.167 HD
ATOM     56  C   UNL A   1      42.684  28.947  34.170  1.00  0.00     0.074 A 
ATOM     57  C   UNL A   1      42.727  29.448  35.529  1.00  0.00     0.031 C 
ATOM     58  C   UNL A   1      43.557  28.041  33.663  1.00  0.00     0.037 A 
BRANCH  45  59
ATOM     59  C   UNL A   1      42.482  26.426  27.784  1.00  0.00     0.064 A 
ATOM     60  C   UNL A   1      41.996  25.126  27.580  1.00  0.00     0.173 A 
ATOM     61  C   UNL A   1      43.361  26.954  26.825  1.00  0.00     0.173 A 
ATOM     62  F   UNL A   1      41.173  24.564  28.478  1.00  0.00    -0.203 F 
ATOM     63  C   UNL A   1      42.397  24.376  26.477  1.00  0.00     0.198 A 
ATOM     64  C   UNL A   1      43.734  26.214  25.707  1.00  0.00     0.198 A 
ATOM     65  F   UNL A   1      43.860  28.190  26.974  1.00  0.00    -0.203 F 
ATOM     66  F   UNL A   1      41.964  23.115  26.332  1.00  0.00    -0.200 F 
ATOM     67  C   UNL A   1      43.259  24.923  25.538  1.00  0.00     0.200 A 
ATOM     68  F   UNL A   1      44.561  26.748  24.798  1.00  0.00    -0.200 F 
ATOM     69  F   UNL A   1      43.642  24.201  24.476  1.00  0.00    -0.200 F 
ENDBRANCH  45  59
BRANCH  46  70
ATOM     70  C   UNL A   1      39.421  32.086  35.496  1.00  0.00     0.064 A 
ATOM     71  C   UNL A   1      39.911  33.379  35.722  1.00  0.00     0.173 A 
ATOM     72  C   UNL A   1      38.487  31.575  36.411  1.00  0.00     0.173 A 
ATOM     73  F   UNL A   1      40.824  33.904  34.892  1.00  0.00    -0.203 F 
ATOM     74  C   UNL A   1      39.499  34.123  36.828  1.00  0.00     0.198 A 
ATOM     75  C   UNL A   1      38.052  32.331  37.498  1.00  0.00     0.198 A 
ATOM     76  F   UNL A   1      37.990  30.341  36.246  1.00  0.00    -0.203 F 
ATOM     77  F   UNL A   1      40.023  35.336  37.048  1.00  0.00    -0.200 F 
ATOM     78  C   UNL A   1      38.566  33.600  37.711  1.00  0.00     0.200 A 
ATOM     79  F   UNL A   1      37.141  31.826  38.341  1.00  0.00    -0.200 F 
ATOM     80  F   UNL A   1      38.171  34.317  38.772  1.00  0.00    -0.200 F 
ENDBRANCH  46  70
BRANCH  58  81
ATOM     81  C   UNL A   1      44.661  27.572  34.568  1.00  0.00     0.064 A 
ATOM     82  C   UNL A   1      44.478  26.518  35.473  1.00  0.00     0.173 A 
ATOM     83  C   UNL A   1      45.934  28.159  34.488  1.00  0.00     0.173 A 
ATOM     84  F   UNL A   1      43.275  25.935  35.598  1.00  0.00    -0.203 F 
ATOM     85  C   UNL A   1      45.522  26.084  36.285  1.00  0.00     0.198 A 
ATOM     86  C   UNL A   1      46.984  27.699  35.275  1.00  0.00     0.198 A 
ATOM     87  F   UNL A   1      46.163  29.165  33.631  1.00  0.00    -0.203 F 
ATOM     88  F   UNL A   1      45.312  25.109  37.179  1.00  0.00    -0.200 F 
ATOM     89  C   UNL A   1      46.776  26.668  36.178  1.00  0.00     0.200 A 
ATOM     90  F   UNL A   1      48.199  28.251  35.157  1.00  0.00    -0.200 F 
ATOM     91  F   UNL A   1      47.784  26.239  36.951  1.00  0.00    -0.200 F 
ENDBRANCH  58  81
ENDBRANCH  32  33
ENDBRANCH  25  27
ENDBRANCH  24  25
ENDBRANCH  23  24
ENDBRANCH  22  23
ENDBRANCH  21  22
ENDBRANCH   1  21
TORSDOF 18
ENDMDL
MODEL 3
REMARK VINA RESULT:     -10.7      1.240      2.510
REMARK SMILES CO[C@H]1C[C@H](C(=O)OCCOC(=O)c2ccc(-c3c4nc(c(-c5c(F)c(F)c(F)c(F)c5F)c5ccc([nH]5)c(-c5c(F)c(F)c(F)c(F)c5F)c5nc(c(-c6c(F)c(F)c(F)c(F)c6F)c6ccc3[nH]6)C=C5)C=C4)cc2)N(C(=O)CCSCC(N)=O)C1
REMARK SMILES IDX 6 1 7 2 5 3 3 4 4 5 87 6 77 7 2 8 1 9 78 10 79 11 80 12
REMARK SMILES IDX 81 13 82 14 83 15 84 16 85 17 86 18 8 21 9 22 10 23 11 24
REMARK SMILES IDX 12 25 13 26 14 27 15 28 76 29 16 30 75 31 17 32 18 33 19 34
REMARK SMILES IDX 69 35 20 36 74 37 68 38 70 39 21 40 73 41 67 42 66 43 22 45
REMARK SMILES IDX 54 46 34 47 53 48 35 49 38 50 52 51 71 52 36 53 37 54 51 56
REMARK SMILES IDX 72 57 39 58 23 59 24 60 32 61 25 62 26 63 30 64 33 65 27 66
REMARK SMILES IDX 28 67 31 68 29 69 55 70 56 71 64 72 57 73 58 74 62 75 65 76
REMARK SMILES IDX 59 77 60 78 63 79 61 80 40 81 41 82 49 83 42 84 43 85 47 86
REMARK SMILES IDX 50 87 44 88 45 89 48 90 46 91
REMARK H PARENT 85 19 85 20 70 44 38 55
REMARK Flexibility Score: inf
ROOT
ATOM      1  C   UNL A   1      31.656  25.701  26.481  1.00  0.00     0.329 C 
ATOM      2  O   UNL A   1      31.041  24.724  26.890  1.00  0.00    -0.250 OA
ENDROOT
BRANCH   1   3
ATOM      3  C   UNL A   1      33.067  25.586  25.882  1.00  0.00     0.197 C 
ATOM      4  C   UNL A   1      33.336  23.435  24.884  1.00  0.00     0.140 C 
ATOM      5  C   UNL A   1      33.747  24.251  26.106  1.00  0.00     0.071 C 
ATOM      6  C   UNL A   1      33.294  24.492  23.767  1.00  0.00     0.152 C 
ATOM      7  N   UNL A   1      33.083  25.774  24.436  1.00  0.00    -0.326 N 
BRANCH   4   8
ATOM      8  O   UNL A   1      34.274  22.405  24.593  1.00  0.00    -0.380 OA
ATOM      9  C   UNL A   1      33.803  21.110  24.956  1.00  0.00     0.195 C 
ENDBRANCH   4   8
BRANCH   7  10
ATOM     10  C   UNL A   1      33.044  26.959  23.735  1.00  0.00     0.224 C 
ATOM     11  O   UNL A   1      33.824  27.876  24.002  1.00  0.00    -0.275 OA
BRANCH  10  12
ATOM     12  C   UNL A   1      32.049  27.119  22.594  1.00  0.00     0.111 C 
BRANCH  12  13
ATOM     13  C   UNL A   1      31.552  28.555  22.387  1.00  0.00     0.080 C 
BRANCH  13  14
ATOM     14  S   UNL A   1      30.280  29.245  23.522  1.00  0.00    -0.152 SA
BRANCH  14  15
ATOM     15  C   UNL A   1      28.869  28.214  23.078  1.00  0.00     0.169 C 
BRANCH  15  16
ATOM     16  C   UNL A   1      27.571  28.953  22.851  1.00  0.00     0.227 C 
ATOM     17  N   UNL A   1      27.638  29.840  21.804  1.00  0.00    -0.369 N 
ATOM     18  O   UNL A   1      26.516  28.756  23.437  1.00  0.00    -0.274 OA
ATOM     19  H   UNL A   1      28.494  29.990  21.340  1.00  0.00     0.159 HD
ATOM     20  H   UNL A   1      26.831  30.325  21.518  1.00  0.00     0.159 HD
ENDBRANCH  15  16
ENDBRANCH  14  15
ENDBRANCH  13  14
ENDBRANCH  12  13
ENDBRANCH  10  12
ENDBRANCH   7  10
ENDBRANCH   1   3
BRANCH   1  21
ATOM     21  O   UNL A   1      31.195  26.975  26.577  1.00  0.00    -0.461 OA
BRANCH  21  22
ATOM     22  C   UNL A   1      32.070  27.901  27.260  1.00  0.00     0.274 C 
BRANCH  22  23
ATOM     23  C   UNL A   1      31.814  29.357  26.848  1.00  0.00     0.275 C 
BRANCH  23  24
ATOM     24  O   UNL A   1      32.998  30.008  26.347  1.00  0.00    -0.458 OA
BRANCH  24  25
ATOM     25  C   UNL A   1      33.359  31.135  26.996  1.00  0.00     0.338 C 
ATOM     26  O   UNL A   1      32.650  32.105  27.245  1.00  0.00    -0.246 OA
BRANCH  25  27
ATOM     27  C   UNL A   1      34.686  30.962  27.605  1.00  0.00     0.060 A 
ATOM     28  C   UNL A   1      35.075  29.655  27.910  1.00  0.00     0.016 A 
ATOM     29  C   UNL A   1      35.508  32.033  27.939  1.00  0.00     0.016 A 
ATOM     30  C   UNL A   1      36.286  29.388  28.516  1.00  0.00     0.010 A 
ATOM     31  C   UNL A   1      36.720  31.774  28.590  1.00  0.00     0.010 A 
ATOM     32  C   UNL A   1      37.105  30.452  28.883  1.00  0.00    -0.014 A 
BRANCH  32  33
ATOM     33  C   UNL A   1      38.283  30.160  29.720  1.00  0.00     0.031 A 
ATOM     34  C   UNL A   1      39.350  29.275  29.157  1.00  0.00     0.074 A 
ATOM     35  C   UNL A   1      38.426  30.750  30.918  1.00  0.00     0.049 A 
ATOM     36  N   UNL A   1      40.406  28.773  29.738  1.00  0.00    -0.248 NA
ATOM     37  C   UNL A   1      39.211  28.910  27.736  1.00  0.00     0.031 C 
ATOM     38  C   UNL A   1      37.504  31.729  31.494  1.00  0.00     0.029 A 
ATOM     39  N   UNL A   1      39.402  30.605  31.867  1.00  0.00    -0.354 N 
ATOM     40  C   UNL A   1      41.036  28.006  28.770  1.00  0.00     0.074 A 
ATOM     41  C   UNL A   1      40.245  28.104  27.562  1.00  0.00     0.031 C 
ATOM     42  C   UNL A   1      37.948  32.081  32.711  1.00  0.00     0.029 A 
ATOM     43  C   UNL A   1      39.146  31.304  33.020  1.00  0.00     0.049 A 
ATOM     44  H   UNL A   1      40.207  30.054  31.736  1.00  0.00     0.167 HD
ATOM     45  C   UNL A   1      42.169  27.278  28.892  1.00  0.00     0.037 A 
ATOM     46  C   UNL A   1      39.785  31.272  34.204  1.00  0.00     0.037 A 
ATOM     47  C   UNL A   1      42.938  27.206  30.106  1.00  0.00     0.049 A 
ATOM     48  C   UNL A   1      40.981  30.368  34.349  1.00  0.00     0.074 A 
ATOM     49  C   UNL A   1      44.092  26.488  30.358  1.00  0.00     0.029 A 
ATOM     50  N   UNL A   1      42.621  27.882  31.277  1.00  0.00    -0.354 N 
ATOM     51  N   UNL A   1      41.554  29.600  33.453  1.00  0.00    -0.248 NA
ATOM     52  C   UNL A   1      41.615  30.317  35.673  1.00  0.00     0.031 C 
ATOM     53  C   UNL A   1      44.441  26.685  31.698  1.00  0.00     0.029 A 
ATOM     54  C   UNL A   1      43.542  27.578  32.264  1.00  0.00     0.049 A 
ATOM     55  H   UNL A   1      41.853  28.488  31.389  1.00  0.00     0.167 HD
ATOM     56  C   UNL A   1      42.629  28.997  34.093  1.00  0.00     0.074 A 
ATOM     57  C   UNL A   1      42.636  29.502  35.452  1.00  0.00     0.031 C 
ATOM     58  C   UNL A   1      43.530  28.109  33.605  1.00  0.00     0.037 A 
BRANCH  45  59
ATOM     59  C   UNL A   1      42.599  26.462  27.709  1.00  0.00     0.064 A 
ATOM     60  C   UNL A   1      42.086  25.182  27.457  1.00  0.00     0.173 A 
ATOM     61  C   UNL A   1      43.546  26.978  26.808  1.00  0.00     0.173 A 
ATOM     62  F   UNL A   1      41.197  24.633  28.299  1.00  0.00    -0.203 F 
ATOM     63  C   UNL A   1      42.524  24.437  26.364  1.00  0.00     0.198 A 
ATOM     64  C   UNL A   1      43.956  26.243  25.700  1.00  0.00     0.198 A 
ATOM     65  F   UNL A   1      44.074  28.194  27.005  1.00  0.00    -0.203 F 
ATOM     66  F   UNL A   1      42.061  23.193  26.175  1.00  0.00    -0.200 F 
ATOM     67  C   UNL A   1      43.452  24.970  25.483  1.00  0.00     0.200 A 
ATOM     68  F   UNL A   1      44.848  26.765  24.846  1.00  0.00    -0.200 F 
ATOM     69  F   UNL A   1      43.870  24.253  24.431  1.00  0.00    -0.200 F 
ENDBRANCH  45  59
BRANCH  46  70
ATOM     70  C   UNL A   1      39.277  32.072  35.350  1.00  0.00     0.064 A 
ATOM     71  C   UNL A   1      39.630  33.419  35.505  1.00  0.00     0.173 A 
ATOM     72  C   UNL A   1      38.444  31.501  36.326  1.00  0.00     0.173 A 
ATOM     73  F   UNL A   1      40.445  34.005  34.615  1.00  0.00    -0.203 F 
ATOM     74  C   UNL A   1      39.185  34.159  36.600  1.00  0.00     0.198 A 
ATOM     75  C   UNL A   1      37.974  32.250  37.402  1.00  0.00     0.198 A 
ATOM     76  F   UNL A   1      38.081  30.214  36.229  1.00  0.00    -0.203 F 
ATOM     77  F   UNL A   1      39.580  35.430  36.751  1.00  0.00    -0.200 F 
ATOM     78  C   UNL A   1      38.353  33.576  37.544  1.00  0.00     0.200 A 
ATOM     79  F   UNL A   1      37.160  31.685  38.304  1.00  0.00    -0.200 F 
ATOM     80  F   UNL A   1      37.925  34.289  38.594  1.00  0.00    -0.200 F 
ENDBRANCH  46  70
BRANCH  58  81
ATOM     81  C   UNL A   1      44.625  27.664  34.531  1.00  0.00     0.064 A 
ATOM     82  C   UNL A   1      44.492  26.529  35.343  1.00  0.00     0.173 A 
ATOM     83  C   UNL A   1      45.843  28.360  34.565  1.00  0.00     0.173 A 
ATOM     84  F   UNL A   1      43.341  25.839  35.357  1.00  0.00    -0.203 F 
ATOM     85  C   UNL A   1      45.530  26.122  36.176  1.00  0.00     0.198 A 
ATOM     86  C   UNL A   1      46.891  27.929  35.373  1.00  0.00     0.198 A 
ATOM     87  F   UNL A   1      46.024  29.447  33.801  1.00  0.00    -0.203 F 
ATOM     88  F   UNL A   1      45.363  25.064  36.981  1.00  0.00    -0.200 F 
ATOM     89  C   UNL A   1      46.731  26.816  36.183  1.00  0.00     0.200 A 
ATOM     90  F   UNL A   1      48.057  28.589  35.364  1.00  0.00    -0.200 F 
ATOM     91  F   UNL A   1      47.734  26.413  36.976  1.00  0.00    -0.200 F 
ENDBRANCH  58  81
ENDBRANCH  32  33
ENDBRANCH  25  27
ENDBRANCH  24  25
ENDBRANCH  23  24
ENDBRANCH  22  23
ENDBRANCH  21  22
ENDBRANCH   1  21
TORSDOF 18
ENDMDL
