MODEL 1
REMARK VINA RESULT:     -13.9      0.000      0.000
REMARK SMILES O=C(N[C@]1(C(=O)OCCOC(=O)c2ccc(-c3c4nc(c(-c5c(F)c(F)c(F)c(F)c5F)c5ccc([nH]5)c(-c5c(F)c(F)c(F)c(F)c5F)c5nc(c(-c6c(F)c(F)c(F)c(F)c6F)c6ccc3[nH]6)C=C5)C=C4)cc2)CC[C@H](c2ccccc2)CC1)OCC1c2ccccc2-c2ccccc21
REMARK SMILES IDX 8 1 7 2 5 3 6 4 4 5 76 6 86 7 77 8 85 9 78 10 3 11 1 12 2 13
REMARK SMILES IDX 87 15 88 16 89 17 90 18 101 19 91 20 95 21 96 22 100 23
REMARK SMILES IDX 92 24 94 25 97 26 99 27 93 28 98 29 79 30 80 31 84 32 81 33
REMARK SMILES IDX 83 34 82 35 9 36 10 37 11 38 12 39 13 40 14 41 75 42 15 43
REMARK SMILES IDX 74 44 16 45 17 46 18 47 68 48 19 49 73 50 67 51 69 52 20 53
REMARK SMILES IDX 72 54 66 55 65 56 21 58 53 59 33 60 52 61 34 62 37 63 51 64
REMARK SMILES IDX 70 65 35 66 36 67 50 69 71 70 38 71 22 72 23 73 31 74 24 75
REMARK SMILES IDX 25 76 29 77 32 78 26 79 27 80 30 81 28 82 54 83 55 84 63 85
REMARK SMILES IDX 56 86 57 87 61 88 64 89 58 90 59 91 62 92 60 93 39 94 40 95
REMARK SMILES IDX 48 96 41 97 42 98 46 99 49 100 43 101 44 102 47 103 45 104
REMARK H PARENT 3 14 69 57 37 68
REMARK Flexibility Score: inf
ROOT
ATOM      1  C   UNL A   1      35.505  20.775  24.827  1.00  0.00     0.274 C 
ENDROOT
BRANCH   1   2
ATOM      2  O   UNL A   1      34.441  20.413  25.758  1.00  0.00    -0.460 OA
BRANCH   2   3
ATOM      3  C   UNL A   1      34.000  21.446  26.511  1.00  0.00     0.332 C 
ATOM      4  O   UNL A   1      34.424  21.584  27.658  1.00  0.00    -0.249 OA
BRANCH   3   5
ATOM      5  C   UNL A   1      32.990  22.502  25.852  1.00  0.00     0.141 C 
ATOM      6  C   UNL A   1      32.236  22.387  24.493  1.00  0.00     0.041 C 
ATOM      7  C   UNL A   1      33.732  23.847  25.823  1.00  0.00     0.041 C 
ATOM      8  C   UNL A   1      32.962  22.636  23.189  1.00  0.00     0.011 C 
ATOM      9  C   UNL A   1      34.648  23.933  24.586  1.00  0.00     0.011 C 
ATOM     10  C   UNL A   1      33.928  23.802  23.227  1.00  0.00     0.019 C 
BRANCH   5  11
ATOM     11  N   UNL A   1      31.883  22.433  26.860  1.00  0.00    -0.305 N 
ATOM     12  O   UNL A   1      29.782  23.229  27.372  1.00  0.00    -0.225 OA
ATOM     13  C   UNL A   1      30.850  23.369  26.810  1.00  0.00     0.408 C 
ATOM     14  H   UNL A   1      31.885  21.733  27.552  1.00  0.00     0.168 HD
BRANCH  13  15
ATOM     15  O   UNL A   1      31.180  24.405  25.980  1.00  0.00    -0.449 OA
BRANCH  15  16
ATOM     16  C   UNL A   1      30.445  25.628  26.064  1.00  0.00     0.248 C 
BRANCH  16  17
ATOM     17  C   UNL A   1      30.847  26.620  24.936  1.00  0.00     0.088 C 
ATOM     18  C   UNL A   1      29.852  27.585  24.253  1.00  0.00    -0.029 A 
ATOM     19  C   UNL A   1      31.810  27.643  25.544  1.00  0.00    -0.029 A 
ATOM     20  C   UNL A   1      28.644  27.380  23.638  1.00  0.00     0.005 A 
ATOM     21  C   UNL A   1      30.359  28.890  24.231  1.00  0.00    -0.014 A 
ATOM     22  C   UNL A   1      31.410  28.950  25.204  1.00  0.00    -0.014 A 
ATOM     23  C   UNL A   1      32.768  27.412  26.514  1.00  0.00     0.005 A 
ATOM     24  C   UNL A   1      28.051  28.373  22.838  1.00  0.00     0.000 A 
ATOM     25  C   UNL A   1      29.829  29.884  23.409  1.00  0.00     0.009 A 
ATOM     26  C   UNL A   1      31.797  30.023  25.981  1.00  0.00     0.009 A 
ATOM     27  C   UNL A   1      33.165  28.492  27.293  1.00  0.00     0.000 A 
ATOM     28  C   UNL A   1      28.686  29.602  22.666  1.00  0.00     0.001 A 
ATOM     29  C   UNL A   1      32.648  29.776  27.058  1.00  0.00     0.001 A 
ENDBRANCH  16  17
ENDBRANCH  15  16
ENDBRANCH  13  15
ENDBRANCH   5  11
BRANCH  10  30
ATOM     30  C   UNL A   1      33.332  25.103  22.734  1.00  0.00    -0.045 A 
ATOM     31  C   UNL A   1      32.170  25.192  21.952  1.00  0.00     0.004 A 
ATOM     32  C   UNL A   1      34.044  26.278  23.007  1.00  0.00     0.004 A 
ATOM     33  C   UNL A   1      31.739  26.418  21.453  1.00  0.00     0.000 A 
ATOM     34  C   UNL A   1      33.599  27.506  22.533  1.00  0.00     0.000 A 
ATOM     35  C   UNL A   1      32.450  27.575  21.752  1.00  0.00     0.000 A 
ENDBRANCH  10  30
ENDBRANCH   3   5
ENDBRANCH   2   3
ENDBRANCH   1   2
BRANCH   1  36
ATOM     36  C   UNL A   1      36.950  20.379  25.209  1.00  0.00     0.275 C 
BRANCH  36  37
ATOM     37  O   UNL A   1      37.729  21.467  25.744  1.00  0.00    -0.458 OA
BRANCH  37  38
ATOM     38  C   UNL A   1      38.986  21.142  26.136  1.00  0.00     0.338 C 
ATOM     39  O   UNL A   1      39.548  20.073  25.948  1.00  0.00    -0.246 OA
BRANCH  38  40
ATOM     40  C   UNL A   1      39.706  22.350  26.607  1.00  0.00     0.060 A 
ATOM     41  C   UNL A   1      39.280  23.573  26.071  1.00  0.00     0.016 A 
ATOM     42  C   UNL A   1      40.721  22.325  27.566  1.00  0.00     0.016 A 
ATOM     43  C   UNL A   1      39.819  24.774  26.520  1.00  0.00     0.010 A 
ATOM     44  C   UNL A   1      41.314  23.531  27.970  1.00  0.00     0.010 A 
ATOM     45  C   UNL A   1      40.865  24.758  27.446  1.00  0.00    -0.014 A 
BRANCH  45  46
ATOM     46  C   UNL A   1      41.622  26.012  27.671  1.00  0.00     0.031 A 
ATOM     47  C   UNL A   1      40.943  27.104  28.449  1.00  0.00     0.074 A 
ATOM     48  C   UNL A   1      42.895  26.161  27.266  1.00  0.00     0.049 A 
ATOM     49  N   UNL A   1      41.367  28.302  28.755  1.00  0.00    -0.248 NA
ATOM     50  C   UNL A   1      39.601  26.789  28.968  1.00  0.00     0.031 C 
ATOM     51  C   UNL A   1      43.703  25.137  26.612  1.00  0.00     0.029 A 
ATOM     52  N   UNL A   1      43.731  27.249  27.351  1.00  0.00    -0.354 N 
ATOM     53  C   UNL A   1      40.348  28.880  29.499  1.00  0.00     0.074 A 
ATOM     54  C   UNL A   1      39.280  27.910  29.593  1.00  0.00     0.031 C 
ATOM     55  C   UNL A   1      44.914  25.653  26.329  1.00  0.00     0.029 A 
ATOM     56  C   UNL A   1      44.951  27.052  26.751  1.00  0.00     0.049 A 
ATOM     57  H   UNL A   1      43.481  28.088  27.800  1.00  0.00     0.167 HD
ATOM     58  C   UNL A   1      40.303  30.116  30.048  1.00  0.00     0.037 A 
ATOM     59  C   UNL A   1      45.963  27.920  26.544  1.00  0.00     0.037 A 
ATOM     60  C   UNL A   1      41.351  31.091  29.922  1.00  0.00     0.049 A 
ATOM     61  C   UNL A   1      45.828  29.339  27.046  1.00  0.00     0.074 A 
ATOM     62  C   UNL A   1      41.391  32.383  30.415  1.00  0.00     0.029 A 
ATOM     63  N   UNL A   1      42.539  30.885  29.236  1.00  0.00    -0.354 N 
ATOM     64  N   UNL A   1      44.863  29.888  27.743  1.00  0.00    -0.248 NA
ATOM     65  C   UNL A   1      46.928  30.263  26.726  1.00  0.00     0.031 C 
ATOM     66  C   UNL A   1      42.573  32.982  29.968  1.00  0.00     0.029 A 
ATOM     67  C   UNL A   1      43.305  32.039  29.262  1.00  0.00     0.049 A 
ATOM     68  H   UNL A   1      42.800  30.044  28.796  1.00  0.00     0.167 HD
ATOM     69  C   UNL A   1      45.255  31.202  27.979  1.00  0.00     0.074 A 
ATOM     70  C   UNL A   1      46.552  31.366  27.358  1.00  0.00     0.031 C 
ATOM     71  C   UNL A   1      44.602  32.182  28.651  1.00  0.00     0.037 A 
BRANCH  58  72
ATOM     72  C   UNL A   1      39.045  30.500  30.768  1.00  0.00     0.064 A 
ATOM     73  C   UNL A   1      37.940  31.041  30.094  1.00  0.00     0.173 A 
ATOM     74  C   UNL A   1      38.946  30.321  32.156  1.00  0.00     0.173 A 
ATOM     75  F   UNL A   1      37.992  31.256  28.771  1.00  0.00    -0.203 F 
ATOM     76  C   UNL A   1      36.793  31.415  30.790  1.00  0.00     0.198 A 
ATOM     77  C   UNL A   1      37.786  30.664  32.842  1.00  0.00     0.198 A 
ATOM     78  F   UNL A   1      39.977  29.812  32.847  1.00  0.00    -0.203 F 
ATOM     79  F   UNL A   1      35.769  31.982  30.136  1.00  0.00    -0.200 F 
ATOM     80  C   UNL A   1      36.714  31.219  32.161  1.00  0.00     0.200 A 
ATOM     81  F   UNL A   1      37.709  30.465  34.166  1.00  0.00    -0.200 F 
ATOM     82  F   UNL A   1      35.608  31.575  32.828  1.00  0.00    -0.200 F 
ENDBRANCH  58  72
BRANCH  59  83
ATOM     83  C   UNL A   1      47.180  27.499  25.796  1.00  0.00     0.064 A 
ATOM     84  C   UNL A   1      48.314  27.016  26.465  1.00  0.00     0.173 A 
ATOM     85  C   UNL A   1      47.260  27.636  24.401  1.00  0.00     0.173 A 
ATOM     86  F   UNL A   1      48.306  26.900  27.800  1.00  0.00    -0.203 F 
ATOM     87  C   UNL A   1      49.487  26.713  25.772  1.00  0.00     0.198 A 
ATOM     88  C   UNL A   1      48.420  27.301  23.707  1.00  0.00     0.198 A 
ATOM     89  F   UNL A   1      46.212  28.111  23.711  1.00  0.00    -0.203 F 
ATOM     90  F   UNL A   1      50.576  26.318  26.445  1.00  0.00    -0.200 F 
ATOM     91  C   UNL A   1      49.537  26.851  24.393  1.00  0.00     0.200 A 
ATOM     92  F   UNL A   1      48.463  27.434  22.374  1.00  0.00    -0.200 F 
ATOM     93  F   UNL A   1      50.666  26.569  23.729  1.00  0.00    -0.200 F 
ENDBRANCH  59  83
BRANCH  71  94
ATOM     94  C   UNL A   1      45.297  33.507  28.804  1.00  0.00     0.064 A 
ATOM     95  C   UNL A   1      46.188  33.762  29.856  1.00  0.00     0.173 A 
ATOM     96  C   UNL A   1      45.110  34.515  27.844  1.00  0.00     0.173 A 
ATOM     97  F   UNL A   1      46.395  32.837  30.806  1.00  0.00    -0.203 F 
ATOM     98  C   UNL A   1      46.844  34.986  29.957  1.00  0.00     0.198 A 
ATOM     99  C   UNL A   1      45.796  35.723  27.928  1.00  0.00     0.198 A 
ATOM    100  F   UNL A   1      44.277  34.321  26.810  1.00  0.00    -0.203 F 
ATOM    101  F   UNL A   1      47.653  35.226  30.999  1.00  0.00    -0.200 F 
ATOM    102  C   UNL A   1      46.656  35.962  28.989  1.00  0.00     0.200 A 
ATOM    103  F   UNL A   1      45.628  36.655  26.979  1.00  0.00    -0.200 F 
ATOM    104  F   UNL A   1      47.300  37.133  29.080  1.00  0.00    -0.200 F 
ENDBRANCH  71  94
ENDBRANCH  45  46
ENDBRANCH  38  40
ENDBRANCH  37  38
ENDBRANCH  36  37
ENDBRANCH   1  36
TORSDOF 16
ENDMDL
MODEL 2
REMARK VINA RESULT:     -13.8      4.247      9.752
REMARK SMILES O=C(N[C@]1(C(=O)OCCOC(=O)c2ccc(-c3c4nc(c(-c5c(F)c(F)c(F)c(F)c5F)c5ccc([nH]5)c(-c5c(F)c(F)c(F)c(F)c5F)c5nc(c(-c6c(F)c(F)c(F)c(F)c6F)c6ccc3[nH]6)C=C5)C=C4)cc2)CC[C@H](c2ccccc2)CC1)OCC1c2ccccc2-c2ccccc21
REMARK SMILES IDX 8 1 7 2 5 3 6 4 4 5 76 6 86 7 77 8 85 9 78 10 3 11 1 12 2 13
REMARK SMILES IDX 87 15 88 16 89 17 90 18 101 19 91 20 95 21 96 22 100 23
REMARK SMILES IDX 92 24 94 25 97 26 99 27 93 28 98 29 79 30 80 31 84 32 81 33
REMARK SMILES IDX 83 34 82 35 9 36 10 37 11 38 12 39 13 40 14 41 75 42 15 43
REMARK SMILES IDX 74 44 16 45 17 46 18 47 68 48 19 49 73 50 67 51 69 52 20 53
REMARK SMILES IDX 72 54 66 55 65 56 21 58 53 59 33 60 52 61 34 62 37 63 51 64
REMARK SMILES IDX 70 65 35 66 36 67 50 69 71 70 38 71 22 72 23 73 31 74 24 75
REMARK SMILES IDX 25 76 29 77 32 78 26 79 27 80 30 81 28 82 54 83 55 84 63 85
REMARK SMILES IDX 56 86 57 87 61 88 64 89 58 90 59 91 62 92 60 93 39 94 40 95
REMARK SMILES IDX 48 96 41 97 42 98 46 99 49 100 43 101 44 102 47 103 45 104
REMARK H PARENT 3 14 69 57 37 68
REMARK Flexibility Score: inf
ROOT
ATOM      1  C   UNL A   1      31.157  29.597  24.974  1.00  0.00     0.274 C 
ENDROOT
BRANCH   1   2
ATOM      2  O   UNL A   1      31.502  29.606  23.556  1.00  0.00    -0.460 OA
BRANCH   2   3
ATOM      3  C   UNL A   1      32.555  28.817  23.245  1.00  0.00     0.332 C 
ATOM      4  O   UNL A   1      33.656  29.328  23.039  1.00  0.00    -0.249 OA
BRANCH   3   5
ATOM      5  C   UNL A   1      32.346  27.227  23.228  1.00  0.00     0.141 C 
ATOM      6  C   UNL A   1      31.014  26.434  23.381  1.00  0.00     0.041 C 
ATOM      7  C   UNL A   1      33.315  26.655  24.276  1.00  0.00     0.041 C 
ATOM      8  C   UNL A   1      30.378  26.258  24.744  1.00  0.00     0.011 C 
ATOM      9  C   UNL A   1      32.695  26.733  25.684  1.00  0.00     0.011 C 
ATOM     10  C   UNL A   1      31.363  25.973  25.858  1.00  0.00     0.019 C 
BRANCH   5  11
ATOM     11  N   UNL A   1      32.743  26.950  21.809  1.00  0.00    -0.305 N 
ATOM     12  O   UNL A   1      32.904  25.298  20.212  1.00  0.00    -0.225 OA
ATOM     13  C   UNL A   1      32.881  25.631  21.380  1.00  0.00     0.408 C 
ATOM     14  H   UNL A   1      32.906  27.694  21.186  1.00  0.00     0.168 HD
BRANCH  13  15
ATOM     15  O   UNL A   1      32.898  24.777  22.449  1.00  0.00    -0.449 OA
BRANCH  15  16
ATOM     16  C   UNL A   1      33.673  23.579  22.373  1.00  0.00     0.248 C 
BRANCH  16  17
ATOM     17  C   UNL A   1      33.475  22.684  23.629  1.00  0.00     0.088 C 
ATOM     18  C   UNL A   1      33.251  21.157  23.563  1.00  0.00    -0.029 A 
ATOM     19  C   UNL A   1      34.782  22.711  24.424  1.00  0.00    -0.029 A 
ATOM     20  C   UNL A   1      32.349  20.386  22.876  1.00  0.00     0.005 A 
ATOM     21  C   UNL A   1      34.118  20.487  24.436  1.00  0.00    -0.014 A 
ATOM     22  C   UNL A   1      35.173  21.401  24.763  1.00  0.00    -0.014 A 
ATOM     23  C   UNL A   1      35.643  23.782  24.577  1.00  0.00     0.005 A 
ATOM     24  C   UNL A   1      32.153  19.030  23.192  1.00  0.00     0.000 A 
ATOM     25  C   UNL A   1      33.920  19.160  24.813  1.00  0.00     0.009 A 
ATOM     26  C   UNL A   1      36.494  21.117  25.043  1.00  0.00     0.009 A 
ATOM     27  C   UNL A   1      36.973  23.499  24.866  1.00  0.00     0.000 A 
ATOM     28  C   UNL A   1      32.892  18.437  24.215  1.00  0.00     0.001 A 
ATOM     29  C   UNL A   1      37.402  22.176  25.050  1.00  0.00     0.001 A 
ENDBRANCH  16  17
ENDBRANCH  15  16
ENDBRANCH  13  15
ENDBRANCH   5  11
BRANCH  10  30
ATOM     30  C   UNL A   1      31.546  24.498  26.146  1.00  0.00    -0.045 A 
ATOM     31  C   UNL A   1      30.654  23.497  25.731  1.00  0.00     0.004 A 
ATOM     32  C   UNL A   1      32.631  24.132  26.953  1.00  0.00     0.004 A 
ATOM     33  C   UNL A   1      30.839  22.173  26.119  1.00  0.00     0.000 A 
ATOM     34  C   UNL A   1      32.831  22.806  27.318  1.00  0.00     0.000 A 
ATOM     35  C   UNL A   1      31.932  21.828  26.905  1.00  0.00     0.000 A 
ENDBRANCH  10  30
ENDBRANCH   3   5
ENDBRANCH   2   3
ENDBRANCH   1   2
BRANCH   1  36
ATOM     36  C   UNL A   1      31.566  30.829  25.814  1.00  0.00     0.275 C 
BRANCH  36  37
ATOM     37  O   UNL A   1      32.828  30.676  26.493  1.00  0.00    -0.458 OA
BRANCH  37  38
ATOM     38  C   UNL A   1      33.278  31.784  27.134  1.00  0.00     0.338 C 
ATOM     39  O   UNL A   1      32.654  32.819  27.313  1.00  0.00    -0.246 OA
BRANCH  38  40
ATOM     40  C   UNL A   1      34.554  31.491  27.830  1.00  0.00     0.060 A 
ATOM     41  C   UNL A   1      34.724  30.176  28.287  1.00  0.00     0.016 A 
ATOM     42  C   UNL A   1      35.579  32.425  28.001  1.00  0.00     0.016 A 
ATOM     43  C   UNL A   1      35.923  29.770  28.862  1.00  0.00     0.010 A 
ATOM     44  C   UNL A   1      36.764  32.035  28.643  1.00  0.00     0.010 A 
ATOM     45  C   UNL A   1      36.938  30.707  29.077  1.00  0.00    -0.014 A 
BRANCH  45  46
ATOM     46  C   UNL A   1      38.066  30.329  29.959  1.00  0.00     0.031 A 
ATOM     47  C   UNL A   1      39.084  29.368  29.413  1.00  0.00     0.074 A 
ATOM     48  C   UNL A   1      38.231  30.869  31.180  1.00  0.00     0.049 A 
ATOM     49  N   UNL A   1      40.141  28.854  29.986  1.00  0.00    -0.248 NA
ATOM     50  C   UNL A   1      38.888  28.943  28.017  1.00  0.00     0.031 C 
ATOM     51  C   UNL A   1      37.385  31.899  31.774  1.00  0.00     0.029 A 
ATOM     52  N   UNL A   1      39.182  30.616  32.140  1.00  0.00    -0.354 N 
ATOM     53  C   UNL A   1      40.731  28.047  29.023  1.00  0.00     0.074 A 
ATOM     54  C   UNL A   1      39.916  28.131  27.832  1.00  0.00     0.031 C 
ATOM     55  C   UNL A   1      37.838  32.173  33.011  1.00  0.00     0.029 A 
ATOM     56  C   UNL A   1      38.982  31.313  33.307  1.00  0.00     0.049 A 
ATOM     57  H   UNL A   1      39.933  29.996  32.005  1.00  0.00     0.167 HD
ATOM     58  C   UNL A   1      41.852  27.296  29.125  1.00  0.00     0.037 A 
ATOM     59  C   UNL A   1      39.636  31.234  34.484  1.00  0.00     0.037 A 
ATOM     60  C   UNL A   1      42.641  27.187  30.321  1.00  0.00     0.049 A 
ATOM     61  C   UNL A   1      40.801  30.280  34.615  1.00  0.00     0.074 A 
ATOM     62  C   UNL A   1      43.778  26.429  30.539  1.00  0.00     0.029 A 
ATOM     63  N   UNL A   1      42.362  27.844  31.511  1.00  0.00    -0.354 N 
ATOM     64  N   UNL A   1      41.356  29.513  33.708  1.00  0.00    -0.248 NA
ATOM     65  C   UNL A   1      41.429  30.178  35.942  1.00  0.00     0.031 C 
ATOM     66  C   UNL A   1      44.146  26.573  31.880  1.00  0.00     0.029 A 
ATOM     67  C   UNL A   1      43.285  27.481  32.478  1.00  0.00     0.049 A 
ATOM     68  H   UNL A   1      41.618  28.475  31.648  1.00  0.00     0.167 HD
ATOM     69  C   UNL A   1      42.417  28.873  34.339  1.00  0.00     0.074 A 
ATOM     70  C   UNL A   1      42.435  29.348  35.705  1.00  0.00     0.031 C 
ATOM     71  C   UNL A   1      43.299  27.975  33.831  1.00  0.00     0.037 A 
BRANCH  58  72
ATOM     72  C   UNL A   1      42.240  26.478  27.930  1.00  0.00     0.064 A 
ATOM     73  C   UNL A   1      43.200  26.919  27.007  1.00  0.00     0.173 A 
ATOM     74  C   UNL A   1      41.640  25.229  27.709  1.00  0.00     0.173 A 
ATOM     75  F   UNL A   1      43.785  28.116  27.159  1.00  0.00    -0.203 F 
ATOM     76  C   UNL A   1      43.523  26.151  25.891  1.00  0.00     0.198 A 
ATOM     77  C   UNL A   1      41.989  24.450  26.610  1.00  0.00     0.198 A 
ATOM     78  F   UNL A   1      40.712  24.764  28.559  1.00  0.00    -0.203 F 
ATOM     79  F   UNL A   1      44.402  26.615  24.991  1.00  0.00    -0.200 F 
ATOM     80  C   UNL A   1      42.924  24.915  25.698  1.00  0.00     0.200 A 
ATOM     81  F   UNL A   1      41.415  23.252  26.431  1.00  0.00    -0.200 F 
ATOM     82  F   UNL A   1      43.239  24.176  24.626  1.00  0.00    -0.200 F 
ENDBRANCH  58  72
BRANCH  59  83
ATOM     83  C   UNL A   1      39.194  32.045  35.652  1.00  0.00     0.064 A 
ATOM     84  C   UNL A   1      39.713  33.327  35.886  1.00  0.00     0.173 A 
ATOM     85  C   UNL A   1      38.293  31.528  36.597  1.00  0.00     0.173 A 
ATOM     86  F   UNL A   1      40.605  33.855  35.036  1.00  0.00    -0.203 F 
ATOM     87  C   UNL A   1      39.371  34.047  37.031  1.00  0.00     0.198 A 
ATOM     88  C   UNL A   1      37.926  32.262  37.723  1.00  0.00     0.198 A 
ATOM     89  F   UNL A   1      37.779  30.300  36.434  1.00  0.00    -0.203 F 
ATOM     90  F   UNL A   1      39.935  35.239  37.264  1.00  0.00    -0.200 F 
ATOM     91  C   UNL A   1      38.474  33.516  37.946  1.00  0.00     0.200 A 
ATOM     92  F   UNL A   1      37.057  31.746  38.603  1.00  0.00    -0.200 F 
ATOM     93  F   UNL A   1      38.153  34.203  39.050  1.00  0.00    -0.200 F 
ENDBRANCH  59  83
BRANCH  71  94
ATOM     94  C   UNL A   1      44.395  27.484  34.736  1.00  0.00     0.064 A 
ATOM     95  C   UNL A   1      44.265  26.311  35.493  1.00  0.00     0.173 A 
ATOM     96  C   UNL A   1      45.618  28.171  34.798  1.00  0.00     0.173 A 
ATOM     97  F   UNL A   1      43.113  25.622  35.478  1.00  0.00    -0.203 F 
ATOM     98  C   UNL A   1      45.306  25.859  36.299  1.00  0.00     0.198 A 
ATOM     99  C   UNL A   1      46.671  27.696  35.575  1.00  0.00     0.198 A 
ATOM    100  F   UNL A   1      45.802  29.293  34.086  1.00  0.00    -0.203 F 
ATOM    101  F   UNL A   1      45.141  24.763  37.052  1.00  0.00    -0.200 F 
ATOM    102  C   UNL A   1      46.511  26.546  36.332  1.00  0.00     0.200 A 
ATOM    103  F   UNL A   1      47.840  28.350  35.589  1.00  0.00    -0.200 F 
ATOM    104  F   UNL A   1      47.518  26.101  37.096  1.00  0.00    -0.200 F 
ENDBRANCH  71  94
ENDBRANCH  45  46
ENDBRANCH  38  40
ENDBRANCH  37  38
ENDBRANCH  36  37
ENDBRANCH   1  36
TORSDOF 16
ENDMDL
MODEL 3
REMARK VINA RESULT:     -13.8      0.362      1.536
REMARK SMILES O=C(N[C@]1(C(=O)OCCOC(=O)c2ccc(-c3c4nc(c(-c5c(F)c(F)c(F)c(F)c5F)c5ccc([nH]5)c(-c5c(F)c(F)c(F)c(F)c5F)c5nc(c(-c6c(F)c(F)c(F)c(F)c6F)c6ccc3[nH]6)C=C5)C=C4)cc2)CC[C@H](c2ccccc2)CC1)OCC1c2ccccc2-c2ccccc21
REMARK SMILES IDX 8 1 7 2 5 3 6 4 4 5 76 6 86 7 77 8 85 9 78 10 3 11 1 12 2 13
REMARK SMILES IDX 87 15 88 16 89 17 90 18 101 19 91 20 95 21 96 22 100 23
REMARK SMILES IDX 92 24 94 25 97 26 99 27 93 28 98 29 79 30 80 31 84 32 81 33
REMARK SMILES IDX 83 34 82 35 9 36 10 37 11 38 12 39 13 40 14 41 75 42 15 43
REMARK SMILES IDX 74 44 16 45 17 46 18 47 68 48 19 49 73 50 67 51 69 52 20 53
REMARK SMILES IDX 72 54 66 55 65 56 21 58 53 59 33 60 52 61 34 62 37 63 51 64
REMARK SMILES IDX 70 65 35 66 36 67 50 69 71 70 38 71 22 72 23 73 31 74 24 75
REMARK SMILES IDX 25 76 29 77 32 78 26 79 27 80 30 81 28 82 54 83 55 84 63 85
REMARK SMILES IDX 56 86 57 87 61 88 64 89 58 90 59 91 62 92 60 93 39 94 40 95
REMARK SMILES IDX 48 96 41 97 42 98 46 99 49 100 43 101 44 102 47 103 45 104
REMARK H PARENT 3 14 69 57 37 68
REMARK Flexibility Score: inf
ROOT
ATOM      1  C   UNL A   1      35.631  20.773  25.420  1.00  0.00     0.274 C 
ENDROOT
BRANCH   1   2
ATOM      2  O   UNL A   1      35.324  21.754  26.456  1.00  0.00    -0.460 OA
BRANCH   2   3
ATOM      3  C   UNL A   1      34.027  21.755  26.840  1.00  0.00     0.332 C 
ATOM      4  O   UNL A   1      33.679  21.075  27.804  1.00  0.00    -0.249 OA
BRANCH   3   5
ATOM      5  C   UNL A   1      32.997  22.708  26.063  1.00  0.00     0.141 C 
ATOM      6  C   UNL A   1      32.334  22.471  24.673  1.00  0.00     0.041 C 
ATOM      7  C   UNL A   1      33.658  24.094  25.997  1.00  0.00     0.041 C 
ATOM      8  C   UNL A   1      33.121  22.694  23.400  1.00  0.00     0.011 C 
ATOM      9  C   UNL A   1      34.640  24.170  24.812  1.00  0.00     0.011 C 
ATOM     10  C   UNL A   1      34.012  23.918  23.424  1.00  0.00     0.019 C 
BRANCH   5  11
ATOM     11  N   UNL A   1      31.837  22.626  27.009  1.00  0.00    -0.305 N 
ATOM     12  O   UNL A   1      29.650  23.273  27.331  1.00  0.00    -0.225 OA
ATOM     13  C   UNL A   1      30.736  23.460  26.820  1.00  0.00     0.408 C 
ATOM     14  H   UNL A   1      31.853  21.988  27.759  1.00  0.00     0.168 HD
BRANCH  13  15
ATOM     15  O   UNL A   1      31.031  24.449  25.923  1.00  0.00    -0.449 OA
BRANCH  15  16
ATOM     16  C   UNL A   1      30.392  25.721  26.051  1.00  0.00     0.248 C 
BRANCH  16  17
ATOM     17  C   UNL A   1      30.808  26.692  24.910  1.00  0.00     0.088 C 
ATOM     18  C   UNL A   1      29.824  27.650  24.202  1.00  0.00    -0.029 A 
ATOM     19  C   UNL A   1      31.771  27.720  25.509  1.00  0.00    -0.029 A 
ATOM     20  C   UNL A   1      28.620  27.440  23.581  1.00  0.00     0.005 A 
ATOM     21  C   UNL A   1      30.337  28.953  24.162  1.00  0.00    -0.014 A 
ATOM     22  C   UNL A   1      31.380  29.023  25.143  1.00  0.00    -0.014 A 
ATOM     23  C   UNL A   1      32.720  27.501  26.490  1.00  0.00     0.005 A 
ATOM     24  C   UNL A   1      28.039  28.422  22.759  1.00  0.00     0.000 A 
ATOM     25  C   UNL A   1      29.819  29.934  23.319  1.00  0.00     0.009 A 
ATOM     26  C   UNL A   1      31.766  30.108  25.905  1.00  0.00     0.009 A 
ATOM     27  C   UNL A   1      33.115  28.593  27.254  1.00  0.00     0.000 A 
ATOM     28  C   UNL A   1      28.680  29.646  22.572  1.00  0.00     0.001 A 
ATOM     29  C   UNL A   1      32.607  29.875  26.993  1.00  0.00     0.001 A 
ENDBRANCH  16  17
ENDBRANCH  15  16
ENDBRANCH  13  15
ENDBRANCH   5  11
BRANCH  10  30
ATOM     30  C   UNL A   1      33.370  25.150  22.822  1.00  0.00    -0.045 A 
ATOM     31  C   UNL A   1      32.227  25.126  22.009  1.00  0.00     0.004 A 
ATOM     32  C   UNL A   1      34.020  26.375  23.026  1.00  0.00     0.004 A 
ATOM     33  C   UNL A   1      31.754  26.291  21.411  1.00  0.00     0.000 A 
ATOM     34  C   UNL A   1      33.531  27.542  22.452  1.00  0.00     0.000 A 
ATOM     35  C   UNL A   1      32.402  27.500  21.641  1.00  0.00     0.000 A 
ENDBRANCH  10  30
ENDBRANCH   3   5
ENDBRANCH   2   3
ENDBRANCH   1   2
BRANCH   1  36
ATOM     36  C   UNL A   1      37.098  20.677  24.942  1.00  0.00     0.275 C 
BRANCH  36  37
ATOM     37  O   UNL A   1      37.927  21.769  25.389  1.00  0.00    -0.458 OA
BRANCH  37  38
ATOM     38  C   UNL A   1      39.015  21.409  26.115  1.00  0.00     0.338 C 
ATOM     39  O   UNL A   1      39.495  20.288  26.193  1.00  0.00    -0.246 OA
BRANCH  38  40
ATOM     40  C   UNL A   1      39.721  22.615  26.613  1.00  0.00     0.060 A 
ATOM     41  C   UNL A   1      39.314  23.841  26.067  1.00  0.00     0.016 A 
ATOM     42  C   UNL A   1      40.706  22.586  27.603  1.00  0.00     0.016 A 
ATOM     43  C   UNL A   1      39.839  25.040  26.537  1.00  0.00     0.010 A 
ATOM     44  C   UNL A   1      41.287  23.790  28.029  1.00  0.00     0.010 A 
ATOM     45  C   UNL A   1      40.856  25.019  27.495  1.00  0.00    -0.014 A 
BRANCH  45  46
ATOM     46  C   UNL A   1      41.606  26.272  27.749  1.00  0.00     0.031 A 
ATOM     47  C   UNL A   1      40.909  27.356  28.521  1.00  0.00     0.074 A 
ATOM     48  C   UNL A   1      42.888  26.425  27.373  1.00  0.00     0.049 A 
ATOM     49  N   UNL A   1      41.326  28.552  28.847  1.00  0.00    -0.248 NA
ATOM     50  C   UNL A   1      39.557  27.036  29.007  1.00  0.00     0.031 C 
ATOM     51  C   UNL A   1      43.712  25.407  26.728  1.00  0.00     0.029 A 
ATOM     52  N   UNL A   1      43.721  27.513  27.487  1.00  0.00    -0.354 N 
ATOM     53  C   UNL A   1      40.290  29.122  29.573  1.00  0.00     0.074 A 
ATOM     54  C   UNL A   1      39.221  28.151  29.635  1.00  0.00     0.031 C 
ATOM     55  C   UNL A   1      44.928  25.927  26.477  1.00  0.00     0.029 A 
ATOM     56  C   UNL A   1      44.955  27.322  26.912  1.00  0.00     0.049 A 
ATOM     57  H   UNL A   1      43.460  28.348  27.937  1.00  0.00     0.167 HD
ATOM     58  C   UNL A   1      40.232  30.353  30.132  1.00  0.00     0.037 A 
ATOM     59  C   UNL A   1      45.970  28.192  26.736  1.00  0.00     0.037 A 
ATOM     60  C   UNL A   1      41.281  31.330  30.037  1.00  0.00     0.049 A 
ATOM     61  C   UNL A   1      45.823  29.607  27.247  1.00  0.00     0.074 A 
ATOM     62  C   UNL A   1      41.309  32.618  30.543  1.00  0.00     0.029 A 
ATOM     63  N   UNL A   1      42.484  31.131  29.377  1.00  0.00    -0.354 N 
ATOM     64  N   UNL A   1      44.842  30.149  27.927  1.00  0.00    -0.248 NA
ATOM     65  C   UNL A   1      46.929  30.534  26.959  1.00  0.00     0.031 C 
ATOM     66  C   UNL A   1      42.500  33.221  30.128  1.00  0.00     0.029 A 
ATOM     67  C   UNL A   1      43.249  32.286  29.430  1.00  0.00     0.049 A 
ATOM     68  H   UNL A   1      42.756  30.294  28.935  1.00  0.00     0.167 HD
ATOM     69  C   UNL A   1      45.228  31.461  28.183  1.00  0.00     0.074 A 
ATOM     70  C   UNL A   1      46.538  31.631  27.593  1.00  0.00     0.031 C 
ATOM     71  C   UNL A   1      44.559  32.435  28.850  1.00  0.00     0.037 A 
BRANCH  58  72
ATOM     72  C   UNL A   1      38.958  30.731  30.827  1.00  0.00     0.064 A 
ATOM     73  C   UNL A   1      37.863  31.267  30.132  1.00  0.00     0.173 A 
ATOM     74  C   UNL A   1      38.832  30.550  32.212  1.00  0.00     0.173 A 
ATOM     75  F   UNL A   1      37.940  31.483  28.810  1.00  0.00    -0.203 F 
ATOM     76  C   UNL A   1      36.700  31.633  30.805  1.00  0.00     0.198 A 
ATOM     77  C   UNL A   1      37.657  30.887  32.876  1.00  0.00     0.198 A 
ATOM     78  F   UNL A   1      39.852  30.046  32.923  1.00  0.00    -0.203 F 
ATOM     79  F   UNL A   1      35.687  32.196  30.131  1.00  0.00    -0.200 F 
ATOM     80  C   UNL A   1      36.595  31.436  32.174  1.00  0.00     0.200 A 
ATOM     81  F   UNL A   1      37.555  30.686  34.198  1.00  0.00    -0.200 F 
ATOM     82  F   UNL A   1      35.475  31.786  32.819  1.00  0.00    -0.200 F 
ENDBRANCH  58  72
BRANCH  59  83
ATOM     83  C   UNL A   1      47.204  27.779  26.011  1.00  0.00     0.064 A 
ATOM     84  C   UNL A   1      47.255  27.767  24.609  1.00  0.00     0.173 A 
ATOM     85  C   UNL A   1      48.336  27.324  26.705  1.00  0.00     0.173 A 
ATOM     86  F   UNL A   1      46.188  28.156  23.896  1.00  0.00    -0.203 F 
ATOM     87  C   UNL A   1      48.377  27.290  23.932  1.00  0.00     0.198 A 
ATOM     88  C   UNL A   1      49.469  26.879  26.026  1.00  0.00     0.198 A 
ATOM     89  F   UNL A   1      48.338  27.296  28.046  1.00  0.00    -0.203 F 
ATOM     90  F   UNL A   1      48.371  27.225  22.593  1.00  0.00    -0.200 F 
ATOM     91  C   UNL A   1      49.485  26.851  24.640  1.00  0.00     0.200 A 
ATOM     92  F   UNL A   1      50.538  26.458  26.716  1.00  0.00    -0.200 F 
ATOM     93  F   UNL A   1      50.559  26.383  23.990  1.00  0.00    -0.200 F 
ENDBRANCH  59  83
BRANCH  71  94
ATOM     94  C   UNL A   1      45.249  33.759  29.029  1.00  0.00     0.064 A 
ATOM     95  C   UNL A   1      45.115  34.799  28.098  1.00  0.00     0.173 A 
ATOM     96  C   UNL A   1      46.007  34.008  30.185  1.00  0.00     0.173 A 
ATOM     97  F   UNL A   1      44.410  34.611  26.972  1.00  0.00    -0.203 F 
ATOM     98  C   UNL A   1      45.738  36.027  28.303  1.00  0.00     0.198 A 
ATOM     99  C   UNL A   1      46.597  35.249  30.404  1.00  0.00     0.198 A 
ATOM    100  F   UNL A   1      46.159  33.052  31.114  1.00  0.00    -0.203 F 
ATOM    101  F   UNL A   1      45.637  36.990  27.375  1.00  0.00    -0.200 F 
ATOM    102  C   UNL A   1      46.469  36.255  29.459  1.00  0.00     0.200 A 
ATOM    103  F   UNL A   1      47.285  35.472  31.532  1.00  0.00    -0.200 F 
ATOM    104  F   UNL A   1      47.055  37.443  29.661  1.00  0.00    -0.200 F 
ENDBRANCH  71  94
ENDBRANCH  45  46
ENDBRANCH  38  40
ENDBRANCH  37  38
ENDBRANCH  36  37
ENDBRANCH   1  36
TORSDOF 16
ENDMDL
