MODEL 1
REMARK VINA RESULT:     -10.5      0.000      0.000
REMARK SMILES O=C(OCCOC(=O)[C@H]1CS[C@]2(c3ccccc3)CCC(=O)N12)c1ccc(-c2c3nc(c(-c4c(F)c(F)c(F)c(F)c4F)c4ccc([nH]4)c(-c4c(F)c(F)c(F)c(F)c4F)c4nc(c(-c5c(F)c(F)c(F)c(F)c5F)c5ccc2[nH]5)C=C4)C=C3)cc1
REMARK SMILES IDX 4 1 3 2 2 3 1 4 24 5 25 6 86 7 26 8 85 9 27 10 28 11 29 12
REMARK SMILES IDX 79 13 30 14 84 15 78 16 80 17 31 18 83 19 77 20 76 21 32 23
REMARK SMILES IDX 64 24 44 25 63 26 45 27 48 28 62 29 81 30 46 31 47 32 61 34
REMARK SMILES IDX 82 35 49 36 33 37 34 38 42 39 35 40 36 41 40 42 43 43 37 44
REMARK SMILES IDX 38 45 41 46 39 47 65 48 66 49 74 50 67 51 68 52 72 53 75 54
REMARK SMILES IDX 69 55 70 56 73 57 71 58 50 59 51 60 59 61 52 62 53 63 57 64
REMARK SMILES IDX 60 65 54 66 55 67 58 68 56 69 5 70 6 71 7 72 8 73 9 74 10 75
REMARK SMILES IDX 23 76 11 77 12 78 21 79 19 80 20 81 22 82 13 83 14 84 18 85
REMARK SMILES IDX 15 86 17 87 16 88
REMARK H PARENT 80 22 48 33
REMARK Flexibility Score: inf
ROOT
ATOM      1  C   UNL A   1      34.333  32.548  28.027  1.00  0.00     0.275 C 
ENDROOT
BRANCH   1   2
ATOM      2  O   UNL A   1      33.951  31.189  28.312  1.00  0.00    -0.458 OA
BRANCH   2   3
ATOM      3  C   UNL A   1      34.560  30.196  27.597  1.00  0.00     0.338 C 
ATOM      4  O   UNL A   1      33.963  29.386  26.907  1.00  0.00    -0.246 OA
BRANCH   3   5
ATOM      5  C   UNL A   1      35.966  29.987  28.054  1.00  0.00     0.060 A 
ATOM      6  C   UNL A   1      36.255  29.513  29.337  1.00  0.00     0.016 A 
ATOM      7  C   UNL A   1      37.016  30.158  27.145  1.00  0.00     0.016 A 
ATOM      8  C   UNL A   1      37.550  29.056  29.659  1.00  0.00     0.010 A 
ATOM      9  C   UNL A   1      38.303  29.680  27.462  1.00  0.00     0.010 A 
ATOM     10  C   UNL A   1      38.579  29.082  28.709  1.00  0.00    -0.014 A 
BRANCH  10  11
ATOM     11  C   UNL A   1      39.991  28.706  29.051  1.00  0.00     0.031 A 
ATOM     12  C   UNL A   1      40.819  29.740  29.704  1.00  0.00     0.074 A 
ATOM     13  C   UNL A   1      40.574  27.505  28.845  1.00  0.00     0.049 A 
ATOM     14  N   UNL A   1      42.051  29.642  30.114  1.00  0.00    -0.248 NA
ATOM     15  C   UNL A   1      40.160  31.020  29.990  1.00  0.00     0.031 C 
ATOM     16  C   UNL A   1      39.836  26.350  28.435  1.00  0.00     0.029 A 
ATOM     17  N   UNL A   1      41.863  27.024  28.918  1.00  0.00    -0.354 N 
ATOM     18  C   UNL A   1      42.284  30.811  30.796  1.00  0.00     0.074 A 
ATOM     19  C   UNL A   1      41.129  31.665  30.613  1.00  0.00     0.031 C 
ATOM     20  C   UNL A   1      40.653  25.329  28.132  1.00  0.00     0.029 A 
ATOM     21  C   UNL A   1      42.010  25.752  28.388  1.00  0.00     0.049 A 
ATOM     22  H   UNL A   1      42.609  27.534  29.309  1.00  0.00     0.167 HD
ATOM     23  C   UNL A   1      43.335  31.092  31.593  1.00  0.00     0.037 A 
ATOM     24  C   UNL A   1      43.096  24.990  28.148  1.00  0.00     0.037 A 
ATOM     25  C   UNL A   1      44.489  30.252  31.731  1.00  0.00     0.049 A 
ATOM     26  C   UNL A   1      44.367  25.447  28.785  1.00  0.00     0.074 A 
ATOM     27  C   UNL A   1      45.629  30.476  32.475  1.00  0.00     0.029 A 
ATOM     28  N   UNL A   1      44.663  29.032  31.083  1.00  0.00    -0.354 N 
ATOM     29  N   UNL A   1      44.564  26.541  29.478  1.00  0.00    -0.248 NA
ATOM     30  C   UNL A   1      45.524  24.548  28.723  1.00  0.00     0.031 C 
ATOM     31  C   UNL A   1      46.518  29.423  32.232  1.00  0.00     0.029 A 
ATOM     32  C   UNL A   1      45.916  28.513  31.375  1.00  0.00     0.049 A 
ATOM     33  H   UNL A   1      43.995  28.600  30.503  1.00  0.00     0.167 HD
ATOM     34  C   UNL A   1      45.827  26.426  30.017  1.00  0.00     0.074 A 
ATOM     35  C   UNL A   1      46.372  25.168  29.535  1.00  0.00     0.031 C 
ATOM     36  C   UNL A   1      46.451  27.269  30.873  1.00  0.00     0.037 A 
BRANCH  23  37
ATOM     37  C   UNL A   1      43.213  32.381  32.330  1.00  0.00     0.064 A 
ATOM     38  C   UNL A   1      42.704  32.415  33.641  1.00  0.00     0.173 A 
ATOM     39  C   UNL A   1      43.416  33.592  31.660  1.00  0.00     0.173 A 
ATOM     40  F   UNL A   1      42.435  31.272  34.291  1.00  0.00    -0.203 F 
ATOM     41  C   UNL A   1      42.351  33.621  34.233  1.00  0.00     0.198 A 
ATOM     42  C   UNL A   1      43.087  34.797  32.268  1.00  0.00     0.198 A 
ATOM     43  F   UNL A   1      43.861  33.598  30.395  1.00  0.00    -0.203 F 
ATOM     44  F   UNL A   1      41.765  33.628  35.438  1.00  0.00    -0.200 F 
ATOM     45  C   UNL A   1      42.539  34.811  33.545  1.00  0.00     0.200 A 
ATOM     46  F   UNL A   1      43.248  35.947  31.598  1.00  0.00    -0.200 F 
ATOM     47  F   UNL A   1      42.159  35.970  34.098  1.00  0.00    -0.200 F 
ENDBRANCH  23  37
BRANCH  24  48
ATOM     48  C   UNL A   1      43.019  23.709  27.380  1.00  0.00     0.064 A 
ATOM     49  C   UNL A   1      42.526  22.525  27.948  1.00  0.00     0.173 A 
ATOM     50  C   UNL A   1      43.477  23.635  26.053  1.00  0.00     0.173 A 
ATOM     51  F   UNL A   1      42.087  22.527  29.215  1.00  0.00    -0.203 F 
ATOM     52  C   UNL A   1      42.515  21.322  27.236  1.00  0.00     0.198 A 
ATOM     53  C   UNL A   1      43.454  22.435  25.336  1.00  0.00     0.198 A 
ATOM     54  F   UNL A   1      43.961  24.731  25.449  1.00  0.00    -0.203 F 
ATOM     55  F   UNL A   1      42.069  20.202  27.822  1.00  0.00    -0.200 F 
ATOM     56  C   UNL A   1      42.979  21.277  25.930  1.00  0.00     0.200 A 
ATOM     57  F   UNL A   1      43.903  22.400  24.072  1.00  0.00    -0.200 F 
ATOM     58  F   UNL A   1      42.974  20.122  25.251  1.00  0.00    -0.200 F 
ENDBRANCH  24  48
BRANCH  36  59
ATOM     59  C   UNL A   1      47.794  26.838  31.366  1.00  0.00     0.064 A 
ATOM     60  C   UNL A   1      47.931  25.978  32.463  1.00  0.00     0.173 A 
ATOM     61  C   UNL A   1      48.955  27.273  30.712  1.00  0.00     0.173 A 
ATOM     62  F   UNL A   1      46.847  25.563  33.137  1.00  0.00    -0.203 F 
ATOM     63  C   UNL A   1      49.190  25.580  32.899  1.00  0.00     0.198 A 
ATOM     64  C   UNL A   1      50.209  26.846  31.129  1.00  0.00     0.198 A 
ATOM     65  F   UNL A   1      48.870  28.104  29.662  1.00  0.00    -0.203 F 
ATOM     66  F   UNL A   1      49.304  24.797  33.980  1.00  0.00    -0.200 F 
ATOM     67  C   UNL A   1      50.326  26.005  32.226  1.00  0.00     0.200 A 
ATOM     68  F   UNL A   1      51.305  27.249  30.473  1.00  0.00    -0.200 F 
ATOM     69  F   UNL A   1      51.537  25.609  32.640  1.00  0.00    -0.200 F 
ENDBRANCH  36  59
ENDBRANCH  10  11
ENDBRANCH   3   5
ENDBRANCH   2   3
ENDBRANCH   1   2
BRANCH   1  70
ATOM     70  C   UNL A   1      34.556  33.370  29.323  1.00  0.00     0.274 C 
BRANCH  70  71
ATOM     71  O   UNL A   1      34.441  32.577  30.529  1.00  0.00    -0.461 OA
BRANCH  71  72
ATOM     72  C   UNL A   1      34.599  33.229  31.710  1.00  0.00     0.329 C 
ATOM     73  O   UNL A   1      33.937  32.983  32.716  1.00  0.00    -0.250 OA
BRANCH  72  74
ATOM     74  C   UNL A   1      35.838  34.149  31.770  1.00  0.00     0.206 C 
ATOM     75  C   UNL A   1      35.628  34.983  33.037  1.00  0.00     0.109 C 
ATOM     76  N   UNL A   1      37.232  33.669  31.872  1.00  0.00    -0.309 N 
ATOM     77  S   UNL A   1      36.398  33.944  34.302  1.00  0.00    -0.126 SA
ATOM     78  C   UNL A   1      37.679  33.286  33.187  1.00  0.00     0.116 C 
ATOM     79  C   UNL A   1      38.243  34.363  31.198  1.00  0.00     0.224 C 
ATOM     80  C   UNL A   1      38.821  34.285  33.446  1.00  0.00     0.055 C 
ATOM     81  C   UNL A   1      39.450  34.501  32.096  1.00  0.00     0.104 C 
ATOM     82  O   UNL A   1      38.146  34.889  30.100  1.00  0.00    -0.275 OA
BRANCH  78  83
ATOM     83  C   UNL A   1      37.965  31.761  33.283  1.00  0.00    -0.012 A 
ATOM     84  C   UNL A   1      39.234  31.273  33.638  1.00  0.00     0.007 A 
ATOM     85  C   UNL A   1      37.037  30.751  32.968  1.00  0.00     0.007 A 
ATOM     86  C   UNL A   1      39.611  29.921  33.593  1.00  0.00     0.000 A 
ATOM     87  C   UNL A   1      37.423  29.396  32.829  1.00  0.00     0.000 A 
ATOM     88  C   UNL A   1      38.715  28.982  33.128  1.00  0.00     0.000 A 
ENDBRANCH  78  83
ENDBRANCH  72  74
ENDBRANCH  71  72
ENDBRANCH  70  71
ENDBRANCH   1  70
TORSDOF 12
ENDMDL
MODEL 2
REMARK VINA RESULT:     -10.4      5.631     11.055
REMARK SMILES O=C(OCCOC(=O)[C@H]1CS[C@]2(c3ccccc3)CCC(=O)N12)c1ccc(-c2c3nc(c(-c4c(F)c(F)c(F)c(F)c4F)c4ccc([nH]4)c(-c4c(F)c(F)c(F)c(F)c4F)c4nc(c(-c5c(F)c(F)c(F)c(F)c5F)c5ccc2[nH]5)C=C4)C=C3)cc1
REMARK SMILES IDX 4 1 3 2 2 3 1 4 24 5 25 6 86 7 26 8 85 9 27 10 28 11 29 12
REMARK SMILES IDX 79 13 30 14 84 15 78 16 80 17 31 18 83 19 77 20 76 21 32 23
REMARK SMILES IDX 64 24 44 25 63 26 45 27 48 28 62 29 81 30 46 31 47 32 61 34
REMARK SMILES IDX 82 35 49 36 33 37 34 38 42 39 35 40 36 41 40 42 43 43 37 44
REMARK SMILES IDX 38 45 41 46 39 47 65 48 66 49 74 50 67 51 68 52 72 53 75 54
REMARK SMILES IDX 69 55 70 56 73 57 71 58 50 59 51 60 59 61 52 62 53 63 57 64
REMARK SMILES IDX 60 65 54 66 55 67 58 68 56 69 5 70 6 71 7 72 8 73 9 74 10 75
REMARK SMILES IDX 23 76 11 77 12 78 21 79 19 80 20 81 22 82 13 83 14 84 18 85
REMARK SMILES IDX 15 86 17 87 16 88
REMARK H PARENT 80 22 48 33
REMARK Flexibility Score: inf
ROOT
ATOM      1  C   UNL A   1      38.781  20.300  25.718  1.00  0.00     0.275 C 
ENDROOT
BRANCH   1   2
ATOM      2  O   UNL A   1      40.132  20.798  25.764  1.00  0.00    -0.458 OA
BRANCH   2   3
ATOM      3  C   UNL A   1      40.730  20.895  26.989  1.00  0.00     0.338 C 
ATOM      4  O   UNL A   1      40.773  19.986  27.802  1.00  0.00    -0.246 OA
BRANCH   3   5
ATOM      5  C   UNL A   1      40.979  22.320  27.357  1.00  0.00     0.060 A 
ATOM      6  C   UNL A   1      41.693  22.664  28.508  1.00  0.00     0.016 A 
ATOM      7  C   UNL A   1      40.593  23.335  26.475  1.00  0.00     0.016 A 
ATOM      8  C   UNL A   1      42.161  23.980  28.697  1.00  0.00     0.010 A 
ATOM      9  C   UNL A   1      41.081  24.644  26.654  1.00  0.00     0.010 A 
ATOM     10  C   UNL A   1      41.909  24.976  27.746  1.00  0.00    -0.014 A 
BRANCH  10  11
ATOM     11  C   UNL A   1      42.298  26.410  27.968  1.00  0.00     0.031 A 
ATOM     12  C   UNL A   1      43.687  26.785  27.635  1.00  0.00     0.074 A 
ATOM     13  C   UNL A   1      41.496  27.398  28.419  1.00  0.00     0.049 A 
ATOM     14  N   UNL A   1      44.243  27.959  27.717  1.00  0.00    -0.248 NA
ATOM     15  C   UNL A   1      44.535  25.724  27.080  1.00  0.00     0.031 C 
ATOM     16  C   UNL A   1      40.081  27.237  28.564  1.00  0.00     0.029 A 
ATOM     17  N   UNL A   1      41.693  28.692  28.848  1.00  0.00    -0.354 N 
ATOM     18  C   UNL A   1      45.475  27.802  27.131  1.00  0.00     0.074 A 
ATOM     19  C   UNL A   1      45.647  26.393  26.840  1.00  0.00     0.031 C 
ATOM     20  C   UNL A   1      39.529  28.291  29.185  1.00  0.00     0.029 A 
ATOM     21  C   UNL A   1      40.573  29.257  29.438  1.00  0.00     0.049 A 
ATOM     22  H   UNL A   1      42.547  29.171  28.745  1.00  0.00     0.167 HD
ATOM     23  C   UNL A   1      46.336  28.776  26.773  1.00  0.00     0.037 A 
ATOM     24  C   UNL A   1      40.383  30.421  30.092  1.00  0.00     0.037 A 
ATOM     25  C   UNL A   1      46.168  30.161  27.104  1.00  0.00     0.049 A 
ATOM     26  C   UNL A   1      41.476  31.430  29.959  1.00  0.00     0.074 A 
ATOM     27  C   UNL A   1      47.014  31.216  26.831  1.00  0.00     0.029 A 
ATOM     28  N   UNL A   1      45.089  30.681  27.812  1.00  0.00    -0.354 N 
ATOM     29  N   UNL A   1      42.627  31.283  29.351  1.00  0.00    -0.248 NA
ATOM     30  C   UNL A   1      41.227  32.778  30.479  1.00  0.00     0.031 C 
ATOM     31  C   UNL A   1      46.477  32.365  27.424  1.00  0.00     0.029 A 
ATOM     32  C   UNL A   1      45.271  32.039  28.027  1.00  0.00     0.049 A 
ATOM     33  H   UNL A   1      44.310  30.162  28.117  1.00  0.00     0.167 HD
ATOM     34  C   UNL A   1      43.203  32.536  29.326  1.00  0.00     0.074 A 
ATOM     35  C   UNL A   1      42.289  33.427  30.020  1.00  0.00     0.031 C 
ATOM     36  C   UNL A   1      44.362  32.911  28.735  1.00  0.00     0.037 A 
BRANCH  23  37
ATOM     37  C   UNL A   1      47.514  28.294  25.999  1.00  0.00     0.064 A 
ATOM     38  C   UNL A   1      47.389  27.944  24.642  1.00  0.00     0.173 A 
ATOM     39  C   UNL A   1      48.710  27.994  26.659  1.00  0.00     0.173 A 
ATOM     40  F   UNL A   1      46.234  28.156  23.993  1.00  0.00    -0.203 F 
ATOM     41  C   UNL A   1      48.408  27.260  23.991  1.00  0.00     0.198 A 
ATOM     42  C   UNL A   1      49.736  27.334  25.994  1.00  0.00     0.198 A 
ATOM     43  F   UNL A   1      48.851  28.275  27.963  1.00  0.00    -0.203 F 
ATOM     44  F   UNL A   1      48.230  26.837  22.731  1.00  0.00    -0.200 F 
ATOM     45  C   UNL A   1      49.579  26.952  24.668  1.00  0.00     0.200 A 
ATOM     46  F   UNL A   1      50.860  27.017  26.652  1.00  0.00    -0.200 F 
ATOM     47  F   UNL A   1      50.543  26.254  24.053  1.00  0.00    -0.200 F 
ENDBRANCH  23  37
BRANCH  24  48
ATOM     48  C   UNL A   1      39.113  30.728  30.820  1.00  0.00     0.064 A 
ATOM     49  C   UNL A   1      38.005  31.303  30.181  1.00  0.00     0.173 A 
ATOM     50  C   UNL A   1      38.996  30.482  32.199  1.00  0.00     0.173 A 
ATOM     51  F   UNL A   1      38.060  31.576  28.870  1.00  0.00    -0.203 F 
ATOM     52  C   UNL A   1      36.847  31.640  30.888  1.00  0.00     0.198 A 
ATOM     53  C   UNL A   1      37.832  30.807  32.904  1.00  0.00     0.198 A 
ATOM     54  F   UNL A   1      40.018  29.934  32.872  1.00  0.00    -0.203 F 
ATOM     55  F   UNL A   1      35.820  32.220  30.251  1.00  0.00    -0.200 F 
ATOM     56  C   UNL A   1      36.761  31.391  32.250  1.00  0.00     0.200 A 
ATOM     57  F   UNL A   1      37.755  30.561  34.221  1.00  0.00    -0.200 F 
ATOM     58  F   UNL A   1      35.652  31.720  32.927  1.00  0.00    -0.200 F 
ENDBRANCH  24  48
BRANCH  36  59
ATOM     59  C   UNL A   1      44.694  34.366  28.793  1.00  0.00     0.064 A 
ATOM     60  C   UNL A   1      44.218  35.266  27.830  1.00  0.00     0.173 A 
ATOM     61  C   UNL A   1      45.475  34.867  29.843  1.00  0.00     0.173 A 
ATOM     62  F   UNL A   1      43.493  34.824  26.791  1.00  0.00    -0.203 F 
ATOM     63  C   UNL A   1      44.530  36.619  27.908  1.00  0.00     0.198 A 
ATOM     64  C   UNL A   1      45.755  36.225  29.937  1.00  0.00     0.198 A 
ATOM     65  F   UNL A   1      45.958  34.040  30.782  1.00  0.00    -0.203 F 
ATOM     66  F   UNL A   1      44.108  37.456  26.951  1.00  0.00    -0.200 F 
ATOM     67  C   UNL A   1      45.288  37.098  28.966  1.00  0.00     0.200 A 
ATOM     68  F   UNL A   1      46.480  36.688  30.964  1.00  0.00    -0.200 F 
ATOM     69  F   UNL A   1      45.575  38.404  29.047  1.00  0.00    -0.200 F 
ENDBRANCH  36  59
ENDBRANCH  10  11
ENDBRANCH   3   5
ENDBRANCH   2   3
ENDBRANCH   1   2
BRANCH   1  70
ATOM     70  C   UNL A   1      37.751  21.442  25.515  1.00  0.00     0.274 C 
BRANCH  70  71
ATOM     71  O   UNL A   1      37.047  21.358  24.252  1.00  0.00    -0.461 OA
BRANCH  71  72
ATOM     72  C   UNL A   1      36.493  22.504  23.781  1.00  0.00     0.329 C 
ATOM     73  O   UNL A   1      36.754  22.983  22.679  1.00  0.00    -0.250 OA
BRANCH  72  74
ATOM     74  C   UNL A   1      35.325  23.046  24.635  1.00  0.00     0.206 C 
ATOM     75  C   UNL A   1      34.574  23.990  23.692  1.00  0.00     0.109 C 
ATOM     76  N   UNL A   1      34.266  22.206  25.233  1.00  0.00    -0.309 N 
ATOM     77  S   UNL A   1      33.403  22.868  22.889  1.00  0.00    -0.126 SA
ATOM     78  C   UNL A   1      33.197  21.805  24.354  1.00  0.00     0.116 C 
ATOM     79  C   UNL A   1      33.758  22.545  26.492  1.00  0.00     0.224 C 
ATOM     80  C   UNL A   1      31.971  22.464  25.011  1.00  0.00     0.055 C 
ATOM     81  C   UNL A   1      32.255  22.403  26.488  1.00  0.00     0.104 C 
ATOM     82  O   UNL A   1      34.398  23.000  27.427  1.00  0.00    -0.275 OA
BRANCH  78  83
ATOM     83  C   UNL A   1      33.195  20.272  24.103  1.00  0.00    -0.012 A 
ATOM     84  C   UNL A   1      34.182  19.436  24.652  1.00  0.00     0.007 A 
ATOM     85  C   UNL A   1      32.278  19.597  23.275  1.00  0.00     0.007 A 
ATOM     86  C   UNL A   1      34.337  18.075  24.345  1.00  0.00     0.000 A 
ATOM     87  C   UNL A   1      32.473  18.251  22.882  1.00  0.00     0.000 A 
ATOM     88  C   UNL A   1      33.512  17.492  23.407  1.00  0.00     0.000 A 
ENDBRANCH  78  83
ENDBRANCH  72  74
ENDBRANCH  71  72
ENDBRANCH  70  71
ENDBRANCH   1  70
TORSDOF 12
ENDMDL
MODEL 3
REMARK VINA RESULT:     -10.4      4.138     10.610
REMARK SMILES O=C(OCCOC(=O)[C@H]1CS[C@]2(c3ccccc3)CCC(=O)N12)c1ccc(-c2c3nc(c(-c4c(F)c(F)c(F)c(F)c4F)c4ccc([nH]4)c(-c4c(F)c(F)c(F)c(F)c4F)c4nc(c(-c5c(F)c(F)c(F)c(F)c5F)c5ccc2[nH]5)C=C4)C=C3)cc1
REMARK SMILES IDX 4 1 3 2 2 3 1 4 24 5 25 6 86 7 26 8 85 9 27 10 28 11 29 12
REMARK SMILES IDX 79 13 30 14 84 15 78 16 80 17 31 18 83 19 77 20 76 21 32 23
REMARK SMILES IDX 64 24 44 25 63 26 45 27 48 28 62 29 81 30 46 31 47 32 61 34
REMARK SMILES IDX 82 35 49 36 33 37 34 38 42 39 35 40 36 41 40 42 43 43 37 44
REMARK SMILES IDX 38 45 41 46 39 47 65 48 66 49 74 50 67 51 68 52 72 53 75 54
REMARK SMILES IDX 69 55 70 56 73 57 71 58 50 59 51 60 59 61 52 62 53 63 57 64
REMARK SMILES IDX 60 65 54 66 55 67 58 68 56 69 5 70 6 71 7 72 8 73 9 74 10 75
REMARK SMILES IDX 23 76 11 77 12 78 21 79 19 80 20 81 22 82 13 83 14 84 18 85
REMARK SMILES IDX 15 86 17 87 16 88
REMARK H PARENT 80 22 48 33
REMARK Flexibility Score: inf
ROOT
ATOM      1  C   UNL A   1      40.365  21.670  26.929  1.00  0.00     0.275 C 
ENDROOT
BRANCH   1   2
ATOM      2  O   UNL A   1      39.553  22.226  25.877  1.00  0.00    -0.458 OA
BRANCH   2   3
ATOM      3  C   UNL A   1      38.610  23.151  26.227  1.00  0.00     0.338 C 
ATOM      4  O   UNL A   1      37.489  23.200  25.747  1.00  0.00    -0.246 OA
BRANCH   3   5
ATOM      5  C   UNL A   1      39.225  24.297  26.960  1.00  0.00     0.060 A 
ATOM      6  C   UNL A   1      40.025  25.239  26.307  1.00  0.00     0.016 A 
ATOM      7  C   UNL A   1      38.905  24.503  28.307  1.00  0.00     0.016 A 
ATOM      8  C   UNL A   1      40.364  26.454  26.936  1.00  0.00     0.010 A 
ATOM      9  C   UNL A   1      39.225  25.727  28.925  1.00  0.00     0.010 A 
ATOM     10  C   UNL A   1      39.923  26.739  28.234  1.00  0.00    -0.014 A 
BRANCH  10  11
ATOM     11  C   UNL A   1      40.356  27.973  28.972  1.00  0.00     0.031 A 
ATOM     12  C   UNL A   1      41.696  27.946  29.592  1.00  0.00     0.074 A 
ATOM     13  C   UNL A   1      39.651  29.117  29.104  1.00  0.00     0.049 A 
ATOM     14  N   UNL A   1      42.294  28.895  30.254  1.00  0.00    -0.248 NA
ATOM     15  C   UNL A   1      42.486  26.726  29.386  1.00  0.00     0.031 C 
ATOM     16  C   UNL A   1      38.447  29.371  28.373  1.00  0.00     0.029 A 
ATOM     17  N   UNL A   1      39.783  30.260  29.863  1.00  0.00    -0.354 N 
ATOM     18  C   UNL A   1      43.568  28.425  30.458  1.00  0.00     0.074 A 
ATOM     19  C   UNL A   1      43.613  27.054  29.992  1.00  0.00     0.031 C 
ATOM     20  C   UNL A   1      37.842  30.490  28.798  1.00  0.00     0.029 A 
ATOM     21  C   UNL A   1      38.670  31.084  29.823  1.00  0.00     0.049 A 
ATOM     22  H   UNL A   1      40.592  30.472  30.383  1.00  0.00     0.167 HD
ATOM     23  C   UNL A   1      44.632  29.126  30.900  1.00  0.00     0.037 A 
ATOM     24  C   UNL A   1      38.342  32.199  30.506  1.00  0.00     0.037 A 
ATOM     25  C   UNL A   1      44.562  30.470  31.395  1.00  0.00     0.049 A 
ATOM     26  C   UNL A   1      39.453  32.848  31.265  1.00  0.00     0.074 A 
ATOM     27  C   UNL A   1      45.578  31.246  31.914  1.00  0.00     0.029 A 
ATOM     28  N   UNL A   1      43.399  31.231  31.460  1.00  0.00    -0.354 N 
ATOM     29  N   UNL A   1      40.681  32.415  31.409  1.00  0.00    -0.248 NA
ATOM     30  C   UNL A   1      39.198  34.167  31.853  1.00  0.00     0.031 C 
ATOM     31  C   UNL A   1      45.019  32.455  32.348  1.00  0.00     0.029 A 
ATOM     32  C   UNL A   1      43.663  32.455  32.056  1.00  0.00     0.049 A 
ATOM     33  H   UNL A   1      42.516  30.943  31.131  1.00  0.00     0.167 HD
ATOM     34  C   UNL A   1      41.374  33.440  32.017  1.00  0.00     0.074 A 
ATOM     35  C   UNL A   1      40.417  34.507  32.253  1.00  0.00     0.031 C 
ATOM     36  C   UNL A   1      42.697  33.499  32.302  1.00  0.00     0.037 A 
BRANCH  23  37
ATOM     37  C   UNL A   1      45.919  28.377  30.849  1.00  0.00     0.064 A 
ATOM     38  C   UNL A   1      46.785  28.511  29.749  1.00  0.00     0.173 A 
ATOM     39  C   UNL A   1      46.189  27.385  31.796  1.00  0.00     0.173 A 
ATOM     40  F   UNL A   1      46.522  29.408  28.786  1.00  0.00    -0.203 F 
ATOM     41  C   UNL A   1      47.849  27.634  29.574  1.00  0.00     0.198 A 
ATOM     42  C   UNL A   1      47.271  26.528  31.630  1.00  0.00     0.198 A 
ATOM     43  F   UNL A   1      45.363  27.201  32.836  1.00  0.00    -0.203 F 
ATOM     44  F   UNL A   1      48.598  27.705  28.465  1.00  0.00    -0.200 F 
ATOM     45  C   UNL A   1      48.089  26.641  30.513  1.00  0.00     0.200 A 
ATOM     46  F   UNL A   1      47.493  25.556  32.525  1.00  0.00    -0.200 F 
ATOM     47  F   UNL A   1      49.088  25.769  30.324  1.00  0.00    -0.200 F 
ENDBRANCH  23  37
BRANCH  24  48
ATOM     48  C   UNL A   1      36.980  32.812  30.428  1.00  0.00     0.064 A 
ATOM     49  C   UNL A   1      36.593  33.640  29.364  1.00  0.00     0.173 A 
ATOM     50  C   UNL A   1      36.038  32.606  31.450  1.00  0.00     0.173 A 
ATOM     51  F   UNL A   1      37.453  33.888  28.366  1.00  0.00    -0.203 F 
ATOM     52  C   UNL A   1      35.338  34.254  29.335  1.00  0.00     0.198 A 
ATOM     53  C   UNL A   1      34.776  33.210  31.415  1.00  0.00     0.198 A 
ATOM     54  F   UNL A   1      36.343  31.825  32.496  1.00  0.00    -0.203 F 
ATOM     55  F   UNL A   1      35.014  35.068  28.320  1.00  0.00    -0.200 F 
ATOM     56  C   UNL A   1      34.429  34.038  30.361  1.00  0.00     0.200 A 
ATOM     57  F   UNL A   1      33.902  32.994  32.409  1.00  0.00    -0.200 F 
ATOM     58  F   UNL A   1      33.228  34.632  30.334  1.00  0.00    -0.200 F 
ENDBRANCH  24  48
BRANCH  36  59
ATOM     59  C   UNL A   1      43.190  34.784  32.884  1.00  0.00     0.064 A 
ATOM     60  C   UNL A   1      43.550  35.867  32.072  1.00  0.00     0.173 A 
ATOM     61  C   UNL A   1      43.277  34.937  34.275  1.00  0.00     0.173 A 
ATOM     62  F   UNL A   1      43.512  35.752  30.735  1.00  0.00    -0.203 F 
ATOM     63  C   UNL A   1      43.997  37.058  32.633  1.00  0.00     0.198 A 
ATOM     64  C   UNL A   1      43.691  36.140  34.834  1.00  0.00     0.198 A 
ATOM     65  F   UNL A   1      42.950  33.923  35.090  1.00  0.00    -0.203 F 
ATOM     66  F   UNL A   1      44.384  38.065  31.840  1.00  0.00    -0.200 F 
ATOM     67  C   UNL A   1      44.056  37.197  34.013  1.00  0.00     0.200 A 
ATOM     68  F   UNL A   1      43.739  36.277  36.165  1.00  0.00    -0.200 F 
ATOM     69  F   UNL A   1      44.475  38.349  34.552  1.00  0.00    -0.200 F 
ENDBRANCH  36  59
ENDBRANCH  10  11
ENDBRANCH   3   5
ENDBRANCH   2   3
ENDBRANCH   1   2
BRANCH   1  70
ATOM     70  C   UNL A   1      41.854  21.552  26.508  1.00  0.00     0.274 C 
BRANCH  70  71
ATOM     71  O   UNL A   1      42.187  22.362  25.355  1.00  0.00    -0.461 OA
BRANCH  71  72
ATOM     72  C   UNL A   1      43.498  22.419  25.003  1.00  0.00     0.329 C 
ATOM     73  O   UNL A   1      43.885  22.569  23.847  1.00  0.00    -0.250 OA
BRANCH  72  74
ATOM     74  C   UNL A   1      44.474  22.518  26.196  1.00  0.00     0.206 C 
ATOM     75  C   UNL A   1      45.849  22.242  25.582  1.00  0.00     0.109 C 
ATOM     76  N   UNL A   1      44.675  23.732  27.014  1.00  0.00    -0.309 N 
ATOM     77  S   UNL A   1      46.375  23.898  25.076  1.00  0.00    -0.126 SA
ATOM     78  C   UNL A   1      45.540  24.742  26.457  1.00  0.00     0.116 C 
ATOM     79  C   UNL A   1      44.907  23.598  28.388  1.00  0.00     0.224 C 
ATOM     80  C   UNL A   1      46.682  24.795  27.488  1.00  0.00     0.055 C 
ATOM     81  C   UNL A   1      46.011  24.537  28.810  1.00  0.00     0.104 C 
ATOM     82  O   UNL A   1      44.394  22.773  29.127  1.00  0.00    -0.275 OA
BRANCH  78  83
ATOM     83  C   UNL A   1      44.766  26.043  26.109  1.00  0.00    -0.012 A 
ATOM     84  C   UNL A   1      45.064  27.265  26.736  1.00  0.00     0.007 A 
ATOM     85  C   UNL A   1      43.682  26.115  25.214  1.00  0.00     0.007 A 
ATOM     86  C   UNL A   1      44.312  28.441  26.591  1.00  0.00     0.000 A 
ATOM     87  C   UNL A   1      42.858  27.263  25.126  1.00  0.00     0.000 A 
ATOM     88  C   UNL A   1      43.165  28.424  25.826  1.00  0.00     0.000 A 
ENDBRANCH  78  83
ENDBRANCH  72  74
ENDBRANCH  71  72
ENDBRANCH  70  71
ENDBRANCH   1  70
TORSDOF 12
ENDMDL
