MODEL 1
REMARK VINA RESULT:     -15.3      0.000      0.000
REMARK SMILES O=C(OCCOC(=O)c1ccc(-c2c3nc(c(-c4c(F)c(F)c(F)c(F)c4F)c4ccc([nH]4)c(-c4c(F)c(F)c(F)c(F)c4F)c4nc(c(-c5c(F)c(F)c(F)c(F)c5F)c5ccc2[nH]5)C=C4)C=C3)cc1)C1=Cc2cc(Cl)cc(C#Cc3ccccc3)c2O[C@@H]1C(F)(F)F
REMARK SMILES IDX 4 1 3 2 2 3 1 4 72 5 73 6 90 7 74 8 89 9 75 10 88 11 76 12
REMARK SMILES IDX 79 13 77 14 78 15 91 16 92 17 93 18 94 19 80 20 81 21 82 22
REMARK SMILES IDX 83 23 87 24 84 25 86 26 85 27 5 28 6 29 7 30 8 31 9 32 10 33
REMARK SMILES IDX 71 34 11 35 70 36 12 37 13 38 14 39 64 40 15 41 69 42 63 43
REMARK SMILES IDX 65 44 16 45 68 46 62 47 61 48 17 50 49 51 29 52 48 53 30 54
REMARK SMILES IDX 33 55 47 56 66 57 31 58 32 59 46 61 67 62 34 63 18 64 19 65
REMARK SMILES IDX 27 66 20 67 21 68 25 69 28 70 22 71 23 72 26 73 24 74 50 75
REMARK SMILES IDX 51 76 59 77 52 78 53 79 57 80 60 81 54 82 55 83 58 84 56 85
REMARK SMILES IDX 35 86 36 87 44 88 37 89 38 90 42 91 45 92 39 93 40 94 43 95
REMARK SMILES IDX 41 96
REMARK H PARENT 65 49 33 60
REMARK Flexibility Score: inf
ROOT
ATOM      1  C   UNL A   1      31.561  27.935  25.812  1.00  0.00     0.275 C 
ENDROOT
BRANCH   1   2
ATOM      2  O   UNL A   1      32.222  26.873  26.755  1.00  0.00    -0.459 OA
BRANCH   2   3
ATOM      3  C   UNL A   1      31.830  25.618  26.510  1.00  0.00     0.338 C 
ATOM      4  O   UNL A   1      31.296  24.802  27.214  1.00  0.00    -0.246 OA
BRANCH   3   5
ATOM      5  C   UNL A   1      32.554  25.507  25.272  1.00  0.00     0.087 C 
ATOM      6  C   UNL A   1      34.008  25.449  25.529  1.00  0.00     0.027 C 
ATOM      7  C   UNL A   1      31.501  24.076  24.506  1.00  0.00     0.316 C 
ATOM      8  C   UNL A   1      34.996  23.955  25.279  1.00  0.00     0.020 A 
ATOM      9  O   UNL A   1      32.535  22.462  24.285  1.00  0.00    -0.474 OA
ATOM     10  C   UNL A   1      36.306  23.994  25.672  1.00  0.00     0.032 A 
ATOM     11  C   UNL A   1      34.291  22.444  24.769  1.00  0.00     0.143 A 
ATOM     12  C   UNL A   1      36.970  22.763  25.618  1.00  0.00     0.043 A 
ATOM     13  C   UNL A   1      35.026  21.286  24.787  1.00  0.00     0.069 A 
ATOM     14  Cl  UNL A   1      38.627  22.748  26.127  1.00  0.00    -0.084 Cl
ATOM     15  C   UNL A   1      36.372  21.503  25.213  1.00  0.00     0.041 A 
BRANCH   7  16
ATOM     16  C   UNL A   1      30.635  24.930  23.515  1.00  0.00     0.430 C 
ATOM     17  F   UNL A   1      31.375  25.531  22.576  1.00  0.00    -0.167 F 
ATOM     18  F   UNL A   1      29.832  24.072  22.814  1.00  0.00    -0.167 F 
ATOM     19  F   UNL A   1      29.753  25.789  24.061  1.00  0.00    -0.167 F 
ENDBRANCH   7  16
BRANCH  13  20
ATOM     20  C   UNL A   1      34.621  19.952  24.572  1.00  0.00    -0.058 C 
ATOM     21  C   UNL A   1      34.242  18.802  24.693  1.00  0.00    -0.062 C 
BRANCH  21  22
ATOM     22  C   UNL A   1      33.825  17.476  25.000  1.00  0.00     0.025 A 
ATOM     23  C   UNL A   1      34.689  16.390  24.813  1.00  0.00     0.017 A 
ATOM     24  C   UNL A   1      32.524  17.252  25.455  1.00  0.00     0.017 A 
ATOM     25  C   UNL A   1      34.262  15.093  25.113  1.00  0.00     0.001 A 
ATOM     26  C   UNL A   1      32.098  15.956  25.753  1.00  0.00     0.001 A 
ATOM     27  C   UNL A   1      32.968  14.879  25.589  1.00  0.00     0.000 A 
ENDBRANCH  21  22
ENDBRANCH  13  20
ENDBRANCH   3   5
ENDBRANCH   2   3
ENDBRANCH   1   2
BRANCH   1  28
ATOM     28  C   UNL A   1      31.915  30.080  25.868  1.00  0.00     0.275 C 
BRANCH  28  29
ATOM     29  O   UNL A   1      32.679  30.941  27.114  1.00  0.00    -0.458 OA
BRANCH  29  30
ATOM     30  C   UNL A   1      33.281  32.126  27.437  1.00  0.00     0.338 C 
ATOM     31  O   UNL A   1      32.797  33.203  27.719  1.00  0.00    -0.246 OA
BRANCH  30  32
ATOM     32  C   UNL A   1      34.702  31.759  27.709  1.00  0.00     0.060 A 
ATOM     33  C   UNL A   1      35.660  32.781  27.812  1.00  0.00     0.016 A 
ATOM     34  C   UNL A   1      34.972  30.494  28.226  1.00  0.00     0.016 A 
ATOM     35  C   UNL A   1      36.758  32.613  28.671  1.00  0.00     0.010 A 
ATOM     36  C   UNL A   1      36.094  30.313  29.031  1.00  0.00     0.010 A 
ATOM     37  C   UNL A   1      36.949  31.390  29.327  1.00  0.00    -0.014 A 
BRANCH  37  38
ATOM     38  C   UNL A   1      38.156  31.097  30.137  1.00  0.00     0.031 A 
ATOM     39  C   UNL A   1      39.133  30.149  29.520  1.00  0.00     0.074 A 
ATOM     40  C   UNL A   1      38.292  31.485  31.421  1.00  0.00     0.049 A 
ATOM     41  N   UNL A   1      40.105  29.473  30.066  1.00  0.00    -0.248 NA
ATOM     42  C   UNL A   1      38.925  29.879  28.089  1.00  0.00     0.031 C 
ATOM     43  C   UNL A   1      37.405  32.399  32.139  1.00  0.00     0.029 A 
ATOM     44  N   UNL A   1      39.217  31.110  32.369  1.00  0.00    -0.354 N 
ATOM     45  C   UNL A   1      40.594  28.665  29.053  1.00  0.00     0.074 A 
ATOM     46  C   UNL A   1      39.785  28.901  27.880  1.00  0.00     0.031 C 
ATOM     47  C   UNL A   1      37.812  32.489  33.421  1.00  0.00     0.029 A 
ATOM     48  C   UNL A   1      38.966  31.614  33.624  1.00  0.00     0.049 A 
ATOM     49  H   UNL A   1      39.989  30.533  32.167  1.00  0.00     0.167 HD
ATOM     50  C   UNL A   1      41.629  27.797  29.091  1.00  0.00     0.037 A 
ATOM     51  C   UNL A   1      39.586  31.367  34.799  1.00  0.00     0.037 A 
ATOM     52  C   UNL A   1      42.410  27.544  30.264  1.00  0.00     0.049 A 
ATOM     53  C   UNL A   1      40.739  30.386  34.829  1.00  0.00     0.074 A 
ATOM     54  C   UNL A   1      43.489  26.698  30.418  1.00  0.00     0.029 A 
ATOM     55  N   UNL A   1      42.173  28.135  31.498  1.00  0.00    -0.354 N 
ATOM     56  N   UNL A   1      41.243  29.667  33.854  1.00  0.00    -0.248 NA
ATOM     57  C   UNL A   1      41.410  30.178  36.124  1.00  0.00     0.031 C 
ATOM     58  C   UNL A   1      43.883  26.745  31.760  1.00  0.00     0.029 A 
ATOM     59  C   UNL A   1      43.084  27.665  32.425  1.00  0.00     0.049 A 
ATOM     60  H   UNL A   1      41.463  28.791  31.685  1.00  0.00     0.167 HD
ATOM     61  C   UNL A   1      42.306  28.958  34.402  1.00  0.00     0.074 A 
ATOM     62  C   UNL A   1      42.376  29.329  35.800  1.00  0.00     0.031 C 
ATOM     63  C   UNL A   1      43.152  28.083  33.804  1.00  0.00     0.037 A 
BRANCH  50  64
ATOM     64  C   UNL A   1      41.901  27.048  27.822  1.00  0.00     0.064 A 
ATOM     65  C   UNL A   1      41.438  25.733  27.636  1.00  0.00     0.173 A 
ATOM     66  C   UNL A   1      42.744  27.594  26.845  1.00  0.00     0.173 A 
ATOM     67  F   UNL A   1      40.659  25.155  28.563  1.00  0.00    -0.203 F 
ATOM     68  C   UNL A   1      41.874  24.969  26.558  1.00  0.00     0.198 A 
ATOM     69  C   UNL A   1      43.144  26.840  25.746  1.00  0.00     0.198 A 
ATOM     70  F   UNL A   1      43.218  28.841  26.979  1.00  0.00    -0.203 F 
ATOM     71  F   UNL A   1      41.519  23.680  26.468  1.00  0.00    -0.200 F 
ATOM     72  C   UNL A   1      42.727  25.522  25.616  1.00  0.00     0.200 A 
ATOM     73  F   UNL A   1      43.965  27.374  24.833  1.00  0.00    -0.200 F 
ATOM     74  F   UNL A   1      43.173  24.776  24.597  1.00  0.00    -0.200 F 
ENDBRANCH  50  64
BRANCH  51  75
ATOM     75  C   UNL A   1      39.152  32.051  36.052  1.00  0.00     0.064 A 
ATOM     76  C   UNL A   1      38.260  31.427  36.939  1.00  0.00     0.173 A 
ATOM     77  C   UNL A   1      39.573  33.350  36.371  1.00  0.00     0.173 A 
ATOM     78  F   UNL A   1      37.795  30.200  36.663  1.00  0.00    -0.203 F 
ATOM     79  C   UNL A   1      37.795  32.079  38.082  1.00  0.00     0.198 A 
ATOM     80  C   UNL A   1      39.127  33.993  37.527  1.00  0.00     0.198 A 
ATOM     81  F   UNL A   1      40.413  34.003  35.555  1.00  0.00    -0.203 F 
ATOM     82  F   UNL A   1      36.904  31.476  38.880  1.00  0.00    -0.200 F 
ATOM     83  C   UNL A   1      38.233  33.361  38.378  1.00  0.00     0.200 A 
ATOM     84  F   UNL A   1      39.552  35.233  37.810  1.00  0.00    -0.200 F 
ATOM     85  F   UNL A   1      37.783  33.989  39.473  1.00  0.00    -0.200 F 
ENDBRANCH  51  75
BRANCH  63  86
ATOM     86  C   UNL A   1      44.274  27.510  34.619  1.00  0.00     0.064 A 
ATOM     87  C   UNL A   1      44.161  26.277  35.274  1.00  0.00     0.173 A 
ATOM     88  C   UNL A   1      45.525  28.150  34.628  1.00  0.00     0.173 A 
ATOM     89  F   UNL A   1      42.986  25.631  35.301  1.00  0.00    -0.203 F 
ATOM     90  C   UNL A   1      45.261  25.703  35.908  1.00  0.00     0.198 A 
ATOM     91  C   UNL A   1      46.627  27.560  35.238  1.00  0.00     0.198 A 
ATOM     92  F   UNL A   1      45.686  29.328  34.006  1.00  0.00    -0.203 F 
ATOM     93  F   UNL A   1      45.128  24.530  36.542  1.00  0.00    -0.200 F 
ATOM     94  C   UNL A   1      46.494  26.337  35.877  1.00  0.00     0.200 A 
ATOM     95  F   UNL A   1      47.822  28.165  35.188  1.00  0.00    -0.200 F 
ATOM     96  F   UNL A   1      47.558  25.766  36.459  1.00  0.00    -0.200 F 
ENDBRANCH  63  86
ENDBRANCH  37  38
ENDBRANCH  30  32
ENDBRANCH  29  30
ENDBRANCH  28  29
ENDBRANCH   1  28
TORSDOF 14
ENDMDL
MODEL 2
REMARK VINA RESULT:     -15.2      0.821      7.341
REMARK SMILES O=C(OCCOC(=O)c1ccc(-c2c3nc(c(-c4c(F)c(F)c(F)c(F)c4F)c4ccc([nH]4)c(-c4c(F)c(F)c(F)c(F)c4F)c4nc(c(-c5c(F)c(F)c(F)c(F)c5F)c5ccc2[nH]5)C=C4)C=C3)cc1)C1=Cc2cc(Cl)cc(C#Cc3ccccc3)c2O[C@@H]1C(F)(F)F
REMARK SMILES IDX 4 1 3 2 2 3 1 4 72 5 73 6 90 7 74 8 89 9 75 10 88 11 76 12
REMARK SMILES IDX 79 13 77 14 78 15 91 16 92 17 93 18 94 19 80 20 81 21 82 22
REMARK SMILES IDX 83 23 87 24 84 25 86 26 85 27 5 28 6 29 7 30 8 31 9 32 10 33
REMARK SMILES IDX 71 34 11 35 70 36 12 37 13 38 14 39 64 40 15 41 69 42 63 43
REMARK SMILES IDX 65 44 16 45 68 46 62 47 61 48 17 50 49 51 29 52 48 53 30 54
REMARK SMILES IDX 33 55 47 56 66 57 31 58 32 59 46 61 67 62 34 63 18 64 19 65
REMARK SMILES IDX 27 66 20 67 21 68 25 69 28 70 22 71 23 72 26 73 24 74 50 75
REMARK SMILES IDX 51 76 59 77 52 78 53 79 57 80 60 81 54 82 55 83 58 84 56 85
REMARK SMILES IDX 35 86 36 87 44 88 37 89 38 90 42 91 45 92 39 93 40 94 43 95
REMARK SMILES IDX 41 96
REMARK H PARENT 65 49 33 60
REMARK Flexibility Score: inf
ROOT
ATOM      1  C   UNL A   1      31.844  28.049  25.665  1.00  0.00     0.275 C 
ENDROOT
BRANCH   1   2
ATOM      2  O   UNL A   1      32.451  26.919  26.563  1.00  0.00    -0.459 OA
BRANCH   2   3
ATOM      3  C   UNL A   1      32.005  25.695  26.264  1.00  0.00     0.338 C 
ATOM      4  O   UNL A   1      31.381  24.897  26.913  1.00  0.00    -0.246 OA
BRANCH   3   5
ATOM      5  C   UNL A   1      32.797  25.568  25.070  1.00  0.00     0.087 C 
ATOM      6  C   UNL A   1      34.236  25.560  25.406  1.00  0.00     0.027 C 
ATOM      7  C   UNL A   1      31.827  24.085  24.294  1.00  0.00     0.316 C 
ATOM      8  C   UNL A   1      35.277  24.089  25.257  1.00  0.00     0.020 A 
ATOM      9  O   UNL A   1      32.915  22.495  24.180  1.00  0.00    -0.474 OA
ATOM     10  C   UNL A   1      36.563  24.177  25.717  1.00  0.00     0.032 A 
ATOM     11  C   UNL A   1      34.643  22.542  24.758  1.00  0.00     0.143 A 
ATOM     12  C   UNL A   1      37.261  22.965  25.738  1.00  0.00     0.043 A 
ATOM     13  C   UNL A   1      35.406  21.408  24.852  1.00  0.00     0.069 A 
ATOM     14  Cl  UNL A   1      38.889  23.013  26.334  1.00  0.00    -0.084 Cl
ATOM     15  C   UNL A   1      36.721  21.676  25.342  1.00  0.00     0.041 A 
BRANCH   7  16
ATOM     16  C   UNL A   1      30.993  24.883  23.233  1.00  0.00     0.430 C 
ATOM     17  F   UNL A   1      31.670  25.084  22.097  1.00  0.00    -0.167 F 
ATOM     18  F   UNL A   1      29.933  24.101  22.859  1.00  0.00    -0.167 F 
ATOM     19  F   UNL A   1      30.399  26.017  23.651  1.00  0.00    -0.167 F 
ENDBRANCH   7  16
BRANCH  13  20
ATOM     20  C   UNL A   1      35.051  20.056  24.657  1.00  0.00    -0.058 C 
ATOM     21  C   UNL A   1      34.576  18.940  24.743  1.00  0.00    -0.062 C 
BRANCH  21  22
ATOM     22  C   UNL A   1      33.968  17.677  24.997  1.00  0.00     0.025 A 
ATOM     23  C   UNL A   1      32.654  17.596  25.473  1.00  0.00     0.017 A 
ATOM     24  C   UNL A   1      34.706  16.507  24.805  1.00  0.00     0.017 A 
ATOM     25  C   UNL A   1      32.074  16.348  25.723  1.00  0.00     0.001 A 
ATOM     26  C   UNL A   1      34.127  15.263  25.057  1.00  0.00     0.001 A 
ATOM     27  C   UNL A   1      32.809  15.183  25.508  1.00  0.00     0.000 A 
ENDBRANCH  21  22
ENDBRANCH  13  20
ENDBRANCH   3   5
ENDBRANCH   2   3
ENDBRANCH   1   2
BRANCH   1  28
ATOM     28  C   UNL A   1      31.696  30.153  26.195  1.00  0.00     0.275 C 
BRANCH  28  29
ATOM     29  O   UNL A   1      32.661  30.977  27.321  1.00  0.00    -0.458 OA
BRANCH  29  30
ATOM     30  C   UNL A   1      33.534  32.017  27.484  1.00  0.00     0.338 C 
ATOM     31  O   UNL A   1      33.325  33.195  27.687  1.00  0.00    -0.246 OA
BRANCH  30  32
ATOM     32  C   UNL A   1      34.857  31.361  27.699  1.00  0.00     0.060 A 
ATOM     33  C   UNL A   1      35.968  32.159  28.018  1.00  0.00     0.016 A 
ATOM     34  C   UNL A   1      34.884  29.992  27.958  1.00  0.00     0.016 A 
ATOM     35  C   UNL A   1      36.978  31.639  28.843  1.00  0.00     0.010 A 
ATOM     36  C   UNL A   1      35.918  29.465  28.727  1.00  0.00     0.010 A 
ATOM     37  C   UNL A   1      36.927  30.297  29.245  1.00  0.00    -0.014 A 
BRANCH  37  38
ATOM     38  C   UNL A   1      38.026  29.647  29.999  1.00  0.00     0.031 A 
ATOM     39  C   UNL A   1      38.245  30.155  31.386  1.00  0.00     0.074 A 
ATOM     40  C   UNL A   1      38.907  28.799  29.429  1.00  0.00     0.049 A 
ATOM     41  N   UNL A   1      39.275  30.020  32.176  1.00  0.00    -0.248 NA
ATOM     42  C   UNL A   1      37.166  30.998  31.923  1.00  0.00     0.031 C 
ATOM     43  C   UNL A   1      38.809  28.238  28.083  1.00  0.00     0.029 A 
ATOM     44  N   UNL A   1      40.096  28.300  29.910  1.00  0.00    -0.354 N 
ATOM     45  C   UNL A   1      38.982  30.799  33.283  1.00  0.00     0.074 A 
ATOM     46  C   UNL A   1      37.708  31.435  33.042  1.00  0.00     0.031 C 
ATOM     47  C   UNL A   1      39.907  27.496  27.835  1.00  0.00     0.029 A 
ATOM     48  C   UNL A   1      40.802  27.558  28.990  1.00  0.00     0.049 A 
ATOM     49  H   UNL A   1      40.413  28.459  30.828  1.00  0.00     0.167 HD
ATOM     50  C   UNL A   1      39.710  30.973  34.408  1.00  0.00     0.037 A 
ATOM     51  C   UNL A   1      42.039  27.020  29.074  1.00  0.00     0.037 A 
ATOM     52  C   UNL A   1      40.987  30.364  34.630  1.00  0.00     0.049 A 
ATOM     53  C   UNL A   1      42.847  27.231  30.338  1.00  0.00     0.074 A 
ATOM     54  C   UNL A   1      41.809  30.456  35.735  1.00  0.00     0.029 A 
ATOM     55  N   UNL A   1      41.633  29.553  33.706  1.00  0.00    -0.354 N 
ATOM     56  N   UNL A   1      42.543  27.918  31.413  1.00  0.00    -0.248 NA
ATOM     57  C   UNL A   1      44.174  26.594  30.399  1.00  0.00     0.031 C 
ATOM     58  C   UNL A   1      42.975  29.734  35.463  1.00  0.00     0.029 A 
ATOM     59  C   UNL A   1      42.851  29.144  34.213  1.00  0.00     0.049 A 
ATOM     60  H   UNL A   1      41.276  29.307  32.822  1.00  0.00     0.167 HD
ATOM     61  C   UNL A   1      43.612  27.764  32.288  1.00  0.00     0.074 A 
ATOM     62  C   UNL A   1      44.579  26.920  31.619  1.00  0.00     0.031 C 
ATOM     63  C   UNL A   1      43.778  28.271  33.535  1.00  0.00     0.037 A 
BRANCH  50  64
ATOM     64  C   UNL A   1      39.126  31.905  35.427  1.00  0.00     0.064 A 
ATOM     65  C   UNL A   1      39.452  33.273  35.438  1.00  0.00     0.173 A 
ATOM     66  C   UNL A   1      38.348  31.404  36.479  1.00  0.00     0.173 A 
ATOM     67  F   UNL A   1      40.226  33.789  34.471  1.00  0.00    -0.203 F 
ATOM     68  C   UNL A   1      39.086  34.084  36.506  1.00  0.00     0.198 A 
ATOM     69  C   UNL A   1      37.947  32.231  37.525  1.00  0.00     0.198 A 
ATOM     70  F   UNL A   1      38.017  30.105  36.519  1.00  0.00    -0.203 F 
ATOM     71  F   UNL A   1      39.512  35.354  36.555  1.00  0.00    -0.200 F 
ATOM     72  C   UNL A   1      38.335  33.563  37.548  1.00  0.00     0.200 A 
ATOM     73  F   UNL A   1      37.219  31.728  38.531  1.00  0.00    -0.200 F 
ATOM     74  F   UNL A   1      38.012  34.337  38.592  1.00  0.00    -0.200 F 
ENDBRANCH  50  64
BRANCH  51  75
ATOM     75  C   UNL A   1      42.605  26.225  27.946  1.00  0.00     0.064 A 
ATOM     76  C   UNL A   1      43.427  26.830  26.982  1.00  0.00     0.173 A 
ATOM     77  C   UNL A   1      42.307  24.866  27.775  1.00  0.00     0.173 A 
ATOM     78  F   UNL A   1      43.713  28.138  27.074  1.00  0.00    -0.203 F 
ATOM     79  C   UNL A   1      43.912  26.115  25.886  1.00  0.00     0.198 A 
ATOM     80  C   UNL A   1      42.813  24.143  26.692  1.00  0.00     0.198 A 
ATOM     81  F   UNL A   1      41.517  24.236  28.656  1.00  0.00    -0.203 F 
ATOM     82  F   UNL A   1      44.650  26.735  24.956  1.00  0.00    -0.200 F 
ATOM     83  C   UNL A   1      43.608  24.770  25.745  1.00  0.00     0.200 A 
ATOM     84  F   UNL A   1      42.517  22.843  26.558  1.00  0.00    -0.200 F 
ATOM     85  F   UNL A   1      44.070  24.083  24.690  1.00  0.00    -0.200 F 
ENDBRANCH  51  75
BRANCH  63  86
ATOM     86  C   UNL A   1      45.009  27.882  34.302  1.00  0.00     0.064 A 
ATOM     87  C   UNL A   1      46.180  28.650  34.262  1.00  0.00     0.173 A 
ATOM     88  C   UNL A   1      44.960  26.795  35.191  1.00  0.00     0.173 A 
ATOM     89  F   UNL A   1      46.278  29.691  33.423  1.00  0.00    -0.203 F 
ATOM     90  C   UNL A   1      47.260  28.344  35.088  1.00  0.00     0.198 A 
ATOM     91  C   UNL A   1      46.030  26.512  36.034  1.00  0.00     0.198 A 
ATOM     92  F   UNL A   1      43.856  26.037  35.272  1.00  0.00    -0.203 F 
ATOM     93  F   UNL A   1      48.377  29.081  35.025  1.00  0.00    -0.200 F 
ATOM     94  C   UNL A   1      47.178  27.286  35.982  1.00  0.00     0.200 A 
ATOM     95  F   UNL A   1      45.940  25.502  36.911  1.00  0.00    -0.200 F 
ATOM     96  F   UNL A   1      48.206  27.017  36.799  1.00  0.00    -0.200 F 
ENDBRANCH  63  86
ENDBRANCH  37  38
ENDBRANCH  30  32
ENDBRANCH  29  30
ENDBRANCH  28  29
ENDBRANCH   1  28
TORSDOF 14
ENDMDL
MODEL 3
REMARK VINA RESULT:     -15.1      3.176      7.612
REMARK SMILES O=C(OCCOC(=O)c1ccc(-c2c3nc(c(-c4c(F)c(F)c(F)c(F)c4F)c4ccc([nH]4)c(-c4c(F)c(F)c(F)c(F)c4F)c4nc(c(-c5c(F)c(F)c(F)c(F)c5F)c5ccc2[nH]5)C=C4)C=C3)cc1)C1=Cc2cc(Cl)cc(C#Cc3ccccc3)c2O[C@@H]1C(F)(F)F
REMARK SMILES IDX 4 1 3 2 2 3 1 4 72 5 73 6 90 7 74 8 89 9 75 10 88 11 76 12
REMARK SMILES IDX 79 13 77 14 78 15 91 16 92 17 93 18 94 19 80 20 81 21 82 22
REMARK SMILES IDX 83 23 87 24 84 25 86 26 85 27 5 28 6 29 7 30 8 31 9 32 10 33
REMARK SMILES IDX 71 34 11 35 70 36 12 37 13 38 14 39 64 40 15 41 69 42 63 43
REMARK SMILES IDX 65 44 16 45 68 46 62 47 61 48 17 50 49 51 29 52 48 53 30 54
REMARK SMILES IDX 33 55 47 56 66 57 31 58 32 59 46 61 67 62 34 63 18 64 19 65
REMARK SMILES IDX 27 66 20 67 21 68 25 69 28 70 22 71 23 72 26 73 24 74 50 75
REMARK SMILES IDX 51 76 59 77 52 78 53 79 57 80 60 81 54 82 55 83 58 84 56 85
REMARK SMILES IDX 35 86 36 87 44 88 37 89 38 90 42 91 45 92 39 93 40 94 43 95
REMARK SMILES IDX 41 96
REMARK H PARENT 65 49 33 60
REMARK Flexibility Score: inf
ROOT
ATOM      1  C   UNL A   1      31.851  27.742  27.328  1.00  0.00     0.275 C 
ENDROOT
BRANCH   1   2
ATOM      2  O   UNL A   1      31.448  26.769  26.170  1.00  0.00    -0.459 OA
BRANCH   2   3
ATOM      3  C   UNL A   1      31.817  25.501  26.379  1.00  0.00     0.338 C 
ATOM      4  O   UNL A   1      31.756  24.808  27.359  1.00  0.00    -0.246 OA
BRANCH   3   5
ATOM      5  C   UNL A   1      32.578  25.397  25.162  1.00  0.00     0.087 C 
ATOM      6  C   UNL A   1      34.025  25.426  25.456  1.00  0.00     0.027 C 
ATOM      7  C   UNL A   1      31.625  23.890  24.411  1.00  0.00     0.316 C 
ATOM      8  C   UNL A   1      35.099  23.983  25.273  1.00  0.00     0.020 A 
ATOM      9  O   UNL A   1      32.750  22.330  24.261  1.00  0.00    -0.474 OA
ATOM     10  C   UNL A   1      36.395  24.105  25.697  1.00  0.00     0.032 A 
ATOM     11  C   UNL A   1      34.492  22.422  24.789  1.00  0.00     0.143 A 
ATOM     12  C   UNL A   1      37.126  22.911  25.695  1.00  0.00     0.043 A 
ATOM     13  C   UNL A   1      35.288  21.307  24.858  1.00  0.00     0.069 A 
ATOM     14  Cl  UNL A   1      38.768  23.001  26.244  1.00  0.00    -0.084 Cl
ATOM     15  C   UNL A   1      36.609  21.610  25.311  1.00  0.00     0.041 A 
BRANCH   7  16
ATOM     16  C   UNL A   1      30.740  24.668  23.376  1.00  0.00     0.430 C 
ATOM     17  F   UNL A   1      31.460  25.187  22.375  1.00  0.00    -0.167 F 
ATOM     18  F   UNL A   1      29.916  23.762  22.764  1.00  0.00    -0.167 F 
ATOM     19  F   UNL A   1      29.875  25.574  23.872  1.00  0.00    -0.167 F 
ENDBRANCH   7  16
BRANCH  13  20
ATOM     20  C   UNL A   1      34.962  19.947  24.670  1.00  0.00    -0.058 C 
ATOM     21  C   UNL A   1      34.502  18.825  24.755  1.00  0.00    -0.062 C 
BRANCH  21  22
ATOM     22  C   UNL A   1      33.905  17.556  25.003  1.00  0.00     0.025 A 
ATOM     23  C   UNL A   1      32.582  17.461  25.452  1.00  0.00     0.017 A 
ATOM     24  C   UNL A   1      34.662  16.395  24.835  1.00  0.00     0.017 A 
ATOM     25  C   UNL A   1      32.013  16.207  25.697  1.00  0.00     0.001 A 
ATOM     26  C   UNL A   1      34.093  15.144  25.082  1.00  0.00     0.001 A 
ATOM     27  C   UNL A   1      32.768  15.050  25.505  1.00  0.00     0.000 A 
ENDBRANCH  21  22
ENDBRANCH  13  20
ENDBRANCH   3   5
ENDBRANCH   2   3
ENDBRANCH   1   2
BRANCH   1  28
ATOM     28  C   UNL A   1      32.351  29.848  27.104  1.00  0.00     0.275 C 
BRANCH  28  29
ATOM     29  O   UNL A   1      33.871  30.553  27.363  1.00  0.00    -0.458 OA
BRANCH  29  30
ATOM     30  C   UNL A   1      34.694  31.102  28.309  1.00  0.00     0.338 C 
ATOM     31  O   UNL A   1      34.497  32.007  29.093  1.00  0.00    -0.246 OA
BRANCH  30  32
ATOM     32  C   UNL A   1      35.820  30.130  28.430  1.00  0.00     0.060 A 
ATOM     33  C   UNL A   1      36.771  30.060  27.399  1.00  0.00     0.016 A 
ATOM     34  C   UNL A   1      36.116  29.613  29.689  1.00  0.00     0.016 A 
ATOM     35  C   UNL A   1      38.101  29.730  27.708  1.00  0.00     0.010 A 
ATOM     36  C   UNL A   1      37.423  29.230  29.978  1.00  0.00     0.010 A 
ATOM     37  C   UNL A   1      38.441  29.364  29.017  1.00  0.00    -0.014 A 
BRANCH  37  38
ATOM     38  C   UNL A   1      39.792  28.872  29.383  1.00  0.00     0.031 A 
ATOM     39  C   UNL A   1      40.668  29.856  30.087  1.00  0.00     0.074 A 
ATOM     40  C   UNL A   1      40.289  27.697  28.946  1.00  0.00     0.049 A 
ATOM     41  N   UNL A   1      41.959  29.849  30.270  1.00  0.00    -0.248 NA
ATOM     42  C   UNL A   1      39.982  31.055  30.593  1.00  0.00     0.031 C 
ATOM     43  C   UNL A   1      39.542  26.657  28.242  1.00  0.00     0.029 A 
ATOM     44  N   UNL A   1      41.574  27.204  28.994  1.00  0.00    -0.354 N 
ATOM     45  C   UNL A   1      42.243  31.063  30.873  1.00  0.00     0.074 A 
ATOM     46  C   UNL A   1      41.002  31.795  30.980  1.00  0.00     0.031 C 
ATOM     47  C   UNL A   1      40.386  25.665  27.897  1.00  0.00     0.029 A 
ATOM     48  C   UNL A   1      41.741  26.013  28.325  1.00  0.00     0.049 A 
ATOM     49  H   UNL A   1      42.308  27.663  29.464  1.00  0.00     0.167 HD
ATOM     50  C   UNL A   1      43.434  31.534  31.302  1.00  0.00     0.037 A 
ATOM     51  C   UNL A   1      42.866  25.311  28.070  1.00  0.00     0.037 A 
ATOM     52  C   UNL A   1      44.667  30.817  31.166  1.00  0.00     0.049 A 
ATOM     53  C   UNL A   1      44.196  25.855  28.549  1.00  0.00     0.074 A 
ATOM     54  C   UNL A   1      45.932  31.188  31.575  1.00  0.00     0.029 A 
ATOM     55  N   UNL A   1      44.781  29.576  30.554  1.00  0.00    -0.354 N 
ATOM     56  N   UNL A   1      44.457  26.977  29.176  1.00  0.00    -0.248 NA
ATOM     57  C   UNL A   1      45.391  25.035  28.283  1.00  0.00     0.031 C 
ATOM     58  C   UNL A   1      46.822  30.187  31.173  1.00  0.00     0.029 A 
ATOM     59  C   UNL A   1      46.101  29.169  30.565  1.00  0.00     0.049 A 
ATOM     60  H   UNL A   1      44.033  29.064  30.168  1.00  0.00     0.167 HD
ATOM     61  C   UNL A   1      45.826  26.981  29.414  1.00  0.00     0.074 A 
ATOM     62  C   UNL A   1      46.348  25.749  28.861  1.00  0.00     0.031 C 
ATOM     63  C   UNL A   1      46.585  27.916  30.038  1.00  0.00     0.037 A 
BRANCH  50  64
ATOM     64  C   UNL A   1      43.417  32.908  31.900  1.00  0.00     0.064 A 
ATOM     65  C   UNL A   1      43.199  33.104  33.276  1.00  0.00     0.173 A 
ATOM     66  C   UNL A   1      43.482  34.039  31.076  1.00  0.00     0.173 A 
ATOM     67  F   UNL A   1      43.093  32.049  34.098  1.00  0.00    -0.203 F 
ATOM     68  C   UNL A   1      42.968  34.376  33.787  1.00  0.00     0.198 A 
ATOM     69  C   UNL A   1      43.292  35.315  31.599  1.00  0.00     0.198 A 
ATOM     70  F   UNL A   1      43.681  33.906  29.756  1.00  0.00    -0.203 F 
ATOM     71  F   UNL A   1      42.639  34.526  35.078  1.00  0.00    -0.200 F 
ATOM     72  C   UNL A   1      43.012  35.480  32.949  1.00  0.00     0.200 A 
ATOM     73  F   UNL A   1      43.338  36.382  30.791  1.00  0.00    -0.200 F 
ATOM     74  F   UNL A   1      42.756  36.701  33.436  1.00  0.00    -0.200 F 
ENDBRANCH  50  64
BRANCH  51  75
ATOM     75  C   UNL A   1      42.808  24.015  27.333  1.00  0.00     0.064 A 
ATOM     76  C   UNL A   1      42.387  22.840  27.977  1.00  0.00     0.173 A 
ATOM     77  C   UNL A   1      43.211  23.905  25.994  1.00  0.00     0.173 A 
ATOM     78  F   UNL A   1      42.028  22.880  29.268  1.00  0.00    -0.203 F 
ATOM     79  C   UNL A   1      42.390  21.609  27.320  1.00  0.00     0.198 A 
ATOM     80  C   UNL A   1      43.189  22.678  25.329  1.00  0.00     0.198 A 
ATOM     81  F   UNL A   1      43.636  24.990  25.330  1.00  0.00    -0.203 F 
ATOM     82  F   UNL A   1      42.033  20.498  27.978  1.00  0.00    -0.200 F 
ATOM     83  C   UNL A   1      42.786  21.530  25.994  1.00  0.00     0.200 A 
ATOM     84  F   UNL A   1      43.574  22.604  24.046  1.00  0.00    -0.200 F 
ATOM     85  F   UNL A   1      42.792  20.347  25.363  1.00  0.00    -0.200 F 
ENDBRANCH  51  75
BRANCH  63  86
ATOM     86  C   UNL A   1      48.046  27.632  30.230  1.00  0.00     0.064 A 
ATOM     87  C   UNL A   1      48.520  26.883  31.315  1.00  0.00     0.173 A 
ATOM     88  C   UNL A   1      48.965  28.009  29.236  1.00  0.00     0.173 A 
ATOM     89  F   UNL A   1      47.683  26.508  32.294  1.00  0.00    -0.203 F 
ATOM     90  C   UNL A   1      49.861  26.517  31.397  1.00  0.00     0.198 A 
ATOM     91  C   UNL A   1      50.298  27.617  29.308  1.00  0.00     0.198 A 
ATOM     92  F   UNL A   1      48.557  28.718  28.173  1.00  0.00    -0.203 F 
ATOM     93  F   UNL A   1      50.298  25.813  32.450  1.00  0.00    -0.200 F 
ATOM     94  C   UNL A   1      50.745  26.872  30.388  1.00  0.00     0.200 A 
ATOM     95  F   UNL A   1      51.144  27.943  28.321  1.00  0.00    -0.200 F 
ATOM     96  F   UNL A   1      52.027  26.489  30.453  1.00  0.00    -0.200 F 
ENDBRANCH  63  86
ENDBRANCH  37  38
ENDBRANCH  30  32
ENDBRANCH  29  30
ENDBRANCH  28  29
ENDBRANCH   1  28
TORSDOF 14
ENDMDL
