MODEL 1
REMARK VINA RESULT:     -11.2      0.000      0.000
REMARK SMILES COc1nc(Cl)nc(N(CC(=O)OCCOC(=O)c2ccc(-c3c4nc(c(-c5c(F)c(F)c(F)c(F)c5F)c5ccc([nH]5)c(-c5c(F)c(F)c(F)c(F)c5F)c5nc(c(-c6c(F)c(F)c(F)c(F)c6F)c6ccc3[nH]6)C=C5)C=C4)cc2)C(C)(C)C)n1
REMARK SMILES IDX 14 1 13 2 11 3 12 4 10 5 9 6 8 7 3 8 4 9 86 10 5 11 6 12
REMARK SMILES IDX 7 13 2 14 1 15 82 16 83 17 84 18 85 19 15 20 16 21 17 22
REMARK SMILES IDX 18 23 19 24 20 25 81 26 21 27 80 28 22 29 23 30 24 31 74 32
REMARK SMILES IDX 25 33 79 34 73 35 75 36 26 37 78 38 72 39 71 40 27 42 59 43
REMARK SMILES IDX 39 44 58 45 40 46 43 47 57 48 76 49 41 50 42 51 56 53 77 54
REMARK SMILES IDX 44 55 28 56 29 57 37 58 30 59 31 60 35 61 38 62 32 63 33 64
REMARK SMILES IDX 36 65 34 66 60 67 61 68 69 69 62 70 63 71 67 72 70 73 64 74
REMARK SMILES IDX 65 75 68 76 66 77 45 78 46 79 54 80 47 81 48 82 52 83 55 84
REMARK SMILES IDX 49 85 50 86 53 87 51 88
REMARK H PARENT 75 41 43 52
REMARK Flexibility Score: inf
ROOT
ATOM      1  C   UNL A   1      32.627  28.262  25.093  1.00  0.00     0.274 C 
ENDROOT
BRANCH   1   2
ATOM      2  O   UNL A   1      31.405  27.510  24.943  1.00  0.00    -0.461 OA
BRANCH   2   3
ATOM      3  C   UNL A   1      31.199  26.529  25.868  1.00  0.00     0.325 C 
ATOM      4  O   UNL A   1      31.325  26.683  27.081  1.00  0.00    -0.250 OA
BRANCH   3   5
ATOM      5  C   UNL A   1      30.619  25.244  25.283  1.00  0.00     0.242 C 
BRANCH   5   6
ATOM      6  N   UNL A   1      31.512  24.073  25.286  1.00  0.00    -0.325 N 
BRANCH   6   7
ATOM      7  C   UNL A   1      32.615  24.190  24.447  1.00  0.00     0.233 A 
ATOM      8  C   UNL A   1      33.507  24.330  22.377  1.00  0.00     0.322 A 
ATOM      9  N   UNL A   1      34.750  24.134  22.767  1.00  0.00    -0.164 NA
ATOM     10  N   UNL A   1      32.431  24.385  23.150  1.00  0.00    -0.158 NA
ATOM     11  C   UNL A   1      34.823  24.010  24.078  1.00  0.00     0.230 A 
ATOM     12  Cl  UNL A   1      36.377  23.702  24.719  1.00  0.00    -0.041 Cl
ATOM     13  N   UNL A   1      33.828  24.023  24.959  1.00  0.00    -0.182 NA
BRANCH   8  14
ATOM     14  O   UNL A   1      33.279  24.464  21.028  1.00  0.00    -0.467 OA
ATOM     15  C   UNL A   1      32.421  25.583  20.832  1.00  0.00     0.282 C 
ENDBRANCH   8  14
ENDBRANCH   6   7
BRANCH   6  16
ATOM     16  C   UNL A   1      31.343  22.922  26.218  1.00  0.00     0.035 C 
ATOM     17  C   UNL A   1      29.949  22.958  26.877  1.00  0.00     0.034 C 
ATOM     18  C   UNL A   1      31.581  21.582  25.489  1.00  0.00     0.034 C 
ATOM     19  C   UNL A   1      32.360  22.944  27.380  1.00  0.00     0.034 C 
ENDBRANCH   6  16
ENDBRANCH   5   6
ENDBRANCH   3   5
ENDBRANCH   2   3
ENDBRANCH   1   2
BRANCH   1  20
ATOM     20  C   UNL A   1      32.307  29.729  25.377  1.00  0.00     0.275 C 
BRANCH  20  21
ATOM     21  O   UNL A   1      32.472  29.992  26.781  1.00  0.00    -0.458 OA
BRANCH  21  22
ATOM     22  C   UNL A   1      33.041  31.181  27.092  1.00  0.00     0.338 C 
ATOM     23  O   UNL A   1      32.584  32.291  26.879  1.00  0.00    -0.246 OA
BRANCH  22  24
ATOM     24  C   UNL A   1      34.339  30.969  27.773  1.00  0.00     0.060 A 
ATOM     25  C   UNL A   1      35.238  32.019  27.993  1.00  0.00     0.016 A 
ATOM     26  C   UNL A   1      34.697  29.666  28.128  1.00  0.00     0.016 A 
ATOM     27  C   UNL A   1      36.501  31.760  28.526  1.00  0.00     0.010 A 
ATOM     28  C   UNL A   1      35.925  29.422  28.746  1.00  0.00     0.010 A 
ATOM     29  C   UNL A   1      36.842  30.466  28.950  1.00  0.00    -0.014 A 
BRANCH  29  30
ATOM     30  C   UNL A   1      38.107  30.198  29.686  1.00  0.00     0.031 A 
ATOM     31  C   UNL A   1      39.147  29.270  29.124  1.00  0.00     0.074 A 
ATOM     32  C   UNL A   1      38.283  30.735  30.909  1.00  0.00     0.049 A 
ATOM     33  N   UNL A   1      40.192  28.744  29.714  1.00  0.00    -0.248 NA
ATOM     34  C   UNL A   1      38.988  28.873  27.718  1.00  0.00     0.031 C 
ATOM     35  C   UNL A   1      37.366  31.666  31.566  1.00  0.00     0.029 A 
ATOM     36  N   UNL A   1      39.288  30.557  31.828  1.00  0.00    -0.354 N 
ATOM     37  C   UNL A   1      40.794  27.928  28.767  1.00  0.00     0.074 A 
ATOM     38  C   UNL A   1      39.995  28.023  27.561  1.00  0.00     0.031 C 
ATOM     39  C   UNL A   1      37.856  31.994  32.769  1.00  0.00     0.029 A 
ATOM     40  C   UNL A   1      39.076  31.232  33.005  1.00  0.00     0.049 A 
ATOM     41  H   UNL A   1      40.082  30.000  31.660  1.00  0.00     0.167 HD
ATOM     42  C   UNL A   1      41.910  27.170  28.894  1.00  0.00     0.037 A 
ATOM     43  C   UNL A   1      39.754  31.205  34.166  1.00  0.00     0.037 A 
ATOM     44  C   UNL A   1      42.717  27.098  30.085  1.00  0.00     0.049 A 
ATOM     45  C   UNL A   1      40.942  30.302  34.306  1.00  0.00     0.074 A 
ATOM     46  C   UNL A   1      43.888  26.388  30.295  1.00  0.00     0.029 A 
ATOM     47  N   UNL A   1      42.438  27.761  31.271  1.00  0.00    -0.354 N 
ATOM     48  N   UNL A   1      41.485  29.510  33.416  1.00  0.00    -0.248 NA
ATOM     49  C   UNL A   1      41.593  30.268  35.624  1.00  0.00     0.031 C 
ATOM     50  C   UNL A   1      44.297  26.593  31.617  1.00  0.00     0.029 A 
ATOM     51  C   UNL A   1      43.401  27.459  32.221  1.00  0.00     0.049 A 
ATOM     52  H   UNL A   1      41.670  28.360  31.415  1.00  0.00     0.167 HD
ATOM     53  C   UNL A   1      42.545  28.887  34.058  1.00  0.00     0.074 A 
ATOM     54  C   UNL A   1      42.578  29.405  35.411  1.00  0.00     0.031 C 
ATOM     55  C   UNL A   1      43.412  27.969  33.568  1.00  0.00     0.037 A 
BRANCH  42  56
ATOM     56  C   UNL A   1      42.320  26.333  27.718  1.00  0.00     0.064 A 
ATOM     57  C   UNL A   1      43.299  26.764  26.813  1.00  0.00     0.173 A 
ATOM     58  C   UNL A   1      41.763  25.058  27.528  1.00  0.00     0.173 A 
ATOM     59  F   UNL A   1      43.853  27.978  26.945  1.00  0.00    -0.203 F 
ATOM     60  C   UNL A   1      43.693  25.956  25.748  1.00  0.00     0.198 A 
ATOM     61  C   UNL A   1      42.176  24.246  26.476  1.00  0.00     0.198 A 
ATOM     62  F   UNL A   1      40.827  24.597  28.371  1.00  0.00    -0.203 F 
ATOM     63  F   UNL A   1      44.608  26.401  24.875  1.00  0.00    -0.200 F 
ATOM     64  C   UNL A   1      43.137  24.696  25.584  1.00  0.00     0.200 A 
ATOM     65  F   UNL A   1      41.643  23.025  26.324  1.00  0.00    -0.200 F 
ATOM     66  F   UNL A   1      43.523  23.919  24.564  1.00  0.00    -0.200 F 
ENDBRANCH  42  56
BRANCH  43  67
ATOM     67  C   UNL A   1      39.292  32.046  35.297  1.00  0.00     0.064 A 
ATOM     68  C   UNL A   1      38.509  31.496  36.321  1.00  0.00     0.173 A 
ATOM     69  C   UNL A   1      39.658  33.396  35.403  1.00  0.00     0.173 A 
ATOM     70  F   UNL A   1      38.116  30.216  36.247  1.00  0.00    -0.203 F 
ATOM     71  C   UNL A   1      38.115  32.265  37.412  1.00  0.00     0.198 A 
ATOM     72  C   UNL A   1      39.283  34.157  36.506  1.00  0.00     0.198 A 
ATOM     73  F   UNL A   1      40.408  33.965  34.447  1.00  0.00    -0.203 F 
ATOM     74  F   UNL A   1      37.350  31.722  38.369  1.00  0.00    -0.200 F 
ATOM     75  C   UNL A   1      38.509  33.592  37.509  1.00  0.00     0.200 A 
ATOM     76  F   UNL A   1      39.679  35.434  36.603  1.00  0.00    -0.200 F 
ATOM     77  F   UNL A   1      38.145  34.325  38.569  1.00  0.00    -0.200 F 
ENDBRANCH  43  67
BRANCH  55  78
ATOM     78  C   UNL A   1      44.476  27.477  34.500  1.00  0.00     0.064 A 
ATOM     79  C   UNL A   1      45.695  28.157  34.637  1.00  0.00     0.173 A 
ATOM     80  C   UNL A   1      44.269  26.328  35.275  1.00  0.00     0.173 A 
ATOM     81  F   UNL A   1      45.945  29.249  33.900  1.00  0.00    -0.203 F 
ATOM     82  C   UNL A   1      46.678  27.691  35.505  1.00  0.00     0.198 A 
ATOM     83  C   UNL A   1      45.246  25.876  36.158  1.00  0.00     0.198 A 
ATOM     84  F   UNL A   1      43.118  25.646  35.179  1.00  0.00    -0.203 F 
ATOM     85  F   UNL A   1      47.853  28.331  35.591  1.00  0.00    -0.200 F 
ATOM     86  C   UNL A   1      46.451  26.554  36.267  1.00  0.00     0.200 A 
ATOM     87  F   UNL A   1      45.025  24.781  36.898  1.00  0.00    -0.200 F 
ATOM     88  F   UNL A   1      47.400  26.105  37.101  1.00  0.00    -0.200 F 
ENDBRANCH  55  78
ENDBRANCH  29  30
ENDBRANCH  22  24
ENDBRANCH  21  22
ENDBRANCH  20  21
ENDBRANCH   1  20
TORSDOF 15
ENDMDL
MODEL 2
REMARK VINA RESULT:     -11.2      4.279      9.575
REMARK SMILES COc1nc(Cl)nc(N(CC(=O)OCCOC(=O)c2ccc(-c3c4nc(c(-c5c(F)c(F)c(F)c(F)c5F)c5ccc([nH]5)c(-c5c(F)c(F)c(F)c(F)c5F)c5nc(c(-c6c(F)c(F)c(F)c(F)c6F)c6ccc3[nH]6)C=C5)C=C4)cc2)C(C)(C)C)n1
REMARK SMILES IDX 14 1 13 2 11 3 12 4 10 5 9 6 8 7 3 8 4 9 86 10 5 11 6 12
REMARK SMILES IDX 7 13 2 14 1 15 82 16 83 17 84 18 85 19 15 20 16 21 17 22
REMARK SMILES IDX 18 23 19 24 20 25 81 26 21 27 80 28 22 29 23 30 24 31 74 32
REMARK SMILES IDX 25 33 79 34 73 35 75 36 26 37 78 38 72 39 71 40 27 42 59 43
REMARK SMILES IDX 39 44 58 45 40 46 43 47 57 48 76 49 41 50 42 51 56 53 77 54
REMARK SMILES IDX 44 55 28 56 29 57 37 58 30 59 31 60 35 61 38 62 32 63 33 64
REMARK SMILES IDX 36 65 34 66 60 67 61 68 69 69 62 70 63 71 67 72 70 73 64 74
REMARK SMILES IDX 65 75 68 76 66 77 45 78 46 79 54 80 47 81 48 82 52 83 55 84
REMARK SMILES IDX 49 85 50 86 53 87 51 88
REMARK H PARENT 75 41 43 52
REMARK Flexibility Score: inf
ROOT
ATOM      1  C   UNL A   1      34.616  21.461  24.954  1.00  0.00     0.274 C 
ENDROOT
BRANCH   1   2
ATOM      2  O   UNL A   1      34.729  22.887  24.775  1.00  0.00    -0.461 OA
BRANCH   2   3
ATOM      3  C   UNL A   1      34.633  23.330  23.488  1.00  0.00     0.325 C 
ATOM      4  O   UNL A   1      35.587  23.445  22.723  1.00  0.00    -0.250 OA
BRANCH   3   5
ATOM      5  C   UNL A   1      33.195  23.510  23.005  1.00  0.00     0.242 C 
BRANCH   5   6
ATOM      6  N   UNL A   1      32.630  24.862  23.152  1.00  0.00    -0.325 N 
BRANCH   6   7
ATOM      7  C   UNL A   1      32.291  25.204  24.457  1.00  0.00     0.233 A 
ATOM      8  C   UNL A   1      30.930  25.018  26.250  1.00  0.00     0.322 A 
ATOM      9  N   UNL A   1      31.434  26.051  26.892  1.00  0.00    -0.164 NA
ATOM     10  N   UNL A   1      31.318  24.548  25.072  1.00  0.00    -0.158 NA
ATOM     11  C   UNL A   1      32.430  26.591  26.217  1.00  0.00     0.230 A 
ATOM     12  Cl  UNL A   1      33.147  27.977  26.915  1.00  0.00    -0.041 Cl
ATOM     13  N   UNL A   1      32.901  26.236  25.026  1.00  0.00    -0.182 NA
BRANCH   8  14
ATOM     14  O   UNL A   1      29.872  24.362  26.833  1.00  0.00    -0.467 OA
ATOM     15  C   UNL A   1      30.164  22.969  26.843  1.00  0.00     0.282 C 
ENDBRANCH   8  14
ENDBRANCH   6   7
BRANCH   6  16
ATOM     16  C   UNL A   1      32.566  25.844  22.033  1.00  0.00     0.035 C 
ATOM     17  C   UNL A   1      31.177  26.510  21.975  1.00  0.00     0.034 C 
ATOM     18  C   UNL A   1      33.687  26.898  22.156  1.00  0.00     0.034 C 
ATOM     19  C   UNL A   1      32.774  25.184  20.651  1.00  0.00     0.034 C 
ENDBRANCH   6  16
ENDBRANCH   5   6
ENDBRANCH   3   5
ENDBRANCH   2   3
ENDBRANCH   1   2
BRANCH   1  20
ATOM     20  C   UNL A   1      36.000  20.850  25.172  1.00  0.00     0.275 C 
BRANCH  20  21
ATOM     21  O   UNL A   1      36.868  21.833  25.765  1.00  0.00    -0.458 OA
BRANCH  21  22
ATOM     22  C   UNL A   1      38.181  21.503  25.810  1.00  0.00     0.338 C 
ATOM     23  O   UNL A   1      38.683  20.444  25.474  1.00  0.00    -0.246 OA
BRANCH  22  24
ATOM     24  C   UNL A   1      38.982  22.641  26.318  1.00  0.00     0.060 A 
ATOM     25  C   UNL A   1      40.108  22.449  27.127  1.00  0.00     0.016 A 
ATOM     26  C   UNL A   1      38.541  23.937  26.042  1.00  0.00     0.016 A 
ATOM     27  C   UNL A   1      40.764  23.546  27.687  1.00  0.00     0.010 A 
ATOM     28  C   UNL A   1      39.253  25.036  26.529  1.00  0.00     0.010 A 
ATOM     29  C   UNL A   1      40.371  24.853  27.359  1.00  0.00    -0.014 A 
BRANCH  29  30
ATOM     30  C   UNL A   1      41.162  26.034  27.795  1.00  0.00     0.031 A 
ATOM     31  C   UNL A   1      40.527  27.140  28.590  1.00  0.00     0.074 A 
ATOM     32  C   UNL A   1      42.446  26.148  27.402  1.00  0.00     0.049 A 
ATOM     33  N   UNL A   1      40.989  28.336  28.860  1.00  0.00    -0.248 NA
ATOM     34  C   UNL A   1      39.193  26.872  29.146  1.00  0.00     0.031 C 
ATOM     35  C   UNL A   1      43.193  25.142  26.646  1.00  0.00     0.029 A 
ATOM     36  N   UNL A   1      43.345  27.172  27.569  1.00  0.00    -0.354 N 
ATOM     37  C   UNL A   1      39.993  28.975  29.584  1.00  0.00     0.074 A 
ATOM     38  C   UNL A   1      38.896  28.036  29.709  1.00  0.00     0.031 C 
ATOM     39  C   UNL A   1      44.438  25.587  26.431  1.00  0.00     0.029 A 
ATOM     40  C   UNL A   1      44.553  26.941  26.958  1.00  0.00     0.049 A 
ATOM     41  H   UNL A   1      43.144  27.991  28.076  1.00  0.00     0.167 HD
ATOM     42  C   UNL A   1      39.996  30.230  30.096  1.00  0.00     0.037 A 
ATOM     43  C   UNL A   1      45.619  27.744  26.790  1.00  0.00     0.037 A 
ATOM     44  C   UNL A   1      41.099  31.151  29.994  1.00  0.00     0.049 A 
ATOM     45  C   UNL A   1      45.570  29.153  27.301  1.00  0.00     0.074 A 
ATOM     46  C   UNL A   1      41.209  32.430  30.515  1.00  0.00     0.029 A 
ATOM     47  N   UNL A   1      42.285  30.893  29.323  1.00  0.00    -0.354 N 
ATOM     48  N   UNL A   1      44.611  29.759  27.957  1.00  0.00    -0.248 NA
ATOM     49  C   UNL A   1      46.740  29.997  27.021  1.00  0.00     0.031 C 
ATOM     50  C   UNL A   1      42.447  32.958  30.130  1.00  0.00     0.029 A 
ATOM     51  C   UNL A   1      43.123  31.996  29.399  1.00  0.00     0.049 A 
ATOM     52  H   UNL A   1      42.501  30.050  28.863  1.00  0.00     0.167 HD
ATOM     53  C   UNL A   1      45.062  31.052  28.176  1.00  0.00     0.074 A 
ATOM     54  C   UNL A   1      46.386  31.140  27.595  1.00  0.00     0.031 C 
ATOM     55  C   UNL A   1      44.431  32.074  28.803  1.00  0.00     0.037 A 
BRANCH  42  56
ATOM     56  C   UNL A   1      38.757  30.697  30.802  1.00  0.00     0.064 A 
ATOM     57  C   UNL A   1      37.658  31.209  30.099  1.00  0.00     0.173 A 
ATOM     58  C   UNL A   1      38.649  30.578  32.197  1.00  0.00     0.173 A 
ATOM     59  F   UNL A   1      37.716  31.352  28.767  1.00  0.00    -0.203 F 
ATOM     60  C   UNL A   1      36.501  31.602  30.769  1.00  0.00     0.198 A 
ATOM     61  C   UNL A   1      37.484  30.952  32.860  1.00  0.00     0.198 A 
ATOM     62  F   UNL A   1      39.671  30.088  32.914  1.00  0.00    -0.203 F 
ATOM     63  F   UNL A   1      35.474  32.120  30.081  1.00  0.00    -0.200 F 
ATOM     64  C   UNL A   1      36.413  31.468  32.147  1.00  0.00     0.200 A 
ATOM     65  F   UNL A   1      37.397  30.814  34.190  1.00  0.00    -0.200 F 
ATOM     66  F   UNL A   1      35.297  31.841  32.787  1.00  0.00    -0.200 F 
ENDBRANCH  42  56
BRANCH  43  67
ATOM     67  C   UNL A   1      46.811  27.230  26.073  1.00  0.00     0.064 A 
ATOM     68  C   UNL A   1      46.980  27.475  24.704  1.00  0.00     0.173 A 
ATOM     69  C   UNL A   1      47.822  26.527  26.745  1.00  0.00     0.173 A 
ATOM     70  F   UNL A   1      46.026  28.121  24.018  1.00  0.00    -0.203 F 
ATOM     71  C   UNL A   1      48.120  27.040  24.034  1.00  0.00     0.198 A 
ATOM     72  C   UNL A   1      48.972  26.114  26.079  1.00  0.00     0.198 A 
ATOM     73  F   UNL A   1      47.704  26.270  28.056  1.00  0.00    -0.203 F 
ATOM     74  F   UNL A   1      48.250  27.269  22.721  1.00  0.00    -0.200 F 
ATOM     75  C   UNL A   1      49.120  26.369  24.723  1.00  0.00     0.200 A 
ATOM     76  F   UNL A   1      49.943  25.479  26.751  1.00  0.00    -0.200 F 
ATOM     77  F   UNL A   1      50.226  25.968  24.081  1.00  0.00    -0.200 F 
ENDBRANCH  43  67
BRANCH  55  78
ATOM     78  C   UNL A   1      45.175  33.370  28.902  1.00  0.00     0.064 A 
ATOM     79  C   UNL A   1      46.057  33.624  29.963  1.00  0.00     0.173 A 
ATOM     80  C   UNL A   1      45.019  34.359  27.921  1.00  0.00     0.173 A 
ATOM     81  F   UNL A   1      46.223  32.714  30.935  1.00  0.00    -0.203 F 
ATOM     82  C   UNL A   1      46.743  34.832  30.046  1.00  0.00     0.198 A 
ATOM     83  C   UNL A   1      45.722  35.558  27.997  1.00  0.00     0.198 A 
ATOM     84  F   UNL A   1      44.187  34.161  26.888  1.00  0.00    -0.203 F 
ATOM     85  F   UNL A   1      47.550  35.071  31.089  1.00  0.00    -0.200 F 
ATOM     86  C   UNL A   1      46.578  35.795  29.062  1.00  0.00     0.200 A 
ATOM     87  F   UNL A   1      45.566  36.487  27.044  1.00  0.00    -0.200 F 
ATOM     88  F   UNL A   1      47.238  36.959  29.146  1.00  0.00    -0.200 F 
ENDBRANCH  55  78
ENDBRANCH  29  30
ENDBRANCH  22  24
ENDBRANCH  21  22
ENDBRANCH  20  21
ENDBRANCH   1  20
TORSDOF 15
ENDMDL
MODEL 3
REMARK VINA RESULT:     -11.1      0.996      2.380
REMARK SMILES COc1nc(Cl)nc(N(CC(=O)OCCOC(=O)c2ccc(-c3c4nc(c(-c5c(F)c(F)c(F)c(F)c5F)c5ccc([nH]5)c(-c5c(F)c(F)c(F)c(F)c5F)c5nc(c(-c6c(F)c(F)c(F)c(F)c6F)c6ccc3[nH]6)C=C5)C=C4)cc2)C(C)(C)C)n1
REMARK SMILES IDX 14 1 13 2 11 3 12 4 10 5 9 6 8 7 3 8 4 9 86 10 5 11 6 12
REMARK SMILES IDX 7 13 2 14 1 15 82 16 83 17 84 18 85 19 15 20 16 21 17 22
REMARK SMILES IDX 18 23 19 24 20 25 81 26 21 27 80 28 22 29 23 30 24 31 74 32
REMARK SMILES IDX 25 33 79 34 73 35 75 36 26 37 78 38 72 39 71 40 27 42 59 43
REMARK SMILES IDX 39 44 58 45 40 46 43 47 57 48 76 49 41 50 42 51 56 53 77 54
REMARK SMILES IDX 44 55 28 56 29 57 37 58 30 59 31 60 35 61 38 62 32 63 33 64
REMARK SMILES IDX 36 65 34 66 60 67 61 68 69 69 62 70 63 71 67 72 70 73 64 74
REMARK SMILES IDX 65 75 68 76 66 77 45 78 46 79 54 80 47 81 48 82 52 83 55 84
REMARK SMILES IDX 49 85 50 86 53 87 51 88
REMARK H PARENT 75 41 43 52
REMARK Flexibility Score: inf
ROOT
ATOM      1  C   UNL A   1      31.844  28.113  26.194  1.00  0.00     0.274 C 
ENDROOT
BRANCH   1   2
ATOM      2  O   UNL A   1      30.838  27.464  25.390  1.00  0.00    -0.461 OA
BRANCH   2   3
ATOM      3  C   UNL A   1      30.720  26.117  25.566  1.00  0.00     0.325 C 
ATOM      4  O   UNL A   1      30.501  25.576  26.647  1.00  0.00    -0.250 OA
BRANCH   3   5
ATOM      5  C   UNL A   1      30.709  25.324  24.260  1.00  0.00     0.242 C 
BRANCH   5   6
ATOM      6  N   UNL A   1      31.974  25.307  23.506  1.00  0.00    -0.325 N 
BRANCH   6   7
ATOM      7  C   UNL A   1      32.790  24.214  23.778  1.00  0.00     0.233 A 
ATOM      8  C   UNL A   1      33.125  21.982  23.869  1.00  0.00     0.322 A 
ATOM      9  N   UNL A   1      34.245  22.056  24.559  1.00  0.00    -0.164 NA
ATOM     10  N   UNL A   1      32.384  22.997  23.446  1.00  0.00    -0.158 NA
ATOM     11  C   UNL A   1      34.583  23.311  24.783  1.00  0.00     0.230 A 
ATOM     12  Cl  UNL A   1      35.996  23.553  25.714  1.00  0.00    -0.041 Cl
ATOM     13  N   UNL A   1      33.925  24.412  24.438  1.00  0.00    -0.182 NA
BRANCH   8  14
ATOM     14  O   UNL A   1      32.644  20.729  23.572  1.00  0.00    -0.467 OA
ATOM     15  C   UNL A   1      32.531  19.997  24.788  1.00  0.00     0.282 C 
ENDBRANCH   8  14
ENDBRANCH   6   7
BRANCH   6  16
ATOM     16  C   UNL A   1      32.295  26.288  22.431  1.00  0.00     0.035 C 
ATOM     17  C   UNL A   1      31.029  27.055  22.001  1.00  0.00     0.034 C 
ATOM     18  C   UNL A   1      33.409  27.257  22.881  1.00  0.00     0.034 C 
ATOM     19  C   UNL A   1      32.833  25.611  21.151  1.00  0.00     0.034 C 
ENDBRANCH   6  16
ENDBRANCH   5   6
ENDBRANCH   3   5
ENDBRANCH   2   3
ENDBRANCH   1   2
BRANCH   1  20
ATOM     20  C   UNL A   1      31.771  29.627  26.002  1.00  0.00     0.275 C 
BRANCH  20  21
ATOM     21  O   UNL A   1      33.098  30.180  26.045  1.00  0.00    -0.458 OA
BRANCH  21  22
ATOM     22  C   UNL A   1      33.301  31.145  26.973  1.00  0.00     0.338 C 
ATOM     23  O   UNL A   1      32.555  32.071  27.243  1.00  0.00    -0.246 OA
BRANCH  22  24
ATOM     24  C   UNL A   1      34.589  30.926  27.672  1.00  0.00     0.060 A 
ATOM     25  C   UNL A   1      35.473  31.977  27.936  1.00  0.00     0.016 A 
ATOM     26  C   UNL A   1      34.951  29.617  27.998  1.00  0.00     0.016 A 
ATOM     27  C   UNL A   1      36.729  31.715  28.486  1.00  0.00     0.010 A 
ATOM     28  C   UNL A   1      36.171  29.367  28.631  1.00  0.00     0.010 A 
ATOM     29  C   UNL A   1      37.074  30.413  28.881  1.00  0.00    -0.014 A 
BRANCH  29  30
ATOM     30  C   UNL A   1      38.328  30.136  29.632  1.00  0.00     0.031 A 
ATOM     31  C   UNL A   1      39.380  29.221  29.072  1.00  0.00     0.074 A 
ATOM     32  C   UNL A   1      38.482  30.652  30.867  1.00  0.00     0.049 A 
ATOM     33  N   UNL A   1      40.417  28.688  29.669  1.00  0.00    -0.248 NA
ATOM     34  C   UNL A   1      39.245  28.848  27.656  1.00  0.00     0.031 C 
ATOM     35  C   UNL A   1      37.551  31.569  31.525  1.00  0.00     0.029 A 
ATOM     36  N   UNL A   1      39.473  30.461  31.799  1.00  0.00    -0.354 N 
ATOM     37  C   UNL A   1      41.037  27.891  28.717  1.00  0.00     0.074 A 
ATOM     38  C   UNL A   1      40.257  28.004  27.501  1.00  0.00     0.031 C 
ATOM     39  C   UNL A   1      38.021  31.877  32.741  1.00  0.00     0.029 A 
ATOM     40  C   UNL A   1      39.239  31.115  32.984  1.00  0.00     0.049 A 
ATOM     41  H   UNL A   1      40.271  29.910  31.634  1.00  0.00     0.167 HD
ATOM     42  C   UNL A   1      42.153  27.134  28.850  1.00  0.00     0.037 A 
ATOM     43  C   UNL A   1      39.899  31.070  34.155  1.00  0.00     0.037 A 
ATOM     44  C   UNL A   1      42.941  27.043  30.052  1.00  0.00     0.049 A 
ATOM     45  C   UNL A   1      41.087  30.168  34.299  1.00  0.00     0.074 A 
ATOM     46  C   UNL A   1      44.110  26.333  30.269  1.00  0.00     0.029 A 
ATOM     47  N   UNL A   1      42.640  27.685  31.245  1.00  0.00    -0.354 N 
ATOM     48  N   UNL A   1      41.647  29.393  33.404  1.00  0.00    -0.248 NA
ATOM     49  C   UNL A   1      41.717  30.113  35.626  1.00  0.00     0.031 C 
ATOM     50  C   UNL A   1      44.498  26.517  31.601  1.00  0.00     0.029 A 
ATOM     51  C   UNL A   1      43.589  27.369  32.206  1.00  0.00     0.049 A 
ATOM     52  H   UNL A   1      41.868  28.279  31.387  1.00  0.00     0.167 HD
ATOM     53  C   UNL A   1      42.698  28.763  34.053  1.00  0.00     0.074 A 
ATOM     54  C   UNL A   1      42.708  29.257  35.415  1.00  0.00     0.031 C 
ATOM     55  C   UNL A   1      43.576  27.856  33.560  1.00  0.00     0.037 A 
BRANCH  42  56
ATOM     56  C   UNL A   1      42.585  26.318  27.667  1.00  0.00     0.064 A 
ATOM     57  C   UNL A   1      43.559  26.779  26.770  1.00  0.00     0.173 A 
ATOM     58  C   UNL A   1      42.055  25.035  27.460  1.00  0.00     0.173 A 
ATOM     59  F   UNL A   1      44.088  28.002  26.919  1.00  0.00    -0.203 F 
ATOM     60  C   UNL A   1      43.974  25.991  25.699  1.00  0.00     0.198 A 
ATOM     61  C   UNL A   1      42.488  24.243  26.400  1.00  0.00     0.198 A 
ATOM     62  F   UNL A   1      41.124  24.545  28.293  1.00  0.00    -0.203 F 
ATOM     63  F   UNL A   1      44.883  26.465  24.834  1.00  0.00    -0.200 F 
ATOM     64  C   UNL A   1      43.443  24.723  25.518  1.00  0.00     0.200 A 
ATOM     65  F   UNL A   1      41.980  23.014  26.232  1.00  0.00    -0.200 F 
ATOM     66  F   UNL A   1      43.849  23.965  24.490  1.00  0.00    -0.200 F 
ENDBRANCH  42  56
BRANCH  43  67
ATOM     67  C   UNL A   1      39.415  31.889  35.293  1.00  0.00     0.064 A 
ATOM     68  C   UNL A   1      39.787  33.234  35.412  1.00  0.00     0.173 A 
ATOM     69  C   UNL A   1      38.539  31.362  36.254  1.00  0.00     0.173 A 
ATOM     70  F   UNL A   1      40.641  33.772  34.529  1.00  0.00    -0.203 F 
ATOM     71  C   UNL A   1      39.296  34.025  36.448  1.00  0.00     0.198 A 
ATOM     72  C   UNL A   1      38.031  32.159  37.275  1.00  0.00     0.198 A 
ATOM     73  F   UNL A   1      38.155  30.079  36.180  1.00  0.00    -0.203 F 
ATOM     74  F   UNL A   1      39.681  35.303  36.552  1.00  0.00    -0.200 F 
ATOM     75  C   UNL A   1      38.411  33.489  37.373  1.00  0.00     0.200 A 
ATOM     76  F   UNL A   1      37.165  31.642  38.158  1.00  0.00    -0.200 F 
ATOM     77  F   UNL A   1      37.925  34.256  38.358  1.00  0.00    -0.200 F 
ENDBRANCH  43  67
BRANCH  55  78
ATOM     78  C   UNL A   1      44.627  27.351  34.502  1.00  0.00     0.064 A 
ATOM     79  C   UNL A   1      44.432  26.182  35.251  1.00  0.00     0.173 A 
ATOM     80  C   UNL A   1      45.844  28.032  34.643  1.00  0.00     0.173 A 
ATOM     81  F   UNL A   1      43.275  25.509  35.163  1.00  0.00    -0.203 F 
ATOM     82  C   UNL A   1      45.414  25.722  36.124  1.00  0.00     0.198 A 
ATOM     83  C   UNL A   1      46.832  27.558  35.501  1.00  0.00     0.198 A 
ATOM     84  F   UNL A   1      46.076  29.154  33.946  1.00  0.00    -0.203 F 
ATOM     85  F   UNL A   1      45.192  24.625  36.862  1.00  0.00    -0.200 F 
ATOM     86  C   UNL A   1      46.614  26.408  36.245  1.00  0.00     0.200 A 
ATOM     87  F   UNL A   1      47.993  28.218  35.615  1.00  0.00    -0.200 F 
ATOM     88  F   UNL A   1      47.557  25.965  37.088  1.00  0.00    -0.200 F 
ENDBRANCH  55  78
ENDBRANCH  29  30
ENDBRANCH  22  24
ENDBRANCH  21  22
ENDBRANCH  20  21
ENDBRANCH   1  20
TORSDOF 15
ENDMDL
