MODEL 1
REMARK VINA RESULT:     -13.1      0.000      0.000
REMARK SMILES O=C(OCCOC(=O)c1ccc(-c2c3nc(c(-c4c(F)c(F)c(F)c(F)c4F)c4ccc([nH]4)c(-c4c(F)c(F)c(F)c(F)c4F)c4nc(c(-c5c(F)c(F)c(F)c(F)c5F)c5ccc2[nH]5)C=C4)C=C3)cc1)c1ccc(NC(=O)[C@@H]2CC=CC[C@@H]2C(=O)Nc2ccc(Br)cc2)cc1
REMARK SMILES IDX 4 1 3 2 2 3 1 4 72 5 73 6 96 7 74 8 95 9 75 10 76 11 77 12
REMARK SMILES IDX 78 14 79 15 80 16 84 17 81 18 83 19 82 20 85 21 86 22 87 23
REMARK SMILES IDX 88 25 89 26 94 27 90 28 93 29 91 30 92 31 5 32 6 33 7 34
REMARK SMILES IDX 8 35 9 36 10 37 71 38 11 39 70 40 12 41 13 42 14 43 64 44
REMARK SMILES IDX 15 45 69 46 63 47 65 48 16 49 68 50 62 51 61 52 17 54 49 55
REMARK SMILES IDX 29 56 48 57 30 58 33 59 47 60 66 61 31 62 32 63 46 65 67 66
REMARK SMILES IDX 34 67 18 68 19 69 27 70 20 71 21 72 25 73 28 74 22 75 23 76
REMARK SMILES IDX 26 77 24 78 50 79 51 80 59 81 52 82 53 83 57 84 60 85 54 86
REMARK SMILES IDX 55 87 58 88 56 89 35 90 36 91 44 92 37 93 38 94 42 95 45 96
REMARK SMILES IDX 39 97 40 98 43 99 41 100
REMARK H PARENT 76 13 87 24 65 53 33 64
REMARK Flexibility Score: inf
ROOT
ATOM      1  C   UNL A   1      38.211  19.856  24.968  1.00  0.00     0.275 C 
ENDROOT
BRANCH   1   2
ATOM      2  O   UNL A   1      37.075  20.681  25.300  1.00  0.00    -0.458 OA
BRANCH   2   3
ATOM      3  C   UNL A   1      36.570  21.797  24.723  1.00  0.00     0.338 C 
ATOM      4  O   UNL A   1      37.001  22.135  23.622  1.00  0.00    -0.246 OA
BRANCH   3   5
ATOM      5  C   UNL A   1      35.584  22.714  25.380  1.00  0.00     0.060 A 
ATOM      6  C   UNL A   1      35.515  24.093  25.222  1.00  0.00     0.018 A 
ATOM      7  C   UNL A   1      34.649  22.134  26.251  1.00  0.00     0.018 A 
ATOM      8  C   UNL A   1      34.427  24.830  25.727  1.00  0.00     0.027 A 
ATOM      9  C   UNL A   1      33.580  22.881  26.769  1.00  0.00     0.027 A 
ATOM     10  C   UNL A   1      33.377  24.211  26.394  1.00  0.00     0.041 A 
BRANCH  10  11
ATOM     11  N   UNL A   1      32.087  24.732  26.655  1.00  0.00    -0.326 N 
ATOM     12  C   UNL A   1      31.504  25.973  26.588  1.00  0.00     0.228 C 
ATOM     13  H   UNL A   1      31.457  24.039  26.957  1.00  0.00     0.169 HD
ATOM     14  O   UNL A   1      30.272  26.020  26.653  1.00  0.00    -0.274 OA
BRANCH  12  15
ATOM     15  C   UNL A   1      32.310  27.242  26.466  1.00  0.00     0.095 C 
ATOM     16  C   UNL A   1      31.609  28.338  27.264  1.00  0.00     0.041 C 
ATOM     17  C   UNL A   1      32.771  27.695  25.073  1.00  0.00     0.095 C 
ATOM     18  C   UNL A   1      32.434  29.586  27.287  1.00  0.00    -0.030 C 
ATOM     19  C   UNL A   1      33.748  28.892  25.261  1.00  0.00     0.041 C 
ATOM     20  C   UNL A   1      33.414  29.821  26.402  1.00  0.00    -0.030 C 
BRANCH  17  21
ATOM     21  C   UNL A   1      31.682  28.086  24.062  1.00  0.00     0.228 C 
ATOM     22  O   UNL A   1      31.268  29.245  23.982  1.00  0.00    -0.274 OA
ATOM     23  N   UNL A   1      31.297  27.200  23.077  1.00  0.00    -0.326 N 
ATOM     24  H   UNL A   1      30.815  27.609  22.321  1.00  0.00     0.169 HD
BRANCH  23  25
ATOM     25  C   UNL A   1      31.478  25.812  22.973  1.00  0.00     0.041 A 
ATOM     26  C   UNL A   1      32.666  25.314  22.428  1.00  0.00     0.027 A 
ATOM     27  C   UNL A   1      30.513  24.905  23.396  1.00  0.00     0.027 A 
ATOM     28  C   UNL A   1      32.955  23.943  22.487  1.00  0.00     0.018 A 
ATOM     29  C   UNL A   1      30.810  23.548  23.478  1.00  0.00     0.018 A 
ATOM     30  C   UNL A   1      32.040  23.073  23.065  1.00  0.00     0.018 A 
ATOM     31  Br  UNL A   1      32.453  21.248  23.323  1.00  0.00    -0.051 Br
ENDBRANCH  23  25
ENDBRANCH  17  21
ENDBRANCH  12  15
ENDBRANCH  10  11
ENDBRANCH   3   5
ENDBRANCH   2   3
ENDBRANCH   1   2
BRANCH   1  32
ATOM     32  C   UNL A   1      39.534  20.265  25.620  1.00  0.00     0.275 C 
BRANCH  32  33
ATOM     33  O   UNL A   1      40.240  19.156  26.187  1.00  0.00    -0.458 OA
BRANCH  33  34
ATOM     34  C   UNL A   1      41.599  19.196  26.056  1.00  0.00     0.338 C 
ATOM     35  O   UNL A   1      42.307  18.305  25.643  1.00  0.00    -0.246 OA
BRANCH  34  36
ATOM     36  C   UNL A   1      42.102  20.542  26.458  1.00  0.00     0.060 A 
ATOM     37  C   UNL A   1      42.172  20.878  27.817  1.00  0.00     0.016 A 
ATOM     38  C   UNL A   1      42.516  21.476  25.509  1.00  0.00     0.016 A 
ATOM     39  C   UNL A   1      42.615  22.152  28.219  1.00  0.00     0.010 A 
ATOM     40  C   UNL A   1      42.985  22.730  25.913  1.00  0.00     0.010 A 
ATOM     41  C   UNL A   1      42.999  23.100  27.263  1.00  0.00    -0.014 A 
BRANCH  41  42
ATOM     42  C   UNL A   1      43.444  24.479  27.599  1.00  0.00     0.031 A 
ATOM     43  C   UNL A   1      42.449  25.577  27.861  1.00  0.00     0.074 A 
ATOM     44  C   UNL A   1      44.741  24.805  27.448  1.00  0.00     0.049 A 
ATOM     45  N   UNL A   1      42.668  26.843  28.125  1.00  0.00    -0.248 NA
ATOM     46  C   UNL A   1      41.027  25.215  27.799  1.00  0.00     0.031 C 
ATOM     47  C   UNL A   1      45.805  23.869  27.100  1.00  0.00     0.029 A 
ATOM     48  N   UNL A   1      45.369  26.024  27.494  1.00  0.00    -0.354 N 
ATOM     49  C   UNL A   1      41.417  27.421  28.292  1.00  0.00     0.074 A 
ATOM     50  C   UNL A   1      40.440  26.385  28.027  1.00  0.00     0.031 C 
ATOM     51  C   UNL A   1      46.934  24.557  26.866  1.00  0.00     0.029 A 
ATOM     52  C   UNL A   1      46.687  25.976  27.114  1.00  0.00     0.049 A 
ATOM     53  H   UNL A   1      44.917  26.853  27.774  1.00  0.00     0.167 HD
ATOM     54  C   UNL A   1      41.118  28.690  28.669  1.00  0.00     0.037 A 
ATOM     55  C   UNL A   1      47.601  26.958  26.998  1.00  0.00     0.037 A 
ATOM     56  C   UNL A   1      42.095  29.723  28.918  1.00  0.00     0.049 A 
ATOM     57  C   UNL A   1      47.251  28.359  27.424  1.00  0.00     0.074 A 
ATOM     58  C   UNL A   1      41.901  30.984  29.457  1.00  0.00     0.029 A 
ATOM     59  N   UNL A   1      43.442  29.630  28.607  1.00  0.00    -0.354 N 
ATOM     60  N   UNL A   1      46.103  28.839  27.833  1.00  0.00    -0.248 NA
ATOM     61  C   UNL A   1      48.344  29.343  27.425  1.00  0.00     0.031 C 
ATOM     62  C   UNL A   1      43.114  31.679  29.404  1.00  0.00     0.029 A 
ATOM     63  C   UNL A   1      44.079  30.829  28.893  1.00  0.00     0.049 A 
ATOM     64  H   UNL A   1      43.882  28.832  28.237  1.00  0.00     0.167 HD
ATOM     65  C   UNL A   1      46.348  30.160  28.187  1.00  0.00     0.074 A 
ATOM     66  C   UNL A   1      47.753  30.404  27.955  1.00  0.00     0.031 C 
ATOM     67  C   UNL A   1      45.478  31.082  28.668  1.00  0.00     0.037 A 
BRANCH  54  68
ATOM     68  C   UNL A   1      39.676  29.047  28.897  1.00  0.00     0.064 A 
ATOM     69  C   UNL A   1      38.850  29.430  27.829  1.00  0.00     0.173 A 
ATOM     70  C   UNL A   1      39.078  28.863  30.154  1.00  0.00     0.173 A 
ATOM     71  F   UNL A   1      39.367  29.608  26.604  1.00  0.00    -0.203 F 
ATOM     72  C   UNL A   1      37.484  29.626  28.013  1.00  0.00     0.198 A 
ATOM     73  C   UNL A   1      37.707  29.034  30.328  1.00  0.00     0.198 A 
ATOM     74  F   UNL A   1      39.818  28.477  31.205  1.00  0.00    -0.203 F 
ATOM     75  F   UNL A   1      36.717  30.005  26.980  1.00  0.00    -0.200 F 
ATOM     76  C   UNL A   1      36.911  29.416  29.258  1.00  0.00     0.200 A 
ATOM     77  F   UNL A   1      37.151  28.806  31.526  1.00  0.00    -0.200 F 
ATOM     78  F   UNL A   1      35.591  29.575  29.426  1.00  0.00    -0.200 F 
ENDBRANCH  54  68
BRANCH  55  79
ATOM     79  C   UNL A   1      48.975  26.634  26.542  1.00  0.00     0.064 A 
ATOM     80  C   UNL A   1      49.930  26.150  27.446  1.00  0.00     0.173 A 
ATOM     81  C   UNL A   1      49.365  26.824  25.210  1.00  0.00     0.173 A 
ATOM     82  F   UNL A   1      49.597  25.962  28.731  1.00  0.00    -0.203 F 
ATOM     83  C   UNL A   1      51.239  25.909  27.044  1.00  0.00     0.198 A 
ATOM     84  C   UNL A   1      50.672  26.558  24.803  1.00  0.00     0.198 A 
ATOM     85  F   UNL A   1      48.480  27.264  24.304  1.00  0.00    -0.203 F 
ATOM     86  F   UNL A   1      52.147  25.503  27.943  1.00  0.00    -0.200 F 
ATOM     87  C   UNL A   1      51.610  26.112  25.724  1.00  0.00     0.200 A 
ATOM     88  F   UNL A   1      51.024  26.738  23.523  1.00  0.00    -0.200 F 
ATOM     89  F   UNL A   1      52.874  25.888  25.340  1.00  0.00    -0.200 F 
ENDBRANCH  55  79
BRANCH  67  90
ATOM     90  C   UNL A   1      46.022  32.444  29.007  1.00  0.00     0.064 A 
ATOM     91  C   UNL A   1      46.554  32.732  30.273  1.00  0.00     0.173 A 
ATOM     92  C   UNL A   1      46.039  33.466  28.044  1.00  0.00     0.173 A 
ATOM     93  F   UNL A   1      46.548  31.797  31.236  1.00  0.00    -0.203 F 
ATOM     94  C   UNL A   1      47.054  33.997  30.571  1.00  0.00     0.198 A 
ATOM     95  C   UNL A   1      46.570  34.720  28.336  1.00  0.00     0.198 A 
ATOM     96  F   UNL A   1      45.548  33.246  26.815  1.00  0.00    -0.203 F 
ATOM     97  F   UNL A   1      47.507  34.263  31.805  1.00  0.00    -0.200 F 
ATOM     98  C   UNL A   1      47.070  34.987  29.601  1.00  0.00     0.200 A 
ATOM     99  F   UNL A   1      46.598  35.671  27.392  1.00  0.00    -0.200 F 
ATOM    100  F   UNL A   1      47.558  36.202  29.888  1.00  0.00    -0.200 F 
ENDBRANCH  67  90
ENDBRANCH  41  42
ENDBRANCH  34  36
ENDBRANCH  33  34
ENDBRANCH  32  33
ENDBRANCH   1  32
TORSDOF 15
ENDMDL
MODEL 2
REMARK VINA RESULT:     -13.0      5.145     10.592
REMARK SMILES O=C(OCCOC(=O)c1ccc(-c2c3nc(c(-c4c(F)c(F)c(F)c(F)c4F)c4ccc([nH]4)c(-c4c(F)c(F)c(F)c(F)c4F)c4nc(c(-c5c(F)c(F)c(F)c(F)c5F)c5ccc2[nH]5)C=C4)C=C3)cc1)c1ccc(NC(=O)[C@@H]2CC=CC[C@@H]2C(=O)Nc2ccc(Br)cc2)cc1
REMARK SMILES IDX 4 1 3 2 2 3 1 4 72 5 73 6 96 7 74 8 95 9 75 10 76 11 77 12
REMARK SMILES IDX 78 14 79 15 80 16 84 17 81 18 83 19 82 20 85 21 86 22 87 23
REMARK SMILES IDX 88 25 89 26 94 27 90 28 93 29 91 30 92 31 5 32 6 33 7 34
REMARK SMILES IDX 8 35 9 36 10 37 71 38 11 39 70 40 12 41 13 42 14 43 64 44
REMARK SMILES IDX 15 45 69 46 63 47 65 48 16 49 68 50 62 51 61 52 17 54 49 55
REMARK SMILES IDX 29 56 48 57 30 58 33 59 47 60 66 61 31 62 32 63 46 65 67 66
REMARK SMILES IDX 34 67 18 68 19 69 27 70 20 71 21 72 25 73 28 74 22 75 23 76
REMARK SMILES IDX 26 77 24 78 50 79 51 80 59 81 52 82 53 83 57 84 60 85 54 86
REMARK SMILES IDX 55 87 58 88 56 89 35 90 36 91 44 92 37 93 38 94 42 95 45 96
REMARK SMILES IDX 39 97 40 98 43 99 41 100
REMARK H PARENT 76 13 87 24 65 53 33 64
REMARK Flexibility Score: inf
ROOT
ATOM      1  C   UNL A   1      31.761  32.219  26.900  1.00  0.00     0.275 C 
ENDROOT
BRANCH   1   2
ATOM      2  O   UNL A   1      32.417  31.084  26.299  1.00  0.00    -0.458 OA
BRANCH   2   3
ATOM      3  C   UNL A   1      32.284  29.751  26.502  1.00  0.00     0.338 C 
ATOM      4  O   UNL A   1      31.649  29.367  27.483  1.00  0.00    -0.246 OA
BRANCH   3   5
ATOM      5  C   UNL A   1      32.946  28.700  25.664  1.00  0.00     0.060 A 
ATOM      6  C   UNL A   1      33.586  27.560  26.134  1.00  0.00     0.018 A 
ATOM      7  C   UNL A   1      32.935  28.886  24.274  1.00  0.00     0.018 A 
ATOM      8  C   UNL A   1      33.997  26.541  25.254  1.00  0.00     0.027 A 
ATOM      9  C   UNL A   1      33.366  27.874  23.403  1.00  0.00     0.027 A 
ATOM     10  C   UNL A   1      33.771  26.627  23.886  1.00  0.00     0.041 A 
BRANCH  10  11
ATOM     11  N   UNL A   1      33.806  25.581  22.933  1.00  0.00    -0.326 N 
ATOM     12  C   UNL A   1      34.214  24.271  22.936  1.00  0.00     0.228 C 
ATOM     13  H   UNL A   1      33.453  25.860  22.057  1.00  0.00     0.169 HD
ATOM     14  O   UNL A   1      33.864  23.570  21.982  1.00  0.00    -0.274 OA
BRANCH  12  15
ATOM     15  C   UNL A   1      35.073  23.693  24.033  1.00  0.00     0.095 C 
ATOM     16  C   UNL A   1      36.042  22.691  23.409  1.00  0.00     0.041 C 
ATOM     17  C   UNL A   1      34.396  23.179  25.311  1.00  0.00     0.095 C 
ATOM     18  C   UNL A   1      37.009  22.183  24.432  1.00  0.00    -0.030 C 
ATOM     19  C   UNL A   1      35.514  22.843  26.341  1.00  0.00     0.041 C 
ATOM     20  C   UNL A   1      36.782  22.277  25.751  1.00  0.00    -0.030 C 
BRANCH  17  21
ATOM     21  C   UNL A   1      33.456  21.970  25.175  1.00  0.00     0.228 C 
ATOM     22  O   UNL A   1      33.867  20.818  25.329  1.00  0.00    -0.274 OA
ATOM     23  N   UNL A   1      32.092  22.156  25.091  1.00  0.00    -0.326 N 
ATOM     24  H   UNL A   1      31.555  21.353  25.284  1.00  0.00     0.169 HD
BRANCH  23  25
ATOM     25  C   UNL A   1      31.342  23.300  24.776  1.00  0.00     0.041 A 
ATOM     26  C   UNL A   1      31.095  24.253  25.771  1.00  0.00     0.027 A 
ATOM     27  C   UNL A   1      30.831  23.525  23.503  1.00  0.00     0.027 A 
ATOM     28  C   UNL A   1      30.518  25.489  25.442  1.00  0.00     0.018 A 
ATOM     29  C   UNL A   1      30.282  24.760  23.172  1.00  0.00     0.018 A 
ATOM     30  C   UNL A   1      30.164  25.753  24.126  1.00  0.00     0.018 A 
ATOM     31  Br  UNL A   1      29.544  27.458  23.603  1.00  0.00    -0.051 Br
ENDBRANCH  23  25
ENDBRANCH  17  21
ENDBRANCH  12  15
ENDBRANCH  10  11
ENDBRANCH   3   5
ENDBRANCH   2   3
ENDBRANCH   1   2
BRANCH   1  32
ATOM     32  C   UNL A   1      32.674  33.397  27.249  1.00  0.00     0.275 C 
BRANCH  32  33
ATOM     33  O   UNL A   1      32.148  34.215  28.301  1.00  0.00    -0.458 OA
BRANCH  33  34
ATOM     34  C   UNL A   1      32.988  35.185  28.766  1.00  0.00     0.338 C 
ATOM     35  O   UNL A   1      32.786  36.379  28.748  1.00  0.00    -0.246 OA
BRANCH  34  36
ATOM     36  C   UNL A   1      34.202  34.555  29.362  1.00  0.00     0.060 A 
ATOM     37  C   UNL A   1      35.448  34.727  28.742  1.00  0.00     0.016 A 
ATOM     38  C   UNL A   1      34.130  33.802  30.534  1.00  0.00     0.016 A 
ATOM     39  C   UNL A   1      36.601  34.118  29.269  1.00  0.00     0.010 A 
ATOM     40  C   UNL A   1      35.283  33.224  31.072  1.00  0.00     0.010 A 
ATOM     41  C   UNL A   1      36.520  33.335  30.426  1.00  0.00    -0.014 A 
BRANCH  41  42
ATOM     42  C   UNL A   1      37.682  32.627  31.029  1.00  0.00     0.031 A 
ATOM     43  C   UNL A   1      38.225  31.363  30.420  1.00  0.00     0.074 A 
ATOM     44  C   UNL A   1      38.111  32.992  32.251  1.00  0.00     0.049 A 
ATOM     45  N   UNL A   1      39.204  30.599  30.842  1.00  0.00    -0.248 NA
ATOM     46  C   UNL A   1      37.575  30.882  29.194  1.00  0.00     0.031 C 
ATOM     47  C   UNL A   1      37.612  34.136  33.007  1.00  0.00     0.029 A 
ATOM     48  N   UNL A   1      39.009  32.395  33.100  1.00  0.00    -0.354 N 
ATOM     49  C   UNL A   1      39.309  29.567  29.918  1.00  0.00     0.074 A 
ATOM     50  C   UNL A   1      38.246  29.761  28.953  1.00  0.00     0.031 C 
ATOM     51  C   UNL A   1      38.133  34.104  34.245  1.00  0.00     0.029 A 
ATOM     52  C   UNL A   1      39.055  32.974  34.343  1.00  0.00     0.049 A 
ATOM     53  H   UNL A   1      39.566  31.626  32.841  1.00  0.00     0.167 HD
ATOM     54  C   UNL A   1      40.232  28.574  29.866  1.00  0.00     0.037 A 
ATOM     55  C   UNL A   1      39.773  32.648  35.434  1.00  0.00     0.037 A 
ATOM     56  C   UNL A   1      41.281  28.376  30.838  1.00  0.00     0.049 A 
ATOM     57  C   UNL A   1      40.795  31.545  35.355  1.00  0.00     0.074 A 
ATOM     58  C   UNL A   1      42.355  27.503  30.785  1.00  0.00     0.029 A 
ATOM     59  N   UNL A   1      41.363  29.030  32.056  1.00  0.00    -0.354 N 
ATOM     60  N   UNL A   1      41.061  30.732  34.363  1.00  0.00    -0.248 NA
ATOM     61  C   UNL A   1      41.655  31.353  36.532  1.00  0.00     0.031 C 
ATOM     62  C   UNL A   1      43.045  27.577  32.000  1.00  0.00     0.029 A 
ATOM     63  C   UNL A   1      42.439  28.542  32.785  1.00  0.00     0.049 A 
ATOM     64  H   UNL A   1      40.750  29.737  32.361  1.00  0.00     0.167 HD
ATOM     65  C   UNL A   1      42.148  29.971  34.777  1.00  0.00     0.074 A 
ATOM     66  C   UNL A   1      42.499  30.425  36.103  1.00  0.00     0.031 C 
ATOM     67  C   UNL A   1      42.798  28.989  34.106  1.00  0.00     0.037 A 
BRANCH  54  68
ATOM     68  C   UNL A   1      40.206  27.636  28.691  1.00  0.00     0.064 A 
ATOM     69  C   UNL A   1      40.926  27.925  27.521  1.00  0.00     0.173 A 
ATOM     70  C   UNL A   1      39.588  26.379  28.786  1.00  0.00     0.173 A 
ATOM     71  F   UNL A   1      41.547  29.105  27.384  1.00  0.00    -0.203 F 
ATOM     72  C   UNL A   1      41.018  26.996  26.488  1.00  0.00     0.198 A 
ATOM     73  C   UNL A   1      39.705  25.443  27.762  1.00  0.00     0.198 A 
ATOM     74  F   UNL A   1      38.905  26.043  29.891  1.00  0.00    -0.203 F 
ATOM     75  F   UNL A   1      41.701  27.300  25.375  1.00  0.00    -0.200 F 
ATOM     76  C   UNL A   1      40.419  25.752  26.613  1.00  0.00     0.200 A 
ATOM     77  F   UNL A   1      39.146  24.232  27.894  1.00  0.00    -0.200 F 
ATOM     78  F   UNL A   1      40.535  24.848  25.631  1.00  0.00    -0.200 F 
ENDBRANCH  54  68
BRANCH  55  79
ATOM     79  C   UNL A   1      39.621  33.440  36.679  1.00  0.00     0.064 A 
ATOM     80  C   UNL A   1      38.718  33.037  37.673  1.00  0.00     0.173 A 
ATOM     81  C   UNL A   1      40.349  34.618  36.889  1.00  0.00     0.173 A 
ATOM     82  F   UNL A   1      37.997  31.919  37.506  1.00  0.00    -0.203 F 
ATOM     83  C   UNL A   1      38.517  33.808  38.813  1.00  0.00     0.198 A 
ATOM     84  C   UNL A   1      40.164  35.376  38.044  1.00  0.00     0.198 A 
ATOM     85  F   UNL A   1      41.240  35.031  35.977  1.00  0.00    -0.203 F 
ATOM     86  F   UNL A   1      37.604  33.431  39.719  1.00  0.00    -0.200 F 
ATOM     87  C   UNL A   1      39.239  34.977  38.998  1.00  0.00     0.200 A 
ATOM     88  F   UNL A   1      40.876  36.497  38.229  1.00  0.00    -0.200 F 
ATOM     89  F   UNL A   1      39.037  35.723  40.093  1.00  0.00    -0.200 F 
ENDBRANCH  55  79
BRANCH  67  90
ATOM     90  C   UNL A   1      43.980  28.347  34.781  1.00  0.00     0.064 A 
ATOM     91  C   UNL A   1      45.273  28.881  34.671  1.00  0.00     0.173 A 
ATOM     92  C   UNL A   1      43.813  27.198  35.572  1.00  0.00     0.173 A 
ATOM     93  F   UNL A   1      45.491  29.968  33.914  1.00  0.00    -0.203 F 
ATOM     94  C   UNL A   1      46.356  28.276  35.302  1.00  0.00     0.198 A 
ATOM     95  C   UNL A   1      44.894  26.615  36.229  1.00  0.00     0.198 A 
ATOM     96  F   UNL A   1      42.600  26.646  35.717  1.00  0.00    -0.203 F 
ATOM     97  F   UNL A   1      47.590  28.775  35.137  1.00  0.00    -0.200 F 
ATOM     98  C   UNL A   1      46.166  27.149  36.087  1.00  0.00     0.200 A 
ATOM     99  F   UNL A   1      44.705  25.534  36.998  1.00  0.00    -0.200 F 
ATOM    100  F   UNL A   1      47.209  26.572  36.699  1.00  0.00    -0.200 F 
ENDBRANCH  67  90
ENDBRANCH  41  42
ENDBRANCH  34  36
ENDBRANCH  33  34
ENDBRANCH  32  33
ENDBRANCH   1  32
TORSDOF 15
ENDMDL
MODEL 3
REMARK VINA RESULT:     -13.0      5.114     10.464
REMARK SMILES O=C(OCCOC(=O)c1ccc(-c2c3nc(c(-c4c(F)c(F)c(F)c(F)c4F)c4ccc([nH]4)c(-c4c(F)c(F)c(F)c(F)c4F)c4nc(c(-c5c(F)c(F)c(F)c(F)c5F)c5ccc2[nH]5)C=C4)C=C3)cc1)c1ccc(NC(=O)[C@@H]2CC=CC[C@@H]2C(=O)Nc2ccc(Br)cc2)cc1
REMARK SMILES IDX 4 1 3 2 2 3 1 4 72 5 73 6 96 7 74 8 95 9 75 10 76 11 77 12
REMARK SMILES IDX 78 14 79 15 80 16 84 17 81 18 83 19 82 20 85 21 86 22 87 23
REMARK SMILES IDX 88 25 89 26 94 27 90 28 93 29 91 30 92 31 5 32 6 33 7 34
REMARK SMILES IDX 8 35 9 36 10 37 71 38 11 39 70 40 12 41 13 42 14 43 64 44
REMARK SMILES IDX 15 45 69 46 63 47 65 48 16 49 68 50 62 51 61 52 17 54 49 55
REMARK SMILES IDX 29 56 48 57 30 58 33 59 47 60 66 61 31 62 32 63 46 65 67 66
REMARK SMILES IDX 34 67 18 68 19 69 27 70 20 71 21 72 25 73 28 74 22 75 23 76
REMARK SMILES IDX 26 77 24 78 50 79 51 80 59 81 52 82 53 83 57 84 60 85 54 86
REMARK SMILES IDX 55 87 58 88 56 89 35 90 36 91 44 92 37 93 38 94 42 95 45 96
REMARK SMILES IDX 39 97 40 98 43 99 41 100
REMARK H PARENT 76 13 87 24 65 53 33 64
REMARK Flexibility Score: inf
ROOT
ATOM      1  C   UNL A   1      33.188  31.768  27.312  1.00  0.00     0.275 C 
ENDROOT
BRANCH   1   2
ATOM      2  O   UNL A   1      32.531  30.531  26.968  1.00  0.00    -0.458 OA
BRANCH   2   3
ATOM      3  C   UNL A   1      32.132  30.019  25.779  1.00  0.00     0.338 C 
ATOM      4  O   UNL A   1      31.097  30.449  25.273  1.00  0.00    -0.246 OA
BRANCH   3   5
ATOM      5  C   UNL A   1      32.815  28.885  25.077  1.00  0.00     0.060 A 
ATOM      6  C   UNL A   1      33.405  27.782  25.682  1.00  0.00     0.018 A 
ATOM      7  C   UNL A   1      32.881  28.943  23.677  1.00  0.00     0.018 A 
ATOM      8  C   UNL A   1      33.840  26.680  24.922  1.00  0.00     0.027 A 
ATOM      9  C   UNL A   1      33.337  27.849  22.926  1.00  0.00     0.027 A 
ATOM     10  C   UNL A   1      33.689  26.645  23.541  1.00  0.00     0.041 A 
BRANCH  10  11
ATOM     11  N   UNL A   1      33.751  25.516  22.689  1.00  0.00    -0.326 N 
ATOM     12  C   UNL A   1      34.224  24.233  22.803  1.00  0.00     0.228 C 
ATOM     13  H   UNL A   1      33.363  25.694  21.802  1.00  0.00     0.169 HD
ATOM     14  O   UNL A   1      33.886  23.429  21.930  1.00  0.00    -0.274 OA
BRANCH  12  15
ATOM     15  C   UNL A   1      35.139  23.803  23.923  1.00  0.00     0.095 C 
ATOM     16  C   UNL A   1      36.129  22.779  23.372  1.00  0.00     0.041 C 
ATOM     17  C   UNL A   1      34.522  23.398  25.269  1.00  0.00     0.095 C 
ATOM     18  C   UNL A   1      37.145  22.415  24.408  1.00  0.00    -0.030 C 
ATOM     19  C   UNL A   1      35.682  23.212  26.289  1.00  0.00     0.041 C 
ATOM     20  C   UNL A   1      36.954  22.635  25.717  1.00  0.00    -0.030 C 
BRANCH  17  21
ATOM     21  C   UNL A   1      33.628  22.147  25.288  1.00  0.00     0.228 C 
ATOM     22  O   UNL A   1      34.097  21.028  25.504  1.00  0.00    -0.274 OA
ATOM     23  N   UNL A   1      32.255  22.274  25.277  1.00  0.00    -0.326 N 
ATOM     24  H   UNL A   1      31.765  21.469  25.565  1.00  0.00     0.169 HD
BRANCH  23  25
ATOM     25  C   UNL A   1      31.438  23.360  24.922  1.00  0.00     0.041 A 
ATOM     26  C   UNL A   1      31.119  24.321  25.888  1.00  0.00     0.027 A 
ATOM     27  C   UNL A   1      30.931  23.518  23.638  1.00  0.00     0.027 A 
ATOM     28  C   UNL A   1      30.470  25.509  25.519  1.00  0.00     0.018 A 
ATOM     29  C   UNL A   1      30.310  24.707  23.267  1.00  0.00     0.018 A 
ATOM     30  C   UNL A   1      30.117  25.716  24.192  1.00  0.00     0.018 A 
ATOM     31  Br  UNL A   1      29.398  27.363  23.616  1.00  0.00    -0.051 Br
ENDBRANCH  23  25
ENDBRANCH  17  21
ENDBRANCH  12  15
ENDBRANCH  10  11
ENDBRANCH   3   5
ENDBRANCH   2   3
ENDBRANCH   1   2
BRANCH   1  32
ATOM     32  C   UNL A   1      32.257  32.947  27.607  1.00  0.00     0.275 C 
BRANCH  32  33
ATOM     33  O   UNL A   1      32.922  34.213  27.526  1.00  0.00    -0.458 OA
BRANCH  33  34
ATOM     34  C   UNL A   1      33.166  34.825  28.722  1.00  0.00     0.338 C 
ATOM     35  O   UNL A   1      32.482  35.674  29.247  1.00  0.00    -0.246 OA
BRANCH  34  36
ATOM     36  C   UNL A   1      34.401  34.253  29.335  1.00  0.00     0.060 A 
ATOM     37  C   UNL A   1      35.640  34.450  28.710  1.00  0.00     0.016 A 
ATOM     38  C   UNL A   1      34.353  33.531  30.528  1.00  0.00     0.016 A 
ATOM     39  C   UNL A   1      36.813  33.896  29.253  1.00  0.00     0.010 A 
ATOM     40  C   UNL A   1      35.525  33.008  31.081  1.00  0.00     0.010 A 
ATOM     41  C   UNL A   1      36.758  33.143  30.433  1.00  0.00    -0.014 A 
BRANCH  41  42
ATOM     42  C   UNL A   1      37.943  32.492  31.054  1.00  0.00     0.031 A 
ATOM     43  C   UNL A   1      38.501  31.205  30.509  1.00  0.00     0.074 A 
ATOM     44  C   UNL A   1      38.384  32.934  32.246  1.00  0.00     0.049 A 
ATOM     45  N   UNL A   1      39.500  30.484  30.957  1.00  0.00    -0.248 NA
ATOM     46  C   UNL A   1      37.840  30.643  29.324  1.00  0.00     0.031 C 
ATOM     47  C   UNL A   1      37.875  34.110  32.944  1.00  0.00     0.029 A 
ATOM     48  N   UNL A   1      39.307  32.403  33.112  1.00  0.00    -0.354 N 
ATOM     49  C   UNL A   1      39.610  29.404  30.092  1.00  0.00     0.074 A 
ATOM     50  C   UNL A   1      38.529  29.522  29.136  1.00  0.00     0.031 C 
ATOM     51  C   UNL A   1      38.417  34.158  34.173  1.00  0.00     0.029 A 
ATOM     52  C   UNL A   1      39.362  33.053  34.319  1.00  0.00     0.049 A 
ATOM     53  H   UNL A   1      39.875  31.631  32.888  1.00  0.00     0.167 HD
ATOM     54  C   UNL A   1      40.551  28.426  30.080  1.00  0.00     0.037 A 
ATOM     55  C   UNL A   1      40.104  32.803  35.415  1.00  0.00     0.037 A 
ATOM     56  C   UNL A   1      41.619  28.304  31.044  1.00  0.00     0.049 A 
ATOM     57  C   UNL A   1      41.145  31.716  35.381  1.00  0.00     0.074 A 
ATOM     58  C   UNL A   1      42.709  27.449  31.023  1.00  0.00     0.029 A 
ATOM     59  N   UNL A   1      41.708  29.028  32.222  1.00  0.00    -0.354 N 
ATOM     60  N   UNL A   1      41.411  30.853  34.433  1.00  0.00    -0.248 NA
ATOM     61  C   UNL A   1      42.028  31.608  36.552  1.00  0.00     0.031 C 
ATOM     62  C   UNL A   1      43.416  27.604  32.219  1.00  0.00     0.029 A 
ATOM     63  C   UNL A   1      42.805  28.602  32.959  1.00  0.00     0.049 A 
ATOM     64  H   UNL A   1      41.087  29.739  32.496  1.00  0.00     0.167 HD
ATOM     65  C   UNL A   1      42.519  30.137  34.870  1.00  0.00     0.074 A 
ATOM     66  C   UNL A   1      42.882  30.673  36.162  1.00  0.00     0.031 C 
ATOM     67  C   UNL A   1      43.177  29.130  34.245  1.00  0.00     0.037 A 
BRANCH  54  68
ATOM     68  C   UNL A   1      40.525  27.422  28.962  1.00  0.00     0.064 A 
ATOM     69  C   UNL A   1      39.644  26.329  28.994  1.00  0.00     0.173 A 
ATOM     70  C   UNL A   1      41.269  27.630  27.790  1.00  0.00     0.173 A 
ATOM     71  F   UNL A   1      38.901  26.092  30.084  1.00  0.00    -0.203 F 
ATOM     72  C   UNL A   1      39.518  25.477  27.899  1.00  0.00     0.198 A 
ATOM     73  C   UNL A   1      41.120  26.791  26.688  1.00  0.00     0.198 A 
ATOM     74  F   UNL A   1      42.110  28.671  27.698  1.00  0.00    -0.203 F 
ATOM     75  F   UNL A   1      38.680  24.433  27.958  1.00  0.00    -0.200 F 
ATOM     76  C   UNL A   1      40.246  25.716  26.743  1.00  0.00     0.200 A 
ATOM     77  F   UNL A   1      41.805  27.037  25.562  1.00  0.00    -0.200 F 
ATOM     78  F   UNL A   1      40.100  24.913  25.680  1.00  0.00    -0.200 F 
ENDBRANCH  54  68
BRANCH  55  79
ATOM     79  C   UNL A   1      39.956  33.662  36.615  1.00  0.00     0.064 A 
ATOM     80  C   UNL A   1      39.018  33.345  37.607  1.00  0.00     0.173 A 
ATOM     81  C   UNL A   1      40.725  34.821  36.783  1.00  0.00     0.173 A 
ATOM     82  F   UNL A   1      38.257  32.248  37.479  1.00  0.00    -0.203 F 
ATOM     83  C   UNL A   1      38.822  34.179  38.702  1.00  0.00     0.198 A 
ATOM     84  C   UNL A   1      40.546  35.643  37.894  1.00  0.00     0.198 A 
ATOM     85  F   UNL A   1      41.651  35.153  35.872  1.00  0.00    -0.203 F 
ATOM     86  F   UNL A   1      37.877  33.883  39.604  1.00  0.00    -0.200 F 
ATOM     87  C   UNL A   1      39.586  35.328  38.846  1.00  0.00     0.200 A 
ATOM     88  F   UNL A   1      41.297  36.744  38.040  1.00  0.00    -0.200 F 
ATOM     89  F   UNL A   1      39.390  36.136  39.897  1.00  0.00    -0.200 F 
ENDBRANCH  55  79
BRANCH  67  90
ATOM     90  C   UNL A   1      44.381  28.549  34.936  1.00  0.00     0.064 A 
ATOM     91  C   UNL A   1      44.280  27.436  35.784  1.00  0.00     0.173 A 
ATOM     92  C   UNL A   1      45.658  29.095  34.724  1.00  0.00     0.173 A 
ATOM     93  F   UNL A   1      43.082  26.885  36.034  1.00  0.00    -0.203 F 
ATOM     94  C   UNL A   1      45.404  26.910  36.416  1.00  0.00     0.198 A 
ATOM     95  C   UNL A   1      46.784  28.545  35.331  1.00  0.00     0.198 A 
ATOM     96  F   UNL A   1      45.815  30.156  33.920  1.00  0.00    -0.203 F 
ATOM     97  F   UNL A   1      45.273  25.880  37.264  1.00  0.00    -0.200 F 
ATOM     98  C   UNL A   1      46.656  27.459  36.183  1.00  0.00     0.200 A 
ATOM     99  F   UNL A   1      47.995  29.068  35.093  1.00  0.00    -0.200 F 
ATOM    100  F   UNL A   1      47.738  26.946  36.786  1.00  0.00    -0.200 F 
ENDBRANCH  67  90
ENDBRANCH  41  42
ENDBRANCH  34  36
ENDBRANCH  33  34
ENDBRANCH  32  33
ENDBRANCH   1  32
TORSDOF 15
ENDMDL
