MODEL 1
REMARK VINA RESULT:     -10.5      0.000      0.000
REMARK SMILES CCCCCC[C@@H](C(=O)OCCOC(=O)c1ccc(-c2c3nc(c(-c4c(F)c(F)c(F)c(F)c4F)c4ccc([nH]4)c(-c4c(F)c(F)c(F)c(F)c4F)c4nc(c(-c5c(F)c(F)c(F)c(F)c5F)c5ccc2[nH]5)C=C4)C=C3)cc1)c1ccccc1C
REMARK SMILES IDX 10 1 8 2 9 3 7 4 6 5 5 6 4 7 3 8 2 9 1 10 79 11 80 12 84 13
REMARK SMILES IDX 81 14 83 15 85 16 82 17 11 18 12 19 13 20 14 21 15 22 16 23
REMARK SMILES IDX 17 24 78 25 18 26 77 27 19 28 20 29 21 30 71 31 22 32 76 33
REMARK SMILES IDX 70 34 72 35 23 36 75 37 69 38 68 39 24 41 56 42 36 43 55 44
REMARK SMILES IDX 37 45 40 46 54 47 73 48 38 49 39 50 53 52 74 53 41 54 25 55
REMARK SMILES IDX 26 56 34 57 27 58 28 59 32 60 35 61 29 62 30 63 33 64 31 65
REMARK SMILES IDX 57 66 58 67 66 68 59 69 60 70 64 71 67 72 61 73 62 74 65 75
REMARK SMILES IDX 63 76 42 77 43 78 51 79 44 80 45 81 49 82 52 83 46 84 47 85
REMARK SMILES IDX 50 86 48 87
REMARK H PARENT 72 40 40 51
REMARK Flexibility Score: inf
ROOT
ATOM      1  O   UNL A   1      32.732  28.218  26.251  1.00  0.00    -0.462 OA
ENDROOT
BRANCH   1   2
ATOM      2  C   UNL A   1      31.918  27.128  26.332  1.00  0.00     0.313 C 
ATOM      3  O   UNL A   1      31.120  26.995  27.251  1.00  0.00    -0.252 OA
BRANCH   2   4
ATOM      4  C   UNL A   1      32.166  26.114  25.158  1.00  0.00     0.129 C 
BRANCH   4   5
ATOM      5  C   UNL A   1      30.767  25.609  24.685  1.00  0.00     0.020 C 
BRANCH   5   6
ATOM      6  C   UNL A   1      30.671  24.815  23.367  1.00  0.00     0.001 C 
BRANCH   6   7
ATOM      7  C   UNL A   1      30.935  23.311  23.471  1.00  0.00     0.000 C 
BRANCH   7   8
ATOM      8  C   UNL A   1      32.205  22.820  22.771  1.00  0.00    -0.000 C 
BRANCH   8   9
ATOM      9  C   UNL A   1      32.994  21.741  23.519  1.00  0.00    -0.003 C 
ATOM     10  C   UNL A   1      32.156  20.986  24.540  1.00  0.00     0.004 C 
ENDBRANCH   8   9
ENDBRANCH   7   8
ENDBRANCH   6   7
ENDBRANCH   5   6
ENDBRANCH   4   5
BRANCH   4  11
ATOM     11  C   UNL A   1      33.228  25.014  25.535  1.00  0.00    -0.031 A 
ATOM     12  C   UNL A   1      34.443  25.010  24.798  1.00  0.00     0.005 A 
ATOM     13  C   UNL A   1      33.100  23.966  26.484  1.00  0.00    -0.047 A 
ATOM     14  C   UNL A   1      35.537  24.196  25.114  1.00  0.00     0.000 A 
ATOM     15  C   UNL A   1      34.223  23.159  26.806  1.00  0.00     0.004 A 
ATOM     16  C   UNL A   1      31.841  23.563  27.203  1.00  0.00     0.044 C 
ATOM     17  C   UNL A   1      35.439  23.291  26.150  1.00  0.00     0.000 A 
ENDBRANCH   4  11
ENDBRANCH   2   4
ENDBRANCH   1   2
BRANCH   1  18
ATOM     18  C   UNL A   1      32.361  29.232  25.290  1.00  0.00     0.274 C 
BRANCH  18  19
ATOM     19  C   UNL A   1      31.874  30.529  25.952  1.00  0.00     0.275 C 
BRANCH  19  20
ATOM     20  O   UNL A   1      32.475  30.718  27.248  1.00  0.00    -0.458 OA
BRANCH  20  21
ATOM     21  C   UNL A   1      33.249  31.820  27.378  1.00  0.00     0.338 C 
ATOM     22  O   UNL A   1      32.890  32.983  27.253  1.00  0.00    -0.246 OA
BRANCH  21  23
ATOM     23  C   UNL A   1      34.588  31.455  27.884  1.00  0.00     0.060 A 
ATOM     24  C   UNL A   1      34.792  30.118  28.237  1.00  0.00     0.016 A 
ATOM     25  C   UNL A   1      35.621  32.384  28.041  1.00  0.00     0.016 A 
ATOM     26  C   UNL A   1      36.023  29.696  28.728  1.00  0.00     0.010 A 
ATOM     27  C   UNL A   1      36.850  31.967  28.573  1.00  0.00     0.010 A 
ATOM     28  C   UNL A   1      37.052  30.621  28.925  1.00  0.00    -0.014 A 
BRANCH  28  29
ATOM     29  C   UNL A   1      38.275  30.164  29.623  1.00  0.00     0.031 A 
ATOM     30  C   UNL A   1      38.527  30.636  31.026  1.00  0.00     0.074 A 
ATOM     31  C   UNL A   1      39.099  29.267  29.054  1.00  0.00     0.049 A 
ATOM     32  N   UNL A   1      39.483  30.306  31.856  1.00  0.00    -0.248 NA
ATOM     33  C   UNL A   1      37.557  31.598  31.574  1.00  0.00     0.031 C 
ATOM     34  C   UNL A   1      38.925  28.685  27.725  1.00  0.00     0.029 A 
ATOM     35  N   UNL A   1      40.243  28.680  29.533  1.00  0.00    -0.354 N 
ATOM     36  C   UNL A   1      39.223  31.006  33.026  1.00  0.00     0.074 A 
ATOM     37  C   UNL A   1      38.030  31.793  32.795  1.00  0.00     0.031 C 
ATOM     38  C   UNL A   1      39.933  27.829  27.490  1.00  0.00     0.029 A 
ATOM     39  C   UNL A   1      40.831  27.816  28.646  1.00  0.00     0.049 A 
ATOM     40  H   UNL A   1      40.607  28.862  30.430  1.00  0.00     0.167 HD
ATOM     41  C   UNL A   1      39.918  30.996  34.187  1.00  0.00     0.037 A 
ATOM     42  C   UNL A   1      41.970  27.105  28.753  1.00  0.00     0.037 A 
ATOM     43  C   UNL A   1      41.126  30.246  34.407  1.00  0.00     0.049 A 
ATOM     44  C   UNL A   1      42.771  27.179  30.030  1.00  0.00     0.074 A 
ATOM     45  C   UNL A   1      41.923  30.203  35.538  1.00  0.00     0.029 A 
ATOM     46  N   UNL A   1      41.718  29.414  33.469  1.00  0.00    -0.354 N 
ATOM     47  N   UNL A   1      42.510  27.828  31.139  1.00  0.00    -0.248 NA
ATOM     48  C   UNL A   1      44.025  26.410  30.071  1.00  0.00     0.031 C 
ATOM     49  C   UNL A   1      43.022  29.380  35.268  1.00  0.00     0.029 A 
ATOM     50  C   UNL A   1      42.882  28.870  33.987  1.00  0.00     0.049 A 
ATOM     51  H   UNL A   1      41.364  29.238  32.567  1.00  0.00     0.167 HD
ATOM     52  C   UNL A   1      43.544  27.523  32.016  1.00  0.00     0.074 A 
ATOM     53  C   UNL A   1      44.429  26.616  31.316  1.00  0.00     0.031 C 
ATOM     54  C   UNL A   1      43.744  27.954  33.285  1.00  0.00     0.037 A 
BRANCH  41  55
ATOM     55  C   UNL A   1      39.407  31.862  35.297  1.00  0.00     0.064 A 
ATOM     56  C   UNL A   1      38.555  31.357  36.290  1.00  0.00     0.173 A 
ATOM     57  C   UNL A   1      39.788  33.209  35.377  1.00  0.00     0.173 A 
ATOM     58  F   UNL A   1      38.148  30.079  36.245  1.00  0.00    -0.203 F 
ATOM     59  C   UNL A   1      38.089  32.176  37.315  1.00  0.00     0.198 A 
ATOM     60  C   UNL A   1      39.338  34.019  36.416  1.00  0.00     0.198 A 
ATOM     61  F   UNL A   1      40.601  33.738  34.450  1.00  0.00    -0.203 F 
ATOM     62  F   UNL A   1      37.245  31.685  38.233  1.00  0.00    -0.200 F 
ATOM     63  C   UNL A   1      38.485  33.503  37.380  1.00  0.00     0.200 A 
ATOM     64  F   UNL A   1      39.727  35.299  36.481  1.00  0.00    -0.200 F 
ATOM     65  F   UNL A   1      38.038  34.290  38.369  1.00  0.00    -0.200 F 
ENDBRANCH  41  55
BRANCH  42  66
ATOM     66  C   UNL A   1      42.445  26.270  27.619  1.00  0.00     0.064 A 
ATOM     67  C   UNL A   1      41.973  24.964  27.432  1.00  0.00     0.173 A 
ATOM     68  C   UNL A   1      43.427  26.742  26.735  1.00  0.00     0.173 A 
ATOM     69  F   UNL A   1      41.056  24.456  28.268  1.00  0.00    -0.203 F 
ATOM     70  C   UNL A   1      42.485  24.152  26.422  1.00  0.00     0.198 A 
ATOM     71  C   UNL A   1      43.917  25.940  25.708  1.00  0.00     0.198 A 
ATOM     72  F   UNL A   1      43.918  27.982  26.877  1.00  0.00    -0.203 F 
ATOM     73  F   UNL A   1      42.061  22.886  26.303  1.00  0.00    -0.200 F 
ATOM     74  C   UNL A   1      43.454  24.641  25.559  1.00  0.00     0.200 A 
ATOM     75  F   UNL A   1      44.850  26.418  24.874  1.00  0.00    -0.200 F 
ATOM     76  F   UNL A   1      43.955  23.856  24.595  1.00  0.00    -0.200 F 
ENDBRANCH  42  66
BRANCH  54  77
ATOM     77  C   UNL A   1      44.940  27.416  34.017  1.00  0.00     0.064 A 
ATOM     78  C   UNL A   1      46.174  28.083  34.008  1.00  0.00     0.173 A 
ATOM     79  C   UNL A   1      44.840  26.232  34.762  1.00  0.00     0.173 A 
ATOM     80  F   UNL A   1      46.326  29.213  33.300  1.00  0.00    -0.203 F 
ATOM     81  C   UNL A   1      47.272  27.566  34.693  1.00  0.00     0.198 A 
ATOM     82  C   UNL A   1      45.930  25.735  35.471  1.00  0.00     0.198 A 
ATOM     83  F   UNL A   1      43.679  25.559  34.812  1.00  0.00    -0.203 F 
ATOM     84  F   UNL A   1      48.455  28.193  34.628  1.00  0.00    -0.200 F 
ATOM     85  C   UNL A   1      47.147  26.397  35.428  1.00  0.00     0.200 A 
ATOM     86  F   UNL A   1      45.804  24.612  36.191  1.00  0.00    -0.200 F 
ATOM     87  F   UNL A   1      48.204  25.904  36.089  1.00  0.00    -0.200 F 
ENDBRANCH  54  77
ENDBRANCH  28  29
ENDBRANCH  21  23
ENDBRANCH  20  21
ENDBRANCH  19  20
ENDBRANCH  18  19
ENDBRANCH   1  18
TORSDOF 17
ENDMDL
MODEL 2
REMARK VINA RESULT:     -10.3      4.568      9.734
REMARK SMILES CCCCCC[C@@H](C(=O)OCCOC(=O)c1ccc(-c2c3nc(c(-c4c(F)c(F)c(F)c(F)c4F)c4ccc([nH]4)c(-c4c(F)c(F)c(F)c(F)c4F)c4nc(c(-c5c(F)c(F)c(F)c(F)c5F)c5ccc2[nH]5)C=C4)C=C3)cc1)c1ccccc1C
REMARK SMILES IDX 10 1 8 2 9 3 7 4 6 5 5 6 4 7 3 8 2 9 1 10 79 11 80 12 84 13
REMARK SMILES IDX 81 14 83 15 85 16 82 17 11 18 12 19 13 20 14 21 15 22 16 23
REMARK SMILES IDX 17 24 78 25 18 26 77 27 19 28 20 29 21 30 71 31 22 32 76 33
REMARK SMILES IDX 70 34 72 35 23 36 75 37 69 38 68 39 24 41 56 42 36 43 55 44
REMARK SMILES IDX 37 45 40 46 54 47 73 48 38 49 39 50 53 52 74 53 41 54 25 55
REMARK SMILES IDX 26 56 34 57 27 58 28 59 32 60 35 61 29 62 30 63 33 64 31 65
REMARK SMILES IDX 57 66 58 67 66 68 59 69 60 70 64 71 67 72 61 73 62 74 65 75
REMARK SMILES IDX 63 76 42 77 43 78 51 79 44 80 45 81 49 82 52 83 46 84 47 85
REMARK SMILES IDX 50 86 48 87
REMARK H PARENT 72 40 40 51
REMARK Flexibility Score: inf
ROOT
ATOM      1  O   UNL A   1      36.341  21.841  25.932  1.00  0.00    -0.462 OA
ENDROOT
BRANCH   1   2
ATOM      2  C   UNL A   1      36.220  23.150  25.572  1.00  0.00     0.313 C 
ATOM      3  O   UNL A   1      37.131  23.743  25.007  1.00  0.00    -0.252 OA
BRANCH   2   4
ATOM      4  C   UNL A   1      34.833  23.755  25.992  1.00  0.00     0.129 C 
BRANCH   4   5
ATOM      5  C   UNL A   1      33.898  22.557  26.347  1.00  0.00     0.020 C 
BRANCH   5   6
ATOM      6  C   UNL A   1      32.498  22.852  26.920  1.00  0.00     0.001 C 
BRANCH   6   7
ATOM      7  C   UNL A   1      31.380  23.037  25.891  1.00  0.00     0.000 C 
BRANCH   7   8
ATOM      8  C   UNL A   1      30.721  24.419  25.884  1.00  0.00    -0.000 C 
BRANCH   8   9
ATOM      9  C   UNL A   1      30.392  24.983  24.498  1.00  0.00    -0.003 C 
ATOM     10  C   UNL A   1      30.511  23.951  23.387  1.00  0.00     0.004 C 
ENDBRANCH   8   9
ENDBRANCH   7   8
ENDBRANCH   6   7
ENDBRANCH   5   6
ENDBRANCH   4   5
BRANCH   4  11
ATOM     11  C   UNL A   1      34.290  24.791  24.937  1.00  0.00    -0.031 A 
ATOM     12  C   UNL A   1      33.922  26.074  25.423  1.00  0.00     0.005 A 
ATOM     13  C   UNL A   1      34.052  24.584  23.553  1.00  0.00    -0.047 A 
ATOM     14  C   UNL A   1      33.567  27.143  24.592  1.00  0.00     0.000 A 
ATOM     15  C   UNL A   1      33.709  25.681  22.720  1.00  0.00     0.004 A 
ATOM     16  C   UNL A   1      34.089  23.265  22.830  1.00  0.00     0.044 C 
ATOM     17  C   UNL A   1      33.497  26.955  23.228  1.00  0.00     0.000 A 
ENDBRANCH   4  11
ENDBRANCH   2   4
ENDBRANCH   1   2
BRANCH   1  18
ATOM     18  C   UNL A   1      36.881  20.944  24.937  1.00  0.00     0.274 C 
BRANCH  18  19
ATOM     19  C   UNL A   1      38.119  20.182  25.432  1.00  0.00     0.275 C 
BRANCH  19  20
ATOM     20  O   UNL A   1      39.270  21.044  25.520  1.00  0.00    -0.458 OA
BRANCH  20  21
ATOM     21  C   UNL A   1      40.026  20.897  26.632  1.00  0.00     0.338 C 
ATOM     22  O   UNL A   1      40.418  19.842  27.113  1.00  0.00    -0.246 OA
BRANCH  21  23
ATOM     23  C   UNL A   1      40.494  22.210  27.118  1.00  0.00     0.060 A 
ATOM     24  C   UNL A   1      39.971  23.345  26.490  1.00  0.00     0.016 A 
ATOM     25  C   UNL A   1      41.437  22.351  28.141  1.00  0.00     0.016 A 
ATOM     26  C   UNL A   1      40.366  24.618  26.886  1.00  0.00     0.010 A 
ATOM     27  C   UNL A   1      41.866  23.633  28.513  1.00  0.00     0.010 A 
ATOM     28  C   UNL A   1      41.336  24.771  27.881  1.00  0.00    -0.014 A 
BRANCH  28  29
ATOM     29  C   UNL A   1      41.861  26.132  28.136  1.00  0.00     0.031 A 
ATOM     30  C   UNL A   1      43.221  26.494  27.610  1.00  0.00     0.074 A 
ATOM     31  C   UNL A   1      41.102  27.062  28.742  1.00  0.00     0.049 A 
ATOM     32  N   UNL A   1      43.847  27.641  27.644  1.00  0.00    -0.248 NA
ATOM     33  C   UNL A   1      43.967  25.417  26.941  1.00  0.00     0.031 C 
ATOM     34  C   UNL A   1      39.743  26.851  29.235  1.00  0.00     0.029 A 
ATOM     35  N   UNL A   1      41.368  28.377  29.031  1.00  0.00    -0.354 N 
ATOM     36  C   UNL A   1      45.052  27.430  26.988  1.00  0.00     0.074 A 
ATOM     37  C   UNL A   1      45.079  26.041  26.582  1.00  0.00     0.031 C 
ATOM     38  C   UNL A   1      39.295  27.997  29.777  1.00  0.00     0.029 A 
ATOM     39  C   UNL A   1      40.342  29.015  29.681  1.00  0.00     0.049 A 
ATOM     40  H   UNL A   1      42.214  28.820  28.794  1.00  0.00     0.167 HD
ATOM     41  C   UNL A   1      46.048  28.315  26.748  1.00  0.00     0.037 A 
ATOM     42  C   UNL A   1      40.266  30.274  30.154  1.00  0.00     0.037 A 
ATOM     43  C   UNL A   1      46.043  29.686  27.184  1.00  0.00     0.049 A 
ATOM     44  C   UNL A   1      41.427  31.214  29.946  1.00  0.00     0.074 A 
ATOM     45  C   UNL A   1      47.025  30.648  27.023  1.00  0.00     0.029 A 
ATOM     46  N   UNL A   1      45.005  30.286  27.881  1.00  0.00    -0.354 N 
ATOM     47  N   UNL A   1      42.556  31.014  29.309  1.00  0.00    -0.248 NA
ATOM     48  C   UNL A   1      41.297  32.563  30.518  1.00  0.00     0.031 C 
ATOM     49  C   UNL A   1      46.600  31.818  27.661  1.00  0.00     0.029 A 
ATOM     50  C   UNL A   1      45.332  31.600  28.176  1.00  0.00     0.049 A 
ATOM     51  H   UNL A   1      44.162  29.844  28.131  1.00  0.00     0.167 HD
ATOM     52  C   UNL A   1      43.253  32.214  29.376  1.00  0.00     0.074 A 
ATOM     53  C   UNL A   1      42.414  33.143  30.102  1.00  0.00     0.031 C 
ATOM     54  C   UNL A   1      44.478  32.519  28.883  1.00  0.00     0.037 A 
BRANCH  41  55
ATOM     55  C   UNL A   1      47.251  27.806  26.014  1.00  0.00     0.064 A 
ATOM     56  C   UNL A   1      48.379  27.328  26.698  1.00  0.00     0.173 A 
ATOM     57  C   UNL A   1      47.269  27.781  24.612  1.00  0.00     0.173 A 
ATOM     58  F   UNL A   1      48.417  27.349  28.039  1.00  0.00    -0.203 F 
ATOM     59  C   UNL A   1      49.490  26.859  26.001  1.00  0.00     0.198 A 
ATOM     60  C   UNL A   1      48.371  27.291  23.920  1.00  0.00     0.198 A 
ATOM     61  F   UNL A   1      46.214  28.229  23.916  1.00  0.00    -0.203 F 
ATOM     62  F   UNL A   1      50.573  26.441  26.671  1.00  0.00    -0.200 F 
ATOM     63  C   UNL A   1      49.482  26.835  24.614  1.00  0.00     0.200 A 
ATOM     64  F   UNL A   1      48.360  27.263  22.581  1.00  0.00    -0.200 F 
ATOM     65  F   UNL A   1      50.551  26.380  23.944  1.00  0.00    -0.200 F 
ENDBRANCH  41  55
BRANCH  42  66
ATOM     66  C   UNL A   1      39.056  30.729  30.888  1.00  0.00     0.064 A 
ATOM     67  C   UNL A   1      38.968  30.618  32.282  1.00  0.00     0.173 A 
ATOM     68  C   UNL A   1      37.940  31.231  30.202  1.00  0.00     0.173 A 
ATOM     69  F   UNL A   1      39.998  30.118  32.981  1.00  0.00    -0.203 F 
ATOM     70  C   UNL A   1      37.800  30.963  32.959  1.00  0.00     0.198 A 
ATOM     71  C   UNL A   1      36.783  31.602  30.882  1.00  0.00     0.198 A 
ATOM     72  F   UNL A   1      37.970  31.349  28.866  1.00  0.00    -0.203 F 
ATOM     73  F   UNL A   1      37.720  30.788  34.286  1.00  0.00    -0.200 F 
ATOM     74  C   UNL A   1      36.709  31.458  32.259  1.00  0.00     0.200 A 
ATOM     75  F   UNL A   1      35.734  32.084  30.203  1.00  0.00    -0.200 F 
ATOM     76  F   UNL A   1      35.582  31.778  32.909  1.00  0.00    -0.200 F 
ENDBRANCH  42  66
BRANCH  54  77
ATOM     77  C   UNL A   1      44.967  33.928  29.069  1.00  0.00     0.064 A 
ATOM     78  C   UNL A   1      44.709  34.930  28.124  1.00  0.00     0.173 A 
ATOM     79  C   UNL A   1      45.677  34.283  30.226  1.00  0.00     0.173 A 
ATOM     80  F   UNL A   1      44.046  34.639  26.994  1.00  0.00    -0.203 F 
ATOM     81  C   UNL A   1      45.173  36.230  28.314  1.00  0.00     0.198 A 
ATOM     82  C   UNL A   1      46.112  35.589  30.428  1.00  0.00     0.198 A 
ATOM     83  F   UNL A   1      45.942  33.363  31.167  1.00  0.00    -0.203 F 
ATOM     84  F   UNL A   1      44.961  37.161  27.373  1.00  0.00    -0.200 F 
ATOM     85  C   UNL A   1      45.868  36.559  29.468  1.00  0.00     0.200 A 
ATOM     86  F   UNL A   1      46.772  35.909  31.549  1.00  0.00    -0.200 F 
ATOM     87  F   UNL A   1      46.310  37.812  29.651  1.00  0.00    -0.200 F 
ENDBRANCH  54  77
ENDBRANCH  28  29
ENDBRANCH  21  23
ENDBRANCH  20  21
ENDBRANCH  19  20
ENDBRANCH  18  19
ENDBRANCH   1  18
TORSDOF 17
ENDMDL
MODEL 3
REMARK VINA RESULT:     -10.2      4.638      9.918
REMARK SMILES CCCCCC[C@@H](C(=O)OCCOC(=O)c1ccc(-c2c3nc(c(-c4c(F)c(F)c(F)c(F)c4F)c4ccc([nH]4)c(-c4c(F)c(F)c(F)c(F)c4F)c4nc(c(-c5c(F)c(F)c(F)c(F)c5F)c5ccc2[nH]5)C=C4)C=C3)cc1)c1ccccc1C
REMARK SMILES IDX 10 1 8 2 9 3 7 4 6 5 5 6 4 7 3 8 2 9 1 10 79 11 80 12 84 13
REMARK SMILES IDX 81 14 83 15 85 16 82 17 11 18 12 19 13 20 14 21 15 22 16 23
REMARK SMILES IDX 17 24 78 25 18 26 77 27 19 28 20 29 21 30 71 31 22 32 76 33
REMARK SMILES IDX 70 34 72 35 23 36 75 37 69 38 68 39 24 41 56 42 36 43 55 44
REMARK SMILES IDX 37 45 40 46 54 47 73 48 38 49 39 50 53 52 74 53 41 54 25 55
REMARK SMILES IDX 26 56 34 57 27 58 28 59 32 60 35 61 29 62 30 63 33 64 31 65
REMARK SMILES IDX 57 66 58 67 66 68 59 69 60 70 64 71 67 72 61 73 62 74 65 75
REMARK SMILES IDX 63 76 42 77 43 78 51 79 44 80 45 81 49 82 52 83 46 84 47 85
REMARK SMILES IDX 50 86 48 87
REMARK H PARENT 72 40 40 51
REMARK Flexibility Score: inf
ROOT
ATOM      1  O   UNL A   1      36.918  21.956  25.839  1.00  0.00    -0.462 OA
ENDROOT
BRANCH   1   2
ATOM      2  C   UNL A   1      36.595  23.235  25.493  1.00  0.00     0.313 C 
ATOM      3  O   UNL A   1      37.439  24.012  25.066  1.00  0.00    -0.252 OA
BRANCH   2   4
ATOM      4  C   UNL A   1      35.076  23.549  25.738  1.00  0.00     0.129 C 
BRANCH   4   5
ATOM      5  C   UNL A   1      34.453  22.296  26.429  1.00  0.00     0.020 C 
BRANCH   5   6
ATOM      6  C   UNL A   1      33.500  22.503  27.623  1.00  0.00     0.001 C 
BRANCH   6   7
ATOM      7  C   UNL A   1      32.077  22.946  27.275  1.00  0.00     0.000 C 
BRANCH   7   8
ATOM      8  C   UNL A   1      31.509  22.358  25.979  1.00  0.00    -0.000 C 
BRANCH   8   9
ATOM      9  C   UNL A   1      30.839  23.365  25.039  1.00  0.00    -0.003 C 
ATOM     10  C   UNL A   1      30.621  24.729  25.678  1.00  0.00     0.004 C 
ENDBRANCH   8   9
ENDBRANCH   7   8
ENDBRANCH   6   7
ENDBRANCH   5   6
ENDBRANCH   4   5
BRANCH   4  11
ATOM     11  C   UNL A   1      34.358  24.072  24.437  1.00  0.00    -0.031 A 
ATOM     12  C   UNL A   1      34.276  23.173  23.340  1.00  0.00     0.005 A 
ATOM     13  C   UNL A   1      33.835  25.369  24.189  1.00  0.00    -0.047 A 
ATOM     14  C   UNL A   1      33.543  23.437  22.177  1.00  0.00     0.000 A 
ATOM     15  C   UNL A   1      33.079  25.616  23.013  1.00  0.00     0.004 A 
ATOM     16  C   UNL A   1      34.024  26.586  25.053  1.00  0.00     0.044 C 
ATOM     17  C   UNL A   1      32.908  24.652  22.029  1.00  0.00     0.000 A 
ENDBRANCH   4  11
ENDBRANCH   2   4
ENDBRANCH   1   2
BRANCH   1  18
ATOM     18  C   UNL A   1      37.744  21.223  24.908  1.00  0.00     0.274 C 
BRANCH  18  19
ATOM     19  C   UNL A   1      38.627  20.172  25.597  1.00  0.00     0.275 C 
BRANCH  19  20
ATOM     20  O   UNL A   1      39.994  20.618  25.702  1.00  0.00    -0.458 OA
BRANCH  20  21
ATOM     21  C   UNL A   1      40.520  20.597  26.948  1.00  0.00     0.338 C 
ATOM     22  O   UNL A   1      40.801  19.604  27.605  1.00  0.00    -0.246 OA
BRANCH  21  23
ATOM     23  C   UNL A   1      40.899  21.960  27.373  1.00  0.00     0.060 A 
ATOM     24  C   UNL A   1      40.394  23.025  26.620  1.00  0.00     0.016 A 
ATOM     25  C   UNL A   1      41.745  22.211  28.458  1.00  0.00     0.016 A 
ATOM     26  C   UNL A   1      40.710  24.338  26.952  1.00  0.00     0.010 A 
ATOM     27  C   UNL A   1      42.096  23.533  28.768  1.00  0.00     0.010 A 
ATOM     28  C   UNL A   1      41.584  24.601  28.010  1.00  0.00    -0.014 A 
BRANCH  28  29
ATOM     29  C   UNL A   1      42.040  25.996  28.206  1.00  0.00     0.031 A 
ATOM     30  C   UNL A   1      43.359  26.416  27.624  1.00  0.00     0.074 A 
ATOM     31  C   UNL A   1      41.249  26.900  28.810  1.00  0.00     0.049 A 
ATOM     32  N   UNL A   1      43.919  27.598  27.602  1.00  0.00    -0.248 NA
ATOM     33  C   UNL A   1      44.143  25.362  26.961  1.00  0.00     0.031 C 
ATOM     34  C   UNL A   1      39.921  26.630  29.356  1.00  0.00     0.029 A 
ATOM     35  N   UNL A   1      41.448  28.237  29.051  1.00  0.00    -0.354 N 
ATOM     36  C   UNL A   1      45.112  27.434  26.911  1.00  0.00     0.074 A 
ATOM     37  C   UNL A   1      45.205  26.036  26.546  1.00  0.00     0.031 C 
ATOM     38  C   UNL A   1      39.427  27.765  29.878  1.00  0.00     0.029 A 
ATOM     39  C   UNL A   1      40.410  28.837  29.716  1.00  0.00     0.049 A 
ATOM     40  H   UNL A   1      42.259  28.719  28.771  1.00  0.00     0.167 HD
ATOM     41  C   UNL A   1      46.048  28.364  26.611  1.00  0.00     0.037 A 
ATOM     42  C   UNL A   1      40.277  30.104  30.153  1.00  0.00     0.037 A 
ATOM     43  C   UNL A   1      45.979  29.746  27.006  1.00  0.00     0.049 A 
ATOM     44  C   UNL A   1      41.376  31.100  29.878  1.00  0.00     0.074 A 
ATOM     45  C   UNL A   1      46.899  30.756  26.782  1.00  0.00     0.029 A 
ATOM     46  N   UNL A   1      44.932  30.309  27.720  1.00  0.00    -0.354 N 
ATOM     47  N   UNL A   1      42.493  30.944  29.208  1.00  0.00    -0.248 NA
ATOM     48  C   UNL A   1      41.188  32.458  30.414  1.00  0.00     0.031 C 
ATOM     49  C   UNL A   1      46.428  31.920  27.400  1.00  0.00     0.029 A 
ATOM     50  C   UNL A   1      45.192  31.648  27.964  1.00  0.00     0.049 A 
ATOM     51  H   UNL A   1      44.124  29.829  28.011  1.00  0.00     0.167 HD
ATOM     52  C   UNL A   1      43.122  32.183  29.216  1.00  0.00     0.074 A 
ATOM     53  C   UNL A   1      42.256  33.086  29.943  1.00  0.00     0.031 C 
ATOM     54  C   UNL A   1      44.311  32.540  28.672  1.00  0.00     0.037 A 
BRANCH  41  55
ATOM     55  C   UNL A   1      47.253  27.901  25.852  1.00  0.00     0.064 A 
ATOM     56  C   UNL A   1      47.253  27.823  24.451  1.00  0.00     0.173 A 
ATOM     57  C   UNL A   1      48.427  27.549  26.533  1.00  0.00     0.173 A 
ATOM     58  F   UNL A   1      46.148  28.133  23.757  1.00  0.00    -0.203 F 
ATOM     59  C   UNL A   1      48.383  27.391  23.761  1.00  0.00     0.198 A 
ATOM     60  C   UNL A   1      49.561  27.138  25.838  1.00  0.00     0.198 A 
ATOM     61  F   UNL A   1      48.475  27.606  27.872  1.00  0.00    -0.203 F 
ATOM     62  F   UNL A   1      48.351  27.286  22.425  1.00  0.00    -0.200 F 
ATOM     63  C   UNL A   1      49.536  27.055  24.454  1.00  0.00     0.200 A 
ATOM     64  F   UNL A   1      50.676  26.819  26.508  1.00  0.00    -0.200 F 
ATOM     65  F   UNL A   1      50.623  26.641  23.787  1.00  0.00    -0.200 F 
ENDBRANCH  41  55
BRANCH  42  66
ATOM     66  C   UNL A   1      39.068  30.514  30.915  1.00  0.00     0.064 A 
ATOM     67  C   UNL A   1      37.945  31.041  30.265  1.00  0.00     0.173 A 
ATOM     68  C   UNL A   1      39.038  30.440  32.316  1.00  0.00     0.173 A 
ATOM     69  F   UNL A   1      37.937  31.159  28.929  1.00  0.00    -0.203 F 
ATOM     70  C   UNL A   1      36.848  31.507  30.988  1.00  0.00     0.198 A 
ATOM     71  C   UNL A   1      37.930  30.880  33.036  1.00  0.00     0.198 A 
ATOM     72  F   UNL A   1      40.092  29.951  32.986  1.00  0.00    -0.203 F 
ATOM     73  F   UNL A   1      35.812  32.065  30.346  1.00  0.00    -0.200 F 
ATOM     74  C   UNL A   1      36.840  31.423  32.373  1.00  0.00     0.200 A 
ATOM     75  F   UNL A   1      37.924  30.792  34.373  1.00  0.00    -0.200 F 
ATOM     76  F   UNL A   1      35.791  31.882  33.068  1.00  0.00    -0.200 F 
ENDBRANCH  42  66
BRANCH  54  77
ATOM     77  C   UNL A   1      44.725  33.979  28.799  1.00  0.00     0.064 A 
ATOM     78  C   UNL A   1      45.492  34.435  29.881  1.00  0.00     0.173 A 
ATOM     79  C   UNL A   1      44.372  34.907  27.808  1.00  0.00     0.173 A 
ATOM     80  F   UNL A   1      45.844  33.590  30.863  1.00  0.00    -0.203 F 
ATOM     81  C   UNL A   1      45.863  35.774  29.981  1.00  0.00     0.198 A 
ATOM     82  C   UNL A   1      44.771  36.237  27.895  1.00  0.00     0.198 A 
ATOM     83  F   UNL A   1      43.645  34.520  26.747  1.00  0.00    -0.203 F 
ATOM     84  F   UNL A   1      46.552  36.198  31.050  1.00  0.00    -0.200 F 
ATOM     85  C   UNL A   1      45.508  36.671  28.986  1.00  0.00     0.200 A 
ATOM     86  F   UNL A   1      44.438  37.101  26.926  1.00  0.00    -0.200 F 
ATOM     87  F   UNL A   1      45.870  37.958  29.083  1.00  0.00    -0.200 F 
ENDBRANCH  54  77
ENDBRANCH  28  29
ENDBRANCH  21  23
ENDBRANCH  20  21
ENDBRANCH  19  20
ENDBRANCH  18  19
ENDBRANCH   1  18
TORSDOF 17
ENDMDL
