MODEL 1
REMARK VINA RESULT:     -11.8      0.000      0.000
REMARK SMILES O=C(CCCN1C(=O)C(=O)/C(=C(\[O-])c2ccccc2)[C@H]1c1ccc([N+](=O)[O-])cc1)OCCOC(=O)c1ccc(-c2c3nc(c(-c4c(F)c(F)c(F)c(F)c4F)c4ccc([nH]4)c(-c4c(F)c(F)c(F)c(F)c4F)c4nc(c(-c5c(F)c(F)c(F)c(F)c5F)c5ccc2[nH]5)C=C4)C=C3)cc1
REMARK SMILES IDX 30 1 2 2 1 3 3 4 4 5 5 6 6 7 7 8 20 9 8 10 9 11 11 12 10 13
REMARK SMILES IDX 12 14 13 15 21 16 22 17 29 18 23 19 28 20 24 21 25 22 26 23
REMARK SMILES IDX 27 24 14 25 15 26 19 27 16 28 18 29 17 30 31 31 32 32 33 33
REMARK SMILES IDX 34 34 35 35 36 36 37 37 98 38 38 39 97 40 39 41 40 42 41 43
REMARK SMILES IDX 91 44 42 45 96 46 90 47 92 48 43 49 95 50 89 51 88 52 44 54
REMARK SMILES IDX 76 55 56 56 75 57 57 58 60 59 74 60 93 61 58 62 59 63 73 65
REMARK SMILES IDX 94 66 61 67 45 68 46 69 54 70 47 71 48 72 52 73 55 74 49 75
REMARK SMILES IDX 50 76 53 77 51 78 77 79 78 80 86 81 79 82 80 83 84 84 87 85
REMARK SMILES IDX 81 86 82 87 85 88 83 89 62 90 63 91 71 92 64 93 65 94 69 95
REMARK SMILES IDX 72 96 66 97 67 98 70 99 68 100
REMARK H PARENT 92 53 60 64
REMARK Flexibility Score: inf
ROOT
ATOM      1  O   UNL A   1      37.343  20.954  24.460  1.00  0.00    -0.462 OA
ENDROOT
BRANCH   1   2
ATOM      2  C   UNL A   1      36.171  21.104  25.133  1.00  0.00     0.305 C 
ATOM      3  O   UNL A   1      35.218  20.337  25.067  1.00  0.00    -0.252 OA
BRANCH   2   4
ATOM      4  C   UNL A   1      36.114  22.460  25.804  1.00  0.00     0.124 C 
BRANCH   4   5
ATOM      5  C   UNL A   1      36.120  23.674  24.882  1.00  0.00     0.033 C 
BRANCH   5   6
ATOM      6  C   UNL A   1      35.388  23.580  23.540  1.00  0.00     0.121 C 
BRANCH   6   7
ATOM      7  N   UNL A   1      34.184  24.382  23.368  1.00  0.00    -0.325 N 
ATOM      8  C   UNL A   1      33.656  24.616  22.113  1.00  0.00     0.295 C 
ATOM      9  C   UNL A   1      33.873  25.502  24.251  1.00  0.00     0.150 C 
ATOM     10  O   UNL A   1      33.244  23.841  21.298  1.00  0.00    -0.265 OA
ATOM     11  C   UNL A   1      33.626  26.130  21.950  1.00  0.00     0.248 C 
ATOM     12  C   UNL A   1      33.694  26.677  23.311  1.00  0.00     0.025 C 
ATOM     13  O   UNL A   1      33.623  26.754  20.914  1.00  0.00    -0.283 OA
ATOM     14  C   UNL A   1      33.525  27.989  23.533  1.00  0.00    -0.092 C 
ATOM     15  O   UNL A   1      33.346  28.930  22.541  1.00  0.00    -0.872 OA
BRANCH   9  16
ATOM     16  C   UNL A   1      32.655  25.104  25.078  1.00  0.00    -0.020 A 
ATOM     17  C   UNL A   1      31.348  25.525  24.775  1.00  0.00     0.013 A 
ATOM     18  C   UNL A   1      32.838  24.196  26.138  1.00  0.00     0.013 A 
ATOM     19  C   UNL A   1      30.259  25.083  25.529  1.00  0.00     0.086 A 
ATOM     20  C   UNL A   1      31.752  23.723  26.877  1.00  0.00     0.086 A 
ATOM     21  C   UNL A   1      30.466  24.178  26.573  1.00  0.00     0.269 A 
BRANCH  21  22
ATOM     22  N   UNL A   1      29.323  23.690  27.349  1.00  0.00     0.062 N 
ATOM     23  O   UNL A   1      29.482  22.660  28.018  1.00  0.00    -0.258 OA
ATOM     24  O   UNL A   1      28.271  24.341  27.288  1.00  0.00    -0.258 OA
ENDBRANCH  21  22
ENDBRANCH   9  16
BRANCH  14  25
ATOM     25  C   UNL A   1      33.277  28.474  24.891  1.00  0.00    -0.033 A 
ATOM     26  C   UNL A   1      31.978  28.900  25.209  1.00  0.00     0.007 A 
ATOM     27  C   UNL A   1      34.238  28.376  25.901  1.00  0.00     0.007 A 
ATOM     28  C   UNL A   1      31.627  29.155  26.531  1.00  0.00     0.001 A 
ATOM     29  C   UNL A   1      33.883  28.635  27.225  1.00  0.00     0.001 A 
ATOM     30  C   UNL A   1      32.575  29.008  27.540  1.00  0.00     0.000 A 
ENDBRANCH  14  25
ENDBRANCH   6   7
ENDBRANCH   5   6
ENDBRANCH   4   5
ENDBRANCH   2   4
ENDBRANCH   1   2
BRANCH   1  31
ATOM     31  C   UNL A   1      38.280  20.032  25.038  1.00  0.00     0.274 C 
BRANCH  31  32
ATOM     32  C   UNL A   1      39.404  20.763  25.794  1.00  0.00     0.275 C 
BRANCH  32  33
ATOM     33  O   UNL A   1      40.170  19.810  26.553  1.00  0.00    -0.458 OA
BRANCH  33  34
ATOM     34  C   UNL A   1      41.434  19.573  26.165  1.00  0.00     0.338 C 
ATOM     35  O   UNL A   1      41.856  18.607  25.557  1.00  0.00    -0.246 OA
BRANCH  34  36
ATOM     36  C   UNL A   1      42.268  20.713  26.608  1.00  0.00     0.060 A 
ATOM     37  C   UNL A   1      42.350  21.015  27.969  1.00  0.00     0.016 A 
ATOM     38  C   UNL A   1      42.893  21.541  25.668  1.00  0.00     0.016 A 
ATOM     39  C   UNL A   1      42.944  22.213  28.379  1.00  0.00     0.010 A 
ATOM     40  C   UNL A   1      43.527  22.722  26.087  1.00  0.00     0.010 A 
ATOM     41  C   UNL A   1      43.482  23.109  27.439  1.00  0.00    -0.014 A 
BRANCH  41  42
ATOM     42  C   UNL A   1      43.772  24.511  27.868  1.00  0.00     0.031 A 
ATOM     43  C   UNL A   1      45.200  25.005  27.839  1.00  0.00     0.074 A 
ATOM     44  C   UNL A   1      42.791  25.383  28.174  1.00  0.00     0.049 A 
ATOM     45  N   UNL A   1      45.661  26.228  27.957  1.00  0.00    -0.248 NA
ATOM     46  C   UNL A   1      46.246  23.991  27.649  1.00  0.00     0.031 C 
ATOM     47  C   UNL A   1      41.369  25.063  28.259  1.00  0.00     0.029 A 
ATOM     48  N   UNL A   1      42.850  26.730  28.449  1.00  0.00    -0.354 N 
ATOM     49  C   UNL A   1      47.041  26.127  27.833  1.00  0.00     0.074 A 
ATOM     50  C   UNL A   1      47.349  24.720  27.698  1.00  0.00     0.031 C 
ATOM     51  C   UNL A   1      40.685  26.187  28.544  1.00  0.00     0.029 A 
ATOM     52  C   UNL A   1      41.621  27.308  28.658  1.00  0.00     0.049 A 
ATOM     53  H   UNL A   1      43.695  27.234  28.491  1.00  0.00     0.167 HD
ATOM     54  C   UNL A   1      47.974  27.109  27.800  1.00  0.00     0.037 A 
ATOM     55  C   UNL A   1      41.284  28.593  28.892  1.00  0.00     0.037 A 
ATOM     56  C   UNL A   1      47.692  28.513  27.935  1.00  0.00     0.049 A 
ATOM     57  C   UNL A   1      42.346  29.668  28.896  1.00  0.00     0.074 A 
ATOM     58  C   UNL A   1      48.573  29.580  27.872  1.00  0.00     0.029 A 
ATOM     59  N   UNL A   1      46.438  29.047  28.178  1.00  0.00    -0.354 N 
ATOM     60  N   UNL A   1      43.631  29.570  28.666  1.00  0.00    -0.248 NA
ATOM     61  C   UNL A   1      41.894  31.042  29.169  1.00  0.00     0.031 C 
ATOM     62  C   UNL A   1      47.860  30.755  28.131  1.00  0.00     0.029 A 
ATOM     63  C   UNL A   1      46.525  30.426  28.296  1.00  0.00     0.049 A 
ATOM     64  H   UNL A   1      45.607  28.525  28.256  1.00  0.00     0.167 HD
ATOM     65  C   UNL A   1      44.130  30.867  28.718  1.00  0.00     0.074 A 
ATOM     66  C   UNL A   1      43.009  31.738  28.993  1.00  0.00     0.031 C 
ATOM     67  C   UNL A   1      45.406  31.297  28.546  1.00  0.00     0.037 A 
BRANCH  54  68
ATOM     68  C   UNL A   1      49.403  26.694  27.607  1.00  0.00     0.064 A 
ATOM     69  C   UNL A   1      49.936  26.474  26.327  1.00  0.00     0.173 A 
ATOM     70  C   UNL A   1      50.258  26.550  28.709  1.00  0.00     0.173 A 
ATOM     71  F   UNL A   1      49.157  26.591  25.243  1.00  0.00    -0.203 F 
ATOM     72  C   UNL A   1      51.266  26.095  26.162  1.00  0.00     0.198 A 
ATOM     73  C   UNL A   1      51.595  26.200  28.537  1.00  0.00     0.198 A 
ATOM     74  F   UNL A   1      49.801  26.758  29.953  1.00  0.00    -0.203 F 
ATOM     75  F   UNL A   1      51.741  25.844  24.934  1.00  0.00    -0.200 F 
ATOM     76  C   UNL A   1      52.095  25.964  27.265  1.00  0.00     0.200 A 
ATOM     77  F   UNL A   1      52.399  26.088  29.603  1.00  0.00    -0.200 F 
ATOM     78  F   UNL A   1      53.376  25.606  27.103  1.00  0.00    -0.200 F 
ENDBRANCH  54  68
BRANCH  55  79
ATOM     79  C   UNL A   1      39.859  28.966  29.102  1.00  0.00     0.064 A 
ATOM     80  C   UNL A   1      39.271  28.889  30.374  1.00  0.00     0.173 A 
ATOM     81  C   UNL A   1      39.043  29.350  28.029  1.00  0.00     0.173 A 
ATOM     82  F   UNL A   1      40.003  28.496  31.428  1.00  0.00    -0.203 F 
ATOM     83  C   UNL A   1      37.916  29.154  30.559  1.00  0.00     0.198 A 
ATOM     84  C   UNL A   1      37.694  29.643  28.220  1.00  0.00     0.198 A 
ATOM     85  F   UNL A   1      39.555  29.434  26.793  1.00  0.00    -0.203 F 
ATOM     86  F   UNL A   1      37.367  29.015  31.773  1.00  0.00    -0.200 F 
ATOM     87  C   UNL A   1      37.129  29.534  29.482  1.00  0.00     0.200 A 
ATOM     88  F   UNL A   1      36.938  30.017  27.179  1.00  0.00    -0.200 F 
ATOM     89  F   UNL A   1      35.825  29.783  29.657  1.00  0.00    -0.200 F 
ENDBRANCH  55  79
BRANCH  67  90
ATOM     90  C   UNL A   1      45.660  32.779  28.584  1.00  0.00     0.064 A 
ATOM     91  C   UNL A   1      45.581  33.578  27.433  1.00  0.00     0.173 A 
ATOM     92  C   UNL A   1      45.953  33.414  29.801  1.00  0.00     0.173 A 
ATOM     93  F   UNL A   1      45.315  33.023  26.242  1.00  0.00    -0.203 F 
ATOM     94  C   UNL A   1      45.819  34.950  27.496  1.00  0.00     0.198 A 
ATOM     95  C   UNL A   1      46.157  34.791  29.865  1.00  0.00     0.198 A 
ATOM     96  F   UNL A   1      46.032  32.702  30.936  1.00  0.00    -0.203 F 
ATOM     97  F   UNL A   1      45.792  35.684  26.374  1.00  0.00    -0.200 F 
ATOM     98  C   UNL A   1      46.100  35.556  28.710  1.00  0.00     0.200 A 
ATOM     99  F   UNL A   1      46.412  35.376  31.043  1.00  0.00    -0.200 F 
ATOM    100  F   UNL A   1      46.323  36.876  28.768  1.00  0.00    -0.200 F 
ENDBRANCH  67  90
ENDBRANCH  41  42
ENDBRANCH  34  36
ENDBRANCH  33  34
ENDBRANCH  32  33
ENDBRANCH  31  32
ENDBRANCH   1  31
TORSDOF 17
ENDMDL
MODEL 2
REMARK VINA RESULT:     -11.8      4.691      9.180
REMARK SMILES O=C(CCCN1C(=O)C(=O)/C(=C(\[O-])c2ccccc2)[C@H]1c1ccc([N+](=O)[O-])cc1)OCCOC(=O)c1ccc(-c2c3nc(c(-c4c(F)c(F)c(F)c(F)c4F)c4ccc([nH]4)c(-c4c(F)c(F)c(F)c(F)c4F)c4nc(c(-c5c(F)c(F)c(F)c(F)c5F)c5ccc2[nH]5)C=C4)C=C3)cc1
REMARK SMILES IDX 30 1 2 2 1 3 3 4 4 5 5 6 6 7 7 8 20 9 8 10 9 11 11 12 10 13
REMARK SMILES IDX 12 14 13 15 21 16 22 17 29 18 23 19 28 20 24 21 25 22 26 23
REMARK SMILES IDX 27 24 14 25 15 26 19 27 16 28 18 29 17 30 31 31 32 32 33 33
REMARK SMILES IDX 34 34 35 35 36 36 37 37 98 38 38 39 97 40 39 41 40 42 41 43
REMARK SMILES IDX 91 44 42 45 96 46 90 47 92 48 43 49 95 50 89 51 88 52 44 54
REMARK SMILES IDX 76 55 56 56 75 57 57 58 60 59 74 60 93 61 58 62 59 63 73 65
REMARK SMILES IDX 94 66 61 67 45 68 46 69 54 70 47 71 48 72 52 73 55 74 49 75
REMARK SMILES IDX 50 76 53 77 51 78 77 79 78 80 86 81 79 82 80 83 84 84 87 85
REMARK SMILES IDX 81 86 82 87 85 88 83 89 62 90 63 91 71 92 64 93 65 94 69 95
REMARK SMILES IDX 72 96 66 97 67 98 70 99 68 100
REMARK H PARENT 92 53 60 64
REMARK Flexibility Score: inf
ROOT
ATOM      1  O   UNL A   1      40.720  20.920  26.906  1.00  0.00    -0.462 OA
ENDROOT
BRANCH   1   2
ATOM      2  C   UNL A   1      39.646  20.683  26.107  1.00  0.00     0.305 C 
ATOM      3  O   UNL A   1      39.408  19.621  25.544  1.00  0.00    -0.252 OA
BRANCH   2   4
ATOM      4  C   UNL A   1      38.898  21.969  25.828  1.00  0.00     0.124 C 
BRANCH   4   5
ATOM      5  C   UNL A   1      37.379  21.867  25.748  1.00  0.00     0.033 C 
BRANCH   5   6
ATOM      6  C   UNL A   1      36.546  23.131  25.984  1.00  0.00     0.121 C 
BRANCH   6   7
ATOM      7  N   UNL A   1      35.096  23.010  25.909  1.00  0.00    -0.325 N 
ATOM      8  C   UNL A   1      34.448  21.889  26.392  1.00  0.00     0.295 C 
ATOM      9  C   UNL A   1      34.332  23.584  24.806  1.00  0.00     0.150 C 
ATOM     10  O   UNL A   1      34.419  21.440  27.502  1.00  0.00    -0.265 OA
ATOM     11  C   UNL A   1      33.676  21.314  25.213  1.00  0.00     0.248 C 
ATOM     12  C   UNL A   1      33.549  22.414  24.247  1.00  0.00     0.025 C 
ATOM     13  O   UNL A   1      33.308  20.171  25.066  1.00  0.00    -0.283 OA
ATOM     14  C   UNL A   1      32.775  22.286  23.159  1.00  0.00    -0.092 C 
ATOM     15  O   UNL A   1      32.103  21.133  22.812  1.00  0.00    -0.872 OA
BRANCH   9  16
ATOM     16  C   UNL A   1      33.513  24.739  25.375  1.00  0.00    -0.020 A 
ATOM     17  C   UNL A   1      32.447  24.556  26.274  1.00  0.00     0.013 A 
ATOM     18  C   UNL A   1      33.905  26.053  25.058  1.00  0.00     0.013 A 
ATOM     19  C   UNL A   1      31.767  25.651  26.813  1.00  0.00     0.086 A 
ATOM     20  C   UNL A   1      33.253  27.154  25.616  1.00  0.00     0.086 A 
ATOM     21  C   UNL A   1      32.178  26.946  26.486  1.00  0.00     0.269 A 
BRANCH  21  22
ATOM     22  N   UNL A   1      31.486  28.096  27.070  1.00  0.00     0.062 N 
ATOM     23  O   UNL A   1      31.397  29.123  26.381  1.00  0.00    -0.258 OA
ATOM     24  O   UNL A   1      31.030  27.970  28.215  1.00  0.00    -0.258 OA
ENDBRANCH  21  22
ENDBRANCH   9  16
BRANCH  14  25
ATOM     25  C   UNL A   1      32.403  23.470  22.385  1.00  0.00    -0.033 A 
ATOM     26  C   UNL A   1      31.349  24.263  22.864  1.00  0.00     0.007 A 
ATOM     27  C   UNL A   1      33.157  23.910  21.293  1.00  0.00     0.007 A 
ATOM     28  C   UNL A   1      31.099  25.512  22.304  1.00  0.00     0.001 A 
ATOM     29  C   UNL A   1      32.901  25.161  20.732  1.00  0.00     0.001 A 
ATOM     30  C   UNL A   1      31.885  25.967  21.248  1.00  0.00     0.000 A 
ENDBRANCH  14  25
ENDBRANCH   6   7
ENDBRANCH   5   6
ENDBRANCH   4   5
ENDBRANCH   2   4
ENDBRANCH   1   2
BRANCH   1  31
ATOM     31  C   UNL A   1      41.945  20.284  26.510  1.00  0.00     0.274 C 
BRANCH  31  32
ATOM     32  C   UNL A   1      42.843  21.236  25.699  1.00  0.00     0.275 C 
BRANCH  32  33
ATOM     33  O   UNL A   1      42.197  22.516  25.577  1.00  0.00    -0.458 OA
BRANCH  33  34
ATOM     34  C   UNL A   1      42.978  23.607  25.514  1.00  0.00     0.338 C 
ATOM     35  O   UNL A   1      44.032  23.734  24.919  1.00  0.00    -0.246 OA
BRANCH  34  36
ATOM     36  C   UNL A   1      42.334  24.674  26.314  1.00  0.00     0.060 A 
ATOM     37  C   UNL A   1      42.701  26.005  26.105  1.00  0.00     0.016 A 
ATOM     38  C   UNL A   1      41.436  24.348  27.337  1.00  0.00     0.016 A 
ATOM     39  C   UNL A   1      42.273  26.991  27.001  1.00  0.00     0.010 A 
ATOM     40  C   UNL A   1      40.973  25.348  28.208  1.00  0.00     0.010 A 
ATOM     41  C   UNL A   1      41.457  26.663  28.097  1.00  0.00    -0.014 A 
BRANCH  41  42
ATOM     42  C   UNL A   1      41.322  27.650  29.212  1.00  0.00     0.031 A 
ATOM     43  C   UNL A   1      40.164  28.621  29.194  1.00  0.00     0.074 A 
ATOM     44  C   UNL A   1      42.135  27.630  30.286  1.00  0.00     0.049 A 
ATOM     45  N   UNL A   1      39.725  29.411  30.145  1.00  0.00    -0.248 NA
ATOM     46  C   UNL A   1      39.398  28.712  27.944  1.00  0.00     0.031 C 
ATOM     47  C   UNL A   1      43.301  26.767  30.452  1.00  0.00     0.029 A 
ATOM     48  N   UNL A   1      42.081  28.352  31.457  1.00  0.00    -0.354 N 
ATOM     49  C   UNL A   1      38.623  30.070  29.613  1.00  0.00     0.074 A 
ATOM     50  C   UNL A   1      38.500  29.640  28.237  1.00  0.00     0.031 C 
ATOM     51  C   UNL A   1      43.841  26.992  31.664  1.00  0.00     0.029 A 
ATOM     52  C   UNL A   1      43.058  28.014  32.362  1.00  0.00     0.049 A 
ATOM     53  H   UNL A   1      41.405  29.047  31.630  1.00  0.00     0.167 HD
ATOM     54  C   UNL A   1      37.766  30.931  30.213  1.00  0.00     0.037 A 
ATOM     55  C   UNL A   1      43.284  28.457  33.616  1.00  0.00     0.037 A 
ATOM     56  C   UNL A   1      37.870  31.376  31.577  1.00  0.00     0.049 A 
ATOM     57  C   UNL A   1      42.341  29.452  34.251  1.00  0.00     0.074 A 
ATOM     58  C   UNL A   1      37.021  32.215  32.278  1.00  0.00     0.029 A 
ATOM     59  N   UNL A   1      38.894  31.032  32.444  1.00  0.00    -0.354 N 
ATOM     60  N   UNL A   1      41.242  29.980  33.774  1.00  0.00    -0.248 NA
ATOM     61  C   UNL A   1      42.666  29.891  35.619  1.00  0.00     0.031 C 
ATOM     62  C   UNL A   1      37.560  32.423  33.551  1.00  0.00     0.029 A 
ATOM     63  C   UNL A   1      38.714  31.665  33.664  1.00  0.00     0.049 A 
ATOM     64  H   UNL A   1      39.640  30.428  32.226  1.00  0.00     0.167 HD
ATOM     65  C   UNL A   1      40.721  30.770  34.794  1.00  0.00     0.074 A 
ATOM     66  C   UNL A   1      41.619  30.647  35.920  1.00  0.00     0.031 C 
ATOM     67  C   UNL A   1      39.593  31.525  34.795  1.00  0.00     0.037 A 
BRANCH  54  68
ATOM     68  C   UNL A   1      36.627  31.455  29.387  1.00  0.00     0.064 A 
ATOM     69  C   UNL A   1      35.554  30.631  29.014  1.00  0.00     0.173 A 
ATOM     70  C   UNL A   1      36.591  32.800  28.996  1.00  0.00     0.173 A 
ATOM     71  F   UNL A   1      35.546  29.335  29.357  1.00  0.00    -0.203 F 
ATOM     72  C   UNL A   1      34.500  31.131  28.254  1.00  0.00     0.198 A 
ATOM     73  C   UNL A   1      35.521  33.304  28.260  1.00  0.00     0.198 A 
ATOM     74  F   UNL A   1      37.588  33.632  29.334  1.00  0.00    -0.203 F 
ATOM     75  F   UNL A   1      33.509  30.316  27.869  1.00  0.00    -0.200 F 
ATOM     76  C   UNL A   1      34.482  32.466  27.882  1.00  0.00     0.200 A 
ATOM     77  F   UNL A   1      35.496  34.598  27.915  1.00  0.00    -0.200 F 
ATOM     78  F   UNL A   1      33.463  32.947  27.156  1.00  0.00    -0.200 F 
ENDBRANCH  54  68
BRANCH  55  79
ATOM     79  C   UNL A   1      44.437  27.934  34.398  1.00  0.00     0.064 A 
ATOM     80  C   UNL A   1      44.298  26.815  35.233  1.00  0.00     0.173 A 
ATOM     81  C   UNL A   1      45.683  28.574  34.368  1.00  0.00     0.173 A 
ATOM     82  F   UNL A   1      43.116  26.186  35.319  1.00  0.00    -0.203 F 
ATOM     83  C   UNL A   1      45.352  26.376  36.031  1.00  0.00     0.198 A 
ATOM     84  C   UNL A   1      46.746  28.116  35.145  1.00  0.00     0.198 A 
ATOM     85  F   UNL A   1      45.868  29.651  33.591  1.00  0.00    -0.203 F 
ATOM     86  F   UNL A   1      45.174  25.342  36.865  1.00  0.00    -0.200 F 
ATOM     87  C   UNL A   1      46.576  27.024  35.984  1.00  0.00     0.200 A 
ATOM     88  F   UNL A   1      47.930  28.741  35.092  1.00  0.00    -0.200 F 
ATOM     89  F   UNL A   1      47.589  26.607  36.755  1.00  0.00    -0.200 F 
ENDBRANCH  55  79
BRANCH  67  90
ATOM     90  C   UNL A   1      39.222  32.231  36.069  1.00  0.00     0.064 A 
ATOM     91  C   UNL A   1      39.732  33.497  36.395  1.00  0.00     0.173 A 
ATOM     92  C   UNL A   1      38.310  31.647  36.962  1.00  0.00     0.173 A 
ATOM     93  F   UNL A   1      40.615  34.099  35.584  1.00  0.00    -0.203 F 
ATOM     94  C   UNL A   1      39.370  34.133  37.581  1.00  0.00     0.198 A 
ATOM     95  C   UNL A   1      37.925  32.300  38.130  1.00  0.00     0.198 A 
ATOM     96  F   UNL A   1      37.781  30.442  36.699  1.00  0.00    -0.203 F 
ATOM     97  F   UNL A   1      39.914  35.318  37.896  1.00  0.00    -0.200 F 
ATOM     98  C   UNL A   1      38.463  33.539  38.444  1.00  0.00     0.200 A 
ATOM     99  F   UNL A   1      37.035  31.730  38.955  1.00  0.00    -0.200 F 
ATOM    100  F   UNL A   1      38.113  34.154  39.582  1.00  0.00    -0.200 F 
ENDBRANCH  67  90
ENDBRANCH  41  42
ENDBRANCH  34  36
ENDBRANCH  33  34
ENDBRANCH  32  33
ENDBRANCH  31  32
ENDBRANCH   1  31
TORSDOF 17
ENDMDL
MODEL 3
REMARK VINA RESULT:     -11.8      2.141      7.566
REMARK SMILES O=C(CCCN1C(=O)C(=O)/C(=C(\[O-])c2ccccc2)[C@H]1c1ccc([N+](=O)[O-])cc1)OCCOC(=O)c1ccc(-c2c3nc(c(-c4c(F)c(F)c(F)c(F)c4F)c4ccc([nH]4)c(-c4c(F)c(F)c(F)c(F)c4F)c4nc(c(-c5c(F)c(F)c(F)c(F)c5F)c5ccc2[nH]5)C=C4)C=C3)cc1
REMARK SMILES IDX 30 1 2 2 1 3 3 4 4 5 5 6 6 7 7 8 20 9 8 10 9 11 11 12 10 13
REMARK SMILES IDX 12 14 13 15 21 16 22 17 29 18 23 19 28 20 24 21 25 22 26 23
REMARK SMILES IDX 27 24 14 25 15 26 19 27 16 28 18 29 17 30 31 31 32 32 33 33
REMARK SMILES IDX 34 34 35 35 36 36 37 37 98 38 38 39 97 40 39 41 40 42 41 43
REMARK SMILES IDX 91 44 42 45 96 46 90 47 92 48 43 49 95 50 89 51 88 52 44 54
REMARK SMILES IDX 76 55 56 56 75 57 57 58 60 59 74 60 93 61 58 62 59 63 73 65
REMARK SMILES IDX 94 66 61 67 45 68 46 69 54 70 47 71 48 72 52 73 55 74 49 75
REMARK SMILES IDX 50 76 53 77 51 78 77 79 78 80 86 81 79 82 80 83 84 84 87 85
REMARK SMILES IDX 81 86 82 87 85 88 83 89 62 90 63 91 71 92 64 93 65 94 69 95
REMARK SMILES IDX 72 96 66 97 67 98 70 99 68 100
REMARK H PARENT 92 53 60 64
REMARK Flexibility Score: inf
ROOT
ATOM      1  O   UNL A   1      37.713  20.757  25.364  1.00  0.00    -0.462 OA
ENDROOT
BRANCH   1   2
ATOM      2  C   UNL A   1      36.571  21.141  24.733  1.00  0.00     0.305 C 
ATOM      3  O   UNL A   1      35.545  20.474  24.667  1.00  0.00    -0.252 OA
BRANCH   2   4
ATOM      4  C   UNL A   1      36.805  22.405  23.935  1.00  0.00     0.124 C 
BRANCH   4   5
ATOM      5  C   UNL A   1      36.960  23.693  24.734  1.00  0.00     0.033 C 
BRANCH   5   6
ATOM      6  C   UNL A   1      36.309  23.781  26.118  1.00  0.00     0.121 C 
BRANCH   6   7
ATOM      7  N   UNL A   1      34.863  23.953  26.175  1.00  0.00    -0.325 N 
ATOM      8  C   UNL A   1      34.069  23.082  26.896  1.00  0.00     0.295 C 
ATOM      9  C   UNL A   1      34.106  24.492  25.049  1.00  0.00     0.150 C 
ATOM     10  O   UNL A   1      34.076  22.829  28.066  1.00  0.00    -0.265 OA
ATOM     11  C   UNL A   1      33.077  22.501  25.898  1.00  0.00     0.248 C 
ATOM     12  C   UNL A   1      33.057  23.436  24.766  1.00  0.00     0.025 C 
ATOM     13  O   UNL A   1      32.483  21.450  25.984  1.00  0.00    -0.283 OA
ATOM     14  C   UNL A   1      32.159  23.302  23.780  1.00  0.00    -0.092 C 
ATOM     15  O   UNL A   1      31.245  22.273  23.693  1.00  0.00    -0.872 OA
BRANCH   9  16
ATOM     16  C   UNL A   1      33.591  25.866  25.465  1.00  0.00    -0.020 A 
ATOM     17  C   UNL A   1      32.626  26.054  26.470  1.00  0.00     0.013 A 
ATOM     18  C   UNL A   1      34.179  27.003  24.880  1.00  0.00     0.013 A 
ATOM     19  C   UNL A   1      32.231  27.337  26.856  1.00  0.00     0.086 A 
ATOM     20  C   UNL A   1      33.815  28.290  25.282  1.00  0.00     0.086 A 
ATOM     21  C   UNL A   1      32.834  28.450  26.264  1.00  0.00     0.269 A 
BRANCH  21  22
ATOM     22  N   UNL A   1      32.443  29.797  26.685  1.00  0.00     0.062 N 
ATOM     23  O   UNL A   1      31.444  30.298  26.150  1.00  0.00    -0.258 OA
ATOM     24  O   UNL A   1      33.134  30.349  27.552  1.00  0.00    -0.258 OA
ENDBRANCH  21  22
ENDBRANCH   9  16
BRANCH  14  25
ATOM     25  C   UNL A   1      31.938  24.400  22.839  1.00  0.00    -0.033 A 
ATOM     26  C   UNL A   1      30.989  25.376  23.180  1.00  0.00     0.007 A 
ATOM     27  C   UNL A   1      32.743  24.585  21.711  1.00  0.00     0.007 A 
ATOM     28  C   UNL A   1      30.896  26.554  22.445  1.00  0.00     0.001 A 
ATOM     29  C   UNL A   1      32.645  25.765  20.974  1.00  0.00     0.001 A 
ATOM     30  C   UNL A   1      31.735  26.754  21.351  1.00  0.00     0.000 A 
ENDBRANCH  14  25
ENDBRANCH   6   7
ENDBRANCH   5   6
ENDBRANCH   4   5
ENDBRANCH   2   4
ENDBRANCH   1   2
BRANCH   1  31
ATOM     31  C   UNL A   1      38.189  19.440  25.046  1.00  0.00     0.274 C 
BRANCH  31  32
ATOM     32  C   UNL A   1      39.540  19.145  25.722  1.00  0.00     0.275 C 
BRANCH  32  33
ATOM     33  O   UNL A   1      40.175  20.384  26.085  1.00  0.00    -0.458 OA
BRANCH  33  34
ATOM     34  C   UNL A   1      40.776  20.450  27.284  1.00  0.00     0.338 C 
ATOM     35  O   UNL A   1      41.145  19.525  27.984  1.00  0.00    -0.246 OA
BRANCH  34  36
ATOM     36  C   UNL A   1      40.926  21.880  27.639  1.00  0.00     0.060 A 
ATOM     37  C   UNL A   1      40.188  22.841  26.946  1.00  0.00     0.016 A 
ATOM     38  C   UNL A   1      41.869  22.277  28.596  1.00  0.00     0.016 A 
ATOM     39  C   UNL A   1      40.485  24.198  27.112  1.00  0.00     0.010 A 
ATOM     40  C   UNL A   1      42.134  23.642  28.793  1.00  0.00     0.010 A 
ATOM     41  C   UNL A   1      41.503  24.609  27.990  1.00  0.00    -0.014 A 
BRANCH  41  42
ATOM     42  C   UNL A   1      42.030  26.003  27.874  1.00  0.00     0.031 A 
ATOM     43  C   UNL A   1      41.275  27.130  28.541  1.00  0.00     0.074 A 
ATOM     44  C   UNL A   1      43.213  26.274  27.288  1.00  0.00     0.049 A 
ATOM     45  N   UNL A   1      41.646  28.369  28.758  1.00  0.00    -0.248 NA
ATOM     46  C   UNL A   1      39.925  26.819  29.033  1.00  0.00     0.031 C 
ATOM     47  C   UNL A   1      44.056  25.307  26.591  1.00  0.00     0.029 A 
ATOM     48  N   UNL A   1      43.919  27.453  27.211  1.00  0.00    -0.354 N 
ATOM     49  C   UNL A   1      40.589  28.972  29.427  1.00  0.00     0.074 A 
ATOM     50  C   UNL A   1      39.535  27.985  29.523  1.00  0.00     0.031 C 
ATOM     51  C   UNL A   1      45.176  25.925  26.174  1.00  0.00     0.029 A 
ATOM     52  C   UNL A   1      45.133  27.332  26.578  1.00  0.00     0.049 A 
ATOM     53  H   UNL A   1      43.585  28.305  27.575  1.00  0.00     0.167 HD
ATOM     54  C   UNL A   1      40.503  30.220  29.948  1.00  0.00     0.037 A 
ATOM     55  C   UNL A   1      46.108  28.241  26.368  1.00  0.00     0.037 A 
ATOM     56  C   UNL A   1      41.535  31.218  29.862  1.00  0.00     0.049 A 
ATOM     57  C   UNL A   1      45.972  29.641  26.918  1.00  0.00     0.074 A 
ATOM     58  C   UNL A   1      41.547  32.495  30.398  1.00  0.00     0.029 A 
ATOM     59  N   UNL A   1      42.732  31.060  29.184  1.00  0.00    -0.354 N 
ATOM     60  N   UNL A   1      45.015  30.161  27.645  1.00  0.00    -0.248 NA
ATOM     61  C   UNL A   1      47.076  30.573  26.635  1.00  0.00     0.031 C 
ATOM     62  C   UNL A   1      42.727  33.128  29.998  1.00  0.00     0.029 A 
ATOM     63  C   UNL A   1      43.478  32.225  29.264  1.00  0.00     0.049 A 
ATOM     64  H   UNL A   1      43.012  30.241  28.715  1.00  0.00     0.167 HD
ATOM     65  C   UNL A   1      45.422  31.457  27.945  1.00  0.00     0.074 A 
ATOM     66  C   UNL A   1      46.716  31.644  27.329  1.00  0.00     0.031 C 
ATOM     67  C   UNL A   1      44.779  32.405  28.672  1.00  0.00     0.037 A 
BRANCH  54  68
ATOM     68  C   UNL A   1      39.234  30.579  30.665  1.00  0.00     0.064 A 
ATOM     69  C   UNL A   1      38.130  31.109  29.980  1.00  0.00     0.173 A 
ATOM     70  C   UNL A   1      39.109  30.360  32.044  1.00  0.00     0.173 A 
ATOM     71  F   UNL A   1      38.203  31.346  28.662  1.00  0.00    -0.203 F 
ATOM     72  C   UNL A   1      36.957  31.433  30.656  1.00  0.00     0.198 A 
ATOM     73  C   UNL A   1      37.924  30.657  32.712  1.00  0.00     0.198 A 
ATOM     74  F   UNL A   1      40.131  29.847  32.745  1.00  0.00    -0.203 F 
ATOM     75  F   UNL A   1      35.932  31.982  29.990  1.00  0.00    -0.200 F 
ATOM     76  C   UNL A   1      36.853  31.202  32.019  1.00  0.00     0.200 A 
ATOM     77  F   UNL A   1      37.818  30.419  34.026  1.00  0.00    -0.200 F 
ATOM     78  F   UNL A   1      35.720  31.508  32.667  1.00  0.00    -0.200 F 
ENDBRANCH  54  68
BRANCH  55  79
ATOM     79  C   UNL A   1      47.342  27.856  25.631  1.00  0.00     0.064 A 
ATOM     80  C   UNL A   1      47.369  27.825  24.229  1.00  0.00     0.173 A 
ATOM     81  C   UNL A   1      48.500  27.457  26.314  1.00  0.00     0.173 A 
ATOM     82  F   UNL A   1      46.275  28.168  23.531  1.00  0.00    -0.203 F 
ATOM     83  C   UNL A   1      48.495  27.382  23.539  1.00  0.00     0.198 A 
ATOM     84  C   UNL A   1      49.637  27.042  25.622  1.00  0.00     0.198 A 
ATOM     85  F   UNL A   1      48.526  27.464  27.654  1.00  0.00    -0.203 F 
ATOM     86  F   UNL A   1      48.472  27.306  22.201  1.00  0.00    -0.200 F 
ATOM     87  C   UNL A   1      49.629  26.995  24.236  1.00  0.00     0.200 A 
ATOM     88  F   UNL A   1      50.733  26.675  26.298  1.00  0.00    -0.200 F 
ATOM     89  F   UNL A   1      50.710  26.563  23.573  1.00  0.00    -0.200 F 
ENDBRANCH  55  79
BRANCH  67  90
ATOM     90  C   UNL A   1      45.484  33.713  28.903  1.00  0.00     0.064 A 
ATOM     91  C   UNL A   1      46.338  33.916  29.999  1.00  0.00     0.173 A 
ATOM     92  C   UNL A   1      45.331  34.770  27.992  1.00  0.00     0.173 A 
ATOM     93  F   UNL A   1      46.513  32.944  30.907  1.00  0.00    -0.203 F 
ATOM     94  C   UNL A   1      46.982  35.136  30.190  1.00  0.00     0.198 A 
ATOM     95  C   UNL A   1      46.004  35.976  28.168  1.00  0.00     0.198 A 
ATOM     96  F   UNL A   1      44.536  34.630  26.920  1.00  0.00    -0.203 F 
ATOM     97  F   UNL A   1      47.749  35.324  31.274  1.00  0.00    -0.200 F 
ATOM     98  C   UNL A   1      46.821  36.162  29.273  1.00  0.00     0.200 A 
ATOM     99  F   UNL A   1      45.858  36.962  27.271  1.00  0.00    -0.200 F 
ATOM    100  F   UNL A   1      47.446  37.334  29.456  1.00  0.00    -0.200 F 
ENDBRANCH  67  90
ENDBRANCH  41  42
ENDBRANCH  34  36
ENDBRANCH  33  34
ENDBRANCH  32  33
ENDBRANCH  31  32
ENDBRANCH   1  31
TORSDOF 17
ENDMDL
