MODEL 1
REMARK VINA RESULT:     -13.3      0.000      0.000
REMARK SMILES O=C1NC(=S)S/C1=C\c1ccc(OCc2cn(-c3ccc(C(=O)OCCOC(=O)c4ccc(-c5c6nc(c(-c7c(F)c(F)c(F)c(F)c7F)c7ccc([nH]7)c(-c7c(F)c(F)c(F)c(F)c7F)c7nc(c(-c8c(F)c(F)c(F)c(F)c8F)c8ccc5[nH]8)C=C7)C=C6)cc4)cc3)nn2)cc1
REMARK SMILES IDX 24 1 22 2 23 3 21 4 18 5 19 6 94 7 20 8 93 9 17 10 15 11
REMARK SMILES IDX 16 12 96 13 95 14 14 15 13 16 12 17 9 18 10 19 98 20 11 21
REMARK SMILES IDX 97 22 8 23 1 24 2 25 3 26 7 27 4 28 6 30 5 31 25 32 26 33
REMARK SMILES IDX 27 34 28 35 29 36 30 37 31 38 92 39 32 40 91 41 33 42 34 43
REMARK SMILES IDX 35 44 85 45 36 46 90 47 84 48 86 49 37 50 89 51 83 52 82 53
REMARK SMILES IDX 38 55 70 56 50 57 69 58 51 59 54 60 68 61 87 62 52 63 53 64
REMARK SMILES IDX 67 66 88 67 55 68 39 69 40 70 48 71 41 72 42 73 46 74 49 75
REMARK SMILES IDX 43 76 44 77 47 78 45 79 71 80 72 81 80 82 73 83 74 84 78 85
REMARK SMILES IDX 81 86 75 87 76 88 79 89 77 90 56 91 57 92 65 93 58 94 59 95
REMARK SMILES IDX 63 96 66 97 60 98 61 99 64 100 62 101
REMARK H PARENT 3 29 86 54 54 65
REMARK Flexibility Score: inf
ROOT
ATOM      1  O   UNL A   1      41.961  19.083  25.803  1.00  0.00    -0.458 OA
ENDROOT
BRANCH   1   2
ATOM      2  C   UNL A   1      41.621  20.186  26.526  1.00  0.00     0.338 C 
ATOM      3  O   UNL A   1      42.326  20.789  27.301  1.00  0.00    -0.246 OA
BRANCH   2   4
ATOM      4  C   UNL A   1      40.255  20.631  26.152  1.00  0.00     0.060 A 
ATOM      5  C   UNL A   1      37.732  21.412  25.260  1.00  0.00     0.066 A 
ATOM      6  C   UNL A   1      38.161  20.091  25.069  1.00  0.00     0.029 A 
ATOM      7  C   UNL A   1      38.532  22.320  25.966  1.00  0.00     0.029 A 
ATOM      8  C   UNL A   1      39.433  19.711  25.491  1.00  0.00     0.018 A 
ATOM      9  C   UNL A   1      39.787  21.920  26.429  1.00  0.00     0.018 A 
BRANCH   5  10
ATOM     10  N   UNL A   1      36.519  21.826  24.663  1.00  0.00    -0.220 N 
ATOM     11  C   UNL A   1      34.419  22.137  24.158  1.00  0.00     0.120 A 
ATOM     12  C   UNL A   1      35.280  21.230  24.738  1.00  0.00     0.144 A 
ATOM     13  N   UNL A   1      35.145  23.214  23.726  1.00  0.00    -0.131 NA
ATOM     14  N   UNL A   1      36.414  23.018  24.035  1.00  0.00    -0.062 NA
BRANCH  11  15
ATOM     15  C   UNL A   1      32.928  22.142  24.064  1.00  0.00     0.289 C 
BRANCH  15  16
ATOM     16  O   UNL A   1      32.393  22.640  22.828  1.00  0.00    -0.487 OA
BRANCH  16  17
ATOM     17  C   UNL A   1      31.746  23.846  22.845  1.00  0.00     0.119 A 
ATOM     18  C   UNL A   1      30.793  26.485  22.940  1.00  0.00    -0.024 A 
ATOM     19  C   UNL A   1      31.848  26.152  22.088  1.00  0.00     0.012 A 
ATOM     20  C   UNL A   1      30.160  25.476  23.668  1.00  0.00     0.012 A 
ATOM     21  C   UNL A   1      32.323  24.837  22.046  1.00  0.00     0.047 A 
ATOM     22  C   UNL A   1      30.619  24.160  23.600  1.00  0.00     0.047 A 
BRANCH  18  23
ATOM     23  C   UNL A   1      30.358  27.875  23.092  1.00  0.00     0.029 C 
ATOM     24  O   UNL A   1      29.413  30.599  23.494  1.00  0.00    -0.268 OA
ATOM     25  C   UNL A   1      30.329  30.116  24.140  1.00  0.00     0.263 C 
ATOM     26  N   UNL A   1      31.006  30.762  25.137  1.00  0.00    -0.307 N 
ATOM     27  C   UNL A   1      30.866  28.739  23.983  1.00  0.00     0.080 C 
ATOM     28  C   UNL A   1      32.005  30.093  25.774  1.00  0.00     0.145 C 
ATOM     29  H   UNL A   1      30.777  31.688  25.385  1.00  0.00     0.171 HD
ATOM     30  S   UNL A   1      32.158  28.487  25.104  1.00  0.00    -0.055 SA
ATOM     31  S   UNL A   1      32.909  30.745  26.997  1.00  0.00    -0.052 S 
ENDBRANCH  18  23
ENDBRANCH  16  17
ENDBRANCH  15  16
ENDBRANCH  11  15
ENDBRANCH   5  10
ENDBRANCH   2   4
ENDBRANCH   1   2
BRANCH   1  32
ATOM     32  C   UNL A   1      43.119  18.384  26.281  1.00  0.00     0.275 C 
BRANCH  32  33
ATOM     33  C   UNL A   1      44.272  18.496  25.294  1.00  0.00     0.275 C 
BRANCH  33  34
ATOM     34  O   UNL A   1      44.928  19.762  25.369  1.00  0.00    -0.458 OA
BRANCH  34  35
ATOM     35  C   UNL A   1      44.615  20.622  24.374  1.00  0.00     0.338 C 
ATOM     36  O   UNL A   1      44.559  20.389  23.177  1.00  0.00    -0.246 OA
BRANCH  35  37
ATOM     37  C   UNL A   1      44.614  21.987  24.909  1.00  0.00     0.060 A 
ATOM     38  C   UNL A   1      45.505  22.295  25.940  1.00  0.00     0.016 A 
ATOM     39  C   UNL A   1      43.558  22.844  24.566  1.00  0.00     0.016 A 
ATOM     40  C   UNL A   1      45.268  23.422  26.704  1.00  0.00     0.010 A 
ATOM     41  C   UNL A   1      43.308  23.951  25.343  1.00  0.00     0.010 A 
ATOM     42  C   UNL A   1      44.138  24.204  26.433  1.00  0.00    -0.014 A 
BRANCH  42  43
ATOM     43  C   UNL A   1      43.934  25.418  27.198  1.00  0.00     0.031 A 
ATOM     44  C   UNL A   1      44.958  26.451  26.905  1.00  0.00     0.074 A 
ATOM     45  C   UNL A   1      42.836  25.634  27.949  1.00  0.00     0.049 A 
ATOM     46  N   UNL A   1      45.808  26.973  27.723  1.00  0.00    -0.248 NA
ATOM     47  C   UNL A   1      45.167  26.835  25.497  1.00  0.00     0.031 C 
ATOM     48  C   UNL A   1      41.640  24.792  28.040  1.00  0.00     0.029 A 
ATOM     49  N   UNL A   1      42.506  26.717  28.707  1.00  0.00    -0.354 N 
ATOM     50  C   UNL A   1      46.532  27.896  26.972  1.00  0.00     0.074 A 
ATOM     51  C   UNL A   1      46.232  27.630  25.593  1.00  0.00     0.031 C 
ATOM     52  C   UNL A   1      40.642  25.499  28.618  1.00  0.00     0.029 A 
ATOM     53  C   UNL A   1      41.159  26.791  29.040  1.00  0.00     0.049 A 
ATOM     54  H   UNL A   1      43.166  27.389  28.995  1.00  0.00     0.167 HD
ATOM     55  C   UNL A   1      47.088  28.982  27.572  1.00  0.00     0.037 A 
ATOM     56  C   UNL A   1      40.510  27.868  29.554  1.00  0.00     0.037 A 
ATOM     57  C   UNL A   1      47.222  28.768  28.991  1.00  0.00     0.049 A 
ATOM     58  C   UNL A   1      41.538  28.786  30.103  1.00  0.00     0.074 A 
ATOM     59  C   UNL A   1      47.896  27.861  29.784  1.00  0.00     0.029 A 
ATOM     60  N   UNL A   1      46.282  29.355  29.799  1.00  0.00    -0.354 N 
ATOM     61  N   UNL A   1      42.247  28.541  31.168  1.00  0.00    -0.248 NA
ATOM     62  C   UNL A   1      42.070  29.816  29.224  1.00  0.00     0.031 C 
ATOM     63  C   UNL A   1      47.047  27.641  30.908  1.00  0.00     0.029 A 
ATOM     64  C   UNL A   1      45.930  28.466  30.777  1.00  0.00     0.049 A 
ATOM     65  H   UNL A   1      45.921  30.264  29.692  1.00  0.00     0.167 HD
ATOM     66  C   UNL A   1      43.507  29.031  30.864  1.00  0.00     0.074 A 
ATOM     67  C   UNL A   1      43.305  29.915  29.721  1.00  0.00     0.031 C 
ATOM     68  C   UNL A   1      44.621  28.437  31.384  1.00  0.00     0.037 A 
BRANCH  55  69
ATOM     69  C   UNL A   1      47.071  30.372  26.969  1.00  0.00     0.064 A 
ATOM     70  C   UNL A   1      48.255  31.136  27.014  1.00  0.00     0.173 A 
ATOM     71  C   UNL A   1      45.897  31.098  26.664  1.00  0.00     0.173 A 
ATOM     72  F   UNL A   1      49.431  30.558  27.302  1.00  0.00    -0.203 F 
ATOM     73  C   UNL A   1      48.244  32.526  26.878  1.00  0.00     0.198 A 
ATOM     74  C   UNL A   1      45.899  32.479  26.475  1.00  0.00     0.198 A 
ATOM     75  F   UNL A   1      44.684  30.537  26.647  1.00  0.00    -0.203 F 
ATOM     76  F   UNL A   1      49.371  33.222  27.080  1.00  0.00    -0.200 F 
ATOM     77  C   UNL A   1      47.064  33.198  26.620  1.00  0.00     0.200 A 
ATOM     78  F   UNL A   1      44.740  33.112  26.242  1.00  0.00    -0.200 F 
ATOM     79  F   UNL A   1      47.038  34.535  26.562  1.00  0.00    -0.200 F 
ENDBRANCH  55  69
BRANCH  56  80
ATOM     80  C   UNL A   1      39.105  28.306  29.367  1.00  0.00     0.064 A 
ATOM     81  C   UNL A   1      38.252  28.483  30.471  1.00  0.00     0.173 A 
ATOM     82  C   UNL A   1      38.657  28.837  28.142  1.00  0.00     0.173 A 
ATOM     83  F   UNL A   1      38.617  28.046  31.684  1.00  0.00    -0.203 F 
ATOM     84  C   UNL A   1      37.045  29.182  30.364  1.00  0.00     0.198 A 
ATOM     85  C   UNL A   1      37.447  29.526  28.035  1.00  0.00     0.198 A 
ATOM     86  F   UNL A   1      39.427  28.788  27.046  1.00  0.00    -0.203 F 
ATOM     87  F   UNL A   1      36.296  29.395  31.455  1.00  0.00    -0.200 F 
ATOM     88  C   UNL A   1      36.649  29.713  29.149  1.00  0.00     0.200 A 
ATOM     89  F   UNL A   1      37.093  30.065  26.860  1.00  0.00    -0.200 F 
ATOM     90  F   UNL A   1      35.527  30.441  29.058  1.00  0.00    -0.200 F 
ENDBRANCH  56  80
BRANCH  68  91
ATOM     91  C   UNL A   1      44.435  27.520  32.559  1.00  0.00     0.064 A 
ATOM     92  C   UNL A   1      44.240  26.130  32.469  1.00  0.00     0.173 A 
ATOM     93  C   UNL A   1      44.567  28.072  33.841  1.00  0.00     0.173 A 
ATOM     94  F   UNL A   1      44.202  25.510  31.282  1.00  0.00    -0.203 F 
ATOM     95  C   UNL A   1      44.128  25.345  33.616  1.00  0.00     0.198 A 
ATOM     96  C   UNL A   1      44.499  27.279  34.981  1.00  0.00     0.198 A 
ATOM     97  F   UNL A   1      44.802  29.386  33.986  1.00  0.00    -0.203 F 
ATOM     98  F   UNL A   1      43.910  24.025  33.508  1.00  0.00    -0.200 F 
ATOM     99  C   UNL A   1      44.264  25.919  34.869  1.00  0.00     0.200 A 
ATOM    100  F   UNL A   1      44.679  27.834  36.188  1.00  0.00    -0.200 F 
ATOM    101  F   UNL A   1      44.190  25.159  35.971  1.00  0.00    -0.200 F 
ENDBRANCH  68  91
ENDBRANCH  42  43
ENDBRANCH  35  37
ENDBRANCH  34  35
ENDBRANCH  33  34
ENDBRANCH  32  33
ENDBRANCH   1  32
TORSDOF 16
ENDMDL
MODEL 2
REMARK VINA RESULT:     -12.6      1.587      2.280
REMARK SMILES O=C1NC(=S)S/C1=C\c1ccc(OCc2cn(-c3ccc(C(=O)OCCOC(=O)c4ccc(-c5c6nc(c(-c7c(F)c(F)c(F)c(F)c7F)c7ccc([nH]7)c(-c7c(F)c(F)c(F)c(F)c7F)c7nc(c(-c8c(F)c(F)c(F)c(F)c8F)c8ccc5[nH]8)C=C7)C=C6)cc4)cc3)nn2)cc1
REMARK SMILES IDX 24 1 22 2 23 3 21 4 18 5 19 6 94 7 20 8 93 9 17 10 15 11
REMARK SMILES IDX 16 12 96 13 95 14 14 15 13 16 12 17 9 18 10 19 98 20 11 21
REMARK SMILES IDX 97 22 8 23 1 24 2 25 3 26 7 27 4 28 6 30 5 31 25 32 26 33
REMARK SMILES IDX 27 34 28 35 29 36 30 37 31 38 92 39 32 40 91 41 33 42 34 43
REMARK SMILES IDX 35 44 85 45 36 46 90 47 84 48 86 49 37 50 89 51 83 52 82 53
REMARK SMILES IDX 38 55 70 56 50 57 69 58 51 59 54 60 68 61 87 62 52 63 53 64
REMARK SMILES IDX 67 66 88 67 55 68 39 69 40 70 48 71 41 72 42 73 46 74 49 75
REMARK SMILES IDX 43 76 44 77 47 78 45 79 71 80 72 81 80 82 73 83 74 84 78 85
REMARK SMILES IDX 81 86 75 87 76 88 79 89 77 90 56 91 57 92 65 93 58 94 59 95
REMARK SMILES IDX 63 96 66 97 60 98 61 99 64 100 62 101
REMARK H PARENT 3 29 86 54 54 65
REMARK Flexibility Score: inf
ROOT
ATOM      1  O   UNL A   1      42.088  19.190  25.372  1.00  0.00    -0.458 OA
ENDROOT
BRANCH   1   2
ATOM      2  C   UNL A   1      41.390  19.579  26.475  1.00  0.00     0.338 C 
ATOM      3  O   UNL A   1      41.777  19.562  27.620  1.00  0.00    -0.246 OA
BRANCH   2   4
ATOM      4  C   UNL A   1      40.078  20.143  26.067  1.00  0.00     0.060 A 
ATOM      5  C   UNL A   1      37.650  21.131  25.117  1.00  0.00     0.066 A 
ATOM      6  C   UNL A   1      37.935  19.762  25.014  1.00  0.00     0.029 A 
ATOM      7  C   UNL A   1      38.546  21.992  25.766  1.00  0.00     0.029 A 
ATOM      8  C   UNL A   1      39.160  19.275  25.464  1.00  0.00     0.018 A 
ATOM      9  C   UNL A   1      39.753  21.490  26.258  1.00  0.00     0.018 A 
BRANCH   5  10
ATOM     10  N   UNL A   1      36.488  21.634  24.490  1.00  0.00    -0.220 N 
ATOM     11  C   UNL A   1      34.448  22.256  24.024  1.00  0.00     0.120 A 
ATOM     12  C   UNL A   1      35.170  21.361  24.785  1.00  0.00     0.144 A 
ATOM     13  N   UNL A   1      35.324  23.001  23.280  1.00  0.00    -0.131 NA
ATOM     14  N   UNL A   1      36.554  22.618  23.568  1.00  0.00    -0.062 NA
BRANCH  11  15
ATOM     15  C   UNL A   1      32.987  22.562  24.004  1.00  0.00     0.289 C 
BRANCH  15  16
ATOM     16  O   UNL A   1      32.479  23.053  22.754  1.00  0.00    -0.487 OA
BRANCH  16  17
ATOM     17  C   UNL A   1      31.781  24.231  22.760  1.00  0.00     0.119 A 
ATOM     18  C   UNL A   1      30.716  26.828  22.826  1.00  0.00    -0.024 A 
ATOM     19  C   UNL A   1      31.774  26.526  21.965  1.00  0.00     0.012 A 
ATOM     20  C   UNL A   1      30.137  25.805  23.579  1.00  0.00     0.012 A 
ATOM     21  C   UNL A   1      32.304  25.232  21.937  1.00  0.00     0.047 A 
ATOM     22  C   UNL A   1      30.652  24.509  23.526  1.00  0.00     0.047 A 
BRANCH  18  23
ATOM     23  C   UNL A   1      30.224  28.201  22.961  1.00  0.00     0.029 C 
ATOM     24  O   UNL A   1      29.161  30.886  23.326  1.00  0.00    -0.268 OA
ATOM     25  C   UNL A   1      30.060  30.433  24.016  1.00  0.00     0.263 C 
ATOM     26  N   UNL A   1      30.661  31.097  25.048  1.00  0.00    -0.307 N 
ATOM     27  C   UNL A   1      30.654  29.077  23.881  1.00  0.00     0.080 C 
ATOM     28  C   UNL A   1      31.650  30.460  25.733  1.00  0.00     0.145 C 
ATOM     29  H   UNL A   1      30.387  32.012  25.288  1.00  0.00     0.171 HD
ATOM     30  S   UNL A   1      31.896  28.865  25.065  1.00  0.00    -0.055 SA
ATOM     31  S   UNL A   1      32.467  31.138  27.004  1.00  0.00    -0.052 S 
ENDBRANCH  18  23
ENDBRANCH  16  17
ENDBRANCH  15  16
ENDBRANCH  11  15
ENDBRANCH   5  10
ENDBRANCH   2   4
ENDBRANCH   1   2
BRANCH   1  32
ATOM     32  C   UNL A   1      43.498  19.032  25.578  1.00  0.00     0.275 C 
BRANCH  32  33
ATOM     33  C   UNL A   1      44.253  20.295  25.190  1.00  0.00     0.275 C 
BRANCH  33  34
ATOM     34  O   UNL A   1      43.811  21.437  25.923  1.00  0.00    -0.458 OA
BRANCH  34  35
ATOM     35  C   UNL A   1      43.365  22.461  25.162  1.00  0.00     0.338 C 
ATOM     36  O   UNL A   1      43.501  22.609  23.958  1.00  0.00    -0.246 OA
BRANCH  35  37
ATOM     37  C   UNL A   1      42.914  23.544  26.040  1.00  0.00     0.060 A 
ATOM     38  C   UNL A   1      42.174  24.588  25.478  1.00  0.00     0.016 A 
ATOM     39  C   UNL A   1      43.457  23.637  27.329  1.00  0.00     0.016 A 
ATOM     40  C   UNL A   1      42.070  25.776  26.175  1.00  0.00     0.010 A 
ATOM     41  C   UNL A   1      43.376  24.829  28.011  1.00  0.00     0.010 A 
ATOM     42  C   UNL A   1      42.723  25.901  27.408  1.00  0.00    -0.014 A 
BRANCH  42  43
ATOM     43  C   UNL A   1      42.556  27.129  28.161  1.00  0.00     0.031 A 
ATOM     44  C   UNL A   1      43.633  28.113  27.887  1.00  0.00     0.074 A 
ATOM     45  C   UNL A   1      41.452  27.399  28.886  1.00  0.00     0.049 A 
ATOM     46  N   UNL A   1      44.487  28.601  28.721  1.00  0.00    -0.248 NA
ATOM     47  C   UNL A   1      43.892  28.477  26.482  1.00  0.00     0.031 C 
ATOM     48  C   UNL A   1      40.218  26.613  28.954  1.00  0.00     0.029 A 
ATOM     49  N   UNL A   1      41.155  28.501  29.629  1.00  0.00    -0.354 N 
ATOM     50  C   UNL A   1      45.268  29.485  27.982  1.00  0.00     0.074 A 
ATOM     51  C   UNL A   1      44.989  29.224  26.598  1.00  0.00     0.031 C 
ATOM     52  C   UNL A   1      39.240  27.369  29.503  1.00  0.00     0.029 A 
ATOM     53  C   UNL A   1      39.804  28.639  29.930  1.00  0.00     0.049 A 
ATOM     54  H   UNL A   1      41.837  29.145  29.929  1.00  0.00     0.167 HD
ATOM     55  C   UNL A   1      45.859  30.549  28.588  1.00  0.00     0.037 A 
ATOM     56  C   UNL A   1      39.194  29.747  30.423  1.00  0.00     0.037 A 
ATOM     57  C   UNL A   1      45.951  30.339  30.012  1.00  0.00     0.049 A 
ATOM     58  C   UNL A   1      40.249  30.622  30.990  1.00  0.00     0.074 A 
ATOM     59  C   UNL A   1      46.565  29.408  30.825  1.00  0.00     0.029 A 
ATOM     60  N   UNL A   1      45.020  30.974  30.793  1.00  0.00    -0.354 N 
ATOM     61  N   UNL A   1      40.922  30.352  32.072  1.00  0.00    -0.248 NA
ATOM     62  C   UNL A   1      40.848  31.621  30.118  1.00  0.00     0.031 C 
ATOM     63  C   UNL A   1      45.680  29.235  31.930  1.00  0.00     0.029 A 
ATOM     64  C   UNL A   1      44.606  30.108  31.769  1.00  0.00     0.049 A 
ATOM     65  H   UNL A   1      44.703  31.897  30.673  1.00  0.00     0.167 HD
ATOM     66  C   UNL A   1      42.210  30.783  31.796  1.00  0.00     0.074 A 
ATOM     67  C   UNL A   1      42.074  31.667  30.643  1.00  0.00     0.031 C 
ATOM     68  C   UNL A   1      43.282  30.142  32.344  1.00  0.00     0.037 A 
BRANCH  55  69
ATOM     69  C   UNL A   1      45.919  31.934  27.977  1.00  0.00     0.064 A 
ATOM     70  C   UNL A   1      44.717  32.521  27.530  1.00  0.00     0.173 A 
ATOM     71  C   UNL A   1      47.101  32.554  27.511  1.00  0.00     0.173 A 
ATOM     72  F   UNL A   1      43.531  32.015  27.898  1.00  0.00    -0.203 F 
ATOM     73  C   UNL A   1      44.704  33.568  26.605  1.00  0.00     0.198 A 
ATOM     74  C   UNL A   1      47.083  33.634  26.631  1.00  0.00     0.198 A 
ATOM     75  F   UNL A   1      48.321  32.083  27.788  1.00  0.00    -0.203 F 
ATOM     76  F   UNL A   1      43.539  33.990  26.096  1.00  0.00    -0.200 F 
ATOM     77  C   UNL A   1      45.887  34.116  26.148  1.00  0.00     0.200 A 
ATOM     78  F   UNL A   1      48.243  34.139  26.187  1.00  0.00    -0.200 F 
ATOM     79  F   UNL A   1      45.880  35.069  25.207  1.00  0.00    -0.200 F 
ENDBRANCH  55  69
BRANCH  56  80
ATOM     80  C   UNL A   1      37.815  30.247  30.200  1.00  0.00     0.064 A 
ATOM     81  C   UNL A   1      37.023  30.682  31.278  1.00  0.00     0.173 A 
ATOM     82  C   UNL A   1      37.352  30.581  28.912  1.00  0.00     0.173 A 
ATOM     83  F   UNL A   1      37.409  30.444  32.539  1.00  0.00    -0.203 F 
ATOM     84  C   UNL A   1      35.862  31.438  31.081  1.00  0.00     0.198 A 
ATOM     85  C   UNL A   1      36.187  31.328  28.718  1.00  0.00     0.198 A 
ATOM     86  F   UNL A   1      38.070  30.280  27.822  1.00  0.00    -0.203 F 
ATOM     87  F   UNL A   1      35.176  31.898  32.137  1.00  0.00    -0.200 F 
ATOM     88  C   UNL A   1      35.452  31.770  29.801  1.00  0.00     0.200 A 
ATOM     89  F   UNL A   1      35.821  31.672  27.475  1.00  0.00    -0.200 F 
ATOM     90  F   UNL A   1      34.378  32.550  29.612  1.00  0.00    -0.200 F 
ENDBRANCH  56  80
BRANCH  68  91
ATOM     91  C   UNL A   1      43.029  29.243  33.520  1.00  0.00     0.064 A 
ATOM     92  C   UNL A   1      42.891  27.845  33.446  1.00  0.00     0.173 A 
ATOM     93  C   UNL A   1      43.030  29.825  34.796  1.00  0.00     0.173 A 
ATOM     94  F   UNL A   1      42.977  27.201  32.275  1.00  0.00    -0.203 F 
ATOM     95  C   UNL A   1      42.707  27.080  34.597  1.00  0.00     0.198 A 
ATOM     96  C   UNL A   1      42.892  29.053  35.944  1.00  0.00     0.198 A 
ATOM     97  F   UNL A   1      43.205  31.150  34.930  1.00  0.00    -0.203 F 
ATOM     98  F   UNL A   1      42.547  25.751  34.502  1.00  0.00    -0.200 F 
ATOM     99  C   UNL A   1      42.715  27.683  35.844  1.00  0.00     0.200 A 
ATOM    100  F   UNL A   1      42.947  29.638  37.148  1.00  0.00    -0.200 F 
ATOM    101  F   UNL A   1      42.572  26.943  36.952  1.00  0.00    -0.200 F 
ENDBRANCH  68  91
ENDBRANCH  42  43
ENDBRANCH  35  37
ENDBRANCH  34  35
ENDBRANCH  33  34
ENDBRANCH  32  33
ENDBRANCH   1  32
TORSDOF 16
ENDMDL
MODEL 3
REMARK VINA RESULT:     -12.5      1.454      2.033
REMARK SMILES O=C1NC(=S)S/C1=C\c1ccc(OCc2cn(-c3ccc(C(=O)OCCOC(=O)c4ccc(-c5c6nc(c(-c7c(F)c(F)c(F)c(F)c7F)c7ccc([nH]7)c(-c7c(F)c(F)c(F)c(F)c7F)c7nc(c(-c8c(F)c(F)c(F)c(F)c8F)c8ccc5[nH]8)C=C7)C=C6)cc4)cc3)nn2)cc1
REMARK SMILES IDX 24 1 22 2 23 3 21 4 18 5 19 6 94 7 20 8 93 9 17 10 15 11
REMARK SMILES IDX 16 12 96 13 95 14 14 15 13 16 12 17 9 18 10 19 98 20 11 21
REMARK SMILES IDX 97 22 8 23 1 24 2 25 3 26 7 27 4 28 6 30 5 31 25 32 26 33
REMARK SMILES IDX 27 34 28 35 29 36 30 37 31 38 92 39 32 40 91 41 33 42 34 43
REMARK SMILES IDX 35 44 85 45 36 46 90 47 84 48 86 49 37 50 89 51 83 52 82 53
REMARK SMILES IDX 38 55 70 56 50 57 69 58 51 59 54 60 68 61 87 62 52 63 53 64
REMARK SMILES IDX 67 66 88 67 55 68 39 69 40 70 48 71 41 72 42 73 46 74 49 75
REMARK SMILES IDX 43 76 44 77 47 78 45 79 71 80 72 81 80 82 73 83 74 84 78 85
REMARK SMILES IDX 81 86 75 87 76 88 79 89 77 90 56 91 57 92 65 93 58 94 59 95
REMARK SMILES IDX 63 96 66 97 60 98 61 99 64 100 62 101
REMARK H PARENT 3 29 86 54 54 65
REMARK Flexibility Score: inf
ROOT
ATOM      1  O   UNL A   1      43.077  19.631  25.702  1.00  0.00    -0.458 OA
ENDROOT
BRANCH   1   2
ATOM      2  C   UNL A   1      42.144  19.448  26.677  1.00  0.00     0.338 C 
ATOM      3  O   UNL A   1      42.304  18.888  27.736  1.00  0.00    -0.246 OA
BRANCH   2   4
ATOM      4  C   UNL A   1      40.884  20.139  26.303  1.00  0.00     0.060 A 
ATOM      5  C   UNL A   1      38.504  21.498  25.791  1.00  0.00     0.066 A 
ATOM      6  C   UNL A   1      39.605  22.191  26.313  1.00  0.00     0.029 A 
ATOM      7  C   UNL A   1      38.618  20.143  25.452  1.00  0.00     0.029 A 
ATOM      8  C   UNL A   1      40.784  21.504  26.593  1.00  0.00     0.018 A 
ATOM      9  C   UNL A   1      39.818  19.470  25.692  1.00  0.00     0.018 A 
BRANCH   5  10
ATOM     10  N   UNL A   1      37.264  22.169  25.688  1.00  0.00    -0.220 N 
ATOM     11  C   UNL A   1      35.692  23.667  25.465  1.00  0.00     0.120 A 
ATOM     12  C   UNL A   1      36.993  23.504  25.891  1.00  0.00     0.144 A 
ATOM     13  N   UNL A   1      35.211  22.451  25.060  1.00  0.00    -0.131 NA
ATOM     14  N   UNL A   1      36.167  21.551  25.198  1.00  0.00    -0.062 NA
BRANCH  11  15
ATOM     15  C   UNL A   1      34.870  24.901  25.294  1.00  0.00     0.289 C 
BRANCH  15  16
ATOM     16  O   UNL A   1      34.071  24.947  24.102  1.00  0.00    -0.487 OA
BRANCH  16  17
ATOM     17  C   UNL A   1      32.771  25.362  24.213  1.00  0.00     0.119 A 
ATOM     18  C   UNL A   1      30.128  26.289  24.037  1.00  0.00    -0.024 A 
ATOM     19  C   UNL A   1      30.582  25.298  23.164  1.00  0.00     0.012 A 
ATOM     20  C   UNL A   1      30.971  26.741  25.054  1.00  0.00     0.012 A 
ATOM     21  C   UNL A   1      31.901  24.841  23.252  1.00  0.00     0.047 A 
ATOM     22  C   UNL A   1      32.278  26.260  25.155  1.00  0.00     0.047 A 
BRANCH  18  23
ATOM     23  C   UNL A   1      28.791  26.870  23.887  1.00  0.00     0.029 C 
ATOM     24  O   UNL A   1      26.161  28.101  23.697  1.00  0.00    -0.268 OA
ATOM     25  C   UNL A   1      27.157  28.595  23.198  1.00  0.00     0.263 C 
ATOM     26  N   UNL A   1      27.183  29.780  22.516  1.00  0.00    -0.307 N 
ATOM     27  C   UNL A   1      28.528  28.019  23.249  1.00  0.00     0.080 C 
ATOM     28  C   UNL A   1      28.374  30.208  22.016  1.00  0.00     0.145 C 
ATOM     29  H   UNL A   1      26.361  30.308  22.390  1.00  0.00     0.171 HD
ATOM     30  S   UNL A   1      29.627  29.055  22.408  1.00  0.00    -0.055 SA
ATOM     31  S   UNL A   1      28.559  31.621  21.172  1.00  0.00    -0.052 S 
ENDBRANCH  18  23
ENDBRANCH  16  17
ENDBRANCH  15  16
ENDBRANCH  11  15
ENDBRANCH   5  10
ENDBRANCH   2   4
ENDBRANCH   1   2
BRANCH   1  32
ATOM     32  C   UNL A   1      44.069  18.599  25.618  1.00  0.00     0.275 C 
BRANCH  32  33
ATOM     33  C   UNL A   1      45.222  19.019  24.718  1.00  0.00     0.275 C 
BRANCH  33  34
ATOM     34  O   UNL A   1      45.589  20.385  24.910  1.00  0.00    -0.458 OA
BRANCH  34  35
ATOM     35  C   UNL A   1      44.923  21.266  24.130  1.00  0.00     0.338 C 
ATOM     36  O   UNL A   1      44.601  21.131  22.960  1.00  0.00    -0.246 OA
BRANCH  35  37
ATOM     37  C   UNL A   1      44.870  22.561  24.814  1.00  0.00     0.060 A 
ATOM     38  C   UNL A   1      45.691  22.756  25.927  1.00  0.00     0.016 A 
ATOM     39  C   UNL A   1      43.825  23.444  24.504  1.00  0.00     0.016 A 
ATOM     40  C   UNL A   1      45.392  23.787  26.797  1.00  0.00     0.010 A 
ATOM     41  C   UNL A   1      43.512  24.454  25.384  1.00  0.00     0.010 A 
ATOM     42  C   UNL A   1      44.270  24.587  26.545  1.00  0.00    -0.014 A 
BRANCH  42  43
ATOM     43  C   UNL A   1      44.001  25.705  27.429  1.00  0.00     0.031 A 
ATOM     44  C   UNL A   1      45.040  26.761  27.337  1.00  0.00     0.074 A 
ATOM     45  C   UNL A   1      42.848  25.837  28.114  1.00  0.00     0.049 A 
ATOM     46  N   UNL A   1      45.823  27.181  28.272  1.00  0.00    -0.248 NA
ATOM     47  C   UNL A   1      45.354  27.305  26.003  1.00  0.00     0.031 C 
ATOM     48  C   UNL A   1      41.653  24.995  28.015  1.00  0.00     0.029 A 
ATOM     49  N   UNL A   1      42.456  26.825  28.965  1.00  0.00    -0.354 N 
ATOM     50  C   UNL A   1      46.596  28.182  27.691  1.00  0.00     0.074 A 
ATOM     51  C   UNL A   1      46.404  28.080  26.272  1.00  0.00     0.031 C 
ATOM     52  C   UNL A   1      40.611  25.634  28.592  1.00  0.00     0.029 A 
ATOM     53  C   UNL A   1      41.087  26.866  29.200  1.00  0.00     0.049 A 
ATOM     54  H   UNL A   1      43.088  27.457  29.379  1.00  0.00     0.167 HD
ATOM     55  C   UNL A   1      47.100  29.189  28.454  1.00  0.00     0.037 A 
ATOM     56  C   UNL A   1      40.396  27.878  29.785  1.00  0.00     0.037 A 
ATOM     57  C   UNL A   1      47.126  28.811  29.845  1.00  0.00     0.049 A 
ATOM     58  C   UNL A   1      41.374  28.722  30.513  1.00  0.00     0.074 A 
ATOM     59  C   UNL A   1      47.742  27.816  30.576  1.00  0.00     0.029 A 
ATOM     60  N   UNL A   1      46.125  29.304  30.641  1.00  0.00    -0.354 N 
ATOM     61  N   UNL A   1      42.001  28.353  31.594  1.00  0.00    -0.248 NA
ATOM     62  C   UNL A   1      41.967  29.846  29.804  1.00  0.00     0.031 C 
ATOM     63  C   UNL A   1      46.811  27.470  31.599  1.00  0.00     0.029 A 
ATOM     64  C   UNL A   1      45.703  28.309  31.480  1.00  0.00     0.049 A 
ATOM     65  H   UNL A   1      45.768  30.221  30.613  1.00  0.00     0.167 HD
ATOM     66  C   UNL A   1      43.278  28.870  31.447  1.00  0.00     0.074 A 
ATOM     67  C   UNL A   1      43.159  29.881  30.401  1.00  0.00     0.031 C 
ATOM     68  C   UNL A   1      44.351  28.215  31.977  1.00  0.00     0.037 A 
BRANCH  55  69
ATOM     69  C   UNL A   1      47.122  30.639  28.017  1.00  0.00     0.064 A 
ATOM     70  C   UNL A   1      45.915  31.227  27.585  1.00  0.00     0.173 A 
ATOM     71  C   UNL A   1      48.293  31.359  27.688  1.00  0.00     0.173 A 
ATOM     72  F   UNL A   1      44.738  30.631  27.830  1.00  0.00    -0.203 F 
ATOM     73  C   UNL A   1      45.894  32.377  26.792  1.00  0.00     0.198 A 
ATOM     74  C   UNL A   1      48.264  32.537  26.944  1.00  0.00     0.198 A 
ATOM     75  F   UNL A   1      49.521  30.909  27.966  1.00  0.00    -0.203 F 
ATOM     76  F   UNL A   1      44.734  32.810  26.281  1.00  0.00    -0.200 F 
ATOM     77  C   UNL A   1      47.069  33.025  26.463  1.00  0.00     0.200 A 
ATOM     78  F   UNL A   1      49.417  33.139  26.622  1.00  0.00    -0.200 F 
ATOM     79  F   UNL A   1      47.059  34.084  25.645  1.00  0.00    -0.200 F 
ENDBRANCH  55  69
BRANCH  56  80
ATOM     80  C   UNL A   1      39.007  28.341  29.543  1.00  0.00     0.064 A 
ATOM     81  C   UNL A   1      38.130  28.584  30.616  1.00  0.00     0.173 A 
ATOM     82  C   UNL A   1      38.603  28.831  28.286  1.00  0.00     0.173 A 
ATOM     83  F   UNL A   1      38.454  28.189  31.855  1.00  0.00    -0.203 F 
ATOM     84  C   UNL A   1      36.944  29.306  30.449  1.00  0.00     0.198 A 
ATOM     85  C   UNL A   1      37.413  29.543  28.119  1.00  0.00     0.198 A 
ATOM     86  F   UNL A   1      39.399  28.718  27.214  1.00  0.00    -0.203 F 
ATOM     87  F   UNL A   1      36.173  29.581  31.510  1.00  0.00    -0.200 F 
ATOM     88  C   UNL A   1      36.592  29.795  29.202  1.00  0.00     0.200 A 
ATOM     89  F   UNL A   1      37.102  30.040  26.914  1.00  0.00    -0.200 F 
ATOM     90  F   UNL A   1      35.490  30.544  29.052  1.00  0.00    -0.200 F 
ENDBRANCH  56  80
BRANCH  68  91
ATOM     91  C   UNL A   1      44.081  27.168  33.020  1.00  0.00     0.064 A 
ATOM     92  C   UNL A   1      44.006  25.786  32.770  1.00  0.00     0.173 A 
ATOM     93  C   UNL A   1      43.999  27.588  34.355  1.00  0.00     0.173 A 
ATOM     94  F   UNL A   1      44.173  25.295  31.534  1.00  0.00    -0.203 F 
ATOM     95  C   UNL A   1      43.802  24.878  33.808  1.00  0.00     0.198 A 
ATOM     96  C   UNL A   1      43.840  26.675  35.392  1.00  0.00     0.198 A 
ATOM     97  F   UNL A   1      44.112  28.891  34.659  1.00  0.00    -0.203 F 
ATOM     98  F   UNL A   1      43.701  23.567  33.543  1.00  0.00    -0.200 F 
ATOM     99  C   UNL A   1      43.726  25.323  35.117  1.00  0.00     0.200 A 
ATOM    100  F   UNL A   1      43.816  27.109  36.660  1.00  0.00    -0.200 F 
ATOM    101  F   UNL A   1      43.564  24.447  36.119  1.00  0.00    -0.200 F 
ENDBRANCH  68  91
ENDBRANCH  42  43
ENDBRANCH  35  37
ENDBRANCH  34  35
ENDBRANCH  33  34
ENDBRANCH  32  33
ENDBRANCH   1  32
TORSDOF 16
ENDMDL
