MODEL 1
REMARK VINA RESULT:     -10.8      0.000      0.000
REMARK SMILES C[C@H](C1CCCC1)[N@H+](CC(=O)OCCOC(=O)c1ccc(-c2c3nc(c(-c4c(F)c(F)c(F)c(F)c4F)c4ccc([nH]4)c(-c4c(F)c(F)c(F)c(F)c4F)c4nc(c(-c5c(F)c(F)c(F)c(F)c5F)c5ccc2[nH]5)C=C4)C=C3)cc1)CC(F)(F)F
REMARK SMILES IDX 13 1 12 2 10 3 11 4 9 5 8 6 2 8 1 9 3 10 4 11 7 12 5 13 6 14
REMARK SMILES IDX 81 15 82 16 83 17 84 18 85 19 14 20 15 21 16 22 17 23 18 24
REMARK SMILES IDX 19 25 80 26 20 27 79 28 21 29 22 30 23 31 73 32 24 33 78 34
REMARK SMILES IDX 72 35 74 36 25 37 77 38 71 39 70 40 26 42 58 43 38 44 57 45
REMARK SMILES IDX 39 46 42 47 56 48 75 49 40 50 41 51 55 53 76 54 43 55 27 56
REMARK SMILES IDX 28 57 36 58 29 59 30 60 34 61 37 62 31 63 32 64 35 65 33 66
REMARK SMILES IDX 59 67 60 68 68 69 61 70 62 71 66 72 69 73 63 74 64 75 67 76
REMARK SMILES IDX 65 77 44 78 45 79 53 80 46 81 47 82 51 83 54 84 48 85 49 86
REMARK SMILES IDX 52 87 50 88
REMARK H PARENT 8 7 74 41 42 52
REMARK Flexibility Score: inf
ROOT
ATOM      1  C   UNL A   1      31.870  28.572  27.060  1.00  0.00     0.274 C 
ENDROOT
BRANCH   1   2
ATOM      2  O   UNL A   1      32.150  27.522  26.117  1.00  0.00    -0.458 OA
BRANCH   2   3
ATOM      3  C   UNL A   1      31.117  26.806  25.613  1.00  0.00     0.361 C 
ATOM      4  O   UNL A   1      30.288  26.215  26.296  1.00  0.00    -0.245 OA
BRANCH   3   5
ATOM      5  C   UNL A   1      31.102  26.759  24.080  1.00  0.00     0.387 C 
BRANCH   5   6
ATOM      6  N   UNL A   1      30.959  28.067  23.425  1.00  0.00    -0.316 N 
ATOM      7  H   UNL A   1      30.608  28.243  22.482  1.00  0.00     0.349 HD
BRANCH   6   8
ATOM      8  C   UNL A   1      29.693  28.770  23.585  1.00  0.00     0.184 C 
ATOM      9  C   UNL A   1      28.515  27.868  23.164  1.00  0.00     0.075 C 
BRANCH   8  10
ATOM     10  C   UNL A   1      29.548  30.157  22.923  1.00  0.00     0.047 C 
ATOM     11  C   UNL A   1      28.718  30.077  21.630  1.00  0.00     0.010 C 
ATOM     12  C   UNL A   1      28.767  31.218  23.699  1.00  0.00     0.010 C 
ATOM     13  C   UNL A   1      28.427  31.530  21.297  1.00  0.00     0.001 C 
ATOM     14  C   UNL A   1      28.385  32.255  22.640  1.00  0.00     0.001 C 
ENDBRANCH   8  10
ENDBRANCH   6   8
BRANCH   6  15
ATOM     15  C   UNL A   1      32.169  28.629  22.807  1.00  0.00     0.380 C 
BRANCH  15  16
ATOM     16  C   UNL A   1      33.492  27.848  22.618  1.00  0.00     0.438 C 
ATOM     17  F   UNL A   1      34.385  28.567  21.897  1.00  0.00    -0.165 F 
ATOM     18  F   UNL A   1      34.074  27.626  23.826  1.00  0.00    -0.165 F 
ATOM     19  F   UNL A   1      33.346  26.657  22.009  1.00  0.00    -0.165 F 
ENDBRANCH  15  16
ENDBRANCH   6  15
ENDBRANCH   5   6
ENDBRANCH   3   5
ENDBRANCH   2   3
ENDBRANCH   1   2
BRANCH   1  20
ATOM     20  C   UNL A   1      31.866  29.929  26.358  1.00  0.00     0.275 C 
BRANCH  20  21
ATOM     21  O   UNL A   1      33.212  30.427  26.235  1.00  0.00    -0.458 OA
BRANCH  21  22
ATOM     22  C   UNL A   1      33.528  31.443  27.062  1.00  0.00     0.338 C 
ATOM     23  O   UNL A   1      32.911  32.473  27.265  1.00  0.00    -0.246 OA
BRANCH  22  24
ATOM     24  C   UNL A   1      34.734  31.089  27.811  1.00  0.00     0.060 A 
ATOM     25  C   UNL A   1      35.701  32.075  28.032  1.00  0.00     0.016 A 
ATOM     26  C   UNL A   1      34.936  29.775  28.231  1.00  0.00     0.016 A 
ATOM     27  C   UNL A   1      36.880  31.750  28.691  1.00  0.00     0.010 A 
ATOM     28  C   UNL A   1      36.112  29.454  28.906  1.00  0.00     0.010 A 
ATOM     29  C   UNL A   1      37.086  30.439  29.142  1.00  0.00    -0.014 A 
BRANCH  29  30
ATOM     30  C   UNL A   1      38.302  30.110  29.911  1.00  0.00     0.031 A 
ATOM     31  C   UNL A   1      39.328  29.181  29.343  1.00  0.00     0.074 A 
ATOM     32  C   UNL A   1      38.453  30.646  31.135  1.00  0.00     0.049 A 
ATOM     33  N   UNL A   1      40.396  28.685  29.911  1.00  0.00    -0.248 NA
ATOM     34  C   UNL A   1      39.127  28.750  27.951  1.00  0.00     0.031 C 
ATOM     35  C   UNL A   1      37.521  31.587  31.759  1.00  0.00     0.029 A 
ATOM     36  N   UNL A   1      39.433  30.470  32.075  1.00  0.00    -0.354 N 
ATOM     37  C   UNL A   1      40.984  27.866  28.958  1.00  0.00     0.074 A 
ATOM     38  C   UNL A   1      40.153  27.928  27.773  1.00  0.00     0.031 C 
ATOM     39  C   UNL A   1      37.974  31.906  32.981  1.00  0.00     0.029 A 
ATOM     40  C   UNL A   1      39.195  31.153  33.242  1.00  0.00     0.049 A 
ATOM     41  H   UNL A   1      40.229  29.910  31.929  1.00  0.00     0.167 HD
ATOM     42  C   UNL A   1      42.114  27.129  29.073  1.00  0.00     0.037 A 
ATOM     43  C   UNL A   1      39.874  31.142  34.404  1.00  0.00     0.037 A 
ATOM     44  C   UNL A   1      42.929  27.084  30.260  1.00  0.00     0.049 A 
ATOM     45  C   UNL A   1      41.100  30.283  34.516  1.00  0.00     0.074 A 
ATOM     46  C   UNL A   1      44.097  26.376  30.482  1.00  0.00     0.029 A 
ATOM     47  N   UNL A   1      42.653  27.778  31.431  1.00  0.00    -0.354 N 
ATOM     48  N   UNL A   1      41.647  29.505  33.614  1.00  0.00    -0.248 NA
ATOM     49  C   UNL A   1      41.798  30.294  35.808  1.00  0.00     0.031 C 
ATOM     50  C   UNL A   1      44.509  26.615  31.798  1.00  0.00     0.029 A 
ATOM     51  C   UNL A   1      43.619  27.502  32.384  1.00  0.00     0.049 A 
ATOM     52  H   UNL A   1      41.884  28.378  31.563  1.00  0.00     0.167 HD
ATOM     53  C   UNL A   1      42.758  28.940  34.222  1.00  0.00     0.074 A 
ATOM     54  C   UNL A   1      42.817  29.480  35.566  1.00  0.00     0.031 C 
ATOM     55  C   UNL A   1      43.649  28.052  33.715  1.00  0.00     0.037 A 
BRANCH  42  56
ATOM     56  C   UNL A   1      42.514  26.286  27.900  1.00  0.00     0.064 A 
ATOM     57  C   UNL A   1      43.448  26.732  26.954  1.00  0.00     0.173 A 
ATOM     58  C   UNL A   1      41.979  24.998  27.737  1.00  0.00     0.173 A 
ATOM     59  F   UNL A   1      43.978  27.961  27.057  1.00  0.00    -0.203 F 
ATOM     60  C   UNL A   1      43.819  25.928  25.879  1.00  0.00     0.198 A 
ATOM     61  C   UNL A   1      42.368  24.188  26.674  1.00  0.00     0.198 A 
ATOM     62  F   UNL A   1      41.083  24.524  28.615  1.00  0.00    -0.203 F 
ATOM     63  F   UNL A   1      44.688  26.388  24.968  1.00  0.00    -0.200 F 
ATOM     64  C   UNL A   1      43.284  24.655  25.743  1.00  0.00     0.200 A 
ATOM     65  F   UNL A   1      41.856  22.957  26.549  1.00  0.00    -0.200 F 
ATOM     66  F   UNL A   1      43.646  23.880  24.711  1.00  0.00    -0.200 F 
ENDBRANCH  42  56
BRANCH  43  67
ATOM     67  C   UNL A   1      39.390  31.961  35.543  1.00  0.00     0.064 A 
ATOM     68  C   UNL A   1      38.487  31.436  36.475  1.00  0.00     0.173 A 
ATOM     69  C   UNL A   1      39.847  33.272  35.742  1.00  0.00     0.173 A 
ATOM     70  F   UNL A   1      38.007  30.194  36.314  1.00  0.00    -0.203 F 
ATOM     71  C   UNL A   1      38.054  32.192  37.562  1.00  0.00     0.198 A 
ATOM     72  C   UNL A   1      39.434  34.019  36.843  1.00  0.00     0.198 A 
ATOM     73  F   UNL A   1      40.715  33.820  34.878  1.00  0.00    -0.203 F 
ATOM     74  F   UNL A   1      37.167  31.676  38.424  1.00  0.00    -0.200 F 
ATOM     75  C   UNL A   1      38.534  33.480  37.750  1.00  0.00     0.200 A 
ATOM     76  F   UNL A   1      39.912  35.257  37.028  1.00  0.00    -0.200 F 
ATOM     77  F   UNL A   1      38.128  34.201  38.802  1.00  0.00    -0.200 F 
ENDBRANCH  43  67
BRANCH  55  78
ATOM     78  C   UNL A   1      44.766  27.630  34.619  1.00  0.00     0.064 A 
ATOM     79  C   UNL A   1      44.655  26.497  35.436  1.00  0.00     0.173 A 
ATOM     80  C   UNL A   1      45.966  28.355  34.650  1.00  0.00     0.173 A 
ATOM     81  F   UNL A   1      43.518  25.784  35.453  1.00  0.00    -0.203 F 
ATOM     82  C   UNL A   1      45.702  26.115  36.271  1.00  0.00     0.198 A 
ATOM     83  C   UNL A   1      47.018  27.958  35.469  1.00  0.00     0.198 A 
ATOM     84  F   UNL A   1      46.118  29.445  33.884  1.00  0.00    -0.203 F 
ATOM     85  F   UNL A   1      45.561  25.054  37.076  1.00  0.00    -0.200 F 
ATOM     86  C   UNL A   1      46.883  26.842  36.282  1.00  0.00     0.200 A 
ATOM     87  F   UNL A   1      48.161  28.657  35.475  1.00  0.00    -0.200 F 
ATOM     88  F   UNL A   1      47.890  26.474  37.087  1.00  0.00    -0.200 F 
ENDBRANCH  55  78
ENDBRANCH  29  30
ENDBRANCH  22  24
ENDBRANCH  21  22
ENDBRANCH  20  21
ENDBRANCH   1  20
TORSDOF 16
ENDMDL
MODEL 2
REMARK VINA RESULT:     -10.8      1.685      2.882
REMARK SMILES C[C@H](C1CCCC1)[N@H+](CC(=O)OCCOC(=O)c1ccc(-c2c3nc(c(-c4c(F)c(F)c(F)c(F)c4F)c4ccc([nH]4)c(-c4c(F)c(F)c(F)c(F)c4F)c4nc(c(-c5c(F)c(F)c(F)c(F)c5F)c5ccc2[nH]5)C=C4)C=C3)cc1)CC(F)(F)F
REMARK SMILES IDX 13 1 12 2 10 3 11 4 9 5 8 6 2 8 1 9 3 10 4 11 7 12 5 13 6 14
REMARK SMILES IDX 81 15 82 16 83 17 84 18 85 19 14 20 15 21 16 22 17 23 18 24
REMARK SMILES IDX 19 25 80 26 20 27 79 28 21 29 22 30 23 31 73 32 24 33 78 34
REMARK SMILES IDX 72 35 74 36 25 37 77 38 71 39 70 40 26 42 58 43 38 44 57 45
REMARK SMILES IDX 39 46 42 47 56 48 75 49 40 50 41 51 55 53 76 54 43 55 27 56
REMARK SMILES IDX 28 57 36 58 29 59 30 60 34 61 37 62 31 63 32 64 35 65 33 66
REMARK SMILES IDX 59 67 60 68 68 69 61 70 62 71 66 72 69 73 63 74 64 75 67 76
REMARK SMILES IDX 65 77 44 78 45 79 53 80 46 81 47 82 51 83 54 84 48 85 49 86
REMARK SMILES IDX 52 87 50 88
REMARK H PARENT 8 7 74 41 42 52
REMARK Flexibility Score: inf
ROOT
ATOM      1  C   UNL A   1      31.381  28.843  24.839  1.00  0.00     0.274 C 
ENDROOT
BRANCH   1   2
ATOM      2  O   UNL A   1      31.994  28.673  23.549  1.00  0.00    -0.458 OA
BRANCH   2   3
ATOM      3  C   UNL A   1      31.424  27.824  22.662  1.00  0.00     0.361 C 
ATOM      4  O   UNL A   1      30.261  27.900  22.281  1.00  0.00    -0.245 OA
BRANCH   3   5
ATOM      5  C   UNL A   1      32.367  26.706  22.200  1.00  0.00     0.387 C 
BRANCH   5   6
ATOM      6  N   UNL A   1      32.563  25.623  23.174  1.00  0.00    -0.316 N 
ATOM      7  H   UNL A   1      32.035  25.473  24.034  1.00  0.00     0.349 HD
BRANCH   6   8
ATOM      8  C   UNL A   1      31.807  24.393  22.979  1.00  0.00     0.184 C 
ATOM      9  C   UNL A   1      30.352  24.569  23.461  1.00  0.00     0.075 C 
BRANCH   8  10
ATOM     10  C   UNL A   1      32.391  23.086  23.559  1.00  0.00     0.047 C 
ATOM     11  C   UNL A   1      31.630  22.643  24.820  1.00  0.00     0.010 C 
ATOM     12  C   UNL A   1      32.271  21.830  22.695  1.00  0.00     0.010 C 
ATOM     13  C   UNL A   1      32.124  21.227  25.062  1.00  0.00     0.001 C 
ATOM     14  C   UNL A   1      32.471  20.675  23.681  1.00  0.00     0.001 C 
ENDBRANCH   8  10
ENDBRANCH   6   8
BRANCH   6  15
ATOM     15  C   UNL A   1      33.635  25.812  24.162  1.00  0.00     0.380 C 
BRANCH  15  16
ATOM     16  C   UNL A   1      33.409  25.846  25.693  1.00  0.00     0.438 C 
ATOM     17  F   UNL A   1      33.971  24.769  26.294  1.00  0.00    -0.165 F 
ATOM     18  F   UNL A   1      34.021  26.936  26.227  1.00  0.00    -0.165 F 
ATOM     19  F   UNL A   1      32.115  25.884  26.059  1.00  0.00    -0.165 F 
ENDBRANCH  15  16
ENDBRANCH   6  15
ENDBRANCH   5   6
ENDBRANCH   3   5
ENDBRANCH   2   3
ENDBRANCH   1   2
BRANCH   1  20
ATOM     20  C   UNL A   1      31.737  30.210  25.420  1.00  0.00     0.275 C 
BRANCH  20  21
ATOM     21  O   UNL A   1      33.015  30.148  26.083  1.00  0.00    -0.458 OA
BRANCH  21  22
ATOM     22  C   UNL A   1      33.278  31.169  26.923  1.00  0.00     0.338 C 
ATOM     23  O   UNL A   1      32.603  32.160  27.144  1.00  0.00    -0.246 OA
BRANCH  22  24
ATOM     24  C   UNL A   1      34.507  30.875  27.659  1.00  0.00     0.060 A 
ATOM     25  C   UNL A   1      35.407  31.916  27.908  1.00  0.00     0.016 A 
ATOM     26  C   UNL A   1      34.798  29.565  28.040  1.00  0.00     0.016 A 
ATOM     27  C   UNL A   1      36.607  31.651  28.555  1.00  0.00     0.010 A 
ATOM     28  C   UNL A   1      35.995  29.304  28.704  1.00  0.00     0.010 A 
ATOM     29  C   UNL A   1      36.901  30.344  28.967  1.00  0.00    -0.014 A 
BRANCH  29  30
ATOM     30  C   UNL A   1      38.140  30.074  29.724  1.00  0.00     0.031 A 
ATOM     31  C   UNL A   1      39.192  29.174  29.158  1.00  0.00     0.074 A 
ATOM     32  C   UNL A   1      38.286  30.637  30.937  1.00  0.00     0.049 A 
ATOM     33  N   UNL A   1      40.285  28.729  29.719  1.00  0.00    -0.248 NA
ATOM     34  C   UNL A   1      38.988  28.712  27.777  1.00  0.00     0.031 C 
ATOM     35  C   UNL A   1      37.328  31.554  31.557  1.00  0.00     0.029 A 
ATOM     36  N   UNL A   1      39.286  30.515  31.866  1.00  0.00    -0.354 N 
ATOM     37  C   UNL A   1      40.890  27.916  28.772  1.00  0.00     0.074 A 
ATOM     38  C   UNL A   1      40.042  27.926  27.599  1.00  0.00     0.031 C 
ATOM     39  C   UNL A   1      37.786  31.912  32.767  1.00  0.00     0.029 A 
ATOM     40  C   UNL A   1      39.038  31.209  33.024  1.00  0.00     0.049 A 
ATOM     41  H   UNL A   1      40.100  29.983  31.718  1.00  0.00     0.167 HD
ATOM     42  C   UNL A   1      42.049  27.224  28.884  1.00  0.00     0.037 A 
ATOM     43  C   UNL A   1      39.733  31.245  34.176  1.00  0.00     0.037 A 
ATOM     44  C   UNL A   1      42.881  27.230  30.060  1.00  0.00     0.049 A 
ATOM     45  C   UNL A   1      40.991  30.434  34.286  1.00  0.00     0.074 A 
ATOM     46  C   UNL A   1      44.078  26.571  30.277  1.00  0.00     0.029 A 
ATOM     47  N   UNL A   1      42.596  27.934  31.222  1.00  0.00    -0.354 N 
ATOM     48  N   UNL A   1      41.555  29.661  33.390  1.00  0.00    -0.248 NA
ATOM     49  C   UNL A   1      41.706  30.494  35.567  1.00  0.00     0.031 C 
ATOM     50  C   UNL A   1      44.499  26.848  31.583  1.00  0.00     0.029 A 
ATOM     51  C   UNL A   1      43.584  27.711  32.167  1.00  0.00     0.049 A 
ATOM     52  H   UNL A   1      41.806  28.508  31.355  1.00  0.00     0.167 HD
ATOM     53  C   UNL A   1      42.694  29.149  33.991  1.00  0.00     0.074 A 
ATOM     54  C   UNL A   1      42.752  29.715  35.325  1.00  0.00     0.031 C 
ATOM     55  C   UNL A   1      43.611  28.286  33.487  1.00  0.00     0.037 A 
BRANCH  42  56
ATOM     56  C   UNL A   1      42.465  26.375  27.720  1.00  0.00     0.064 A 
ATOM     57  C   UNL A   1      43.414  26.816  26.786  1.00  0.00     0.173 A 
ATOM     58  C   UNL A   1      41.930  25.088  27.555  1.00  0.00     0.173 A 
ATOM     59  F   UNL A   1      43.943  28.045  26.892  1.00  0.00    -0.203 F 
ATOM     60  C   UNL A   1      43.798  26.007  25.720  1.00  0.00     0.198 A 
ATOM     61  C   UNL A   1      42.333  24.273  26.501  1.00  0.00     0.198 A 
ATOM     62  F   UNL A   1      41.020  24.618  28.422  1.00  0.00    -0.203 F 
ATOM     63  F   UNL A   1      44.681  26.462  24.819  1.00  0.00    -0.200 F 
ATOM     64  C   UNL A   1      43.263  24.734  25.581  1.00  0.00     0.200 A 
ATOM     65  F   UNL A   1      41.820  23.042  26.373  1.00  0.00    -0.200 F 
ATOM     66  F   UNL A   1      43.639  23.955  24.557  1.00  0.00    -0.200 F 
ENDBRANCH  42  56
BRANCH  43  67
ATOM     67  C   UNL A   1      39.234  32.065  35.307  1.00  0.00     0.064 A 
ATOM     68  C   UNL A   1      38.462  31.493  36.326  1.00  0.00     0.173 A 
ATOM     69  C   UNL A   1      39.546  33.429  35.411  1.00  0.00     0.173 A 
ATOM     70  F   UNL A   1      38.121  30.198  36.260  1.00  0.00    -0.203 F 
ATOM     71  C   UNL A   1      38.018  32.255  37.405  1.00  0.00     0.198 A 
ATOM     72  C   UNL A   1      39.124  34.183  36.503  1.00  0.00     0.198 A 
ATOM     73  F   UNL A   1      40.285  34.023  34.461  1.00  0.00    -0.203 F 
ATOM     74  F   UNL A   1      37.257  31.689  38.352  1.00  0.00    -0.200 F 
ATOM     75  C   UNL A   1      38.356  33.597  37.497  1.00  0.00     0.200 A 
ATOM     76  F   UNL A   1      39.465  35.476  36.594  1.00  0.00    -0.200 F 
ATOM     77  F   UNL A   1      37.939  34.325  38.541  1.00  0.00    -0.200 F 
ENDBRANCH  43  67
BRANCH  55  78
ATOM     78  C   UNL A   1      44.756  27.922  34.382  1.00  0.00     0.064 A 
ATOM     79  C   UNL A   1      44.698  26.800  35.220  1.00  0.00     0.173 A 
ATOM     80  C   UNL A   1      45.928  28.692  34.383  1.00  0.00     0.173 A 
ATOM     81  F   UNL A   1      43.590  26.046  35.266  1.00  0.00    -0.203 F 
ATOM     82  C   UNL A   1      45.770  26.473  36.047  1.00  0.00     0.198 A 
ATOM     83  C   UNL A   1      47.005  28.349  35.194  1.00  0.00     0.198 A 
ATOM     84  F   UNL A   1      46.028  29.773  33.596  1.00  0.00    -0.203 F 
ATOM     85  F   UNL A   1      45.680  25.422  36.872  1.00  0.00    -0.200 F 
ATOM     86  C   UNL A   1      46.923  27.244  36.028  1.00  0.00     0.200 A 
ATOM     87  F   UNL A   1      48.121  29.090  35.171  1.00  0.00    -0.200 F 
ATOM     88  F   UNL A   1      47.954  26.928  36.825  1.00  0.00    -0.200 F 
ENDBRANCH  55  78
ENDBRANCH  29  30
ENDBRANCH  22  24
ENDBRANCH  21  22
ENDBRANCH  20  21
ENDBRANCH   1  20
TORSDOF 16
ENDMDL
MODEL 3
REMARK VINA RESULT:     -10.7      1.562      3.274
REMARK SMILES C[C@H](C1CCCC1)[N@H+](CC(=O)OCCOC(=O)c1ccc(-c2c3nc(c(-c4c(F)c(F)c(F)c(F)c4F)c4ccc([nH]4)c(-c4c(F)c(F)c(F)c(F)c4F)c4nc(c(-c5c(F)c(F)c(F)c(F)c5F)c5ccc2[nH]5)C=C4)C=C3)cc1)CC(F)(F)F
REMARK SMILES IDX 13 1 12 2 10 3 11 4 9 5 8 6 2 8 1 9 3 10 4 11 7 12 5 13 6 14
REMARK SMILES IDX 81 15 82 16 83 17 84 18 85 19 14 20 15 21 16 22 17 23 18 24
REMARK SMILES IDX 19 25 80 26 20 27 79 28 21 29 22 30 23 31 73 32 24 33 78 34
REMARK SMILES IDX 72 35 74 36 25 37 77 38 71 39 70 40 26 42 58 43 38 44 57 45
REMARK SMILES IDX 39 46 42 47 56 48 75 49 40 50 41 51 55 53 76 54 43 55 27 56
REMARK SMILES IDX 28 57 36 58 29 59 30 60 34 61 37 62 31 63 32 64 35 65 33 66
REMARK SMILES IDX 59 67 60 68 68 69 61 70 62 71 66 72 69 73 63 74 64 75 67 76
REMARK SMILES IDX 65 77 44 78 45 79 53 80 46 81 47 82 51 83 54 84 48 85 49 86
REMARK SMILES IDX 52 87 50 88
REMARK H PARENT 8 7 74 41 42 52
REMARK Flexibility Score: inf
ROOT
ATOM      1  C   UNL A   1      31.725  29.302  24.384  1.00  0.00     0.274 C 
ENDROOT
BRANCH   1   2
ATOM      2  O   UNL A   1      30.515  28.532  24.279  1.00  0.00    -0.458 OA
BRANCH   2   3
ATOM      3  C   UNL A   1      30.594  27.249  23.852  1.00  0.00     0.361 C 
ATOM      4  O   UNL A   1      31.073  26.907  22.776  1.00  0.00    -0.245 OA
BRANCH   3   5
ATOM      5  C   UNL A   1      29.977  26.244  24.833  1.00  0.00     0.387 C 
BRANCH   5   6
ATOM      6  N   UNL A   1      30.949  25.417  25.562  1.00  0.00    -0.316 N 
ATOM      7  H   UNL A   1      30.852  25.056  26.512  1.00  0.00     0.349 HD
BRANCH   6   8
ATOM      8  C   UNL A   1      30.832  23.970  25.439  1.00  0.00     0.184 C 
ATOM      9  C   UNL A   1      30.731  23.314  26.831  1.00  0.00     0.075 C 
BRANCH   8  10
ATOM     10  C   UNL A   1      31.889  23.229  24.592  1.00  0.00     0.047 C 
ATOM     11  C   UNL A   1      31.922  21.728  24.922  1.00  0.00     0.010 C 
ATOM     12  C   UNL A   1      31.661  23.185  23.080  1.00  0.00     0.010 C 
ATOM     13  C   UNL A   1      32.770  21.131  23.812  1.00  0.00     0.001 C 
ATOM     14  C   UNL A   1      32.544  22.031  22.600  1.00  0.00     0.001 C 
ENDBRANCH   8  10
ENDBRANCH   6   8
BRANCH   6  15
ATOM     15  C   UNL A   1      32.059  26.126  26.213  1.00  0.00     0.380 C 
BRANCH  15  16
ATOM     16  C   UNL A   1      33.532  26.053  25.742  1.00  0.00     0.438 C 
ATOM     17  F   UNL A   1      33.615  26.088  24.390  1.00  0.00    -0.165 F 
ATOM     18  F   UNL A   1      34.214  27.140  26.188  1.00  0.00    -0.165 F 
ATOM     19  F   UNL A   1      34.191  24.957  26.159  1.00  0.00    -0.165 F 
ENDBRANCH  15  16
ENDBRANCH   6  15
ENDBRANCH   5   6
ENDBRANCH   3   5
ENDBRANCH   2   3
ENDBRANCH   1   2
BRANCH   1  20
ATOM     20  C   UNL A   1      31.894  29.834  25.807  1.00  0.00     0.275 C 
BRANCH  20  21
ATOM     21  O   UNL A   1      33.276  30.155  26.055  1.00  0.00    -0.458 OA
BRANCH  21  22
ATOM     22  C   UNL A   1      33.486  31.158  26.930  1.00  0.00     0.338 C 
ATOM     23  O   UNL A   1      32.768  32.111  27.174  1.00  0.00    -0.246 OA
BRANCH  22  24
ATOM     24  C   UNL A   1      34.719  30.893  27.671  1.00  0.00     0.060 A 
ATOM     25  C   UNL A   1      34.923  29.615  28.202  1.00  0.00     0.016 A 
ATOM     26  C   UNL A   1      35.634  31.922  27.898  1.00  0.00     0.016 A 
ATOM     27  C   UNL A   1      36.059  29.355  28.957  1.00  0.00     0.010 A 
ATOM     28  C   UNL A   1      36.781  31.654  28.642  1.00  0.00     0.010 A 
ATOM     29  C   UNL A   1      37.000  30.371  29.171  1.00  0.00    -0.014 A 
BRANCH  29  30
ATOM     30  C   UNL A   1      38.245  30.076  29.907  1.00  0.00     0.031 A 
ATOM     31  C   UNL A   1      39.268  29.154  29.324  1.00  0.00     0.074 A 
ATOM     32  C   UNL A   1      38.425  30.637  31.116  1.00  0.00     0.049 A 
ATOM     33  N   UNL A   1      40.361  28.686  29.867  1.00  0.00    -0.248 NA
ATOM     34  C   UNL A   1      39.030  28.694  27.947  1.00  0.00     0.031 C 
ATOM     35  C   UNL A   1      37.498  31.575  31.752  1.00  0.00     0.029 A 
ATOM     36  N   UNL A   1      39.438  30.495  32.028  1.00  0.00    -0.354 N 
ATOM     37  C   UNL A   1      40.933  27.859  28.911  1.00  0.00     0.074 A 
ATOM     38  C   UNL A   1      40.064  27.886  27.752  1.00  0.00     0.031 C 
ATOM     39  C   UNL A   1      37.983  31.925  32.953  1.00  0.00     0.029 A 
ATOM     40  C   UNL A   1      39.225  31.196  33.189  1.00  0.00     0.049 A 
ATOM     41  H   UNL A   1      40.238  29.946  31.867  1.00  0.00     0.167 HD
ATOM     42  C   UNL A   1      42.078  27.143  29.003  1.00  0.00     0.037 A 
ATOM     43  C   UNL A   1      39.940  31.219  34.328  1.00  0.00     0.037 A 
ATOM     44  C   UNL A   1      42.931  27.133  30.165  1.00  0.00     0.049 A 
ATOM     45  C   UNL A   1      41.183  30.381  34.418  1.00  0.00     0.074 A 
ATOM     46  C   UNL A   1      44.117  26.449  30.362  1.00  0.00     0.029 A 
ATOM     47  N   UNL A   1      42.680  27.845  31.331  1.00  0.00    -0.354 N 
ATOM     48  N   UNL A   1      41.715  29.595  33.513  1.00  0.00    -0.248 NA
ATOM     49  C   UNL A   1      41.921  30.428  35.686  1.00  0.00     0.031 C 
ATOM     50  C   UNL A   1      44.566  26.719  31.660  1.00  0.00     0.029 A 
ATOM     51  C   UNL A   1      43.680  27.602  32.258  1.00  0.00     0.049 A 
ATOM     52  H   UNL A   1      41.906  28.435  31.476  1.00  0.00     0.167 HD
ATOM     53  C   UNL A   1      42.853  29.060  34.095  1.00  0.00     0.074 A 
ATOM     54  C   UNL A   1      42.946  29.627  35.427  1.00  0.00     0.031 C 
ATOM     55  C   UNL A   1      43.743  28.178  33.577  1.00  0.00     0.037 A 
BRANCH  42  56
ATOM     56  C   UNL A   1      42.456  26.284  27.834  1.00  0.00     0.064 A 
ATOM     57  C   UNL A   1      41.910  25.005  27.651  1.00  0.00     0.173 A 
ATOM     58  C   UNL A   1      43.352  26.761  26.865  1.00  0.00     0.173 A 
ATOM     59  F   UNL A   1      41.060  24.498  28.557  1.00  0.00    -0.203 F 
ATOM     60  C   UNL A   1      42.262  24.228  26.550  1.00  0.00     0.198 A 
ATOM     61  C   UNL A   1      43.684  25.990  25.754  1.00  0.00     0.198 A 
ATOM     62  F   UNL A   1      43.900  27.978  26.993  1.00  0.00    -0.203 F 
ATOM     63  F   UNL A   1      41.756  22.994  26.412  1.00  0.00    -0.200 F 
ATOM     64  C   UNL A   1      43.144  24.723  25.599  1.00  0.00     0.200 A 
ATOM     65  F   UNL A   1      44.530  26.473  24.833  1.00  0.00    -0.200 F 
ATOM     66  F   UNL A   1      43.476  23.976  24.537  1.00  0.00    -0.200 F 
ENDBRANCH  42  56
BRANCH  43  67
ATOM     67  C   UNL A   1      39.479  32.050  35.467  1.00  0.00     0.064 A 
ATOM     68  C   UNL A   1      39.879  33.386  35.593  1.00  0.00     0.173 A 
ATOM     69  C   UNL A   1      38.601  31.537  36.434  1.00  0.00     0.173 A 
ATOM     70  F   UNL A   1      40.733  33.914  34.704  1.00  0.00    -0.203 F 
ATOM     71  C   UNL A   1      39.423  34.177  36.645  1.00  0.00     0.198 A 
ATOM     72  C   UNL A   1      38.125  32.336  37.471  1.00  0.00     0.198 A 
ATOM     73  F   UNL A   1      38.186  30.263  36.356  1.00  0.00    -0.203 F 
ATOM     74  F   UNL A   1      39.844  35.444  36.758  1.00  0.00    -0.200 F 
ATOM     75  C   UNL A   1      38.540  33.655  37.578  1.00  0.00     0.200 A 
ATOM     76  F   UNL A   1      37.261  31.830  38.362  1.00  0.00    -0.200 F 
ATOM     77  F   UNL A   1      38.092  34.420  38.582  1.00  0.00    -0.200 F 
ENDBRANCH  43  67
BRANCH  55  78
ATOM     78  C   UNL A   1      44.895  27.791  34.452  1.00  0.00     0.064 A 
ATOM     79  C   UNL A   1      44.836  26.660  35.278  1.00  0.00     0.173 A 
ATOM     80  C   UNL A   1      46.075  28.548  34.447  1.00  0.00     0.173 A 
ATOM     81  F   UNL A   1      43.720  25.917  35.329  1.00  0.00    -0.203 F 
ATOM     82  C   UNL A   1      45.915  26.311  36.086  1.00  0.00     0.198 A 
ATOM     83  C   UNL A   1      47.159  28.183  35.239  1.00  0.00     0.198 A 
ATOM     84  F   UNL A   1      46.177  29.637  33.671  1.00  0.00    -0.203 F 
ATOM     85  F   UNL A   1      45.824  25.251  36.900  1.00  0.00    -0.200 F 
ATOM     86  C   UNL A   1      47.076  27.069  36.062  1.00  0.00     0.200 A 
ATOM     87  F   UNL A   1      48.283  28.912  35.210  1.00  0.00    -0.200 F 
ATOM     88  F   UNL A   1      48.113  26.732  36.841  1.00  0.00    -0.200 F 
ENDBRANCH  55  78
ENDBRANCH  29  30
ENDBRANCH  22  24
ENDBRANCH  21  22
ENDBRANCH  20  21
ENDBRANCH   1  20
TORSDOF 16
ENDMDL
