MODEL 1
REMARK VINA RESULT:     -10.5      0.000      0.000
REMARK SMILES C[C@@](O)(CNC(=O)Cc1ccc(F)cc1F)C(=O)OCCOC(=O)c1ccc(-c2c3nc(c(-c4c(F)c(F)c(F)c(F)c4F)c4ccc([nH]4)c(-c4c(F)c(F)c(F)c(F)c4F)c4nc(c(-c5c(F)c(F)c(F)c(F)c5F)c5ccc2[nH]5)C=C4)C=C3)cc1
REMARK SMILES IDX 20 1 19 2 17 3 18 4 2 5 1 6 3 7 4 9 5 10 6 11 7 13 8 14 9 15
REMARK SMILES IDX 10 16 15 17 11 18 14 19 16 20 12 21 13 22 21 23 22 24 23 25
REMARK SMILES IDX 24 26 25 27 26 28 87 29 27 30 86 31 28 32 29 33 30 34 80 35
REMARK SMILES IDX 31 36 85 37 79 38 81 39 32 40 84 41 78 42 77 43 33 45 65 46
REMARK SMILES IDX 45 47 64 48 46 49 49 50 63 51 82 52 47 53 48 54 62 56 83 57
REMARK SMILES IDX 50 58 34 59 35 60 43 61 36 62 37 63 41 64 44 65 38 66 39 67
REMARK SMILES IDX 42 68 40 69 66 70 67 71 75 72 68 73 69 74 73 75 76 76 70 77
REMARK SMILES IDX 71 78 74 79 72 80 51 81 52 82 60 83 53 84 54 85 58 86 61 87
REMARK SMILES IDX 55 88 56 89 59 90 57 91
REMARK H PARENT 3 8 5 12 81 44 49 55
REMARK Flexibility Score: inf
ROOT
ATOM      1  C   UNL A   1      33.357  34.066  28.268  1.00  0.00     0.274 C 
ENDROOT
BRANCH   1   2
ATOM      2  O   UNL A   1      33.278  34.370  29.680  1.00  0.00    -0.460 OA
BRANCH   2   3
ATOM      3  C   UNL A   1      33.111  35.684  29.964  1.00  0.00     0.339 C 
ATOM      4  O   UNL A   1      32.730  36.519  29.144  1.00  0.00    -0.249 OA
BRANCH   3   5
ATOM      5  C   UNL A   1      33.365  36.077  31.434  1.00  0.00     0.176 C 
ATOM      6  C   UNL A   1      32.063  36.124  32.233  1.00  0.00     0.057 C 
BRANCH   5   7
ATOM      7  O   UNL A   1      33.818  37.459  31.371  1.00  0.00    -0.377 OA
ATOM      8  H   UNL A   1      33.906  37.813  32.269  1.00  0.00     0.212 HD
ENDBRANCH   5   7
BRANCH   5   9
ATOM      9  C   UNL A   1      34.459  35.310  32.194  1.00  0.00     0.162 C 
BRANCH   9  10
ATOM     10  N   UNL A   1      35.569  34.763  31.434  1.00  0.00    -0.352 N 
ATOM     11  C   UNL A   1      36.066  33.487  31.478  1.00  0.00     0.224 C 
ATOM     12  H   UNL A   1      36.018  35.382  30.815  1.00  0.00     0.163 HD
ATOM     13  O   UNL A   1      36.792  33.112  30.555  1.00  0.00    -0.275 OA
BRANCH  11  14
ATOM     14  C   UNL A   1      35.656  32.540  32.596  1.00  0.00     0.138 C 
BRANCH  14  15
ATOM     15  C   UNL A   1      36.696  32.362  33.678  1.00  0.00    -0.003 A 
ATOM     16  C   UNL A   1      37.010  33.407  34.563  1.00  0.00     0.010 A 
ATOM     17  C   UNL A   1      37.367  31.144  33.824  1.00  0.00     0.129 A 
ATOM     18  C   UNL A   1      38.013  33.247  35.519  1.00  0.00     0.040 A 
ATOM     19  C   UNL A   1      38.347  30.967  34.795  1.00  0.00     0.078 A 
ATOM     20  F   UNL A   1      37.070  30.115  33.020  1.00  0.00    -0.207 F 
ATOM     21  C   UNL A   1      38.671  32.029  35.626  1.00  0.00     0.126 A 
ATOM     22  F   UNL A   1      39.642  31.883  36.536  1.00  0.00    -0.207 F 
ENDBRANCH  14  15
ENDBRANCH  11  14
ENDBRANCH   9  10
ENDBRANCH   5   9
ENDBRANCH   3   5
ENDBRANCH   2   3
ENDBRANCH   1   2
BRANCH   1  23
ATOM     23  C   UNL A   1      34.584  33.204  27.983  1.00  0.00     0.275 C 
BRANCH  23  24
ATOM     24  O   UNL A   1      34.400  31.962  28.681  1.00  0.00    -0.458 OA
BRANCH  24  25
ATOM     25  C   UNL A   1      34.559  30.854  27.930  1.00  0.00     0.338 C 
ATOM     26  O   UNL A   1      33.866  30.447  27.015  1.00  0.00    -0.246 OA
BRANCH  25  27
ATOM     27  C   UNL A   1      35.864  30.284  28.264  1.00  0.00     0.060 A 
ATOM     28  C   UNL A   1      36.006  29.693  29.520  1.00  0.00     0.016 A 
ATOM     29  C   UNL A   1      36.945  30.401  27.398  1.00  0.00     0.016 A 
ATOM     30  C   UNL A   1      37.253  29.260  29.948  1.00  0.00     0.010 A 
ATOM     31  C   UNL A   1      38.185  29.903  27.801  1.00  0.00     0.010 A 
ATOM     32  C   UNL A   1      38.354  29.351  29.086  1.00  0.00    -0.014 A 
BRANCH  32  33
ATOM     33  C   UNL A   1      39.694  28.907  29.539  1.00  0.00     0.031 A 
ATOM     34  C   UNL A   1      40.454  29.736  30.532  1.00  0.00     0.074 A 
ATOM     35  C   UNL A   1      40.222  27.763  29.064  1.00  0.00     0.049 A 
ATOM     36  N   UNL A   1      41.701  29.634  30.912  1.00  0.00    -0.248 NA
ATOM     37  C   UNL A   1      39.715  30.831  31.180  1.00  0.00     0.031 C 
ATOM     38  C   UNL A   1      39.554  26.843  28.143  1.00  0.00     0.029 A 
ATOM     39  N   UNL A   1      41.442  27.179  29.291  1.00  0.00    -0.354 N 
ATOM     40  C   UNL A   1      41.912  30.682  31.797  1.00  0.00     0.074 A 
ATOM     41  C   UNL A   1      40.663  31.405  31.909  1.00  0.00     0.031 C 
ATOM     42  C   UNL A   1      40.361  25.797  27.905  1.00  0.00     0.029 A 
ATOM     43  C   UNL A   1      41.631  26.012  28.591  1.00  0.00     0.049 A 
ATOM     44  H   UNL A   1      42.117  27.559  29.898  1.00  0.00     0.167 HD
ATOM     45  C   UNL A   1      43.051  31.011  32.448  1.00  0.00     0.037 A 
ATOM     46  C   UNL A   1      42.719  25.227  28.482  1.00  0.00     0.037 A 
ATOM     47  C   UNL A   1      44.273  30.256  32.365  1.00  0.00     0.049 A 
ATOM     48  C   UNL A   1      43.980  25.627  29.194  1.00  0.00     0.074 A 
ATOM     49  C   UNL A   1      45.485  30.502  32.986  1.00  0.00     0.029 A 
ATOM     50  N   UNL A   1      44.430  29.092  31.624  1.00  0.00    -0.354 N 
ATOM     51  N   UNL A   1      44.194  26.657  29.974  1.00  0.00    -0.248 NA
ATOM     52  C   UNL A   1      45.158  24.771  28.992  1.00  0.00     0.031 C 
ATOM     53  C   UNL A   1      46.382  29.502  32.601  1.00  0.00     0.029 A 
ATOM     54  C   UNL A   1      45.721  28.614  31.767  1.00  0.00     0.049 A 
ATOM     55  H   UNL A   1      43.728  28.671  31.078  1.00  0.00     0.167 HD
ATOM     56  C   UNL A   1      45.524  26.577  30.359  1.00  0.00     0.074 A 
ATOM     57  C   UNL A   1      46.066  25.385  29.740  1.00  0.00     0.031 C 
ATOM     58  C   UNL A   1      46.234  27.421  31.146  1.00  0.00     0.037 A 
BRANCH  45  59
ATOM     59  C   UNL A   1      43.047  32.255  33.283  1.00  0.00     0.064 A 
ATOM     60  C   UNL A   1      42.609  32.207  34.615  1.00  0.00     0.173 A 
ATOM     61  C   UNL A   1      43.422  33.499  32.757  1.00  0.00     0.173 A 
ATOM     62  F   UNL A   1      42.237  31.041  35.163  1.00  0.00    -0.203 F 
ATOM     63  C   UNL A   1      42.535  33.364  35.387  1.00  0.00     0.198 A 
ATOM     64  C   UNL A   1      43.366  34.650  33.538  1.00  0.00     0.198 A 
ATOM     65  F   UNL A   1      43.861  33.592  31.492  1.00  0.00    -0.203 F 
ATOM     66  F   UNL A   1      42.089  33.298  36.649  1.00  0.00    -0.200 F 
ATOM     67  C   UNL A   1      42.916  34.584  34.849  1.00  0.00     0.200 A 
ATOM     68  F   UNL A   1      43.755  35.826  33.025  1.00  0.00    -0.200 F 
ATOM     69  F   UNL A   1      42.851  35.695  35.594  1.00  0.00    -0.200 F 
ENDBRANCH  45  59
BRANCH  46  70
ATOM     70  C   UNL A   1      42.657  24.004  27.643  1.00  0.00     0.064 A 
ATOM     71  C   UNL A   1      42.343  22.754  28.197  1.00  0.00     0.173 A 
ATOM     72  C   UNL A   1      42.959  24.056  26.276  1.00  0.00     0.173 A 
ATOM     73  F   UNL A   1      42.047  22.651  29.501  1.00  0.00    -0.203 F 
ATOM     74  C   UNL A   1      42.366  21.597  27.421  1.00  0.00     0.198 A 
ATOM     75  C   UNL A   1      42.957  22.901  25.496  1.00  0.00     0.198 A 
ATOM     76  F   UNL A   1      43.244  25.232  25.698  1.00  0.00    -0.203 F 
ATOM     77  F   UNL A   1      42.105  20.409  27.983  1.00  0.00    -0.200 F 
ATOM     78  C   UNL A   1      42.671  21.671  26.071  1.00  0.00     0.200 A 
ATOM     79  F   UNL A   1      43.232  22.980  24.187  1.00  0.00    -0.200 F 
ATOM     80  F   UNL A   1      42.690  20.560  25.324  1.00  0.00    -0.200 F 
ENDBRANCH  46  70
BRANCH  58  81
ATOM     81  C   UNL A   1      47.671  27.085  31.397  1.00  0.00     0.064 A 
ATOM     82  C   UNL A   1      48.674  27.578  30.550  1.00  0.00     0.173 A 
ATOM     83  C   UNL A   1      48.040  26.200  32.419  1.00  0.00     0.173 A 
ATOM     84  F   UNL A   1      48.363  28.422  29.555  1.00  0.00    -0.203 F 
ATOM     85  C   UNL A   1      49.998  27.183  30.709  1.00  0.00     0.198 A 
ATOM     86  C   UNL A   1      49.368  25.822  32.586  1.00  0.00     0.198 A 
ATOM     87  F   UNL A   1      47.114  25.714  33.258  1.00  0.00    -0.203 F 
ATOM     88  F   UNL A   1      50.938  27.642  29.871  1.00  0.00    -0.200 F 
ATOM     89  C   UNL A   1      50.344  26.305  31.726  1.00  0.00     0.200 A 
ATOM     90  F   UNL A   1      49.705  24.987  33.579  1.00  0.00    -0.200 F 
ATOM     91  F   UNL A   1      51.620  25.925  31.877  1.00  0.00    -0.200 F 
ENDBRANCH  58  81
ENDBRANCH  32  33
ENDBRANCH  25  27
ENDBRANCH  24  25
ENDBRANCH  23  24
ENDBRANCH   1  23
TORSDOF 16
ENDMDL
MODEL 2
REMARK VINA RESULT:     -10.5      1.369      2.061
REMARK SMILES C[C@@](O)(CNC(=O)Cc1ccc(F)cc1F)C(=O)OCCOC(=O)c1ccc(-c2c3nc(c(-c4c(F)c(F)c(F)c(F)c4F)c4ccc([nH]4)c(-c4c(F)c(F)c(F)c(F)c4F)c4nc(c(-c5c(F)c(F)c(F)c(F)c5F)c5ccc2[nH]5)C=C4)C=C3)cc1
REMARK SMILES IDX 20 1 19 2 17 3 18 4 2 5 1 6 3 7 4 9 5 10 6 11 7 13 8 14 9 15
REMARK SMILES IDX 10 16 15 17 11 18 14 19 16 20 12 21 13 22 21 23 22 24 23 25
REMARK SMILES IDX 24 26 25 27 26 28 87 29 27 30 86 31 28 32 29 33 30 34 80 35
REMARK SMILES IDX 31 36 85 37 79 38 81 39 32 40 84 41 78 42 77 43 33 45 65 46
REMARK SMILES IDX 45 47 64 48 46 49 49 50 63 51 82 52 47 53 48 54 62 56 83 57
REMARK SMILES IDX 50 58 34 59 35 60 43 61 36 62 37 63 41 64 44 65 38 66 39 67
REMARK SMILES IDX 42 68 40 69 66 70 67 71 75 72 68 73 69 74 73 75 76 76 70 77
REMARK SMILES IDX 71 78 74 79 72 80 51 81 52 82 60 83 53 84 54 85 58 86 61 87
REMARK SMILES IDX 55 88 56 89 59 90 57 91
REMARK H PARENT 3 8 5 12 81 44 49 55
REMARK Flexibility Score: inf
ROOT
ATOM      1  C   UNL A   1      34.005  34.215  28.808  1.00  0.00     0.274 C 
ENDROOT
BRANCH   1   2
ATOM      2  O   UNL A   1      33.230  34.492  29.997  1.00  0.00    -0.460 OA
BRANCH   2   3
ATOM      3  C   UNL A   1      32.853  35.786  30.134  1.00  0.00     0.339 C 
ATOM      4  O   UNL A   1      32.360  36.456  29.226  1.00  0.00    -0.249 OA
BRANCH   3   5
ATOM      5  C   UNL A   1      33.015  36.373  31.551  1.00  0.00     0.176 C 
ATOM      6  C   UNL A   1      31.789  36.089  32.417  1.00  0.00     0.057 C 
BRANCH   5   7
ATOM      7  O   UNL A   1      33.009  37.816  31.353  1.00  0.00    -0.377 OA
ATOM      8  H   UNL A   1      32.273  38.208  31.846  1.00  0.00     0.212 HD
ENDBRANCH   5   7
BRANCH   5   9
ATOM      9  C   UNL A   1      34.317  36.058  32.304  1.00  0.00     0.162 C 
BRANCH   9  10
ATOM     10  N   UNL A   1      34.283  35.040  33.340  1.00  0.00    -0.352 N 
ATOM     11  C   UNL A   1      34.944  33.840  33.358  1.00  0.00     0.224 C 
ATOM     12  H   UNL A   1      33.716  35.234  34.121  1.00  0.00     0.163 HD
ATOM     13  O   UNL A   1      35.050  33.250  34.433  1.00  0.00    -0.275 OA
BRANCH  11  14
ATOM     14  C   UNL A   1      35.598  33.305  32.093  1.00  0.00     0.138 C 
BRANCH  14  15
ATOM     15  C   UNL A   1      37.055  33.674  31.938  1.00  0.00    -0.003 A 
ATOM     16  C   UNL A   1      37.814  34.113  33.035  1.00  0.00     0.010 A 
ATOM     17  C   UNL A   1      37.682  33.580  30.691  1.00  0.00     0.129 A 
ATOM     18  C   UNL A   1      39.142  34.506  32.865  1.00  0.00     0.040 A 
ATOM     19  C   UNL A   1      39.014  33.940  30.520  1.00  0.00     0.078 A 
ATOM     20  F   UNL A   1      37.000  33.132  29.630  1.00  0.00    -0.207 F 
ATOM     21  C   UNL A   1      39.729  34.416  31.610  1.00  0.00     0.126 A 
ATOM     22  F   UNL A   1      40.999  34.806  31.448  1.00  0.00    -0.207 F 
ENDBRANCH  14  15
ENDBRANCH  11  14
ENDBRANCH   9  10
ENDBRANCH   5   9
ENDBRANCH   3   5
ENDBRANCH   2   3
ENDBRANCH   1   2
BRANCH   1  23
ATOM     23  C   UNL A   1      33.558  32.894  28.186  1.00  0.00     0.275 C 
BRANCH  23  24
ATOM     24  O   UNL A   1      34.745  32.196  27.776  1.00  0.00    -0.458 OA
BRANCH  24  25
ATOM     25  C   UNL A   1      34.612  30.859  27.666  1.00  0.00     0.338 C 
ATOM     26  O   UNL A   1      33.720  30.222  27.135  1.00  0.00    -0.246 OA
BRANCH  25  27
ATOM     27  C   UNL A   1      35.861  30.257  28.132  1.00  0.00     0.060 A 
ATOM     28  C   UNL A   1      35.864  29.685  29.405  1.00  0.00     0.016 A 
ATOM     29  C   UNL A   1      37.023  30.327  27.373  1.00  0.00     0.016 A 
ATOM     30  C   UNL A   1      37.051  29.223  29.957  1.00  0.00     0.010 A 
ATOM     31  C   UNL A   1      38.203  29.800  27.901  1.00  0.00     0.010 A 
ATOM     32  C   UNL A   1      38.231  29.266  29.204  1.00  0.00    -0.014 A 
BRANCH  32  33
ATOM     33  C   UNL A   1      39.507  28.791  29.790  1.00  0.00     0.031 A 
ATOM     34  C   UNL A   1      40.083  29.495  30.983  1.00  0.00     0.074 A 
ATOM     35  C   UNL A   1      40.142  27.731  29.255  1.00  0.00     0.049 A 
ATOM     36  N   UNL A   1      41.265  29.368  31.528  1.00  0.00    -0.248 NA
ATOM     37  C   UNL A   1      39.217  30.481  31.650  1.00  0.00     0.031 C 
ATOM     38  C   UNL A   1      39.650  26.929  28.135  1.00  0.00     0.029 A 
ATOM     39  N   UNL A   1      41.338  27.145  29.585  1.00  0.00    -0.354 N 
ATOM     40  C   UNL A   1      41.305  30.293  32.561  1.00  0.00     0.074 A 
ATOM     41  C   UNL A   1      40.027  30.970  32.579  1.00  0.00     0.031 C 
ATOM     42  C   UNL A   1      40.523  25.939  27.887  1.00  0.00     0.029 A 
ATOM     43  C   UNL A   1      41.670  26.085  28.777  1.00  0.00     0.049 A 
ATOM     44  H   UNL A   1      41.903  27.453  30.329  1.00  0.00     0.167 HD
ATOM     45  C   UNL A   1      42.325  30.553  33.412  1.00  0.00     0.037 A 
ATOM     46  C   UNL A   1      42.791  25.342  28.731  1.00  0.00     0.037 A 
ATOM     47  C   UNL A   1      43.574  29.839  33.415  1.00  0.00     0.049 A 
ATOM     48  C   UNL A   1      43.921  25.667  29.668  1.00  0.00     0.074 A 
ATOM     49  C   UNL A   1      44.673  30.024  34.235  1.00  0.00     0.029 A 
ATOM     50  N   UNL A   1      43.881  28.787  32.562  1.00  0.00    -0.354 N 
ATOM     51  N   UNL A   1      43.979  26.589  30.597  1.00  0.00    -0.248 NA
ATOM     52  C   UNL A   1      45.147  24.868  29.534  1.00  0.00     0.031 C 
ATOM     53  C   UNL A   1      45.654  29.101  33.862  1.00  0.00     0.029 A 
ATOM     54  C   UNL A   1      45.154  28.319  32.833  1.00  0.00     0.049 A 
ATOM     55  H   UNL A   1      43.282  28.430  31.869  1.00  0.00     0.167 HD
ATOM     56  C   UNL A   1      45.242  26.484  31.161  1.00  0.00     0.074 A 
ATOM     57  C   UNL A   1      45.913  25.394  30.482  1.00  0.00     0.031 C 
ATOM     58  C   UNL A   1      45.798  27.229  32.146  1.00  0.00     0.037 A 
BRANCH  45  59
ATOM     59  C   UNL A   1      42.153  31.676  34.389  1.00  0.00     0.064 A 
ATOM     60  C   UNL A   1      42.498  32.986  34.025  1.00  0.00     0.173 A 
ATOM     61  C   UNL A   1      41.701  31.453  35.698  1.00  0.00     0.173 A 
ATOM     62  F   UNL A   1      42.938  33.249  32.785  1.00  0.00    -0.203 F 
ATOM     63  C   UNL A   1      42.407  34.032  34.940  1.00  0.00     0.198 A 
ATOM     64  C   UNL A   1      41.592  32.505  36.604  1.00  0.00     0.198 A 
ATOM     65  F   UNL A   1      41.346  30.220  36.088  1.00  0.00    -0.203 F 
ATOM     66  F   UNL A   1      42.766  35.271  34.576  1.00  0.00    -0.200 F 
ATOM     67  C   UNL A   1      41.952  33.791  36.227  1.00  0.00     0.200 A 
ATOM     68  F   UNL A   1      41.131  32.276  37.841  1.00  0.00    -0.200 F 
ATOM     69  F   UNL A   1      41.858  34.799  37.104  1.00  0.00    -0.200 F 
ENDBRANCH  45  59
BRANCH  46  70
ATOM     70  C   UNL A   1      42.899  24.240  27.741  1.00  0.00     0.064 A 
ATOM     71  C   UNL A   1      42.554  22.922  28.077  1.00  0.00     0.173 A 
ATOM     72  C   UNL A   1      43.394  24.478  26.453  1.00  0.00     0.173 A 
ATOM     73  F   UNL A   1      42.076  22.642  29.298  1.00  0.00    -0.203 F 
ATOM     74  C   UNL A   1      42.733  21.879  27.171  1.00  0.00     0.198 A 
ATOM     75  C   UNL A   1      43.549  23.438  25.540  1.00  0.00     0.198 A 
ATOM     76  F   UNL A   1      43.716  25.726  26.080  1.00  0.00    -0.203 F 
ATOM     77  F   UNL A   1      42.438  20.622  27.531  1.00  0.00    -0.200 F 
ATOM     78  C   UNL A   1      43.229  22.137  25.903  1.00  0.00     0.200 A 
ATOM     79  F   UNL A   1      44.009  23.694  24.307  1.00  0.00    -0.200 F 
ATOM     80  F   UNL A   1      43.399  21.135  25.030  1.00  0.00    -0.200 F 
ENDBRANCH  46  70
BRANCH  58  81
ATOM     81  C   UNL A   1      47.195  26.889  32.563  1.00  0.00     0.064 A 
ATOM     82  C   UNL A   1      48.290  27.519  31.954  1.00  0.00     0.173 A 
ATOM     83  C   UNL A   1      47.446  25.875  33.497  1.00  0.00     0.173 A 
ATOM     84  F   UNL A   1      48.094  28.490  31.050  1.00  0.00    -0.203 F 
ATOM     85  C   UNL A   1      49.592  27.132  32.255  1.00  0.00     0.198 A 
ATOM     86  C   UNL A   1      48.750  25.504  33.809  1.00  0.00     0.198 A 
ATOM     87  F   UNL A   1      46.428  25.256  34.111  1.00  0.00    -0.203 F 
ATOM     88  F   UNL A   1      50.624  27.725  31.641  1.00  0.00    -0.200 F 
ATOM     89  C   UNL A   1      49.821  26.125  33.181  1.00  0.00     0.200 A 
ATOM     90  F   UNL A   1      48.972  24.542  34.716  1.00  0.00    -0.200 F 
ATOM     91  F   UNL A   1      51.075  25.753  33.470  1.00  0.00    -0.200 F 
ENDBRANCH  58  81
ENDBRANCH  32  33
ENDBRANCH  25  27
ENDBRANCH  24  25
ENDBRANCH  23  24
ENDBRANCH   1  23
TORSDOF 16
ENDMDL
MODEL 3
REMARK VINA RESULT:     -10.5      4.179      9.868
REMARK SMILES C[C@@](O)(CNC(=O)Cc1ccc(F)cc1F)C(=O)OCCOC(=O)c1ccc(-c2c3nc(c(-c4c(F)c(F)c(F)c(F)c4F)c4ccc([nH]4)c(-c4c(F)c(F)c(F)c(F)c4F)c4nc(c(-c5c(F)c(F)c(F)c(F)c5F)c5ccc2[nH]5)C=C4)C=C3)cc1
REMARK SMILES IDX 20 1 19 2 17 3 18 4 2 5 1 6 3 7 4 9 5 10 6 11 7 13 8 14 9 15
REMARK SMILES IDX 10 16 15 17 11 18 14 19 16 20 12 21 13 22 21 23 22 24 23 25
REMARK SMILES IDX 24 26 25 27 26 28 87 29 27 30 86 31 28 32 29 33 30 34 80 35
REMARK SMILES IDX 31 36 85 37 79 38 81 39 32 40 84 41 78 42 77 43 33 45 65 46
REMARK SMILES IDX 45 47 64 48 46 49 49 50 63 51 82 52 47 53 48 54 62 56 83 57
REMARK SMILES IDX 50 58 34 59 35 60 43 61 36 62 37 63 41 64 44 65 38 66 39 67
REMARK SMILES IDX 42 68 40 69 66 70 67 71 75 72 68 73 69 74 73 75 76 76 70 77
REMARK SMILES IDX 71 78 74 79 72 80 51 81 52 82 60 83 53 84 54 85 58 86 61 87
REMARK SMILES IDX 55 88 56 89 59 90 57 91
REMARK H PARENT 3 8 5 12 81 44 49 55
REMARK Flexibility Score: inf
ROOT
ATOM      1  C   UNL A   1      31.584  29.080  24.645  1.00  0.00     0.274 C 
ENDROOT
BRANCH   1   2
ATOM      2  O   UNL A   1      31.019  27.907  25.274  1.00  0.00    -0.460 OA
BRANCH   2   3
ATOM      3  C   UNL A   1      31.449  26.730  24.760  1.00  0.00     0.339 C 
ATOM      4  O   UNL A   1      32.637  26.437  24.619  1.00  0.00    -0.249 OA
BRANCH   3   5
ATOM      5  C   UNL A   1      30.339  25.717  24.414  1.00  0.00     0.176 C 
ATOM      6  C   UNL A   1      29.093  26.417  23.872  1.00  0.00     0.057 C 
BRANCH   5   7
ATOM      7  O   UNL A   1      29.932  25.165  25.698  1.00  0.00    -0.377 OA
ATOM      8  H   UNL A   1      29.990  25.852  26.380  1.00  0.00     0.212 HD
ENDBRANCH   5   7
BRANCH   5   9
ATOM      9  C   UNL A   1      30.725  24.512  23.542  1.00  0.00     0.162 C 
BRANCH   9  10
ATOM     10  N   UNL A   1      31.704  24.712  22.488  1.00  0.00    -0.352 N 
ATOM     11  C   UNL A   1      32.747  23.892  22.146  1.00  0.00     0.224 C 
ATOM     12  H   UNL A   1      31.607  25.534  21.956  1.00  0.00     0.163 HD
ATOM     13  O   UNL A   1      33.278  24.052  21.046  1.00  0.00    -0.275 OA
BRANCH  11  14
ATOM     14  C   UNL A   1      33.172  22.762  23.072  1.00  0.00     0.138 C 
BRANCH  14  15
ATOM     15  C   UNL A   1      34.365  23.081  23.942  1.00  0.00    -0.003 A 
ATOM     16  C   UNL A   1      35.671  23.050  23.424  1.00  0.00     0.010 A 
ATOM     17  C   UNL A   1      34.193  23.421  25.287  1.00  0.00     0.129 A 
ATOM     18  C   UNL A   1      36.767  23.289  24.252  1.00  0.00     0.040 A 
ATOM     19  C   UNL A   1      35.279  23.691  26.113  1.00  0.00     0.078 A 
ATOM     20  F   UNL A   1      32.961  23.494  25.807  1.00  0.00    -0.207 F 
ATOM     21  C   UNL A   1      36.560  23.608  25.588  1.00  0.00     0.126 A 
ATOM     22  F   UNL A   1      37.615  23.825  26.384  1.00  0.00    -0.207 F 
ENDBRANCH  14  15
ENDBRANCH  11  14
ENDBRANCH   9  10
ENDBRANCH   5   9
ENDBRANCH   3   5
ENDBRANCH   2   3
ENDBRANCH   1   2
BRANCH   1  23
ATOM     23  C   UNL A   1      31.583  30.253  25.622  1.00  0.00     0.275 C 
BRANCH  23  24
ATOM     24  O   UNL A   1      32.787  30.159  26.398  1.00  0.00    -0.458 OA
BRANCH  24  25
ATOM     25  C   UNL A   1      33.178  31.305  26.990  1.00  0.00     0.338 C 
ATOM     26  O   UNL A   1      32.552  32.339  27.137  1.00  0.00    -0.246 OA
BRANCH  25  27
ATOM     27  C   UNL A   1      34.464  31.046  27.636  1.00  0.00     0.060 A 
ATOM     28  C   UNL A   1      34.771  29.722  27.954  1.00  0.00     0.016 A 
ATOM     29  C   UNL A   1      35.312  32.086  27.998  1.00  0.00     0.016 A 
ATOM     30  C   UNL A   1      35.910  29.429  28.691  1.00  0.00     0.010 A 
ATOM     31  C   UNL A   1      36.492  31.785  28.679  1.00  0.00     0.010 A 
ATOM     32  C   UNL A   1      36.788  30.459  29.050  1.00  0.00    -0.014 A 
BRANCH  32  33
ATOM     33  C   UNL A   1      38.000  30.160  29.851  1.00  0.00     0.031 A 
ATOM     34  C   UNL A   1      39.085  29.306  29.264  1.00  0.00     0.074 A 
ATOM     35  C   UNL A   1      38.125  30.656  31.097  1.00  0.00     0.049 A 
ATOM     36  N   UNL A   1      40.124  28.771  29.851  1.00  0.00    -0.248 NA
ATOM     37  C   UNL A   1      38.985  29.007  27.827  1.00  0.00     0.031 C 
ATOM     38  C   UNL A   1      37.166  31.547  31.751  1.00  0.00     0.029 A 
ATOM     39  N   UNL A   1      39.112  30.482  32.034  1.00  0.00    -0.354 N 
ATOM     40  C   UNL A   1      40.768  28.029  28.871  1.00  0.00     0.074 A 
ATOM     41  C   UNL A   1      40.012  28.188  27.648  1.00  0.00     0.031 C 
ATOM     42  C   UNL A   1      37.624  31.863  32.973  1.00  0.00     0.029 A 
ATOM     43  C   UNL A   1      38.866  31.136  33.217  1.00  0.00     0.049 A 
ATOM     44  H   UNL A   1      39.919  29.942  31.874  1.00  0.00     0.167 HD
ATOM     45  C   UNL A   1      41.887  27.278  28.991  1.00  0.00     0.037 A 
ATOM     46  C   UNL A   1      39.543  31.118  34.379  1.00  0.00     0.037 A 
ATOM     47  C   UNL A   1      42.657  27.166  30.201  1.00  0.00     0.049 A 
ATOM     48  C   UNL A   1      40.768  30.256  34.497  1.00  0.00     0.074 A 
ATOM     49  C   UNL A   1      43.807  26.432  30.429  1.00  0.00     0.029 A 
ATOM     50  N   UNL A   1      42.360  27.826  31.386  1.00  0.00    -0.354 N 
ATOM     51  N   UNL A   1      41.333  29.501  33.587  1.00  0.00    -0.248 NA
ATOM     52  C   UNL A   1      41.435  30.221  35.806  1.00  0.00     0.031 C 
ATOM     53  C   UNL A   1      44.192  26.627  31.759  1.00  0.00     0.029 A 
ATOM     54  C   UNL A   1      43.301  27.509  32.349  1.00  0.00     0.049 A 
ATOM     55  H   UNL A   1      41.593  28.428  31.520  1.00  0.00     0.167 HD
ATOM     56  C   UNL A   1      42.421  28.904  34.206  1.00  0.00     0.074 A 
ATOM     57  C   UNL A   1      42.448  29.397  35.569  1.00  0.00     0.031 C 
ATOM     58  C   UNL A   1      43.310  28.018  33.696  1.00  0.00     0.037 A 
BRANCH  45  59
ATOM     59  C   UNL A   1      42.333  26.489  27.797  1.00  0.00     0.064 A 
ATOM     60  C   UNL A   1      41.809  25.210  27.562  1.00  0.00     0.173 A 
ATOM     61  C   UNL A   1      43.314  26.971  26.918  1.00  0.00     0.173 A 
ATOM     62  F   UNL A   1      40.870  24.704  28.376  1.00  0.00    -0.203 F 
ATOM     63  C   UNL A   1      42.258  24.435  26.496  1.00  0.00     0.198 A 
ATOM     64  C   UNL A   1      43.746  26.202  25.841  1.00  0.00     0.198 A 
ATOM     65  F   UNL A   1      43.835  28.194  27.094  1.00  0.00    -0.203 F 
ATOM     66  F   UNL A   1      41.760  23.205  26.306  1.00  0.00    -0.200 F 
ATOM     67  C   UNL A   1      43.224  24.933  25.635  1.00  0.00     0.200 A 
ATOM     68  F   UNL A   1      44.664  26.691  24.996  1.00  0.00    -0.200 F 
ATOM     69  F   UNL A   1      43.651  24.190  24.605  1.00  0.00    -0.200 F 
ENDBRANCH  45  59
BRANCH  46  70
ATOM     70  C   UNL A   1      39.052  31.926  35.525  1.00  0.00     0.064 A 
ATOM     71  C   UNL A   1      39.424  33.269  35.684  1.00  0.00     0.173 A 
ATOM     72  C   UNL A   1      38.238  31.352  36.510  1.00  0.00     0.173 A 
ATOM     73  F   UNL A   1      40.203  33.864  34.768  1.00  0.00    -0.203 F 
ATOM     74  C   UNL A   1      39.026  33.998  36.802  1.00  0.00     0.198 A 
ATOM     75  C   UNL A   1      37.820  32.090  37.615  1.00  0.00     0.198 A 
ATOM     76  F   UNL A   1      37.839  30.077  36.389  1.00  0.00    -0.203 F 
ATOM     77  F   UNL A   1      39.431  35.267  36.952  1.00  0.00    -0.200 F 
ATOM     78  C   UNL A   1      38.223  33.409  37.767  1.00  0.00     0.200 A 
ATOM     79  F   UNL A   1      37.027  31.524  38.535  1.00  0.00    -0.200 F 
ATOM     80  F   UNL A   1      37.838  34.111  38.841  1.00  0.00    -0.200 F 
ENDBRANCH  46  70
BRANCH  58  81
ATOM     81  C   UNL A   1      44.397  27.532  34.603  1.00  0.00     0.064 A 
ATOM     82  C   UNL A   1      45.598  28.247  34.718  1.00  0.00     0.173 A 
ATOM     83  C   UNL A   1      44.282  26.312  35.282  1.00  0.00     0.173 A 
ATOM     84  F   UNL A   1      45.751  29.417  34.080  1.00  0.00    -0.203 F 
ATOM     85  C   UNL A   1      46.655  27.748  35.471  1.00  0.00     0.198 A 
ATOM     86  C   UNL A   1      45.336  25.824  36.049  1.00  0.00     0.198 A 
ATOM     87  F   UNL A   1      43.147  25.602  35.208  1.00  0.00    -0.203 F 
ATOM     88  F   UNL A   1      47.805  28.431  35.545  1.00  0.00    -0.200 F 
ATOM     89  C   UNL A   1      46.523  26.536  36.136  1.00  0.00     0.200 A 
ATOM     90  F   UNL A   1      45.203  24.663  36.705  1.00  0.00    -0.200 F 
ATOM     91  F   UNL A   1      47.543  26.057  36.861  1.00  0.00    -0.200 F 
ENDBRANCH  58  81
ENDBRANCH  32  33
ENDBRANCH  25  27
ENDBRANCH  24  25
ENDBRANCH  23  24
ENDBRANCH   1  23
TORSDOF 16
ENDMDL
