MODEL 1
REMARK VINA RESULT:     -12.5      0.000      0.000
REMARK SMILES C[C@]1(c2ccccc2C(=O)OCCOC(=O)c2ccc(-c3c4nc(c(-c5c(F)c(F)c(F)c(F)c5F)c5ccc([nH]5)c(-c5c(F)c(F)c(F)c(F)c5F)c5nc(c(-c6c(F)c(F)c(F)c(F)c6F)c6ccc3[nH]6)C=C5)C=C4)cc2)NN=C(c2ccccc2)S1
REMARK SMILES IDX 12 1 11 2 9 3 10 4 8 5 3 6 4 7 5 8 7 9 6 10 2 11 1 12 80 13
REMARK SMILES IDX 89 14 81 15 82 17 83 18 84 19 88 20 85 21 87 22 86 23 13 24
REMARK SMILES IDX 14 25 15 26 16 27 17 28 18 29 79 30 19 31 78 32 20 33 21 34
REMARK SMILES IDX 22 35 72 36 23 37 77 38 71 39 73 40 24 41 76 42 70 43 69 44
REMARK SMILES IDX 25 46 57 47 37 48 56 49 38 50 41 51 55 52 74 53 39 54 40 55
REMARK SMILES IDX 54 57 75 58 42 59 26 60 27 61 35 62 28 63 29 64 33 65 36 66
REMARK SMILES IDX 30 67 31 68 34 69 32 70 58 71 59 72 67 73 60 74 61 75 65 76
REMARK SMILES IDX 68 77 62 78 63 79 66 80 64 81 43 82 44 83 52 84 45 85 46 86
REMARK SMILES IDX 50 87 53 88 47 89 48 90 51 91 49 92
REMARK H PARENT 80 16 73 45 41 56
REMARK Flexibility Score: inf
ROOT
ATOM      1  C   UNL A   1      36.358  19.995  24.995  1.00  0.00     0.275 C 
ENDROOT
BRANCH   1   2
ATOM      2  O   UNL A   1      35.829  21.128  25.711  1.00  0.00    -0.458 OA
BRANCH   2   3
ATOM      3  C   UNL A   1      34.510  21.194  25.933  1.00  0.00     0.338 C 
ATOM      4  O   UNL A   1      33.984  21.241  27.035  1.00  0.00    -0.246 OA
BRANCH   3   5
ATOM      5  C   UNL A   1      33.758  21.442  24.665  1.00  0.00     0.066 A 
ATOM      6  C   UNL A   1      33.863  22.526  23.758  1.00  0.00     0.004 A 
ATOM      7  C   UNL A   1      33.042  22.430  22.587  1.00  0.00     0.008 A 
ATOM      8  C   UNL A   1      32.156  21.382  22.337  1.00  0.00     0.000 A 
ATOM      9  C   UNL A   1      32.860  20.375  24.381  1.00  0.00     0.016 A 
ATOM     10  C   UNL A   1      32.056  20.350  23.245  1.00  0.00     0.001 A 
BRANCH   6  11
ATOM     11  C   UNL A   1      34.862  23.714  23.748  1.00  0.00     0.129 C 
ATOM     12  C   UNL A   1      36.221  23.193  23.256  1.00  0.00     0.054 C 
ATOM     13  N   UNL A   1      34.362  24.796  22.845  1.00  0.00    -0.288 NA
ATOM     14  S   UNL A   1      35.145  24.685  25.253  1.00  0.00    -0.070 SA
ATOM     15  N   UNL A   1      33.587  25.748  23.477  1.00  0.00    -0.171 NA
ATOM     16  H   UNL A   1      34.570  24.827  21.883  1.00  0.00     0.185 HD
ATOM     17  C   UNL A   1      33.870  25.774  24.747  1.00  0.00     0.126 C 
BRANCH  17  18
ATOM     18  C   UNL A   1      33.175  26.600  25.752  1.00  0.00     0.009 A 
ATOM     19  C   UNL A   1      33.881  27.639  26.369  1.00  0.00     0.011 A 
ATOM     20  C   UNL A   1      31.812  26.431  26.026  1.00  0.00     0.011 A 
ATOM     21  C   UNL A   1      33.210  28.548  27.193  1.00  0.00     0.001 A 
ATOM     22  C   UNL A   1      31.150  27.329  26.865  1.00  0.00     0.001 A 
ATOM     23  C   UNL A   1      31.844  28.397  27.432  1.00  0.00     0.000 A 
ENDBRANCH  17  18
ENDBRANCH   6  11
ENDBRANCH   3   5
ENDBRANCH   2   3
ENDBRANCH   1   2
BRANCH   1  24
ATOM     24  C   UNL A   1      37.886  20.087  25.002  1.00  0.00     0.275 C 
BRANCH  24  25
ATOM     25  O   UNL A   1      38.314  21.286  25.677  1.00  0.00    -0.458 OA
BRANCH  25  26
ATOM     26  C   UNL A   1      39.420  21.142  26.435  1.00  0.00     0.338 C 
ATOM     27  O   UNL A   1      39.997  20.109  26.756  1.00  0.00    -0.246 OA
BRANCH  26  28
ATOM     28  C   UNL A   1      40.009  22.448  26.690  1.00  0.00     0.060 A 
ATOM     29  C   UNL A   1      41.090  22.490  27.572  1.00  0.00     0.016 A 
ATOM     30  C   UNL A   1      39.477  23.614  26.145  1.00  0.00     0.016 A 
ATOM     31  C   UNL A   1      41.652  23.706  27.921  1.00  0.00     0.010 A 
ATOM     32  C   UNL A   1      40.066  24.839  26.469  1.00  0.00     0.010 A 
ATOM     33  C   UNL A   1      41.159  24.890  27.355  1.00  0.00    -0.014 A 
BRANCH  33  34
ATOM     34  C   UNL A   1      41.818  26.176  27.680  1.00  0.00     0.031 A 
ATOM     35  C   UNL A   1      41.102  27.212  28.490  1.00  0.00     0.074 A 
ATOM     36  C   UNL A   1      43.075  26.390  27.249  1.00  0.00     0.049 A 
ATOM     37  N   UNL A   1      41.469  28.435  28.776  1.00  0.00    -0.248 NA
ATOM     38  C   UNL A   1      39.796  26.828  29.046  1.00  0.00     0.031 C 
ATOM     39  C   UNL A   1      43.873  25.435  26.478  1.00  0.00     0.029 A 
ATOM     40  N   UNL A   1      43.903  27.472  27.401  1.00  0.00    -0.354 N 
ATOM     41  C   UNL A   1      40.422  28.983  29.502  1.00  0.00     0.074 A 
ATOM     42  C   UNL A   1      39.405  27.959  29.618  1.00  0.00     0.031 C 
ATOM     43  C   UNL A   1      45.084  25.960  26.248  1.00  0.00     0.029 A 
ATOM     44  C   UNL A   1      45.123  27.314  26.790  1.00  0.00     0.049 A 
ATOM     45  H   UNL A   1      43.649  28.281  27.899  1.00  0.00     0.167 HD
ATOM     46  C   UNL A   1      40.323  30.234  30.014  1.00  0.00     0.037 A 
ATOM     47  C   UNL A   1      46.144  28.178  26.651  1.00  0.00     0.037 A 
ATOM     48  C   UNL A   1      41.363  31.227  29.923  1.00  0.00     0.049 A 
ATOM     49  C   UNL A   1      46.010  29.557  27.232  1.00  0.00     0.074 A 
ATOM     50  C   UNL A   1      41.375  32.515  30.429  1.00  0.00     0.029 A 
ATOM     51  N   UNL A   1      42.583  31.035  29.289  1.00  0.00    -0.354 N 
ATOM     52  N   UNL A   1      45.005  30.078  27.891  1.00  0.00    -0.248 NA
ATOM     53  C   UNL A   1      47.142  30.471  27.036  1.00  0.00     0.031 C 
ATOM     54  C   UNL A   1      42.587  33.115  30.068  1.00  0.00     0.029 A 
ATOM     55  C   UNL A   1      43.349  32.187  29.377  1.00  0.00     0.049 A 
ATOM     56  H   UNL A   1      42.864  30.203  28.843  1.00  0.00     0.167 HD
ATOM     57  C   UNL A   1      45.379  31.379  28.192  1.00  0.00     0.074 A 
ATOM     58  C   UNL A   1      46.718  31.558  27.666  1.00  0.00     0.031 C 
ATOM     59  C   UNL A   1      44.676  32.342  28.837  1.00  0.00     0.037 A 
BRANCH  46  60
ATOM     60  C   UNL A   1      39.031  30.612  30.676  1.00  0.00     0.064 A 
ATOM     61  C   UNL A   1      38.839  30.496  32.061  1.00  0.00     0.173 A 
ATOM     62  C   UNL A   1      37.971  31.120  29.908  1.00  0.00     0.173 A 
ATOM     63  F   UNL A   1      39.816  30.002  32.838  1.00  0.00    -0.203 F 
ATOM     64  C   UNL A   1      37.627  30.848  32.648  1.00  0.00     0.198 A 
ATOM     65  C   UNL A   1      36.769  31.496  30.502  1.00  0.00     0.198 A 
ATOM     66  F   UNL A   1      38.102  31.255  28.580  1.00  0.00    -0.203 F 
ATOM     67  F   UNL A   1      37.449  30.685  33.966  1.00  0.00    -0.200 F 
ATOM     68  C   UNL A   1      36.596  31.353  31.870  1.00  0.00     0.200 A 
ATOM     69  F   UNL A   1      35.778  31.993  29.749  1.00  0.00    -0.200 F 
ATOM     70  F   UNL A   1      35.430  31.693  32.437  1.00  0.00    -0.200 F 
ENDBRANCH  46  60
BRANCH  47  71
ATOM     71  C   UNL A   1      47.360  27.764  25.903  1.00  0.00     0.064 A 
ATOM     72  C   UNL A   1      48.495  27.289  26.572  1.00  0.00     0.173 A 
ATOM     73  C   UNL A   1      47.393  27.800  24.500  1.00  0.00     0.173 A 
ATOM     74  F   UNL A   1      48.517  27.257  27.912  1.00  0.00    -0.203 F 
ATOM     75  C   UNL A   1      49.621  26.869  25.866  1.00  0.00     0.198 A 
ATOM     76  C   UNL A   1      48.507  27.351  23.795  1.00  0.00     0.198 A 
ATOM     77  F   UNL A   1      46.331  28.243  23.813  1.00  0.00    -0.203 F 
ATOM     78  F   UNL A   1      50.705  26.448  26.530  1.00  0.00    -0.200 F 
ATOM     79  C   UNL A   1      49.622  26.889  24.479  1.00  0.00     0.200 A 
ATOM     80  F   UNL A   1      48.497  27.357  22.456  1.00  0.00    -0.200 F 
ATOM     81  F   UNL A   1      50.699  26.470  23.801  1.00  0.00    -0.200 F 
ENDBRANCH  47  71
BRANCH  59  82
ATOM     82  C   UNL A   1      45.352  33.667  29.016  1.00  0.00     0.064 A 
ATOM     83  C   UNL A   1      46.169  33.926  30.127  1.00  0.00     0.173 A 
ATOM     84  C   UNL A   1      45.205  34.676  28.054  1.00  0.00     0.173 A 
ATOM     85  F   UNL A   1      46.325  32.997  31.082  1.00  0.00    -0.203 F 
ATOM     86  C   UNL A   1      46.796  35.160  30.278  1.00  0.00     0.198 A 
ATOM     87  C   UNL A   1      45.855  35.899  28.196  1.00  0.00     0.198 A 
ATOM     88  F   UNL A   1      44.438  34.473  26.972  1.00  0.00    -0.203 F 
ATOM     89  F   UNL A   1      47.536  35.402  31.368  1.00  0.00    -0.200 F 
ATOM     90  C   UNL A   1      46.644  36.141  29.311  1.00  0.00     0.200 A 
ATOM     91  F   UNL A   1      45.714  36.844  27.258  1.00  0.00    -0.200 F 
ATOM     92  F   UNL A   1      47.252  37.327  29.458  1.00  0.00    -0.200 F 
ENDBRANCH  59  82
ENDBRANCH  33  34
ENDBRANCH  26  28
ENDBRANCH  25  26
ENDBRANCH  24  25
ENDBRANCH   1  24
TORSDOF 13
ENDMDL
MODEL 2
REMARK VINA RESULT:     -12.5      4.325      9.627
REMARK SMILES C[C@]1(c2ccccc2C(=O)OCCOC(=O)c2ccc(-c3c4nc(c(-c5c(F)c(F)c(F)c(F)c5F)c5ccc([nH]5)c(-c5c(F)c(F)c(F)c(F)c5F)c5nc(c(-c6c(F)c(F)c(F)c(F)c6F)c6ccc3[nH]6)C=C5)C=C4)cc2)NN=C(c2ccccc2)S1
REMARK SMILES IDX 12 1 11 2 9 3 10 4 8 5 3 6 4 7 5 8 7 9 6 10 2 11 1 12 80 13
REMARK SMILES IDX 89 14 81 15 82 17 83 18 84 19 88 20 85 21 87 22 86 23 13 24
REMARK SMILES IDX 14 25 15 26 16 27 17 28 18 29 79 30 19 31 78 32 20 33 21 34
REMARK SMILES IDX 22 35 72 36 23 37 77 38 71 39 73 40 24 41 76 42 70 43 69 44
REMARK SMILES IDX 25 46 57 47 37 48 56 49 38 50 41 51 55 52 74 53 39 54 40 55
REMARK SMILES IDX 54 57 75 58 42 59 26 60 27 61 35 62 28 63 29 64 33 65 36 66
REMARK SMILES IDX 30 67 31 68 34 69 32 70 58 71 59 72 67 73 60 74 61 75 65 76
REMARK SMILES IDX 68 77 62 78 63 79 66 80 64 81 43 82 44 83 52 84 45 85 46 86
REMARK SMILES IDX 50 87 53 88 47 89 48 90 51 91 49 92
REMARK H PARENT 80 16 73 45 41 56
REMARK Flexibility Score: inf
ROOT
ATOM      1  C   UNL A   1      40.883  20.359  26.122  1.00  0.00     0.275 C 
ENDROOT
BRANCH   1   2
ATOM      2  O   UNL A   1      41.811  21.096  26.941  1.00  0.00    -0.458 OA
BRANCH   2   3
ATOM      3  C   UNL A   1      42.666  21.941  26.349  1.00  0.00     0.338 C 
ATOM      4  O   UNL A   1      42.680  22.208  25.157  1.00  0.00    -0.246 OA
BRANCH   3   5
ATOM      5  C   UNL A   1      43.459  22.706  27.360  1.00  0.00     0.066 A 
ATOM      6  C   UNL A   1      44.494  23.653  27.159  1.00  0.00     0.004 A 
ATOM      7  C   UNL A   1      45.007  24.266  28.349  1.00  0.00     0.008 A 
ATOM      8  C   UNL A   1      44.578  23.950  29.638  1.00  0.00     0.000 A 
ATOM      9  C   UNL A   1      43.024  22.413  28.684  1.00  0.00     0.016 A 
ATOM     10  C   UNL A   1      43.585  23.010  29.810  1.00  0.00     0.001 A 
BRANCH   6  11
ATOM     11  C   UNL A   1      45.033  24.262  25.838  1.00  0.00     0.129 C 
ATOM     12  C   UNL A   1      45.862  23.188  25.117  1.00  0.00     0.054 C 
ATOM     13  N   UNL A   1      43.895  24.705  24.975  1.00  0.00    -0.288 NA
ATOM     14  S   UNL A   1      46.004  25.794  25.863  1.00  0.00    -0.070 SA
ATOM     15  N   UNL A   1      43.520  26.020  25.163  1.00  0.00    -0.171 NA
ATOM     16  H   UNL A   1      43.452  24.109  24.329  1.00  0.00     0.185 HD
ATOM     17  C   UNL A   1      44.517  26.696  25.654  1.00  0.00     0.126 C 
BRANCH  17  18
ATOM     18  C   UNL A   1      44.457  28.110  26.071  1.00  0.00     0.009 A 
ATOM     19  C   UNL A   1      43.205  28.730  26.159  1.00  0.00     0.011 A 
ATOM     20  C   UNL A   1      45.605  28.807  26.470  1.00  0.00     0.011 A 
ATOM     21  C   UNL A   1      43.096  30.008  26.715  1.00  0.00     0.001 A 
ATOM     22  C   UNL A   1      45.493  30.091  27.006  1.00  0.00     0.001 A 
ATOM     23  C   UNL A   1      44.238  30.683  27.146  1.00  0.00     0.000 A 
ENDBRANCH  17  18
ENDBRANCH   6  11
ENDBRANCH   3   5
ENDBRANCH   2   3
ENDBRANCH   1   2
BRANCH   1  24
ATOM     24  C   UNL A   1      39.552  21.115  26.098  1.00  0.00     0.275 C 
BRANCH  24  25
ATOM     25  O   UNL A   1      39.638  22.311  26.896  1.00  0.00    -0.458 OA
BRANCH  25  26
ATOM     26  C   UNL A   1      38.963  23.369  26.401  1.00  0.00     0.338 C 
ATOM     27  O   UNL A   1      37.991  23.373  25.654  1.00  0.00    -0.246 OA
BRANCH  26  28
ATOM     28  C   UNL A   1      39.425  24.588  27.049  1.00  0.00     0.060 A 
ATOM     29  C   UNL A   1      39.052  24.774  28.381  1.00  0.00     0.016 A 
ATOM     30  C   UNL A   1      40.141  25.562  26.357  1.00  0.00     0.016 A 
ATOM     31  C   UNL A   1      39.391  25.945  29.038  1.00  0.00     0.010 A 
ATOM     32  C   UNL A   1      40.513  26.728  27.030  1.00  0.00     0.010 A 
ATOM     33  C   UNL A   1      40.144  26.923  28.375  1.00  0.00    -0.014 A 
BRANCH  33  34
ATOM     34  C   UNL A   1      40.563  28.137  29.113  1.00  0.00     0.031 A 
ATOM     35  C   UNL A   1      41.966  28.269  29.621  1.00  0.00     0.074 A 
ATOM     36  C   UNL A   1      39.668  29.123  29.304  1.00  0.00     0.049 A 
ATOM     37  N   UNL A   1      42.483  29.198  30.382  1.00  0.00    -0.248 NA
ATOM     38  C   UNL A   1      42.911  27.212  29.231  1.00  0.00     0.031 C 
ATOM     39  C   UNL A   1      38.285  29.108  28.825  1.00  0.00     0.029 A 
ATOM     40  N   UNL A   1      39.786  30.330  29.945  1.00  0.00    -0.354 N 
ATOM     41  C   UNL A   1      43.799  28.816  30.603  1.00  0.00     0.074 A 
ATOM     42  C   UNL A   1      44.003  27.571  29.892  1.00  0.00     0.031 C 
ATOM     43  C   UNL A   1      37.691  30.261  29.163  1.00  0.00     0.029 A 
ATOM     44  C   UNL A   1      38.625  31.063  29.944  1.00  0.00     0.049 A 
ATOM     45  H   UNL A   1      40.621  30.640  30.363  1.00  0.00     0.167 HD
ATOM     46  C   UNL A   1      44.741  29.449  31.342  1.00  0.00     0.037 A 
ATOM     47  C   UNL A   1      38.336  32.235  30.538  1.00  0.00     0.037 A 
ATOM     48  C   UNL A   1      44.531  30.709  32.010  1.00  0.00     0.049 A 
ATOM     49  C   UNL A   1      39.401  32.917  31.348  1.00  0.00     0.074 A 
ATOM     50  C   UNL A   1      45.426  31.448  32.764  1.00  0.00     0.029 A 
ATOM     51  N   UNL A   1      43.339  31.420  31.994  1.00  0.00    -0.354 N 
ATOM     52  N   UNL A   1      40.634  32.535  31.577  1.00  0.00    -0.248 NA
ATOM     53  C   UNL A   1      39.032  34.183  31.994  1.00  0.00     0.031 C 
ATOM     54  C   UNL A   1      44.764  32.588  33.235  1.00  0.00     0.029 A 
ATOM     55  C   UNL A   1      43.470  32.582  32.739  1.00  0.00     0.049 A 
ATOM     56  H   UNL A   1      42.520  31.141  31.524  1.00  0.00     0.167 HD
ATOM     57  C   UNL A   1      41.191  33.510  32.392  1.00  0.00     0.074 A 
ATOM     58  C   UNL A   1      40.167  34.517  32.594  1.00  0.00     0.031 C 
ATOM     59  C   UNL A   1      42.432  33.564  32.931  1.00  0.00     0.037 A 
BRANCH  46  60
ATOM     60  C   UNL A   1      46.068  28.768  31.505  1.00  0.00     0.064 A 
ATOM     61  C   UNL A   1      47.169  29.074  30.692  1.00  0.00     0.173 A 
ATOM     62  C   UNL A   1      46.243  27.804  32.511  1.00  0.00     0.173 A 
ATOM     63  F   UNL A   1      47.050  29.977  29.707  1.00  0.00    -0.203 F 
ATOM     64  C   UNL A   1      48.387  28.421  30.861  1.00  0.00     0.198 A 
ATOM     65  C   UNL A   1      47.470  27.172  32.694  1.00  0.00     0.198 A 
ATOM     66  F   UNL A   1      45.223  27.477  33.318  1.00  0.00    -0.203 F 
ATOM     67  F   UNL A   1      49.412  28.694  30.043  1.00  0.00    -0.200 F 
ATOM     68  C   UNL A   1      48.539  27.476  31.865  1.00  0.00     0.200 A 
ATOM     69  F   UNL A   1      47.616  26.267  33.671  1.00  0.00    -0.200 F 
ATOM     70  F   UNL A   1      49.713  26.849  32.027  1.00  0.00    -0.200 F 
ENDBRANCH  46  60
BRANCH  47  71
ATOM     71  C   UNL A   1      36.971  32.807  30.408  1.00  0.00     0.064 A 
ATOM     72  C   UNL A   1      36.019  32.645  31.422  1.00  0.00     0.173 A 
ATOM     73  C   UNL A   1      36.606  33.559  29.280  1.00  0.00     0.173 A 
ATOM     74  F   UNL A   1      36.314  31.917  32.508  1.00  0.00    -0.203 F 
ATOM     75  C   UNL A   1      34.750  33.212  31.312  1.00  0.00     0.198 A 
ATOM     76  C   UNL A   1      35.349  34.150  29.185  1.00  0.00     0.198 A 
ATOM     77  F   UNL A   1      37.484  33.744  28.284  1.00  0.00    -0.203 F 
ATOM     78  F   UNL A   1      33.846  33.018  32.281  1.00  0.00    -0.200 F 
ATOM     79  C   UNL A   1      34.420  33.973  30.199  1.00  0.00     0.200 A 
ATOM     80  F   UNL A   1      35.042  34.897  28.117  1.00  0.00    -0.200 F 
ATOM     81  F   UNL A   1      33.206  34.530  30.102  1.00  0.00    -0.200 F 
ENDBRANCH  47  71
BRANCH  59  82
ATOM     82  C   UNL A   1      42.750  34.757  33.780  1.00  0.00     0.064 A 
ATOM     83  C   UNL A   1      43.184  35.964  33.211  1.00  0.00     0.173 A 
ATOM     84  C   UNL A   1      42.591  34.702  35.172  1.00  0.00     0.173 A 
ATOM     85  F   UNL A   1      43.367  36.057  31.886  1.00  0.00    -0.203 F 
ATOM     86  C   UNL A   1      43.470  37.067  34.010  1.00  0.00     0.198 A 
ATOM     87  C   UNL A   1      42.853  35.815  35.965  1.00  0.00     0.198 A 
ATOM     88  F   UNL A   1      42.174  33.571  35.762  1.00  0.00    -0.203 F 
ATOM     89  F   UNL A   1      43.925  38.196  33.451  1.00  0.00    -0.200 F 
ATOM     90  C   UNL A   1      43.298  36.994  35.384  1.00  0.00     0.200 A 
ATOM     91  F   UNL A   1      42.679  35.747  37.292  1.00  0.00    -0.200 F 
ATOM     92  F   UNL A   1      43.571  38.059  36.151  1.00  0.00    -0.200 F 
ENDBRANCH  59  82
ENDBRANCH  33  34
ENDBRANCH  26  28
ENDBRANCH  25  26
ENDBRANCH  24  25
ENDBRANCH   1  24
TORSDOF 13
ENDMDL
MODEL 3
REMARK VINA RESULT:     -12.4      4.321      9.560
REMARK SMILES C[C@]1(c2ccccc2C(=O)OCCOC(=O)c2ccc(-c3c4nc(c(-c5c(F)c(F)c(F)c(F)c5F)c5ccc([nH]5)c(-c5c(F)c(F)c(F)c(F)c5F)c5nc(c(-c6c(F)c(F)c(F)c(F)c6F)c6ccc3[nH]6)C=C5)C=C4)cc2)NN=C(c2ccccc2)S1
REMARK SMILES IDX 12 1 11 2 9 3 10 4 8 5 3 6 4 7 5 8 7 9 6 10 2 11 1 12 80 13
REMARK SMILES IDX 89 14 81 15 82 17 83 18 84 19 88 20 85 21 87 22 86 23 13 24
REMARK SMILES IDX 14 25 15 26 16 27 17 28 18 29 79 30 19 31 78 32 20 33 21 34
REMARK SMILES IDX 22 35 72 36 23 37 77 38 71 39 73 40 24 41 76 42 70 43 69 44
REMARK SMILES IDX 25 46 57 47 37 48 56 49 38 50 41 51 55 52 74 53 39 54 40 55
REMARK SMILES IDX 54 57 75 58 42 59 26 60 27 61 35 62 28 63 29 64 33 65 36 66
REMARK SMILES IDX 30 67 31 68 34 69 32 70 58 71 59 72 67 73 60 74 61 75 65 76
REMARK SMILES IDX 68 77 62 78 63 79 66 80 64 81 43 82 44 83 52 84 45 85 46 86
REMARK SMILES IDX 50 87 53 88 47 89 48 90 51 91 49 92
REMARK H PARENT 80 16 73 45 41 56
REMARK Flexibility Score: inf
ROOT
ATOM      1  C   UNL A   1      40.889  20.403  25.985  1.00  0.00     0.275 C 
ENDROOT
BRANCH   1   2
ATOM      2  O   UNL A   1      41.818  21.104  26.834  1.00  0.00    -0.458 OA
BRANCH   2   3
ATOM      3  C   UNL A   1      42.667  21.980  26.280  1.00  0.00     0.338 C 
ATOM      4  O   UNL A   1      42.684  22.293  25.099  1.00  0.00    -0.246 OA
BRANCH   3   5
ATOM      5  C   UNL A   1      43.446  22.714  27.324  1.00  0.00     0.066 A 
ATOM      6  C   UNL A   1      44.490  23.659  27.166  1.00  0.00     0.004 A 
ATOM      7  C   UNL A   1      44.985  24.238  28.379  1.00  0.00     0.008 A 
ATOM      8  C   UNL A   1      44.530  23.893  29.653  1.00  0.00     0.000 A 
ATOM      9  C   UNL A   1      42.985  22.390  28.632  1.00  0.00     0.016 A 
ATOM     10  C   UNL A   1      43.529  22.956  29.782  1.00  0.00     0.001 A 
BRANCH   6  11
ATOM     11  C   UNL A   1      45.056  24.298  25.870  1.00  0.00     0.129 C 
ATOM     12  C   UNL A   1      45.924  23.249  25.158  1.00  0.00     0.054 C 
ATOM     13  N   UNL A   1      43.936  24.735  24.982  1.00  0.00    -0.288 NA
ATOM     14  S   UNL A   1      46.000  25.845  25.947  1.00  0.00    -0.070 SA
ATOM     15  N   UNL A   1      43.533  26.041  25.179  1.00  0.00    -0.171 NA
ATOM     16  H   UNL A   1      43.522  24.143  24.313  1.00  0.00     0.185 HD
ATOM     17  C   UNL A   1      44.505  26.726  25.708  1.00  0.00     0.126 C 
BRANCH  17  18
ATOM     18  C   UNL A   1      44.409  28.132  26.145  1.00  0.00     0.009 A 
ATOM     19  C   UNL A   1      43.155  28.754  26.129  1.00  0.00     0.011 A 
ATOM     20  C   UNL A   1      45.516  28.816  26.662  1.00  0.00     0.011 A 
ATOM     21  C   UNL A   1      42.997  30.022  26.697  1.00  0.00     0.001 A 
ATOM     22  C   UNL A   1      45.357  30.091  27.211  1.00  0.00     0.001 A 
ATOM     23  C   UNL A   1      44.095  30.684  27.245  1.00  0.00     0.000 A 
ENDBRANCH  17  18
ENDBRANCH   6  11
ENDBRANCH   3   5
ENDBRANCH   2   3
ENDBRANCH   1   2
BRANCH   1  24
ATOM     24  C   UNL A   1      39.506  21.035  26.156  1.00  0.00     0.275 C 
BRANCH  24  25
ATOM     25  O   UNL A   1      39.597  22.243  26.937  1.00  0.00    -0.458 OA
BRANCH  25  26
ATOM     26  C   UNL A   1      38.929  23.296  26.426  1.00  0.00     0.338 C 
ATOM     27  O   UNL A   1      37.958  23.295  25.677  1.00  0.00    -0.246 OA
BRANCH  26  28
ATOM     28  C   UNL A   1      39.397  24.522  27.056  1.00  0.00     0.060 A 
ATOM     29  C   UNL A   1      39.003  24.742  28.376  1.00  0.00     0.016 A 
ATOM     30  C   UNL A   1      40.139  25.471  26.357  1.00  0.00     0.016 A 
ATOM     31  C   UNL A   1      39.347  25.921  29.014  1.00  0.00     0.010 A 
ATOM     32  C   UNL A   1      40.516  26.646  27.011  1.00  0.00     0.010 A 
ATOM     33  C   UNL A   1      40.126  26.875  28.345  1.00  0.00    -0.014 A 
BRANCH  33  34
ATOM     34  C   UNL A   1      40.549  28.098  29.065  1.00  0.00     0.031 A 
ATOM     35  C   UNL A   1      41.944  28.220  29.596  1.00  0.00     0.074 A 
ATOM     36  C   UNL A   1      39.665  29.101  29.219  1.00  0.00     0.049 A 
ATOM     37  N   UNL A   1      42.461  29.159  30.347  1.00  0.00    -0.248 NA
ATOM     38  C   UNL A   1      42.880  27.142  29.246  1.00  0.00     0.031 C 
ATOM     39  C   UNL A   1      38.292  29.096  28.714  1.00  0.00     0.029 A 
ATOM     40  N   UNL A   1      39.790  30.319  29.836  1.00  0.00    -0.354 N 
ATOM     41  C   UNL A   1      43.767  28.762  30.600  1.00  0.00     0.074 A 
ATOM     42  C   UNL A   1      43.965  27.500  29.919  1.00  0.00     0.031 C 
ATOM     43  C   UNL A   1      37.708  30.264  29.017  1.00  0.00     0.029 A 
ATOM     44  C   UNL A   1      38.640  31.069  29.798  1.00  0.00     0.049 A 
ATOM     45  H   UNL A   1      40.622  30.626  30.263  1.00  0.00     0.167 HD
ATOM     46  C   UNL A   1      44.705  29.398  31.343  1.00  0.00     0.037 A 
ATOM     47  C   UNL A   1      38.357  32.257  30.362  1.00  0.00     0.037 A 
ATOM     48  C   UNL A   1      44.501  30.674  31.980  1.00  0.00     0.049 A 
ATOM     49  C   UNL A   1      39.417  32.941  31.177  1.00  0.00     0.074 A 
ATOM     50  C   UNL A   1      45.393  31.416  32.734  1.00  0.00     0.029 A 
ATOM     51  N   UNL A   1      43.320  31.401  31.927  1.00  0.00    -0.354 N 
ATOM     52  N   UNL A   1      40.640  32.546  31.436  1.00  0.00    -0.248 NA
ATOM     53  C   UNL A   1      39.055  34.226  31.789  1.00  0.00     0.031 C 
ATOM     54  C   UNL A   1      44.739  32.575  33.169  1.00  0.00     0.029 A 
ATOM     55  C   UNL A   1      43.454  32.577  32.649  1.00  0.00     0.049 A 
ATOM     56  H   UNL A   1      42.506  31.124  31.447  1.00  0.00     0.167 HD
ATOM     57  C   UNL A   1      41.196  33.531  32.240  1.00  0.00     0.074 A 
ATOM     58  C   UNL A   1      40.184  34.556  32.402  1.00  0.00     0.031 C 
ATOM     59  C   UNL A   1      42.428  33.578  32.802  1.00  0.00     0.037 A 
BRANCH  46  60
ATOM     60  C   UNL A   1      46.018  28.701  31.545  1.00  0.00     0.064 A 
ATOM     61  C   UNL A   1      47.149  29.001  30.772  1.00  0.00     0.173 A 
ATOM     62  C   UNL A   1      46.149  27.727  32.548  1.00  0.00     0.173 A 
ATOM     63  F   UNL A   1      47.073  29.914  29.791  1.00  0.00    -0.203 F 
ATOM     64  C   UNL A   1      48.354  28.334  30.977  1.00  0.00     0.198 A 
ATOM     65  C   UNL A   1      47.363  27.081  32.767  1.00  0.00     0.198 A 
ATOM     66  F   UNL A   1      45.099  27.404  33.318  1.00  0.00    -0.203 F 
ATOM     67  F   UNL A   1      49.409  28.603  30.195  1.00  0.00    -0.200 F 
ATOM     68  C   UNL A   1      48.462  27.379  31.977  1.00  0.00     0.200 A 
ATOM     69  F   UNL A   1      47.466  26.166  33.741  1.00  0.00    -0.200 F 
ATOM     70  F   UNL A   1      49.623  26.739  32.174  1.00  0.00    -0.200 F 
ENDBRANCH  46  60
BRANCH  47  71
ATOM     71  C   UNL A   1      37.004  32.845  30.194  1.00  0.00     0.064 A 
ATOM     72  C   UNL A   1      36.633  33.483  29.004  1.00  0.00     0.173 A 
ATOM     73  C   UNL A   1      36.041  32.747  31.211  1.00  0.00     0.173 A 
ATOM     74  F   UNL A   1      37.526  33.620  28.012  1.00  0.00    -0.203 F 
ATOM     75  C   UNL A   1      35.351  34.003  28.837  1.00  0.00     0.198 A 
ATOM     76  C   UNL A   1      34.751  33.240  31.032  1.00  0.00     0.198 A 
ATOM     77  F   UNL A   1      36.345  32.143  32.369  1.00  0.00    -0.203 F 
ATOM     78  F   UNL A   1      35.031  34.636  27.700  1.00  0.00    -0.200 F 
ATOM     79  C   UNL A   1      34.408  33.872  29.845  1.00  0.00     0.200 A 
ATOM     80  F   UNL A   1      33.840  33.096  32.002  1.00  0.00    -0.200 F 
ATOM     81  F   UNL A   1      33.172  34.359  29.678  1.00  0.00    -0.200 F 
ENDBRANCH  47  71
BRANCH  59  82
ATOM     82  C   UNL A   1      42.748  34.784  33.631  1.00  0.00     0.064 A 
ATOM     83  C   UNL A   1      42.601  34.770  35.027  1.00  0.00     0.173 A 
ATOM     84  C   UNL A   1      43.231  35.954  33.029  1.00  0.00     0.173 A 
ATOM     85  F   UNL A   1      42.125  33.679  35.645  1.00  0.00    -0.203 F 
ATOM     86  C   UNL A   1      42.907  35.895  35.787  1.00  0.00     0.198 A 
ATOM     87  C   UNL A   1      43.561  37.068  33.795  1.00  0.00     0.198 A 
ATOM     88  F   UNL A   1      43.392  36.013  31.699  1.00  0.00    -0.203 F 
ATOM     89  F   UNL A   1      42.718  35.876  37.113  1.00  0.00    -0.200 F 
ATOM     90  C   UNL A   1      43.392  37.039  35.172  1.00  0.00     0.200 A 
ATOM     91  F   UNL A   1      44.037  38.171  33.202  1.00  0.00    -0.200 F 
ATOM     92  F   UNL A   1      43.689  38.121  35.907  1.00  0.00    -0.200 F 
ENDBRANCH  59  82
ENDBRANCH  33  34
ENDBRANCH  26  28
ENDBRANCH  25  26
ENDBRANCH  24  25
ENDBRANCH   1  24
TORSDOF 13
ENDMDL
