MODEL 1
REMARK VINA RESULT:     -10.8      0.000      0.000
REMARK SMILES CCCOc1ccc(-c2nc(C#N)c(N3CCC(C(=O)OCCOC(=O)c4ccc(-c5c6nc(c(-c7c(F)c(F)c(F)c(F)c7F)c7ccc([nH]7)c(-c7c(F)c(F)c(F)c(F)c7F)c7nc(c(-c8c(F)c(F)c(F)c(F)c8F)c8ccc5[nH]8)C=C7)C=C6)cc4)CC3)o2)cc1
REMARK SMILES IDX 21 1 19 2 20 3 18 4 15 5 16 6 91 7 17 8 90 9 14 10 9 11
REMARK SMILES IDX 10 12 92 13 11 14 8 15 5 16 6 17 94 18 7 19 93 20 4 21 3 22
REMARK SMILES IDX 2 23 1 24 12 25 13 26 22 27 23 28 24 29 25 30 26 31 27 32
REMARK SMILES IDX 28 33 89 34 29 35 88 36 30 37 31 38 32 39 82 40 33 41 87 42
REMARK SMILES IDX 81 43 83 44 34 45 86 46 80 47 79 48 35 50 67 51 47 52 66 53
REMARK SMILES IDX 48 54 51 55 65 56 84 57 49 58 50 59 64 61 85 62 52 63 36 64
REMARK SMILES IDX 37 65 45 66 38 67 39 68 43 69 46 70 40 71 41 72 44 73 42 74
REMARK SMILES IDX 68 75 69 76 77 77 70 78 71 79 75 80 78 81 72 82 73 83 76 84
REMARK SMILES IDX 74 85 53 86 54 87 62 88 55 89 56 90 60 91 63 92 57 93 58 94
REMARK SMILES IDX 61 95 59 96
REMARK H PARENT 83 49 51 60
REMARK Flexibility Score: inf
ROOT
ATOM      1  O   UNL A   1      33.474  34.514  30.141  1.00  0.00    -0.462 OA
ENDROOT
BRANCH   1   2
ATOM      2  C   UNL A   1      33.891  35.084  31.303  1.00  0.00     0.309 C 
ATOM      3  O   UNL A   1      33.942  36.292  31.512  1.00  0.00    -0.252 OA
BRANCH   2   4
ATOM      4  C   UNL A   1      34.356  34.069  32.325  1.00  0.00     0.103 C 
ATOM      5  N   UNL A   1      36.444  32.665  33.641  1.00  0.00    -0.340 N 
ATOM      6  C   UNL A   1      35.564  31.884  32.796  1.00  0.00     0.120 C 
ATOM      7  C   UNL A   1      35.861  33.812  34.321  1.00  0.00     0.120 C 
ATOM      8  C   UNL A   1      34.940  32.776  31.734  1.00  0.00     0.037 C 
ATOM      9  C   UNL A   1      35.340  34.775  33.261  1.00  0.00     0.037 C 
BRANCH   5  10
ATOM     10  C   UNL A   1      37.783  32.496  33.635  1.00  0.00     0.235 A 
ATOM     11  C   UNL A   1      39.770  32.847  32.862  1.00  0.00     0.230 A 
ATOM     12  N   UNL A   1      39.993  32.064  33.899  1.00  0.00    -0.196 NA
ATOM     13  O   UNL A   1      38.452  33.110  32.620  1.00  0.00    -0.419 OA
ATOM     14  C   UNL A   1      38.730  31.868  34.417  1.00  0.00     0.204 A 
BRANCH  11  15
ATOM     15  C   UNL A   1      40.702  33.513  31.969  1.00  0.00     0.037 A 
ATOM     16  C   UNL A   1      42.605  34.728  30.317  1.00  0.00     0.119 A 
ATOM     17  C   UNL A   1      41.744  33.768  29.788  1.00  0.00     0.047 A 
ATOM     18  C   UNL A   1      42.465  35.145  31.636  1.00  0.00     0.047 A 
ATOM     19  C   UNL A   1      40.797  33.154  30.617  1.00  0.00     0.017 A 
ATOM     20  C   UNL A   1      41.540  34.522  32.467  1.00  0.00     0.017 A 
BRANCH  16  21
ATOM     21  O   UNL A   1      43.536  35.332  29.521  1.00  0.00    -0.494 OA
BRANCH  21  22
ATOM     22  C   UNL A   1      43.025  35.649  28.213  1.00  0.00     0.229 C 
BRANCH  22  23
ATOM     23  C   UNL A   1      44.092  36.230  27.274  1.00  0.00     0.038 C 
ATOM     24  C   UNL A   1      45.488  36.241  27.888  1.00  0.00     0.007 C 
ENDBRANCH  22  23
ENDBRANCH  21  22
ENDBRANCH  16  21
ENDBRANCH  11  15
BRANCH  14  25
ATOM     25  C   UNL A   1      38.507  31.053  35.568  1.00  0.00     0.125 C 
ATOM     26  N   UNL A   1      38.334  30.377  36.492  1.00  0.00    -0.190 NA
ENDBRANCH  14  25
ENDBRANCH   5  10
ENDBRANCH   2   4
ENDBRANCH   1   2
BRANCH   1  27
ATOM     27  C   UNL A   1      34.281  34.778  28.977  1.00  0.00     0.274 C 
BRANCH  27  28
ATOM     28  C   UNL A   1      34.245  33.618  27.992  1.00  0.00     0.275 C 
BRANCH  28  29
ATOM     29  O   UNL A   1      35.487  32.916  27.986  1.00  0.00    -0.458 OA
BRANCH  29  30
ATOM     30  C   UNL A   1      35.361  31.583  27.817  1.00  0.00     0.338 C 
ATOM     31  O   UNL A   1      34.470  30.995  27.228  1.00  0.00    -0.246 OA
BRANCH  30  32
ATOM     32  C   UNL A   1      36.299  30.877  28.682  1.00  0.00     0.060 A 
ATOM     33  C   UNL A   1      37.219  31.651  29.398  1.00  0.00     0.016 A 
ATOM     34  C   UNL A   1      36.515  29.528  28.391  1.00  0.00     0.016 A 
ATOM     35  C   UNL A   1      38.478  31.129  29.602  1.00  0.00     0.010 A 
ATOM     36  C   UNL A   1      37.769  29.020  28.581  1.00  0.00     0.010 A 
ATOM     37  C   UNL A   1      38.760  29.860  29.085  1.00  0.00    -0.014 A 
BRANCH  37  38
ATOM     38  C   UNL A   1      40.078  29.290  29.245  1.00  0.00     0.031 A 
ATOM     39  C   UNL A   1      40.380  29.084  30.678  1.00  0.00     0.074 A 
ATOM     40  C   UNL A   1      40.811  28.860  28.197  1.00  0.00     0.049 A 
ATOM     41  N   UNL A   1      41.255  29.722  31.379  1.00  0.00    -0.248 NA
ATOM     42  C   UNL A   1      39.449  28.271  31.485  1.00  0.00     0.031 C 
ATOM     43  C   UNL A   1      40.472  28.862  26.772  1.00  0.00     0.029 A 
ATOM     44  N   UNL A   1      42.019  28.225  28.216  1.00  0.00    -0.354 N 
ATOM     45  C   UNL A   1      41.141  29.204  32.662  1.00  0.00     0.074 A 
ATOM     46  C   UNL A   1      39.874  28.532  32.721  1.00  0.00     0.031 C 
ATOM     47  C   UNL A   1      41.329  28.057  26.099  1.00  0.00     0.029 A 
ATOM     48  C   UNL A   1      42.344  27.577  27.018  1.00  0.00     0.049 A 
ATOM     49  H   UNL A   1      42.611  28.223  29.002  1.00  0.00     0.167 HD
ATOM     50  C   UNL A   1      42.242  29.081  33.446  1.00  0.00     0.037 A 
ATOM     51  C   UNL A   1      43.344  26.665  26.866  1.00  0.00     0.037 A 
ATOM     52  C   UNL A   1      43.308  29.925  32.965  1.00  0.00     0.049 A 
ATOM     53  C   UNL A   1      44.293  26.875  27.997  1.00  0.00     0.074 A 
ATOM     54  C   UNL A   1      43.430  31.287  32.756  1.00  0.00     0.029 A 
ATOM     55  N   UNL A   1      44.285  29.337  32.197  1.00  0.00    -0.354 N 
ATOM     56  N   UNL A   1      45.019  27.955  28.115  1.00  0.00    -0.248 NA
ATOM     57  C   UNL A   1      44.004  26.171  29.241  1.00  0.00     0.031 C 
ATOM     58  C   UNL A   1      44.129  31.410  31.520  1.00  0.00     0.029 A 
ATOM     59  C   UNL A   1      44.499  30.133  31.100  1.00  0.00     0.049 A 
ATOM     60  H   UNL A   1      44.750  28.493  32.399  1.00  0.00     0.167 HD
ATOM     61  C   UNL A   1      44.886  28.317  29.448  1.00  0.00     0.074 A 
ATOM     62  C   UNL A   1      44.278  27.157  30.104  1.00  0.00     0.031 C 
ATOM     63  C   UNL A   1      44.975  29.622  29.837  1.00  0.00     0.037 A 
BRANCH  50  64
ATOM     64  C   UNL A   1      42.481  27.902  34.353  1.00  0.00     0.064 A 
ATOM     65  C   UNL A   1      43.026  26.727  33.808  1.00  0.00     0.173 A 
ATOM     66  C   UNL A   1      41.937  27.776  35.653  1.00  0.00     0.173 A 
ATOM     67  F   UNL A   1      43.539  26.727  32.569  1.00  0.00    -0.203 F 
ATOM     68  C   UNL A   1      42.970  25.507  34.486  1.00  0.00     0.198 A 
ATOM     69  C   UNL A   1      41.937  26.571  36.349  1.00  0.00     0.198 A 
ATOM     70  F   UNL A   1      41.280  28.770  36.261  1.00  0.00    -0.203 F 
ATOM     71  F   UNL A   1      43.388  24.390  33.876  1.00  0.00    -0.200 F 
ATOM     72  C   UNL A   1      42.425  25.429  35.754  1.00  0.00     0.200 A 
ATOM     73  F   UNL A   1      41.379  26.517  37.568  1.00  0.00    -0.200 F 
ATOM     74  F   UNL A   1      42.320  24.252  36.383  1.00  0.00    -0.200 F 
ENDBRANCH  50  64
BRANCH  51  75
ATOM     75  C   UNL A   1      43.365  25.430  26.036  1.00  0.00     0.064 A 
ATOM     76  C   UNL A   1      44.459  25.107  25.209  1.00  0.00     0.173 A 
ATOM     77  C   UNL A   1      42.433  24.396  26.253  1.00  0.00     0.173 A 
ATOM     78  F   UNL A   1      45.426  26.008  24.988  1.00  0.00    -0.203 F 
ATOM     79  C   UNL A   1      44.615  23.829  24.653  1.00  0.00     0.198 A 
ATOM     80  C   UNL A   1      42.589  23.123  25.699  1.00  0.00     0.198 A 
ATOM     81  F   UNL A   1      41.401  24.569  27.090  1.00  0.00    -0.203 F 
ATOM     82  F   UNL A   1      45.698  23.544  23.916  1.00  0.00    -0.200 F 
ATOM     83  C   UNL A   1      43.684  22.835  24.907  1.00  0.00     0.200 A 
ATOM     84  F   UNL A   1      41.703  22.160  25.989  1.00  0.00    -0.200 F 
ATOM     85  F   UNL A   1      43.862  21.595  24.430  1.00  0.00    -0.200 F 
ENDBRANCH  51  75
BRANCH  63  86
ATOM     86  C   UNL A   1      45.423  30.634  28.815  1.00  0.00     0.064 A 
ATOM     87  C   UNL A   1      44.555  31.365  27.983  1.00  0.00     0.173 A 
ATOM     88  C   UNL A   1      46.781  30.973  28.776  1.00  0.00     0.173 A 
ATOM     89  F   UNL A   1      43.230  31.186  28.041  1.00  0.00    -0.203 F 
ATOM     90  C   UNL A   1      45.035  32.346  27.114  1.00  0.00     0.198 A 
ATOM     91  C   UNL A   1      47.253  31.979  27.938  1.00  0.00     0.198 A 
ATOM     92  F   UNL A   1      47.649  30.358  29.594  1.00  0.00    -0.203 F 
ATOM     93  F   UNL A   1      44.188  33.018  26.321  1.00  0.00    -0.200 F 
ATOM     94  C   UNL A   1      46.385  32.653  27.096  1.00  0.00     0.200 A 
ATOM     95  F   UNL A   1      48.551  32.311  27.969  1.00  0.00    -0.200 F 
ATOM     96  F   UNL A   1      46.846  33.618  26.288  1.00  0.00    -0.200 F 
ENDBRANCH  63  86
ENDBRANCH  37  38
ENDBRANCH  30  32
ENDBRANCH  29  30
ENDBRANCH  28  29
ENDBRANCH  27  28
ENDBRANCH   1  27
TORSDOF 17
ENDMDL
MODEL 2
REMARK VINA RESULT:     -10.6      4.899      8.463
REMARK SMILES CCCOc1ccc(-c2nc(C#N)c(N3CCC(C(=O)OCCOC(=O)c4ccc(-c5c6nc(c(-c7c(F)c(F)c(F)c(F)c7F)c7ccc([nH]7)c(-c7c(F)c(F)c(F)c(F)c7F)c7nc(c(-c8c(F)c(F)c(F)c(F)c8F)c8ccc5[nH]8)C=C7)C=C6)cc4)CC3)o2)cc1
REMARK SMILES IDX 21 1 19 2 20 3 18 4 15 5 16 6 91 7 17 8 90 9 14 10 9 11
REMARK SMILES IDX 10 12 92 13 11 14 8 15 5 16 6 17 94 18 7 19 93 20 4 21 3 22
REMARK SMILES IDX 2 23 1 24 12 25 13 26 22 27 23 28 24 29 25 30 26 31 27 32
REMARK SMILES IDX 28 33 89 34 29 35 88 36 30 37 31 38 32 39 82 40 33 41 87 42
REMARK SMILES IDX 81 43 83 44 34 45 86 46 80 47 79 48 35 50 67 51 47 52 66 53
REMARK SMILES IDX 48 54 51 55 65 56 84 57 49 58 50 59 64 61 85 62 52 63 36 64
REMARK SMILES IDX 37 65 45 66 38 67 39 68 43 69 46 70 40 71 41 72 44 73 42 74
REMARK SMILES IDX 68 75 69 76 77 77 70 78 71 79 75 80 78 81 72 82 73 83 76 84
REMARK SMILES IDX 74 85 53 86 54 87 62 88 55 89 56 90 60 91 63 92 57 93 58 94
REMARK SMILES IDX 61 95 59 96
REMARK H PARENT 83 49 51 60
REMARK Flexibility Score: inf
ROOT
ATOM      1  O   UNL A   1      31.674  30.435  25.670  1.00  0.00    -0.462 OA
ENDROOT
BRANCH   1   2
ATOM      2  C   UNL A   1      31.383  29.311  24.963  1.00  0.00     0.309 C 
ATOM      3  O   UNL A   1      30.669  29.275  23.966  1.00  0.00    -0.252 OA
BRANCH   2   4
ATOM      4  C   UNL A   1      31.987  28.061  25.566  1.00  0.00     0.103 C 
ATOM      5  N   UNL A   1      32.912  25.388  25.304  1.00  0.00    -0.340 N 
ATOM      6  C   UNL A   1      31.729  25.594  26.115  1.00  0.00     0.120 C 
ATOM      7  C   UNL A   1      33.902  26.455  25.298  1.00  0.00     0.120 C 
ATOM      8  C   UNL A   1      31.022  26.870  25.687  1.00  0.00     0.037 C 
ATOM      9  C   UNL A   1      33.237  27.714  24.754  1.00  0.00     0.037 C 
BRANCH   5  10
ATOM     10  C   UNL A   1      33.008  24.377  24.416  1.00  0.00     0.235 A 
ATOM     11  C   UNL A   1      33.038  22.288  23.864  1.00  0.00     0.230 A 
ATOM     12  N   UNL A   1      33.156  22.899  22.702  1.00  0.00    -0.196 NA
ATOM     13  O   UNL A   1      32.990  23.121  24.945  1.00  0.00    -0.419 OA
ATOM     14  C   UNL A   1      33.099  24.234  23.047  1.00  0.00     0.204 A 
BRANCH  11  15
ATOM     15  C   UNL A   1      32.901  20.875  24.173  1.00  0.00     0.037 A 
ATOM     16  C   UNL A   1      32.521  18.187  24.846  1.00  0.00     0.119 A 
ATOM     17  C   UNL A   1      32.302  18.608  23.536  1.00  0.00     0.047 A 
ATOM     18  C   UNL A   1      33.011  19.077  25.796  1.00  0.00     0.047 A 
ATOM     19  C   UNL A   1      32.484  19.955  23.201  1.00  0.00     0.017 A 
ATOM     20  C   UNL A   1      33.171  20.419  25.471  1.00  0.00     0.017 A 
BRANCH  16  21
ATOM     21  O   UNL A   1      32.344  16.876  25.188  1.00  0.00    -0.494 OA
BRANCH  21  22
ATOM     22  C   UNL A   1      33.101  15.978  24.356  1.00  0.00     0.229 C 
BRANCH  22  23
ATOM     23  C   UNL A   1      34.579  16.373  24.233  1.00  0.00     0.038 C 
ATOM     24  C   UNL A   1      35.433  15.862  25.390  1.00  0.00     0.007 C 
ENDBRANCH  22  23
ENDBRANCH  21  22
ENDBRANCH  16  21
ENDBRANCH  11  15
BRANCH  14  25
ATOM     25  C   UNL A   1      33.202  25.269  22.069  1.00  0.00     0.125 C 
ATOM     26  N   UNL A   1      33.280  26.096  21.262  1.00  0.00    -0.190 NA
ENDBRANCH  14  25
ENDBRANCH   5  10
ENDBRANCH   2   4
ENDBRANCH   1   2
BRANCH   1  27
ATOM     27  C   UNL A   1      32.224  30.235  26.987  1.00  0.00     0.274 C 
BRANCH  27  28
ATOM     28  C   UNL A   1      33.270  31.288  27.326  1.00  0.00     0.275 C 
BRANCH  28  29
ATOM     29  O   UNL A   1      34.444  30.684  27.865  1.00  0.00    -0.458 OA
BRANCH  29  30
ATOM     30  C   UNL A   1      35.437  31.559  28.131  1.00  0.00     0.338 C 
ATOM     31  O   UNL A   1      35.632  32.637  27.596  1.00  0.00    -0.246 OA
BRANCH  30  32
ATOM     32  C   UNL A   1      36.449  30.929  28.971  1.00  0.00     0.060 A 
ATOM     33  C   UNL A   1      37.431  31.758  29.524  1.00  0.00     0.016 A 
ATOM     34  C   UNL A   1      36.635  29.556  28.792  1.00  0.00     0.016 A 
ATOM     35  C   UNL A   1      38.703  31.246  29.663  1.00  0.00     0.010 A 
ATOM     36  C   UNL A   1      37.901  29.056  28.916  1.00  0.00     0.010 A 
ATOM     37  C   UNL A   1      38.934  29.930  29.246  1.00  0.00    -0.014 A 
BRANCH  37  38
ATOM     38  C   UNL A   1      40.261  29.364  29.340  1.00  0.00     0.031 A 
ATOM     39  C   UNL A   1      40.655  29.206  30.757  1.00  0.00     0.074 A 
ATOM     40  C   UNL A   1      40.926  28.898  28.263  1.00  0.00     0.049 A 
ATOM     41  N   UNL A   1      41.572  29.868  31.379  1.00  0.00    -0.248 NA
ATOM     42  C   UNL A   1      39.778  28.423  31.649  1.00  0.00     0.031 C 
ATOM     43  C   UNL A   1      40.496  28.852  26.863  1.00  0.00     0.029 A 
ATOM     44  N   UNL A   1      42.133  28.263  28.226  1.00  0.00    -0.354 N 
ATOM     45  C   UNL A   1      41.541  29.393  32.683  1.00  0.00     0.074 A 
ATOM     46  C   UNL A   1      40.281  28.725  32.846  1.00  0.00     0.031 C 
ATOM     47  C   UNL A   1      41.309  28.023  26.164  1.00  0.00     0.029 A 
ATOM     48  C   UNL A   1      42.381  27.574  27.032  1.00  0.00     0.049 A 
ATOM     49  H   UNL A   1      42.774  28.286  28.972  1.00  0.00     0.167 HD
ATOM     50  C   UNL A   1      42.691  29.296  33.399  1.00  0.00     0.037 A 
ATOM     51  C   UNL A   1      43.371  26.656  26.847  1.00  0.00     0.037 A 
ATOM     52  C   UNL A   1      43.722  30.122  32.821  1.00  0.00     0.049 A 
ATOM     53  C   UNL A   1      44.389  26.903  27.908  1.00  0.00     0.074 A 
ATOM     54  C   UNL A   1      43.829  31.476  32.559  1.00  0.00     0.029 A 
ATOM     55  N   UNL A   1      44.649  29.507  32.013  1.00  0.00    -0.354 N 
ATOM     56  N   UNL A   1      45.121  27.985  27.941  1.00  0.00    -0.248 NA
ATOM     57  C   UNL A   1      44.182  26.243  29.191  1.00  0.00     0.031 C 
ATOM     58  C   UNL A   1      44.447  31.556  31.277  1.00  0.00     0.029 A 
ATOM     59  C   UNL A   1      44.791  30.265  30.878  1.00  0.00     0.049 A 
ATOM     60  H   UNL A   1      45.127  28.670  32.214  1.00  0.00     0.167 HD
ATOM     61  C   UNL A   1      45.073  28.393  29.267  1.00  0.00     0.074 A 
ATOM     62  C   UNL A   1      44.510  27.257  30.000  1.00  0.00     0.031 C 
ATOM     63  C   UNL A   1      45.185  29.711  29.605  1.00  0.00     0.037 A 
BRANCH  50  64
ATOM     64  C   UNL A   1      42.989  28.149  34.328  1.00  0.00     0.064 A 
ATOM     65  C   UNL A   1      43.295  28.428  35.672  1.00  0.00     0.173 A 
ATOM     66  C   UNL A   1      43.269  26.830  33.900  1.00  0.00     0.173 A 
ATOM     67  F   UNL A   1      43.100  29.656  36.173  1.00  0.00    -0.203 F 
ATOM     68  C   UNL A   1      43.896  27.478  36.501  1.00  0.00     0.198 A 
ATOM     69  C   UNL A   1      43.814  25.869  34.746  1.00  0.00     0.198 A 
ATOM     70  F   UNL A   1      43.143  26.442  32.626  1.00  0.00    -0.203 F 
ATOM     71  F   UNL A   1      44.285  27.826  37.734  1.00  0.00    -0.200 F 
ATOM     72  C   UNL A   1      44.156  26.201  36.038  1.00  0.00     0.200 A 
ATOM     73  F   UNL A   1      44.080  24.646  34.266  1.00  0.00    -0.200 F 
ATOM     74  F   UNL A   1      44.782  25.307  36.813  1.00  0.00    -0.200 F 
ENDBRANCH  50  64
BRANCH  51  75
ATOM     75  C   UNL A   1      43.339  25.393  26.060  1.00  0.00     0.064 A 
ATOM     76  C   UNL A   1      44.381  25.039  25.181  1.00  0.00     0.173 A 
ATOM     77  C   UNL A   1      42.420  24.371  26.369  1.00  0.00     0.173 A 
ATOM     78  F   UNL A   1      45.335  25.928  24.871  1.00  0.00    -0.203 F 
ATOM     79  C   UNL A   1      44.501  23.741  24.661  1.00  0.00     0.198 A 
ATOM     80  C   UNL A   1      42.541  23.079  25.850  1.00  0.00     0.198 A 
ATOM     81  F   UNL A   1      41.440  24.577  27.259  1.00  0.00    -0.203 F 
ATOM     82  F   UNL A   1      45.537  23.427  23.870  1.00  0.00    -0.200 F 
ATOM     83  C   UNL A   1      43.586  22.760  25.004  1.00  0.00     0.200 A 
ATOM     84  F   UNL A   1      41.672  22.130  26.226  1.00  0.00    -0.200 F 
ATOM     85  F   UNL A   1      43.732  21.504  24.559  1.00  0.00    -0.200 F 
ENDBRANCH  51  75
BRANCH  63  86
ATOM     86  C   UNL A   1      45.566  30.686  28.522  1.00  0.00     0.064 A 
ATOM     87  C   UNL A   1      44.646  31.368  27.704  1.00  0.00     0.173 A 
ATOM     88  C   UNL A   1      46.914  31.046  28.405  1.00  0.00     0.173 A 
ATOM     89  F   UNL A   1      43.329  31.169  27.833  1.00  0.00    -0.203 F 
ATOM     90  C   UNL A   1      45.067  32.319  26.774  1.00  0.00     0.198 A 
ATOM     91  C   UNL A   1      47.327  32.025  27.506  1.00  0.00     0.198 A 
ATOM     92  F   UNL A   1      47.830  30.480  29.205  1.00  0.00    -0.203 F 
ATOM     93  F   UNL A   1      44.170  32.944  25.996  1.00  0.00    -0.200 F 
ATOM     94  C   UNL A   1      46.408  32.649  26.679  1.00  0.00     0.200 A 
ATOM     95  F   UNL A   1      48.618  32.379  27.461  1.00  0.00    -0.200 F 
ATOM     96  F   UNL A   1      46.812  33.587  25.811  1.00  0.00    -0.200 F 
ENDBRANCH  63  86
ENDBRANCH  37  38
ENDBRANCH  30  32
ENDBRANCH  29  30
ENDBRANCH  28  29
ENDBRANCH  27  28
ENDBRANCH   1  27
TORSDOF 17
ENDMDL
MODEL 3
REMARK VINA RESULT:     -10.3      1.132      1.561
REMARK SMILES CCCOc1ccc(-c2nc(C#N)c(N3CCC(C(=O)OCCOC(=O)c4ccc(-c5c6nc(c(-c7c(F)c(F)c(F)c(F)c7F)c7ccc([nH]7)c(-c7c(F)c(F)c(F)c(F)c7F)c7nc(c(-c8c(F)c(F)c(F)c(F)c8F)c8ccc5[nH]8)C=C7)C=C6)cc4)CC3)o2)cc1
REMARK SMILES IDX 21 1 19 2 20 3 18 4 15 5 16 6 91 7 17 8 90 9 14 10 9 11
REMARK SMILES IDX 10 12 92 13 11 14 8 15 5 16 6 17 94 18 7 19 93 20 4 21 3 22
REMARK SMILES IDX 2 23 1 24 12 25 13 26 22 27 23 28 24 29 25 30 26 31 27 32
REMARK SMILES IDX 28 33 89 34 29 35 88 36 30 37 31 38 32 39 82 40 33 41 87 42
REMARK SMILES IDX 81 43 83 44 34 45 86 46 80 47 79 48 35 50 67 51 47 52 66 53
REMARK SMILES IDX 48 54 51 55 65 56 84 57 49 58 50 59 64 61 85 62 52 63 36 64
REMARK SMILES IDX 37 65 45 66 38 67 39 68 43 69 46 70 40 71 41 72 44 73 42 74
REMARK SMILES IDX 68 75 69 76 77 77 70 78 71 79 75 80 78 81 72 82 73 83 76 84
REMARK SMILES IDX 74 85 53 86 54 87 62 88 55 89 56 90 60 91 63 92 57 93 58 94
REMARK SMILES IDX 61 95 59 96
REMARK H PARENT 83 49 51 60
REMARK Flexibility Score: inf
ROOT
ATOM      1  O   UNL A   1      34.034  33.405  30.815  1.00  0.00    -0.462 OA
ENDROOT
BRANCH   1   2
ATOM      2  C   UNL A   1      34.000  33.901  32.080  1.00  0.00     0.309 C 
ATOM      3  O   UNL A   1      33.321  34.859  32.440  1.00  0.00    -0.252 OA
BRANCH   2   4
ATOM      4  C   UNL A   1      34.945  33.186  33.022  1.00  0.00     0.103 C 
ATOM      5  N   UNL A   1      37.575  32.644  33.945  1.00  0.00    -0.340 N 
ATOM      6  C   UNL A   1      36.866  31.550  33.313  1.00  0.00     0.120 C 
ATOM      7  C   UNL A   1      36.776  33.606  34.691  1.00  0.00     0.120 C 
ATOM      8  C   UNL A   1      35.808  32.095  32.367  1.00  0.00     0.037 C 
ATOM      9  C   UNL A   1      35.790  34.251  33.724  1.00  0.00     0.037 C 
BRANCH   5  10
ATOM     10  C   UNL A   1      38.872  32.908  33.681  1.00  0.00     0.235 A 
ATOM     11  C   UNL A   1      40.479  33.640  32.436  1.00  0.00     0.230 A 
ATOM     12  N   UNL A   1      41.104  33.278  33.538  1.00  0.00    -0.196 NA
ATOM     13  O   UNL A   1      39.134  33.401  32.438  1.00  0.00    -0.419 OA
ATOM     14  C   UNL A   1      40.076  32.845  34.350  1.00  0.00     0.204 A 
BRANCH  11  15
ATOM     15  C   UNL A   1      40.983  34.295  31.241  1.00  0.00     0.037 A 
ATOM     16  C   UNL A   1      42.029  35.440  28.913  1.00  0.00     0.119 A 
ATOM     17  C   UNL A   1      40.682  35.083  28.962  1.00  0.00     0.047 A 
ATOM     18  C   UNL A   1      42.830  35.310  30.042  1.00  0.00     0.047 A 
ATOM     19  C   UNL A   1      40.161  34.503  30.124  1.00  0.00     0.017 A 
ATOM     20  C   UNL A   1      42.320  34.713  31.190  1.00  0.00     0.017 A 
BRANCH  16  21
ATOM     21  O   UNL A   1      42.552  36.003  27.784  1.00  0.00    -0.494 OA
BRANCH  21  22
ATOM     22  C   UNL A   1      41.964  37.281  27.478  1.00  0.00     0.229 C 
BRANCH  22  23
ATOM     23  C   UNL A   1      42.707  38.457  28.126  1.00  0.00     0.038 C 
ATOM     24  C   UNL A   1      41.770  39.492  28.742  1.00  0.00     0.007 C 
ENDBRANCH  22  23
ENDBRANCH  21  22
ENDBRANCH  16  21
ENDBRANCH  11  15
BRANCH  14  25
ATOM     25  C   UNL A   1      40.316  32.346  35.666  1.00  0.00     0.125 C 
ATOM     26  N   UNL A   1      40.518  31.925  36.726  1.00  0.00    -0.190 NA
ENDBRANCH  14  25
ENDBRANCH   5  10
ENDBRANCH   2   4
ENDBRANCH   1   2
BRANCH   1  27
ATOM     27  C   UNL A   1      34.239  34.364  29.760  1.00  0.00     0.274 C 
BRANCH  27  28
ATOM     28  C   UNL A   1      34.138  33.718  28.385  1.00  0.00     0.275 C 
BRANCH  28  29
ATOM     29  O   UNL A   1      35.389  33.156  27.994  1.00  0.00    -0.458 OA
BRANCH  29  30
ATOM     30  C   UNL A   1      35.392  31.806  27.948  1.00  0.00     0.338 C 
ATOM     31  O   UNL A   1      34.552  31.084  27.439  1.00  0.00    -0.246 OA
BRANCH  30  32
ATOM     32  C   UNL A   1      36.411  31.277  28.847  1.00  0.00     0.060 A 
ATOM     33  C   UNL A   1      37.458  32.134  29.207  1.00  0.00     0.016 A 
ATOM     34  C   UNL A   1      36.523  29.886  28.906  1.00  0.00     0.016 A 
ATOM     35  C   UNL A   1      38.708  31.584  29.385  1.00  0.00     0.010 A 
ATOM     36  C   UNL A   1      37.768  29.346  29.067  1.00  0.00     0.010 A 
ATOM     37  C   UNL A   1      38.857  30.205  29.198  1.00  0.00    -0.014 A 
BRANCH  37  38
ATOM     38  C   UNL A   1      40.157  29.592  29.339  1.00  0.00     0.031 A 
ATOM     39  C   UNL A   1      40.520  29.476  30.768  1.00  0.00     0.074 A 
ATOM     40  C   UNL A   1      40.821  29.056  28.294  1.00  0.00     0.049 A 
ATOM     41  N   UNL A   1      41.453  30.125  31.379  1.00  0.00    -0.248 NA
ATOM     42  C   UNL A   1      39.598  28.764  31.674  1.00  0.00     0.031 C 
ATOM     43  C   UNL A   1      40.413  28.970  26.889  1.00  0.00     0.029 A 
ATOM     44  N   UNL A   1      42.003  28.373  28.304  1.00  0.00    -0.354 N 
ATOM     45  C   UNL A   1      41.381  29.705  32.701  1.00  0.00     0.074 A 
ATOM     46  C   UNL A   1      40.092  29.095  32.867  1.00  0.00     0.031 C 
ATOM     47  C   UNL A   1      41.204  28.083  26.239  1.00  0.00     0.029 A 
ATOM     48  C   UNL A   1      42.243  27.627  27.144  1.00  0.00     0.049 A 
ATOM     49  H   UNL A   1      42.631  28.401  29.060  1.00  0.00     0.167 HD
ATOM     50  C   UNL A   1      42.514  29.592  33.441  1.00  0.00     0.037 A 
ATOM     51  C   UNL A   1      43.197  26.663  27.014  1.00  0.00     0.037 A 
ATOM     52  C   UNL A   1      43.587  30.353  32.850  1.00  0.00     0.049 A 
ATOM     53  C   UNL A   1      44.207  26.913  28.082  1.00  0.00     0.074 A 
ATOM     54  C   UNL A   1      43.753  31.689  32.537  1.00  0.00     0.029 A 
ATOM     55  N   UNL A   1      44.502  29.669  32.085  1.00  0.00    -0.354 N 
ATOM     56  N   UNL A   1      44.981  27.966  28.086  1.00  0.00    -0.248 NA
ATOM     57  C   UNL A   1      43.951  26.314  29.386  1.00  0.00     0.031 C 
ATOM     58  C   UNL A   1      44.395  31.693  31.264  1.00  0.00     0.029 A 
ATOM     59  C   UNL A   1      44.694  30.374  30.923  1.00  0.00     0.049 A 
ATOM     60  H   UNL A   1      44.943  28.823  32.327  1.00  0.00     0.167 HD
ATOM     61  C   UNL A   1      44.928  28.429  29.393  1.00  0.00     0.074 A 
ATOM     62  C   UNL A   1      44.306  27.346  30.160  1.00  0.00     0.031 C 
ATOM     63  C   UNL A   1      45.086  29.754  29.681  1.00  0.00     0.037 A 
BRANCH  50  64
ATOM     64  C   UNL A   1      42.749  28.473  34.421  1.00  0.00     0.064 A 
ATOM     65  C   UNL A   1      43.187  28.790  35.719  1.00  0.00     0.173 A 
ATOM     66  C   UNL A   1      42.845  27.108  34.062  1.00  0.00     0.173 A 
ATOM     67  F   UNL A   1      43.171  30.059  36.151  1.00  0.00    -0.203 F 
ATOM     68  C   UNL A   1      43.738  27.824  36.565  1.00  0.00     0.198 A 
ATOM     69  C   UNL A   1      43.340  26.139  34.929  1.00  0.00     0.198 A 
ATOM     70  F   UNL A   1      42.580  26.666  32.827  1.00  0.00    -0.203 F 
ATOM     71  F   UNL A   1      44.256  28.194  37.743  1.00  0.00    -0.200 F 
ATOM     72  C   UNL A   1      43.816  26.501  36.170  1.00  0.00     0.200 A 
ATOM     73  F   UNL A   1      43.428  24.867  34.513  1.00  0.00    -0.200 F 
ATOM     74  F   UNL A   1      44.393  25.585  36.956  1.00  0.00    -0.200 F 
ENDBRANCH  50  64
BRANCH  51  75
ATOM     75  C   UNL A   1      43.128  25.372  26.277  1.00  0.00     0.064 A 
ATOM     76  C   UNL A   1      44.085  25.018  25.306  1.00  0.00     0.173 A 
ATOM     77  C   UNL A   1      42.283  24.333  26.715  1.00  0.00     0.173 A 
ATOM     78  F   UNL A   1      44.969  25.925  24.867  1.00  0.00    -0.203 F 
ATOM     79  C   UNL A   1      44.195  23.707  24.820  1.00  0.00     0.198 A 
ATOM     80  C   UNL A   1      42.394  23.028  26.229  1.00  0.00     0.198 A 
ATOM     81  F   UNL A   1      41.394  24.541  27.696  1.00  0.00    -0.203 F 
ATOM     82  F   UNL A   1      45.154  23.396  23.935  1.00  0.00    -0.200 F 
ATOM     83  C   UNL A   1      43.356  22.711  25.290  1.00  0.00     0.200 A 
ATOM     84  F   UNL A   1      41.603  22.067  26.726  1.00  0.00    -0.200 F 
ATOM     85  F   UNL A   1      43.500  21.445  24.874  1.00  0.00    -0.200 F 
ENDBRANCH  51  75
BRANCH  63  86
ATOM     86  C   UNL A   1      45.524  30.669  28.567  1.00  0.00     0.064 A 
ATOM     87  C   UNL A   1      44.650  31.293  27.658  1.00  0.00     0.173 A 
ATOM     88  C   UNL A   1      46.874  31.034  28.508  1.00  0.00     0.173 A 
ATOM     89  F   UNL A   1      43.329  31.090  27.721  1.00  0.00    -0.203 F 
ATOM     90  C   UNL A   1      45.119  32.194  26.701  1.00  0.00     0.198 A 
ATOM     91  C   UNL A   1      47.334  31.963  27.579  1.00  0.00     0.198 A 
ATOM     92  F   UNL A   1      47.746  30.524  29.391  1.00  0.00    -0.203 F 
ATOM     93  F   UNL A   1      44.266  32.764  25.837  1.00  0.00    -0.200 F 
ATOM     94  C   UNL A   1      46.461  32.529  26.665  1.00  0.00     0.200 A 
ATOM     95  F   UNL A   1      48.624  32.326  27.588  1.00  0.00    -0.200 F 
ATOM     96  F   UNL A   1      46.911  33.420  25.769  1.00  0.00    -0.200 F 
ENDBRANCH  63  86
ENDBRANCH  37  38
ENDBRANCH  30  32
ENDBRANCH  29  30
ENDBRANCH  28  29
ENDBRANCH  27  28
ENDBRANCH   1  27
TORSDOF 17
ENDMDL
