MODEL 1
REMARK VINA RESULT:     -11.2      0.000      0.000
REMARK SMILES [NH3+][C@]1(C(=O)OCCOC(=O)c2ccc(-c3c4nc(c(-c5c(F)c(F)c(F)c(F)c5F)c5ccc([nH]5)c(-c5c(F)c(F)c(F)c(F)c5F)c5nc(c(-c6c(F)c(F)c(F)c(F)c6F)c6ccc3[nH]6)C=C5)C=C4)cc2)CC[C@@H]([N@@H+](CC2CC2)C2CC2)C1
REMARK SMILES IDX 6 1 5 2 3 3 4 4 2 5 74 6 85 7 75 8 76 9 1 10 77 14 78 16
REMARK SMILES IDX 79 17 80 18 81 19 82 20 83 21 84 22 7 23 8 24 9 25 10 26
REMARK SMILES IDX 11 27 12 28 73 29 13 30 72 31 14 32 15 33 16 34 66 35 17 36
REMARK SMILES IDX 71 37 65 38 67 39 18 40 70 41 64 42 63 43 19 45 51 46 31 47
REMARK SMILES IDX 50 48 32 49 35 50 49 51 68 52 33 53 34 54 48 56 69 57 36 58
REMARK SMILES IDX 20 59 21 60 29 61 22 62 23 63 27 64 30 65 24 66 25 67 28 68
REMARK SMILES IDX 26 69 52 70 53 71 61 72 54 73 55 74 59 75 62 76 56 77 57 78
REMARK SMILES IDX 60 79 58 80 37 81 38 82 46 83 39 84 40 85 44 86 47 87 41 88
REMARK SMILES IDX 42 89 45 90 43 91
REMARK H PARENT 1 11 1 12 1 13 77 15 67 44 35 55
REMARK Flexibility Score: inf
ROOT
ATOM      1  C   UNL A   1      31.426  28.679  24.906  1.00  0.00     0.274 C 
ENDROOT
BRANCH   1   2
ATOM      2  O   UNL A   1      31.070  27.641  25.843  1.00  0.00    -0.457 OA
BRANCH   2   3
ATOM      3  C   UNL A   1      31.971  26.621  25.943  1.00  0.00     0.368 C 
ATOM      4  O   UNL A   1      33.166  26.772  26.173  1.00  0.00    -0.245 OA
BRANCH   3   5
ATOM      5  C   UNL A   1      31.332  25.256  25.605  1.00  0.00     0.198 C 
ATOM      6  C   UNL A   1      31.769  24.849  24.197  1.00  0.00     0.087 C 
ATOM      7  C   UNL A   1      31.843  24.084  26.464  1.00  0.00     0.145 C 
ATOM      8  C   UNL A   1      31.529  23.358  24.138  1.00  0.00     0.072 C 
ATOM      9  C   UNL A   1      31.850  22.824  25.547  1.00  0.00     0.191 C 
BRANCH   5  10
ATOM     10  N   UNL A   1      29.857  25.355  25.680  1.00  0.00    -0.343 N 
ATOM     11  H   UNL A   1      29.597  26.003  26.424  1.00  0.00     0.345 HD
ATOM     12  H   UNL A   1      29.463  24.435  25.878  1.00  0.00     0.345 HD
ATOM     13  H   UNL A   1      29.493  25.697  24.791  1.00  0.00     0.345 HD
ENDBRANCH   5  10
BRANCH   9  14
ATOM     14  N   UNL A   1      32.899  21.791  25.623  1.00  0.00    -0.330 N 
ATOM     15  H   UNL A   1      33.007  21.964  24.624  1.00  0.00     0.348 HD
BRANCH  14  16
ATOM     16  C   UNL A   1      34.017  22.104  26.531  1.00  0.00     0.266 C 
BRANCH  16  17
ATOM     17  C   UNL A   1      35.267  22.668  25.889  1.00  0.00     0.044 C 
ATOM     18  C   UNL A   1      35.290  22.976  24.408  1.00  0.00     0.010 C 
ATOM     19  C   UNL A   1      35.434  24.094  25.398  1.00  0.00     0.010 C 
ENDBRANCH  16  17
ENDBRANCH  14  16
BRANCH  14  20
ATOM     20  C   UNL A   1      32.775  20.367  25.321  1.00  0.00     0.184 C 
ATOM     21  C   UNL A   1      32.529  19.893  23.934  1.00  0.00     0.071 C 
ATOM     22  C   UNL A   1      33.799  19.512  24.639  1.00  0.00     0.071 C 
ENDBRANCH  14  20
ENDBRANCH   9  14
ENDBRANCH   3   5
ENDBRANCH   2   3
ENDBRANCH   1   2
BRANCH   1  23
ATOM     23  C   UNL A   1      31.411  30.052  25.575  1.00  0.00     0.275 C 
BRANCH  23  24
ATOM     24  O   UNL A   1      32.157  30.005  26.804  1.00  0.00    -0.458 OA
BRANCH  24  25
ATOM     25  C   UNL A   1      32.811  31.142  27.132  1.00  0.00     0.338 C 
ATOM     26  O   UNL A   1      32.334  32.272  27.137  1.00  0.00    -0.246 OA
BRANCH  25  27
ATOM     27  C   UNL A   1      34.211  30.862  27.544  1.00  0.00     0.060 A 
ATOM     28  C   UNL A   1      34.720  29.564  27.594  1.00  0.00     0.016 A 
ATOM     29  C   UNL A   1      34.993  31.918  28.025  1.00  0.00     0.016 A 
ATOM     30  C   UNL A   1      35.931  29.318  28.255  1.00  0.00     0.010 A 
ATOM     31  C   UNL A   1      36.252  31.674  28.593  1.00  0.00     0.010 A 
ATOM     32  C   UNL A   1      36.717  30.363  28.782  1.00  0.00    -0.014 A 
BRANCH  32  33
ATOM     33  C   UNL A   1      37.958  30.095  29.588  1.00  0.00     0.031 A 
ATOM     34  C   UNL A   1      39.104  29.272  29.023  1.00  0.00     0.074 A 
ATOM     35  C   UNL A   1      38.111  30.608  30.827  1.00  0.00     0.049 A 
ATOM     36  N   UNL A   1      40.145  28.761  29.640  1.00  0.00    -0.248 NA
ATOM     37  C   UNL A   1      39.081  28.980  27.581  1.00  0.00     0.031 C 
ATOM     38  C   UNL A   1      37.154  31.474  31.514  1.00  0.00     0.029 A 
ATOM     39  N   UNL A   1      39.143  30.481  31.730  1.00  0.00    -0.354 N 
ATOM     40  C   UNL A   1      40.856  28.048  28.679  1.00  0.00     0.074 A 
ATOM     41  C   UNL A   1      40.147  28.207  27.430  1.00  0.00     0.031 C 
ATOM     42  C   UNL A   1      37.668  31.855  32.691  1.00  0.00     0.029 A 
ATOM     43  C   UNL A   1      38.929  31.154  32.907  1.00  0.00     0.049 A 
ATOM     44  H   UNL A   1      39.956  29.959  31.548  1.00  0.00     0.167 HD
ATOM     45  C   UNL A   1      41.986  27.312  28.823  1.00  0.00     0.037 A 
ATOM     46  C   UNL A   1      39.617  31.165  34.066  1.00  0.00     0.037 A 
ATOM     47  C   UNL A   1      42.740  27.187  30.045  1.00  0.00     0.049 A 
ATOM     48  C   UNL A   1      40.831  30.299  34.224  1.00  0.00     0.074 A 
ATOM     49  C   UNL A   1      43.895  26.456  30.276  1.00  0.00     0.029 A 
ATOM     50  N   UNL A   1      42.429  27.823  31.234  1.00  0.00    -0.354 N 
ATOM     51  N   UNL A   1      41.414  29.523  33.346  1.00  0.00    -0.248 NA
ATOM     52  C   UNL A   1      41.457  30.278  35.555  1.00  0.00     0.031 C 
ATOM     53  C   UNL A   1      44.267  26.629  31.614  1.00  0.00     0.029 A 
ATOM     54  C   UNL A   1      43.365  27.498  32.204  1.00  0.00     0.049 A 
ATOM     55  H   UNL A   1      41.658  28.420  31.371  1.00  0.00     0.167 HD
ATOM     56  C   UNL A   1      42.466  28.915  34.016  1.00  0.00     0.074 A 
ATOM     57  C   UNL A   1      42.462  29.434  35.367  1.00  0.00     0.031 C 
ATOM     58  C   UNL A   1      43.349  27.998  33.551  1.00  0.00     0.037 A 
BRANCH  45  59
ATOM     59  C   UNL A   1      42.478  26.533  27.636  1.00  0.00     0.064 A 
ATOM     60  C   UNL A   1      43.464  27.034  26.775  1.00  0.00     0.173 A 
ATOM     61  C   UNL A   1      42.019  25.223  27.421  1.00  0.00     0.173 A 
ATOM     62  F   UNL A   1      43.927  28.283  26.932  1.00  0.00    -0.203 F 
ATOM     63  C   UNL A   1      43.971  26.251  25.738  1.00  0.00     0.198 A 
ATOM     64  C   UNL A   1      42.544  24.437  26.399  1.00  0.00     0.198 A 
ATOM     65  F   UNL A   1      41.082  24.696  28.223  1.00  0.00    -0.203 F 
ATOM     66  F   UNL A   1      44.900  26.755  24.915  1.00  0.00    -0.200 F 
ATOM     67  C   UNL A   1      43.519  24.952  25.559  1.00  0.00     0.200 A 
ATOM     68  F   UNL A   1      42.117  23.177  26.237  1.00  0.00    -0.200 F 
ATOM     69  F   UNL A   1      44.023  24.195  24.575  1.00  0.00    -0.200 F 
ENDBRANCH  45  59
BRANCH  46  70
ATOM     70  C   UNL A   1      39.108  31.972  35.205  1.00  0.00     0.064 A 
ATOM     71  C   UNL A   1      38.365  31.380  36.235  1.00  0.00     0.173 A 
ATOM     72  C   UNL A   1      39.381  33.344  35.298  1.00  0.00     0.173 A 
ATOM     73  F   UNL A   1      38.049  30.078  36.170  1.00  0.00    -0.203 F 
ATOM     74  C   UNL A   1      37.924  32.131  37.322  1.00  0.00     0.198 A 
ATOM     75  C   UNL A   1      38.970  34.087  36.401  1.00  0.00     0.198 A 
ATOM     76  F   UNL A   1      40.080  33.957  34.331  1.00  0.00    -0.203 F 
ATOM     77  F   UNL A   1      37.192  31.551  38.282  1.00  0.00    -0.200 F 
ATOM     78  C   UNL A   1      38.240  33.481  37.411  1.00  0.00     0.200 A 
ATOM     79  F   UNL A   1      39.291  35.384  36.490  1.00  0.00    -0.200 F 
ATOM     80  F   UNL A   1      37.836  34.196  38.469  1.00  0.00    -0.200 F 
ENDBRANCH  46  70
BRANCH  58  81
ATOM     81  C   UNL A   1      44.388  27.504  34.511  1.00  0.00     0.064 A 
ATOM     82  C   UNL A   1      44.180  26.350  35.279  1.00  0.00     0.173 A 
ATOM     83  C   UNL A   1      45.603  28.187  34.661  1.00  0.00     0.173 A 
ATOM     84  F   UNL A   1      43.026  25.672  35.182  1.00  0.00    -0.203 F 
ATOM     85  C   UNL A   1      45.142  25.912  36.186  1.00  0.00     0.198 A 
ATOM     86  C   UNL A   1      46.572  27.734  35.553  1.00  0.00     0.198 A 
ATOM     87  F   UNL A   1      45.850  29.293  33.945  1.00  0.00    -0.203 F 
ATOM     88  F   UNL A   1      44.903  24.835  36.946  1.00  0.00    -0.200 F 
ATOM     89  C   UNL A   1      46.337  26.604  36.320  1.00  0.00     0.200 A 
ATOM     90  F   UNL A   1      47.728  28.399  35.677  1.00  0.00    -0.200 F 
ATOM     91  F   UNL A   1      47.258  26.185  37.199  1.00  0.00    -0.200 F 
ENDBRANCH  58  81
ENDBRANCH  32  33
ENDBRANCH  25  27
ENDBRANCH  24  25
ENDBRANCH  23  24
ENDBRANCH   1  23
TORSDOF 16
ENDMDL
MODEL 2
REMARK VINA RESULT:     -11.1      4.365      9.819
REMARK SMILES [NH3+][C@]1(C(=O)OCCOC(=O)c2ccc(-c3c4nc(c(-c5c(F)c(F)c(F)c(F)c5F)c5ccc([nH]5)c(-c5c(F)c(F)c(F)c(F)c5F)c5nc(c(-c6c(F)c(F)c(F)c(F)c6F)c6ccc3[nH]6)C=C5)C=C4)cc2)CC[C@@H]([N@@H+](CC2CC2)C2CC2)C1
REMARK SMILES IDX 6 1 5 2 3 3 4 4 2 5 74 6 85 7 75 8 76 9 1 10 77 14 78 16
REMARK SMILES IDX 79 17 80 18 81 19 82 20 83 21 84 22 7 23 8 24 9 25 10 26
REMARK SMILES IDX 11 27 12 28 73 29 13 30 72 31 14 32 15 33 16 34 66 35 17 36
REMARK SMILES IDX 71 37 65 38 67 39 18 40 70 41 64 42 63 43 19 45 51 46 31 47
REMARK SMILES IDX 50 48 32 49 35 50 49 51 68 52 33 53 34 54 48 56 69 57 36 58
REMARK SMILES IDX 20 59 21 60 29 61 22 62 23 63 27 64 30 65 24 66 25 67 28 68
REMARK SMILES IDX 26 69 52 70 53 71 61 72 54 73 55 74 59 75 62 76 56 77 57 78
REMARK SMILES IDX 60 79 58 80 37 81 38 82 46 83 39 84 40 85 44 86 47 87 41 88
REMARK SMILES IDX 42 89 45 90 43 91
REMARK H PARENT 1 11 1 12 1 13 77 15 67 44 35 55
REMARK Flexibility Score: inf
ROOT
ATOM      1  C   UNL A   1      35.770  19.646  25.003  1.00  0.00     0.274 C 
ENDROOT
BRANCH   1   2
ATOM      2  O   UNL A   1      34.893  20.683  24.515  1.00  0.00    -0.457 OA
BRANCH   2   3
ATOM      3  C   UNL A   1      34.011  21.173  25.433  1.00  0.00     0.368 C 
ATOM      4  O   UNL A   1      32.979  20.605  25.773  1.00  0.00    -0.245 OA
BRANCH   3   5
ATOM      5  C   UNL A   1      34.400  22.592  25.902  1.00  0.00     0.198 C 
ATOM      6  C   UNL A   1      34.827  23.408  24.681  1.00  0.00     0.087 C 
ATOM      7  C   UNL A   1      33.228  23.420  26.463  1.00  0.00     0.145 C 
ATOM      8  C   UNL A   1      34.714  24.849  25.125  1.00  0.00     0.072 C 
ATOM      9  C   UNL A   1      33.497  24.904  26.068  1.00  0.00     0.191 C 
BRANCH   5  10
ATOM     10  N   UNL A   1      35.504  22.516  26.885  1.00  0.00    -0.343 N 
ATOM     11  H   UNL A   1      35.154  22.129  27.761  1.00  0.00     0.345 HD
ATOM     12  H   UNL A   1      35.876  23.451  27.052  1.00  0.00     0.345 HD
ATOM     13  H   UNL A   1      36.244  21.916  26.521  1.00  0.00     0.345 HD
ENDBRANCH   5  10
BRANCH   9  14
ATOM     14  N   UNL A   1      32.419  25.831  25.679  1.00  0.00    -0.330 N 
ATOM     15  H   UNL A   1      32.969  25.960  24.829  1.00  0.00     0.348 HD
BRANCH  14  16
ATOM     16  C   UNL A   1      31.079  25.224  25.582  1.00  0.00     0.266 C 
BRANCH  16  17
ATOM     17  C   UNL A   1      30.616  24.835  24.193  1.00  0.00     0.044 C 
ATOM     18  C   UNL A   1      31.563  24.941  23.017  1.00  0.00     0.010 C 
ATOM     19  C   UNL A   1      31.054  23.593  23.438  1.00  0.00     0.010 C 
ENDBRANCH  16  17
ENDBRANCH  14  16
BRANCH  14  20
ATOM     20  C   UNL A   1      32.390  27.284  25.831  1.00  0.00     0.184 C 
ATOM     21  C   UNL A   1      32.842  28.182  24.737  1.00  0.00     0.071 C 
ATOM     22  C   UNL A   1      31.412  28.224  25.196  1.00  0.00     0.071 C 
ENDBRANCH  14  20
ENDBRANCH   9  14
ENDBRANCH   3   5
ENDBRANCH   2   3
ENDBRANCH   1   2
BRANCH   1  23
ATOM     23  C   UNL A   1      37.225  19.945  24.650  1.00  0.00     0.275 C 
BRANCH  23  24
ATOM     24  O   UNL A   1      37.689  21.078  25.404  1.00  0.00    -0.458 OA
BRANCH  24  25
ATOM     25  C   UNL A   1      38.945  20.977  25.895  1.00  0.00     0.338 C 
ATOM     26  O   UNL A   1      39.676  19.996  25.806  1.00  0.00    -0.246 OA
BRANCH  25  27
ATOM     27  C   UNL A   1      39.380  22.243  26.537  1.00  0.00     0.060 A 
ATOM     28  C   UNL A   1      38.844  23.479  26.170  1.00  0.00     0.016 A 
ATOM     29  C   UNL A   1      40.452  22.207  27.436  1.00  0.00     0.016 A 
ATOM     30  C   UNL A   1      39.477  24.660  26.584  1.00  0.00     0.010 A 
ATOM     31  C   UNL A   1      41.014  23.395  27.927  1.00  0.00     0.010 A 
ATOM     32  C   UNL A   1      40.582  24.646  27.459  1.00  0.00    -0.014 A 
BRANCH  32  33
ATOM     33  C   UNL A   1      41.329  25.901  27.815  1.00  0.00     0.031 A 
ATOM     34  C   UNL A   1      40.694  26.981  28.674  1.00  0.00     0.074 A 
ATOM     35  C   UNL A   1      42.603  26.094  27.412  1.00  0.00     0.049 A 
ATOM     36  N   UNL A   1      41.100  28.210  28.902  1.00  0.00    -0.248 NA
ATOM     37  C   UNL A   1      39.442  26.644  29.370  1.00  0.00     0.031 C 
ATOM     38  C   UNL A   1      43.403  25.147  26.636  1.00  0.00     0.029 A 
ATOM     39  N   UNL A   1      43.456  27.156  27.611  1.00  0.00    -0.354 N 
ATOM     40  C   UNL A   1      40.129  28.798  29.707  1.00  0.00     0.074 A 
ATOM     41  C   UNL A   1      39.124  27.790  29.955  1.00  0.00     0.031 C 
ATOM     42  C   UNL A   1      44.642  25.635  26.486  1.00  0.00     0.029 A 
ATOM     43  C   UNL A   1      44.690  26.986  27.032  1.00  0.00     0.049 A 
ATOM     44  H   UNL A   1      43.206  27.960  28.120  1.00  0.00     0.167 HD
ATOM     45  C   UNL A   1      40.068  30.065  30.185  1.00  0.00     0.037 A 
ATOM     46  C   UNL A   1      45.729  27.831  26.883  1.00  0.00     0.037 A 
ATOM     47  C   UNL A   1      41.086  31.069  29.999  1.00  0.00     0.049 A 
ATOM     48  C   UNL A   1      45.619  29.246  27.367  1.00  0.00     0.074 A 
ATOM     49  C   UNL A   1      41.099  32.380  30.448  1.00  0.00     0.029 A 
ATOM     50  N   UNL A   1      42.280  30.867  29.329  1.00  0.00    -0.354 N 
ATOM     51  N   UNL A   1      44.637  29.827  28.009  1.00  0.00    -0.248 NA
ATOM     52  C   UNL A   1      46.749  30.137  27.063  1.00  0.00     0.031 C 
ATOM     53  C   UNL A   1      42.289  32.980  30.024  1.00  0.00     0.029 A 
ATOM     54  C   UNL A   1      43.034  32.031  29.346  1.00  0.00     0.049 A 
ATOM     55  H   UNL A   1      42.555  30.022  28.904  1.00  0.00     0.167 HD
ATOM     56  C   UNL A   1      45.024  31.149  28.178  1.00  0.00     0.074 A 
ATOM     57  C   UNL A   1      46.343  31.280  27.598  1.00  0.00     0.031 C 
ATOM     58  C   UNL A   1      44.336  32.165  28.754  1.00  0.00     0.037 A 
BRANCH  45  59
ATOM     59  C   UNL A   1      38.833  30.479  30.935  1.00  0.00     0.064 A 
ATOM     60  C   UNL A   1      38.753  30.409  32.332  1.00  0.00     0.173 A 
ATOM     61  C   UNL A   1      37.751  31.046  30.241  1.00  0.00     0.173 A 
ATOM     62  F   UNL A   1      39.755  29.867  33.040  1.00  0.00    -0.203 F 
ATOM     63  C   UNL A   1      37.632  30.889  33.008  1.00  0.00     0.198 A 
ATOM     64  C   UNL A   1      36.644  31.545  30.920  1.00  0.00     0.198 A 
ATOM     65  F   UNL A   1      37.784  31.142  28.903  1.00  0.00    -0.203 F 
ATOM     66  F   UNL A   1      37.567  30.797  34.343  1.00  0.00    -0.200 F 
ATOM     67  C   UNL A   1      36.585  31.466  32.303  1.00  0.00     0.200 A 
ATOM     68  F   UNL A   1      35.641  32.115  30.238  1.00  0.00    -0.200 F 
ATOM     69  F   UNL A   1      35.518  31.946  32.957  1.00  0.00    -0.200 F 
ENDBRANCH  45  59
BRANCH  46  70
ATOM     70  C   UNL A   1      46.942  27.370  26.159  1.00  0.00     0.064 A 
ATOM     71  C   UNL A   1      47.084  27.580  24.781  1.00  0.00     0.173 A 
ATOM     72  C   UNL A   1      47.993  26.738  26.838  1.00  0.00     0.173 A 
ATOM     73  F   UNL A   1      46.089  28.147  24.084  1.00  0.00    -0.203 F 
ATOM     74  C   UNL A   1      48.239  27.183  24.113  1.00  0.00     0.198 A 
ATOM     75  C   UNL A   1      49.162  26.373  26.177  1.00  0.00     0.198 A 
ATOM     76  F   UNL A   1      47.898  26.506  28.157  1.00  0.00    -0.203 F 
ATOM     77  F   UNL A   1      48.343  27.368  22.790  1.00  0.00    -0.200 F 
ATOM     78  C   UNL A   1      49.283  26.594  24.814  1.00  0.00     0.200 A 
ATOM     79  F   UNL A   1      50.172  25.820  26.860  1.00  0.00    -0.200 F 
ATOM     80  F   UNL A   1      50.404  26.235  24.173  1.00  0.00    -0.200 F 
ENDBRANCH  46  70
BRANCH  58  81
ATOM     81  C   UNL A   1      45.004  33.506  28.790  1.00  0.00     0.064 A 
ATOM     82  C   UNL A   1      45.871  33.861  29.833  1.00  0.00     0.173 A 
ATOM     83  C   UNL A   1      44.780  34.443  27.771  1.00  0.00     0.173 A 
ATOM     84  F   UNL A   1      46.103  33.004  30.839  1.00  0.00    -0.203 F 
ATOM     85  C   UNL A   1      46.467  35.119  29.870  1.00  0.00     0.198 A 
ATOM     86  C   UNL A   1      45.395  35.692  27.800  1.00  0.00     0.198 A 
ATOM     87  F   UNL A   1      43.963  34.148  26.749  1.00  0.00    -0.203 F 
ATOM     88  F   UNL A   1      47.254  35.456  30.902  1.00  0.00    -0.200 F 
ATOM     89  C   UNL A   1      46.231  36.031  28.852  1.00  0.00     0.200 A 
ATOM     90  F   UNL A   1      45.171  36.569  26.813  1.00  0.00    -0.200 F 
ATOM     91  F   UNL A   1      46.800  37.244  28.893  1.00  0.00    -0.200 F 
ENDBRANCH  58  81
ENDBRANCH  32  33
ENDBRANCH  25  27
ENDBRANCH  24  25
ENDBRANCH  23  24
ENDBRANCH   1  23
TORSDOF 16
ENDMDL
MODEL 3
REMARK VINA RESULT:     -11.0      5.317      9.021
REMARK SMILES [NH3+][C@]1(C(=O)OCCOC(=O)c2ccc(-c3c4nc(c(-c5c(F)c(F)c(F)c(F)c5F)c5ccc([nH]5)c(-c5c(F)c(F)c(F)c(F)c5F)c5nc(c(-c6c(F)c(F)c(F)c(F)c6F)c6ccc3[nH]6)C=C5)C=C4)cc2)CC[C@@H]([N@@H+](CC2CC2)C2CC2)C1
REMARK SMILES IDX 6 1 5 2 3 3 4 4 2 5 74 6 85 7 75 8 76 9 1 10 77 14 78 16
REMARK SMILES IDX 79 17 80 18 81 19 82 20 83 21 84 22 7 23 8 24 9 25 10 26
REMARK SMILES IDX 11 27 12 28 73 29 13 30 72 31 14 32 15 33 16 34 66 35 17 36
REMARK SMILES IDX 71 37 65 38 67 39 18 40 70 41 64 42 63 43 19 45 51 46 31 47
REMARK SMILES IDX 50 48 32 49 35 50 49 51 68 52 33 53 34 54 48 56 69 57 36 58
REMARK SMILES IDX 20 59 21 60 29 61 22 62 23 63 27 64 30 65 24 66 25 67 28 68
REMARK SMILES IDX 26 69 52 70 53 71 61 72 54 73 55 74 59 75 62 76 56 77 57 78
REMARK SMILES IDX 60 79 58 80 37 81 38 82 46 83 39 84 40 85 44 86 47 87 41 88
REMARK SMILES IDX 42 89 45 90 43 91
REMARK H PARENT 1 11 1 12 1 13 77 15 67 44 35 55
REMARK Flexibility Score: inf
ROOT
ATOM      1  C   UNL A   1      42.003  20.147  26.482  1.00  0.00     0.274 C 
ENDROOT
BRANCH   1   2
ATOM      2  O   UNL A   1      42.457  20.951  25.373  1.00  0.00    -0.457 OA
BRANCH   2   3
ATOM      3  C   UNL A   1      43.779  20.811  25.061  1.00  0.00     0.368 C 
ATOM      4  O   UNL A   1      44.396  19.753  25.120  1.00  0.00    -0.245 OA
BRANCH   3   5
ATOM      5  C   UNL A   1      44.440  22.171  24.748  1.00  0.00     0.198 C 
ATOM      6  C   UNL A   1      43.422  23.281  25.013  1.00  0.00     0.087 C 
ATOM      7  C   UNL A   1      45.597  22.548  25.693  1.00  0.00     0.145 C 
ATOM      8  C   UNL A   1      44.252  24.535  25.162  1.00  0.00     0.072 C 
ATOM      9  C   UNL A   1      45.554  24.097  25.860  1.00  0.00     0.191 C 
BRANCH   5  10
ATOM     10  N   UNL A   1      44.886  22.204  23.337  1.00  0.00    -0.343 N 
ATOM     11  H   UNL A   1      44.238  21.664  22.763  1.00  0.00     0.345 HD
ATOM     12  H   UNL A   1      45.820  21.801  23.265  1.00  0.00     0.345 HD
ATOM     13  H   UNL A   1      44.906  23.170  23.009  1.00  0.00     0.345 HD
ENDBRANCH   5  10
BRANCH   9  14
ATOM     14  N   UNL A   1      45.859  24.767  27.137  1.00  0.00    -0.330 N 
ATOM     15  H   UNL A   1      45.149  25.438  26.844  1.00  0.00     0.348 HD
BRANCH  14  16
ATOM     16  C   UNL A   1      45.622  23.952  28.342  1.00  0.00     0.266 C 
BRANCH  16  17
ATOM     17  C   UNL A   1      44.294  24.154  29.040  1.00  0.00     0.044 C 
ATOM     18  C   UNL A   1      43.172  23.156  28.847  1.00  0.00     0.010 C 
ATOM     19  C   UNL A   1      43.781  23.328  30.207  1.00  0.00     0.010 C 
ENDBRANCH  16  17
ENDBRANCH  14  16
BRANCH  14  20
ATOM     20  C   UNL A   1      46.766  25.890  27.363  1.00  0.00     0.184 C 
ATOM     21  C   UNL A   1      48.191  25.825  26.947  1.00  0.00     0.071 C 
ATOM     22  C   UNL A   1      47.277  26.842  26.325  1.00  0.00     0.071 C 
ENDBRANCH  14  20
ENDBRANCH   9  14
ENDBRANCH   3   5
ENDBRANCH   2   3
ENDBRANCH   1   2
BRANCH   1  23
ATOM     23  C   UNL A   1      40.570  20.504  26.870  1.00  0.00     0.275 C 
BRANCH  23  24
ATOM     24  O   UNL A   1      40.496  21.891  27.242  1.00  0.00    -0.458 OA
BRANCH  24  25
ATOM     25  C   UNL A   1      39.605  22.634  26.546  1.00  0.00     0.338 C 
ATOM     26  O   UNL A   1      38.816  22.213  25.707  1.00  0.00    -0.246 OA
BRANCH  25  27
ATOM     27  C   UNL A   1      39.655  24.062  26.953  1.00  0.00     0.060 A 
ATOM     28  C   UNL A   1      40.137  25.056  26.100  1.00  0.00     0.016 A 
ATOM     29  C   UNL A   1      39.338  24.395  28.274  1.00  0.00     0.016 A 
ATOM     30  C   UNL A   1      40.437  26.326  26.613  1.00  0.00     0.010 A 
ATOM     31  C   UNL A   1      39.544  25.697  28.752  1.00  0.00     0.010 A 
ATOM     32  C   UNL A   1      40.162  26.672  27.951  1.00  0.00    -0.014 A 
BRANCH  32  33
ATOM     33  C   UNL A   1      40.583  27.993  28.533  1.00  0.00     0.031 A 
ATOM     34  C   UNL A   1      42.041  28.290  28.840  1.00  0.00     0.074 A 
ATOM     35  C   UNL A   1      39.683  28.971  28.770  1.00  0.00     0.049 A 
ATOM     36  N   UNL A   1      42.561  29.277  29.535  1.00  0.00    -0.248 NA
ATOM     37  C   UNL A   1      43.049  27.365  28.299  1.00  0.00     0.031 C 
ATOM     38  C   UNL A   1      38.252  28.899  28.483  1.00  0.00     0.029 A 
ATOM     39  N   UNL A   1      39.847  30.231  29.301  1.00  0.00    -0.354 N 
ATOM     40  C   UNL A   1      43.934  29.053  29.562  1.00  0.00     0.074 A 
ATOM     41  C   UNL A   1      44.178  27.853  28.793  1.00  0.00     0.031 C 
ATOM     42  C   UNL A   1      37.683  30.077  28.773  1.00  0.00     0.029 A 
ATOM     43  C   UNL A   1      38.677  30.944  29.394  1.00  0.00     0.049 A 
ATOM     44  H   UNL A   1      40.719  30.586  29.586  1.00  0.00     0.167 HD
ATOM     45  C   UNL A   1      44.905  29.768  30.182  1.00  0.00     0.037 A 
ATOM     46  C   UNL A   1      38.399  32.129  29.972  1.00  0.00     0.037 A 
ATOM     47  C   UNL A   1      44.692  30.998  30.903  1.00  0.00     0.049 A 
ATOM     48  C   UNL A   1      39.474  32.876  30.703  1.00  0.00     0.074 A 
ATOM     49  C   UNL A   1      45.623  31.783  31.565  1.00  0.00     0.029 A 
ATOM     50  N   UNL A   1      43.469  31.632  31.040  1.00  0.00    -0.354 N 
ATOM     51  N   UNL A   1      40.742  32.582  30.836  1.00  0.00    -0.248 NA
ATOM     52  C   UNL A   1      39.064  34.102  31.406  1.00  0.00     0.031 C 
ATOM     53  C   UNL A   1      44.957  32.879  32.126  1.00  0.00     0.029 A 
ATOM     54  C   UNL A   1      43.620  32.795  31.780  1.00  0.00     0.049 A 
ATOM     55  H   UNL A   1      42.619  31.306  30.666  1.00  0.00     0.167 HD
ATOM     56  C   UNL A   1      41.281  33.576  31.640  1.00  0.00     0.074 A 
ATOM     57  C   UNL A   1      40.209  34.500  31.944  1.00  0.00     0.031 C 
ATOM     58  C   UNL A   1      42.551  33.702  32.096  1.00  0.00     0.037 A 
BRANCH  45  59
ATOM     59  C   UNL A   1      46.308  29.229  30.153  1.00  0.00     0.064 A 
ATOM     60  C   UNL A   1      46.769  28.306  31.101  1.00  0.00     0.173 A 
ATOM     61  C   UNL A   1      47.167  29.574  29.097  1.00  0.00     0.173 A 
ATOM     62  F   UNL A   1      45.990  27.953  32.135  1.00  0.00    -0.203 F 
ATOM     63  C   UNL A   1      48.043  27.750  30.995  1.00  0.00     0.198 A 
ATOM     64  C   UNL A   1      48.429  28.999  28.982  1.00  0.00     0.198 A 
ATOM     65  F   UNL A   1      46.769  30.447  28.160  1.00  0.00    -0.203 F 
ATOM     66  F   UNL A   1      48.472  26.883  31.922  1.00  0.00    -0.200 F 
ATOM     67  C   UNL A   1      48.866  28.088  29.931  1.00  0.00     0.200 A 
ATOM     68  F   UNL A   1      49.217  29.316  27.944  1.00  0.00    -0.200 F 
ATOM     69  F   UNL A   1      50.082  27.535  29.820  1.00  0.00    -0.200 F 
ENDBRANCH  45  59
BRANCH  46  70
ATOM     70  C   UNL A   1      37.003  32.637  29.952  1.00  0.00     0.064 A 
ATOM     71  C   UNL A   1      36.141  32.426  31.036  1.00  0.00     0.173 A 
ATOM     72  C   UNL A   1      36.515  33.368  28.859  1.00  0.00     0.173 A 
ATOM     73  F   UNL A   1      36.552  31.701  32.086  1.00  0.00    -0.203 F 
ATOM     74  C   UNL A   1      34.846  32.938  31.030  1.00  0.00     0.198 A 
ATOM     75  C   UNL A   1      35.234  33.909  28.869  1.00  0.00     0.198 A 
ATOM     76  F   UNL A   1      37.301  33.588  27.793  1.00  0.00    -0.203 F 
ATOM     77  F   UNL A   1      34.029  32.701  32.066  1.00  0.00    -0.200 F 
ATOM     78  C   UNL A   1      34.399  33.692  29.954  1.00  0.00     0.200 A 
ATOM     79  F   UNL A   1      34.813  34.650  27.835  1.00  0.00    -0.200 F 
ATOM     80  F   UNL A   1      33.161  34.205  29.961  1.00  0.00    -0.200 F 
ENDBRANCH  46  70
BRANCH  58  81
ATOM     81  C   UNL A   1      42.850  34.885  32.965  1.00  0.00     0.064 A 
ATOM     82  C   UNL A   1      43.268  36.106  32.416  1.00  0.00     0.173 A 
ATOM     83  C   UNL A   1      42.713  34.800  34.358  1.00  0.00     0.173 A 
ATOM     84  F   UNL A   1      43.429  36.230  31.090  1.00  0.00    -0.203 F 
ATOM     85  C   UNL A   1      43.567  37.192  33.235  1.00  0.00     0.198 A 
ATOM     86  C   UNL A   1      42.992  35.895  35.172  1.00  0.00     0.198 A 
ATOM     87  F   UNL A   1      42.312  33.655  34.930  1.00  0.00    -0.203 F 
ATOM     88  F   UNL A   1      44.012  38.334  32.694  1.00  0.00    -0.200 F 
ATOM     89  C   UNL A   1      43.426  37.086  34.611  1.00  0.00     0.200 A 
ATOM     90  F   UNL A   1      42.850  35.793  36.500  1.00  0.00    -0.200 F 
ATOM     91  F   UNL A   1      43.721  38.130  35.397  1.00  0.00    -0.200 F 
ENDBRANCH  58  81
ENDBRANCH  32  33
ENDBRANCH  25  27
ENDBRANCH  24  25
ENDBRANCH  23  24
ENDBRANCH   1  23
TORSDOF 16
ENDMDL
