MODEL 1
REMARK VINA RESULT:     -13.0      0.000      0.000
REMARK SMILES COC(=O)c1ccc2oc(=O)c([C@H]3N=c4ccc(C(=O)OCCOC(=O)c5ccc(-c6c7nc(c(-c8c(F)c(F)c(F)c(F)c8F)c8ccc([nH]8)c(-c8c(F)c(F)c(F)c(F)c8F)c8nc(c(-c9c(F)c(F)c(F)c(F)c9F)c9ccc6[nH]9)C=C8)C=C7)cc5)cc4=N3)cc2c1
REMARK SMILES IDX 22 1 21 2 19 3 20 4 18 5 13 6 14 7 92 8 15 9 91 10 16 11
REMARK SMILES IDX 90 12 17 13 12 14 5 15 6 16 95 17 7 18 94 19 8 20 93 21 9 22
REMARK SMILES IDX 10 23 11 24 3 25 4 26 2 27 1 28 23 29 24 30 25 31 26 32
REMARK SMILES IDX 27 33 28 34 89 35 29 36 88 37 30 38 31 39 32 40 82 41 33 42
REMARK SMILES IDX 87 43 81 44 83 45 34 46 86 47 80 48 79 49 35 51 67 52 47 53
REMARK SMILES IDX 66 54 48 55 51 56 65 57 84 58 49 59 50 60 64 62 85 63 52 64
REMARK SMILES IDX 36 65 37 66 45 67 38 68 39 69 43 70 46 71 40 72 41 73 44 74
REMARK SMILES IDX 42 75 68 76 69 77 77 78 70 79 71 80 75 81 78 82 72 83 73 84
REMARK SMILES IDX 76 85 74 86 53 87 54 88 62 89 55 90 56 91 60 92 63 93 57 94
REMARK SMILES IDX 58 95 61 96 59 97
REMARK H PARENT 83 50 51 61
REMARK Flexibility Score: inf
ROOT
ATOM      1  C   UNL A   1      31.853  29.288  24.384  1.00  0.00     0.275 C 
ENDROOT
BRANCH   1   2
ATOM      2  O   UNL A   1      30.518  28.838  24.071  1.00  0.00    -0.458 OA
BRANCH   2   3
ATOM      3  C   UNL A   1      30.418  27.792  23.211  1.00  0.00     0.338 C 
ATOM      4  O   UNL A   1      30.275  27.873  22.000  1.00  0.00    -0.246 OA
BRANCH   3   5
ATOM      5  C   UNL A   1      30.590  26.492  23.931  1.00  0.00     0.062 A 
ATOM      6  C   UNL A   1      31.710  22.160  24.444  1.00  0.00     0.260 C 
ATOM      7  N   UNL A   1      31.178  22.821  25.669  1.00  0.00    -0.251 NA
ATOM      8  N   UNL A   1      31.745  23.105  23.298  1.00  0.00    -0.251 NA
ATOM      9  C   UNL A   1      30.963  24.023  25.260  1.00  0.00     0.086 A 
ATOM     10  C   UNL A   1      31.263  24.179  23.823  1.00  0.00     0.087 A 
ATOM     11  C   UNL A   1      30.478  25.182  26.016  1.00  0.00     0.031 A 
ATOM     12  C   UNL A   1      30.989  25.457  23.169  1.00  0.00     0.046 A 
ATOM     13  C   UNL A   1      30.332  26.345  25.359  1.00  0.00     0.018 A 
BRANCH   6  14
ATOM     14  C   UNL A   1      33.043  21.522  24.716  1.00  0.00     0.085 A 
ATOM     15  C   UNL A   1      37.786  21.881  25.694  1.00  0.00     0.060 A 
ATOM     16  C   UNL A   1      37.969  20.545  25.308  1.00  0.00     0.019 A 
ATOM     17  C   UNL A   1      36.497  22.434  25.719  1.00  0.00     0.027 A 
ATOM     18  C   UNL A   1      36.867  19.772  24.933  1.00  0.00     0.049 A 
ATOM     19  C   UNL A   1      35.401  21.671  25.316  1.00  0.00     0.019 A 
ATOM     20  C   UNL A   1      35.599  20.352  24.930  1.00  0.00     0.138 A 
ATOM     21  C   UNL A   1      34.068  22.239  25.207  1.00  0.00     0.027 A 
ATOM     22  O   UNL A   1      34.515  19.569  24.494  1.00  0.00    -0.422 OA
ATOM     23  C   UNL A   1      33.225  20.091  24.361  1.00  0.00     0.343 A 
ATOM     24  O   UNL A   1      32.307  19.377  23.968  1.00  0.00    -0.246 OA
BRANCH  15  25
ATOM     25  C   UNL A   1      38.924  22.766  26.049  1.00  0.00     0.337 C 
ATOM     26  O   UNL A   1      40.026  22.355  26.355  1.00  0.00    -0.246 OA
BRANCH  25  27
ATOM     27  O   UNL A   1      38.508  24.058  26.074  1.00  0.00    -0.465 OA
ATOM     28  C   UNL A   1      38.964  24.795  27.211  1.00  0.00     0.282 C 
ENDBRANCH  25  27
ENDBRANCH  15  25
ENDBRANCH   6  14
ENDBRANCH   3   5
ENDBRANCH   2   3
ENDBRANCH   1   2
BRANCH   1  29
ATOM     29  C   UNL A   1      31.876  30.150  25.650  1.00  0.00     0.275 C 
BRANCH  29  30
ATOM     30  O   UNL A   1      33.175  30.119  26.270  1.00  0.00    -0.458 OA
BRANCH  30  31
ATOM     31  C   UNL A   1      33.490  31.207  27.010  1.00  0.00     0.338 C 
ATOM     32  O   UNL A   1      32.788  32.173  27.251  1.00  0.00    -0.246 OA
BRANCH  31  33
ATOM     33  C   UNL A   1      34.796  30.984  27.648  1.00  0.00     0.060 A 
ATOM     34  C   UNL A   1      35.653  32.030  27.976  1.00  0.00     0.016 A 
ATOM     35  C   UNL A   1      35.118  29.677  27.998  1.00  0.00     0.016 A 
ATOM     36  C   UNL A   1      36.856  31.742  28.636  1.00  0.00     0.010 A 
ATOM     37  C   UNL A   1      36.292  29.392  28.688  1.00  0.00     0.010 A 
ATOM     38  C   UNL A   1      37.185  30.420  29.002  1.00  0.00    -0.014 A 
BRANCH  38  39
ATOM     39  C   UNL A   1      38.435  30.109  29.746  1.00  0.00     0.031 A 
ATOM     40  C   UNL A   1      38.650  30.615  31.148  1.00  0.00     0.074 A 
ATOM     41  C   UNL A   1      39.409  29.410  29.132  1.00  0.00     0.049 A 
ATOM     42  N   UNL A   1      39.661  30.404  31.957  1.00  0.00    -0.248 NA
ATOM     43  C   UNL A   1      37.614  31.495  31.708  1.00  0.00     0.031 C 
ATOM     44  C   UNL A   1      39.370  28.953  27.744  1.00  0.00     0.029 A 
ATOM     45  N   UNL A   1      40.617  28.954  29.599  1.00  0.00    -0.354 N 
ATOM     46  C   UNL A   1      39.383  31.125  33.110  1.00  0.00     0.074 A 
ATOM     47  C   UNL A   1      38.142  31.831  32.878  1.00  0.00     0.031 C 
ATOM     48  C   UNL A   1      40.472  28.231  27.488  1.00  0.00     0.029 A 
ATOM     49  C   UNL A   1      41.306  28.195  28.686  1.00  0.00     0.049 A 
ATOM     50  H   UNL A   1      40.957  29.153  30.501  1.00  0.00     0.167 HD
ATOM     51  C   UNL A   1      40.081  31.169  34.270  1.00  0.00     0.037 A 
ATOM     52  C   UNL A   1      42.468  27.524  28.807  1.00  0.00     0.037 A 
ATOM     53  C   UNL A   1      41.299  30.441  34.513  1.00  0.00     0.049 A 
ATOM     54  C   UNL A   1      43.201  27.549  30.119  1.00  0.00     0.074 A 
ATOM     55  C   UNL A   1      42.038  30.359  35.680  1.00  0.00     0.029 A 
ATOM     56  N   UNL A   1      41.956  29.667  33.568  1.00  0.00    -0.354 N 
ATOM     57  N   UNL A   1      42.879  28.157  31.234  1.00  0.00    -0.248 NA
ATOM     58  C   UNL A   1      44.458  26.791  30.191  1.00  0.00     0.031 C 
ATOM     59  C   UNL A   1      43.159  29.561  35.434  1.00  0.00     0.029 A 
ATOM     60  C   UNL A   1      43.098  29.113  34.124  1.00  0.00     0.049 A 
ATOM     61  H   UNL A   1      41.655  29.531  32.640  1.00  0.00     0.167 HD
ATOM     62  C   UNL A   1      43.879  27.843  32.143  1.00  0.00     0.074 A 
ATOM     63  C   UNL A   1      44.811  26.972  31.456  1.00  0.00     0.031 C 
ATOM     64  C   UNL A   1      44.015  28.246  33.430  1.00  0.00     0.037 A 
BRANCH  51  65
ATOM     65  C   UNL A   1      39.526  32.000  35.392  1.00  0.00     0.064 A 
ATOM     66  C   UNL A   1      39.858  33.356  35.524  1.00  0.00     0.173 A 
ATOM     67  C   UNL A   1      38.598  31.461  36.297  1.00  0.00     0.173 A 
ATOM     68  F   UNL A   1      40.743  33.920  34.687  1.00  0.00    -0.203 F 
ATOM     69  C   UNL A   1      39.301  34.138  36.533  1.00  0.00     0.198 A 
ATOM     70  C   UNL A   1      38.021  32.253  37.287  1.00  0.00     0.198 A 
ATOM     71  F   UNL A   1      38.234  30.172  36.208  1.00  0.00    -0.203 F 
ATOM     72  F   UNL A   1      39.661  35.422  36.660  1.00  0.00    -0.200 F 
ATOM     73  C   UNL A   1      38.376  33.588  37.408  1.00  0.00     0.200 A 
ATOM     74  F   UNL A   1      37.114  31.725  38.122  1.00  0.00    -0.200 F 
ATOM     75  F   UNL A   1      37.829  34.345  38.368  1.00  0.00    -0.200 F 
ENDBRANCH  51  65
BRANCH  52  76
ATOM     76  C   UNL A   1      42.961  26.705  27.670  1.00  0.00     0.064 A 
ATOM     77  C   UNL A   1      43.726  27.290  26.652  1.00  0.00     0.173 A 
ATOM     78  C   UNL A   1      42.713  25.327  27.593  1.00  0.00     0.173 A 
ATOM     79  F   UNL A   1      43.973  28.608  26.673  1.00  0.00    -0.203 F 
ATOM     80  C   UNL A   1      44.218  26.530  25.593  1.00  0.00     0.198 A 
ATOM     81  C   UNL A   1      43.226  24.564  26.547  1.00  0.00     0.198 A 
ATOM     82  F   UNL A   1      41.992  24.720  28.547  1.00  0.00    -0.203 F 
ATOM     83  F   UNL A   1      44.921  27.120  24.618  1.00  0.00    -0.200 F 
ATOM     84  C   UNL A   1      43.975  25.166  25.546  1.00  0.00     0.200 A 
ATOM     85  F   UNL A   1      43.001  23.242  26.511  1.00  0.00    -0.200 F 
ATOM     86  F   UNL A   1      44.458  24.432  24.535  1.00  0.00    -0.200 F 
ENDBRANCH  52  76
BRANCH  64  87
ATOM     87  C   UNL A   1      45.207  27.749  34.192  1.00  0.00     0.064 A 
ATOM     88  C   UNL A   1      45.178  26.523  34.872  1.00  0.00     0.173 A 
ATOM     89  C   UNL A   1      46.411  28.468  34.181  1.00  0.00     0.173 A 
ATOM     90  F   UNL A   1      44.046  25.804  34.920  1.00  0.00    -0.203 F 
ATOM     91  C   UNL A   1      46.310  26.040  35.522  1.00  0.00     0.198 A 
ATOM     92  C   UNL A   1      47.548  27.970  34.811  1.00  0.00     0.198 A 
ATOM     93  F   UNL A   1      46.491  29.643  33.538  1.00  0.00    -0.203 F 
ATOM     94  F   UNL A   1      46.252  24.879  36.190  1.00  0.00    -0.200 F 
ATOM     95  C   UNL A   1      47.495  26.758  35.484  1.00  0.00     0.200 A 
ATOM     96  F   UNL A   1      48.696  28.659  34.762  1.00  0.00    -0.200 F 
ATOM     97  F   UNL A   1      48.588  26.283  36.097  1.00  0.00    -0.200 F 
ENDBRANCH  64  87
ENDBRANCH  38  39
ENDBRANCH  31  33
ENDBRANCH  30  31
ENDBRANCH  29  30
ENDBRANCH   1  29
TORSDOF 14
ENDMDL
MODEL 2
REMARK VINA RESULT:     -12.9      1.902      2.980
REMARK SMILES COC(=O)c1ccc2oc(=O)c([C@H]3N=c4ccc(C(=O)OCCOC(=O)c5ccc(-c6c7nc(c(-c8c(F)c(F)c(F)c(F)c8F)c8ccc([nH]8)c(-c8c(F)c(F)c(F)c(F)c8F)c8nc(c(-c9c(F)c(F)c(F)c(F)c9F)c9ccc6[nH]9)C=C8)C=C7)cc5)cc4=N3)cc2c1
REMARK SMILES IDX 22 1 21 2 19 3 20 4 18 5 13 6 14 7 92 8 15 9 91 10 16 11
REMARK SMILES IDX 90 12 17 13 12 14 5 15 6 16 95 17 7 18 94 19 8 20 93 21 9 22
REMARK SMILES IDX 10 23 11 24 3 25 4 26 2 27 1 28 23 29 24 30 25 31 26 32
REMARK SMILES IDX 27 33 28 34 89 35 29 36 88 37 30 38 31 39 32 40 82 41 33 42
REMARK SMILES IDX 87 43 81 44 83 45 34 46 86 47 80 48 79 49 35 51 67 52 47 53
REMARK SMILES IDX 66 54 48 55 51 56 65 57 84 58 49 59 50 60 64 62 85 63 52 64
REMARK SMILES IDX 36 65 37 66 45 67 38 68 39 69 43 70 46 71 40 72 41 73 44 74
REMARK SMILES IDX 42 75 68 76 69 77 77 78 70 79 71 80 75 81 78 82 72 83 73 84
REMARK SMILES IDX 76 85 74 86 53 87 54 88 62 89 55 90 56 91 60 92 63 93 57 94
REMARK SMILES IDX 58 95 61 96 59 97
REMARK H PARENT 83 50 51 61
REMARK Flexibility Score: inf
ROOT
ATOM      1  C   UNL A   1      31.736  29.384  26.560  1.00  0.00     0.275 C 
ENDROOT
BRANCH   1   2
ATOM      2  O   UNL A   1      31.053  28.884  25.392  1.00  0.00    -0.458 OA
BRANCH   2   3
ATOM      3  C   UNL A   1      31.833  28.353  24.415  1.00  0.00     0.338 C 
ATOM      4  O   UNL A   1      32.100  28.882  23.347  1.00  0.00    -0.246 OA
BRANCH   3   5
ATOM      5  C   UNL A   1      32.410  27.042  24.848  1.00  0.00     0.062 A 
ATOM      6  C   UNL A   1      32.385  22.698  26.034  1.00  0.00     0.260 C 
ATOM      7  N   UNL A   1      33.730  23.337  26.014  1.00  0.00    -0.251 NA
ATOM      8  N   UNL A   1      31.326  23.668  25.653  1.00  0.00    -0.251 NA
ATOM      9  C   UNL A   1      33.459  24.536  25.633  1.00  0.00     0.086 A 
ATOM     10  C   UNL A   1      32.008  24.745  25.460  1.00  0.00     0.087 A 
ATOM     11  C   UNL A   1      34.375  25.651  25.374  1.00  0.00     0.031 A 
ATOM     12  C   UNL A   1      31.512  26.077  25.119  1.00  0.00     0.046 A 
ATOM     13  C   UNL A   1      33.845  26.822  24.982  1.00  0.00     0.018 A 
BRANCH   6  14
ATOM     14  C   UNL A   1      32.368  21.455  25.189  1.00  0.00     0.085 A 
ATOM     15  C   UNL A   1      33.534  16.791  24.501  1.00  0.00     0.060 A 
ATOM     16  C   UNL A   1      33.285  16.929  23.127  1.00  0.00     0.019 A 
ATOM     17  C   UNL A   1      33.289  17.865  25.370  1.00  0.00     0.027 A 
ATOM     18  C   UNL A   1      32.809  18.143  22.625  1.00  0.00     0.049 A 
ATOM     19  C   UNL A   1      32.842  19.086  24.864  1.00  0.00     0.019 A 
ATOM     20  C   UNL A   1      32.608  19.209  23.501  1.00  0.00     0.138 A 
ATOM     21  C   UNL A   1      32.697  20.259  25.709  1.00  0.00     0.027 A 
ATOM     22  O   UNL A   1      32.183  20.437  22.962  1.00  0.00    -0.422 OA
ATOM     23  C   UNL A   1      32.050  21.588  23.745  1.00  0.00     0.343 A 
ATOM     24  O   UNL A   1      31.685  22.644  23.235  1.00  0.00    -0.246 OA
BRANCH  15  25
ATOM     25  C   UNL A   1      34.092  15.545  25.083  1.00  0.00     0.337 C 
ATOM     26  O   UNL A   1      35.263  15.406  25.379  1.00  0.00    -0.246 OA
BRANCH  25  27
ATOM     27  O   UNL A   1      33.129  14.590  25.128  1.00  0.00    -0.465 OA
ATOM     28  C   UNL A   1      32.042  14.899  26.003  1.00  0.00     0.282 C 
ENDBRANCH  25  27
ENDBRANCH  15  25
ENDBRANCH   6  14
ENDBRANCH   3   5
ENDBRANCH   2   3
ENDBRANCH   1   2
BRANCH   1  29
ATOM     29  C   UNL A   1      31.811  30.913  26.560  1.00  0.00     0.275 C 
BRANCH  29  30
ATOM     30  O   UNL A   1      33.173  31.363  26.437  1.00  0.00    -0.458 OA
BRANCH  30  31
ATOM     31  C   UNL A   1      33.562  32.291  27.341  1.00  0.00     0.338 C 
ATOM     32  O   UNL A   1      32.939  33.266  27.722  1.00  0.00    -0.246 OA
BRANCH  31  33
ATOM     33  C   UNL A   1      34.828  31.858  27.950  1.00  0.00     0.060 A 
ATOM     34  C   UNL A   1      35.893  32.731  28.155  1.00  0.00     0.016 A 
ATOM     35  C   UNL A   1      34.901  30.544  28.401  1.00  0.00     0.016 A 
ATOM     36  C   UNL A   1      37.046  32.257  28.795  1.00  0.00     0.010 A 
ATOM     37  C   UNL A   1      36.028  30.082  29.072  1.00  0.00     0.010 A 
ATOM     38  C   UNL A   1      37.123  30.929  29.264  1.00  0.00    -0.014 A 
BRANCH  38  39
ATOM     39  C   UNL A   1      38.323  30.430  29.989  1.00  0.00     0.031 A 
ATOM     40  C   UNL A   1      38.595  30.839  31.412  1.00  0.00     0.074 A 
ATOM     41  C   UNL A   1      39.204  29.645  29.340  1.00  0.00     0.049 A 
ATOM     42  N   UNL A   1      39.570  30.466  32.207  1.00  0.00    -0.248 NA
ATOM     43  C   UNL A   1      37.676  31.813  32.017  1.00  0.00     0.031 C 
ATOM     44  C   UNL A   1      39.112  29.262  27.932  1.00  0.00     0.029 A 
ATOM     45  N   UNL A   1      40.345  29.021  29.781  1.00  0.00    -0.354 N 
ATOM     46  C   UNL A   1      39.382  31.161  33.394  1.00  0.00     0.074 A 
ATOM     47  C   UNL A   1      38.238  32.026  33.199  1.00  0.00     0.031 C 
ATOM     48  C   UNL A   1      40.116  28.422  27.639  1.00  0.00     0.029 A 
ATOM     49  C   UNL A   1      40.936  28.225  28.830  1.00  0.00     0.049 A 
ATOM     50  H   UNL A   1      40.704  29.133  30.690  1.00  0.00     0.167 HD
ATOM     51  C   UNL A   1      40.077  31.063  34.553  1.00  0.00     0.037 A 
ATOM     52  C   UNL A   1      42.005  27.410  28.916  1.00  0.00     0.037 A 
ATOM     53  C   UNL A   1      41.194  30.179  34.756  1.00  0.00     0.049 A 
ATOM     54  C   UNL A   1      42.732  27.282  30.225  1.00  0.00     0.074 A 
ATOM     55  C   UNL A   1      41.914  29.950  35.916  1.00  0.00     0.029 A 
ATOM     56  N   UNL A   1      41.751  29.374  33.774  1.00  0.00    -0.354 N 
ATOM     57  N   UNL A   1      42.486  27.872  31.369  1.00  0.00    -0.248 NA
ATOM     58  C   UNL A   1      43.885  26.370  30.258  1.00  0.00     0.031 C 
ATOM     59  C   UNL A   1      42.928  29.031  35.629  1.00  0.00     0.029 A 
ATOM     60  C   UNL A   1      42.814  28.657  34.300  1.00  0.00     0.049 A 
ATOM     61  H   UNL A   1      41.439  29.320  32.842  1.00  0.00     0.167 HD
ATOM     62  C   UNL A   1      43.437  27.394  32.259  1.00  0.00     0.074 A 
ATOM     63  C   UNL A   1      44.254  26.447  31.529  1.00  0.00     0.031 C 
ATOM     64  C   UNL A   1      43.618  27.715  33.562  1.00  0.00     0.037 A 
BRANCH  51  65
ATOM     65  C   UNL A   1      39.626  31.903  35.714  1.00  0.00     0.064 A 
ATOM     66  C   UNL A   1      40.166  33.178  35.940  1.00  0.00     0.173 A 
ATOM     67  C   UNL A   1      38.598  31.466  36.563  1.00  0.00     0.173 A 
ATOM     68  F   UNL A   1      41.153  33.642  35.159  1.00  0.00    -0.203 F 
ATOM     69  C   UNL A   1      39.709  33.976  36.986  1.00  0.00     0.198 A 
ATOM     70  C   UNL A   1      38.124  32.279  37.591  1.00  0.00     0.198 A 
ATOM     71  F   UNL A   1      38.037  30.260  36.384  1.00  0.00    -0.203 F 
ATOM     72  F   UNL A   1      40.265  35.177  37.203  1.00  0.00    -0.200 F 
ATOM     73  C   UNL A   1      38.682  33.530  37.804  1.00  0.00     0.200 A 
ATOM     74  F   UNL A   1      37.120  31.854  38.370  1.00  0.00    -0.200 F 
ATOM     75  F   UNL A   1      38.233  34.306  38.800  1.00  0.00    -0.200 F 
ENDBRANCH  51  65
BRANCH  52  76
ATOM     76  C   UNL A   1      42.395  26.590  27.741  1.00  0.00     0.064 A 
ATOM     77  C   UNL A   1      43.355  27.060  26.833  1.00  0.00     0.173 A 
ATOM     78  C   UNL A   1      41.852  25.318  27.517  1.00  0.00     0.173 A 
ATOM     79  F   UNL A   1      43.889  28.280  26.996  1.00  0.00    -0.203 F 
ATOM     80  C   UNL A   1      43.750  26.292  25.741  1.00  0.00     0.198 A 
ATOM     81  C   UNL A   1      42.266  24.540  26.438  1.00  0.00     0.198 A 
ATOM     82  F   UNL A   1      40.934  24.822  28.361  1.00  0.00    -0.203 F 
ATOM     83  F   UNL A   1      44.648  26.778  24.873  1.00  0.00    -0.200 F 
ATOM     84  C   UNL A   1      43.212  25.029  25.549  1.00  0.00     0.200 A 
ATOM     85  F   UNL A   1      41.753  23.314  26.262  1.00  0.00    -0.200 F 
ATOM     86  F   UNL A   1      43.602  24.285  24.505  1.00  0.00    -0.200 F 
ENDBRANCH  52  76
BRANCH  64  87
ATOM     87  C   UNL A   1      44.737  27.039  34.296  1.00  0.00     0.064 A 
ATOM     88  C   UNL A   1      46.000  27.636  34.411  1.00  0.00     0.173 A 
ATOM     89  C   UNL A   1      44.524  25.818  34.953  1.00  0.00     0.173 A 
ATOM     90  F   UNL A   1      46.256  28.798  33.791  1.00  0.00    -0.203 F 
ATOM     91  C   UNL A   1      47.012  27.030  35.149  1.00  0.00     0.198 A 
ATOM     92  C   UNL A   1      45.531  25.227  35.711  1.00  0.00     0.198 A 
ATOM     93  F   UNL A   1      43.330  25.210  34.879  1.00  0.00    -0.203 F 
ATOM     94  F   UNL A   1      48.222  27.604  35.222  1.00  0.00    -0.200 F 
ATOM     95  C   UNL A   1      46.775  25.832  35.805  1.00  0.00     0.200 A 
ATOM     96  F   UNL A   1      45.295  24.076  36.356  1.00  0.00    -0.200 F 
ATOM     97  F   UNL A   1      47.746  25.259  36.529  1.00  0.00    -0.200 F 
ENDBRANCH  64  87
ENDBRANCH  38  39
ENDBRANCH  31  33
ENDBRANCH  30  31
ENDBRANCH  29  30
ENDBRANCH   1  29
TORSDOF 14
ENDMDL
MODEL 3
REMARK VINA RESULT:     -12.6      5.621     13.389
REMARK SMILES COC(=O)c1ccc2oc(=O)c([C@H]3N=c4ccc(C(=O)OCCOC(=O)c5ccc(-c6c7nc(c(-c8c(F)c(F)c(F)c(F)c8F)c8ccc([nH]8)c(-c8c(F)c(F)c(F)c(F)c8F)c8nc(c(-c9c(F)c(F)c(F)c(F)c9F)c9ccc6[nH]9)C=C8)C=C7)cc5)cc4=N3)cc2c1
REMARK SMILES IDX 22 1 21 2 19 3 20 4 18 5 13 6 14 7 92 8 15 9 91 10 16 11
REMARK SMILES IDX 90 12 17 13 12 14 5 15 6 16 95 17 7 18 94 19 8 20 93 21 9 22
REMARK SMILES IDX 10 23 11 24 3 25 4 26 2 27 1 28 23 29 24 30 25 31 26 32
REMARK SMILES IDX 27 33 28 34 89 35 29 36 88 37 30 38 31 39 32 40 82 41 33 42
REMARK SMILES IDX 87 43 81 44 83 45 34 46 86 47 80 48 79 49 35 51 67 52 47 53
REMARK SMILES IDX 66 54 48 55 51 56 65 57 84 58 49 59 50 60 64 62 85 63 52 64
REMARK SMILES IDX 36 65 37 66 45 67 38 68 39 69 43 70 46 71 40 72 41 73 44 74
REMARK SMILES IDX 42 75 68 76 69 77 77 78 70 79 71 80 75 81 78 82 72 83 73 84
REMARK SMILES IDX 76 85 74 86 53 87 54 88 62 89 55 90 56 91 60 92 63 93 57 94
REMARK SMILES IDX 58 95 61 96 59 97
REMARK H PARENT 83 50 51 61
REMARK Flexibility Score: inf
ROOT
ATOM      1  C   UNL A   1      50.297  24.707  35.832  1.00  0.00     0.275 C 
ENDROOT
BRANCH   1   2
ATOM      2  O   UNL A   1      49.826  24.089  34.616  1.00  0.00    -0.458 OA
BRANCH   2   3
ATOM      3  C   UNL A   1      50.474  24.430  33.473  1.00  0.00     0.338 C 
ATOM      4  O   UNL A   1      51.659  24.239  33.239  1.00  0.00    -0.246 OA
BRANCH   3   5
ATOM      5  C   UNL A   1      49.524  25.009  32.473  1.00  0.00     0.062 A 
ATOM      6  C   UNL A   1      48.090  26.358  28.423  1.00  0.00     0.260 C 
ATOM      7  N   UNL A   1      47.109  26.539  29.530  1.00  0.00    -0.251 NA
ATOM      8  N   UNL A   1      49.356  25.763  28.922  1.00  0.00    -0.251 NA
ATOM      9  C   UNL A   1      47.749  26.067  30.542  1.00  0.00     0.086 A 
ATOM     10  C   UNL A   1      49.116  25.641  30.183  1.00  0.00     0.087 A 
ATOM     11  C   UNL A   1      47.299  25.919  31.930  1.00  0.00     0.031 A 
ATOM     12  C   UNL A   1      50.017  25.165  31.231  1.00  0.00     0.046 A 
ATOM     13  C   UNL A   1      48.161  25.393  32.817  1.00  0.00     0.018 A 
BRANCH   6  14
ATOM     14  C   UNL A   1      47.484  25.576  27.292  1.00  0.00     0.085 A 
ATOM     15  C   UNL A   1      44.522  22.087  25.669  1.00  0.00     0.060 A 
ATOM     16  C   UNL A   1      45.176  22.105  24.428  1.00  0.00     0.019 A 
ATOM     17  C   UNL A   1      44.882  23.005  26.667  1.00  0.00     0.027 A 
ATOM     18  C   UNL A   1      46.198  23.029  24.195  1.00  0.00     0.049 A 
ATOM     19  C   UNL A   1      45.923  23.908  26.443  1.00  0.00     0.019 A 
ATOM     20  C   UNL A   1      46.565  23.908  25.212  1.00  0.00     0.138 A 
ATOM     21  C   UNL A   1      46.412  24.789  27.489  1.00  0.00     0.027 A 
ATOM     22  O   UNL A   1      47.635  24.789  24.971  1.00  0.00    -0.422 OA
ATOM     23  C   UNL A   1      48.140  25.637  25.961  1.00  0.00     0.343 A 
ATOM     24  O   UNL A   1      49.082  26.385  25.713  1.00  0.00    -0.246 OA
BRANCH  15  25
ATOM     25  C   UNL A   1      43.468  21.093  25.994  1.00  0.00     0.337 C 
ATOM     26  O   UNL A   1      42.739  21.177  26.964  1.00  0.00    -0.246 OA
BRANCH  25  27
ATOM     27  O   UNL A   1      43.526  20.060  25.115  1.00  0.00    -0.465 OA
ATOM     28  C   UNL A   1      43.023  18.826  25.632  1.00  0.00     0.282 C 
ENDBRANCH  25  27
ENDBRANCH  15  25
ENDBRANCH   6  14
ENDBRANCH   3   5
ENDBRANCH   2   3
ENDBRANCH   1   2
BRANCH   1  29
ATOM     29  C   UNL A   1      49.172  25.447  36.561  1.00  0.00     0.275 C 
BRANCH  29  30
ATOM     30  O   UNL A   1      47.882  25.044  36.062  1.00  0.00    -0.458 OA
BRANCH  30  31
ATOM     31  C   UNL A   1      46.827  25.395  36.833  1.00  0.00     0.338 C 
ATOM     32  O   UNL A   1      46.749  25.362  38.048  1.00  0.00    -0.246 OA
BRANCH  31  33
ATOM     33  C   UNL A   1      45.796  26.000  35.977  1.00  0.00     0.060 A 
ATOM     34  C   UNL A   1      44.532  25.438  35.823  1.00  0.00     0.016 A 
ATOM     35  C   UNL A   1      46.099  27.220  35.382  1.00  0.00     0.016 A 
ATOM     36  C   UNL A   1      43.583  26.106  35.036  1.00  0.00     0.010 A 
ATOM     37  C   UNL A   1      45.147  27.905  34.634  1.00  0.00     0.010 A 
ATOM     38  C   UNL A   1      43.880  27.348  34.438  1.00  0.00    -0.014 A 
BRANCH  38  39
ATOM     39  C   UNL A   1      42.864  28.089  33.642  1.00  0.00     0.031 A 
ATOM     40  C   UNL A   1      42.703  27.842  32.166  1.00  0.00     0.074 A 
ATOM     41  C   UNL A   1      42.117  29.032  34.246  1.00  0.00     0.049 A 
ATOM     42  N   UNL A   1      41.841  28.369  31.329  1.00  0.00    -0.248 NA
ATOM     43  C   UNL A   1      43.648  26.907  31.537  1.00  0.00     0.031 C 
ATOM     44  C   UNL A   1      42.245  29.441  35.645  1.00  0.00     0.029 A 
ATOM     45  N   UNL A   1      41.094  29.812  33.765  1.00  0.00    -0.354 N 
ATOM     46  C   UNL A   1      42.144  27.834  30.084  1.00  0.00     0.074 A 
ATOM     47  C   UNL A   1      43.306  26.991  30.258  1.00  0.00     0.031 C 
ATOM     48  C   UNL A   1      41.300  30.351  35.925  1.00  0.00     0.029 A 
ATOM     49  C   UNL A   1      40.513  30.607  34.722  1.00  0.00     0.049 A 
ATOM     50  H   UNL A   1      40.805  29.802  32.824  1.00  0.00     0.167 HD
ATOM     51  C   UNL A   1      41.491  28.003  28.909  1.00  0.00     0.037 A 
ATOM     52  C   UNL A   1      39.451  31.432  34.646  1.00  0.00     0.037 A 
ATOM     53  C   UNL A   1      40.316  28.817  28.742  1.00  0.00     0.049 A 
ATOM     54  C   UNL A   1      38.715  31.568  33.342  1.00  0.00     0.074 A 
ATOM     55  C   UNL A   1      39.538  28.990  27.611  1.00  0.00     0.029 A 
ATOM     56  N   UNL A   1      39.747  29.592  29.741  1.00  0.00    -0.354 N 
ATOM     57  N   UNL A   1      38.952  30.983  32.193  1.00  0.00    -0.248 NA
ATOM     58  C   UNL A   1      37.559  32.476  33.324  1.00  0.00     0.031 C 
ATOM     59  C   UNL A   1      38.517  29.894  27.914  1.00  0.00     0.029 A 
ATOM     60  C   UNL A   1      38.634  30.254  29.247  1.00  0.00     0.049 A 
ATOM     61  H   UNL A   1      40.083  29.662  30.664  1.00  0.00     0.167 HD
ATOM     62  C   UNL A   1      37.970  31.435  31.324  1.00  0.00     0.074 A 
ATOM     63  C   UNL A   1      37.120  32.330  32.081  1.00  0.00     0.031 C 
ATOM     64  C   UNL A   1      37.794  31.140  30.013  1.00  0.00     0.037 A 
BRANCH  51  65
ATOM     65  C   UNL A   1      42.006  27.261  27.708  1.00  0.00     0.064 A 
ATOM     66  C   UNL A   1      43.031  27.791  26.910  1.00  0.00     0.173 A 
ATOM     67  C   UNL A   1      41.527  25.980  27.394  1.00  0.00     0.173 A 
ATOM     68  F   UNL A   1      43.521  29.014  27.166  1.00  0.00    -0.203 F 
ATOM     69  C   UNL A   1      43.542  27.078  25.829  1.00  0.00     0.198 A 
ATOM     70  C   UNL A   1      42.061  25.257  26.329  1.00  0.00     0.198 A 
ATOM     71  F   UNL A   1      40.557  25.418  28.131  1.00  0.00    -0.203 F 
ATOM     72  F   UNL A   1      44.497  27.621  25.061  1.00  0.00    -0.200 F 
ATOM     73  C   UNL A   1      43.063  25.808  25.545  1.00  0.00     0.200 A 
ATOM     74  F   UNL A   1      41.610  24.022  26.065  1.00  0.00    -0.200 F 
ATOM     75  F   UNL A   1      43.568  25.116  24.514  1.00  0.00    -0.200 F 
ENDBRANCH  51  65
BRANCH  52  76
ATOM     76  C   UNL A   1      38.976  32.128  35.868  1.00  0.00     0.064 A 
ATOM     77  C   UNL A   1      38.155  31.465  36.790  1.00  0.00     0.173 A 
ATOM     78  C   UNL A   1      39.356  33.446  36.160  1.00  0.00     0.173 A 
ATOM     79  F   UNL A   1      37.750  30.209  36.544  1.00  0.00    -0.203 F 
ATOM     80  C   UNL A   1      37.723  32.096  37.955  1.00  0.00     0.198 A 
ATOM     81  C   UNL A   1      38.943  34.067  37.337  1.00  0.00     0.198 A 
ATOM     82  F   UNL A   1      40.146  34.120  35.311  1.00  0.00    -0.203 F 
ATOM     83  F   UNL A   1      36.914  31.448  38.804  1.00  0.00    -0.200 F 
ATOM     84  C   UNL A   1      38.125  33.393  38.231  1.00  0.00     0.200 A 
ATOM     85  F   UNL A   1      39.344  35.318  37.608  1.00  0.00    -0.200 F 
ATOM     86  F   UNL A   1      37.720  33.996  39.357  1.00  0.00    -0.200 F 
ENDBRANCH  52  76
BRANCH  64  87
ATOM     87  C   UNL A   1      36.637  31.778  29.306  1.00  0.00     0.064 A 
ATOM     88  C   UNL A   1      35.515  31.030  28.923  1.00  0.00     0.173 A 
ATOM     89  C   UNL A   1      36.616  33.161  29.075  1.00  0.00     0.173 A 
ATOM     90  F   UNL A   1      35.492  29.702  29.111  1.00  0.00    -0.203 F 
ATOM     91  C   UNL A   1      34.418  31.643  28.325  1.00  0.00     0.198 A 
ATOM     92  C   UNL A   1      35.507  33.775  28.500  1.00  0.00     0.198 A 
ATOM     93  F   UNL A   1      37.663  33.922  29.431  1.00  0.00    -0.203 F 
ATOM     94  F   UNL A   1      33.367  30.905  27.940  1.00  0.00    -0.200 F 
ATOM     95  C   UNL A   1      34.410  33.015  28.122  1.00  0.00     0.200 A 
ATOM     96  F   UNL A   1      35.496  35.103  28.318  1.00  0.00    -0.200 F 
ATOM     97  F   UNL A   1      33.346  33.605  27.561  1.00  0.00    -0.200 F 
ENDBRANCH  64  87
ENDBRANCH  38  39
ENDBRANCH  31  33
ENDBRANCH  30  31
ENDBRANCH  29  30
ENDBRANCH   1  29
TORSDOF 14
ENDMDL
