MODEL 1
REMARK VINA RESULT:     -12.0      0.000      0.000
REMARK SMILES Cc1oc(CNC(=O)c2ccnn2C)cc1C(=O)OCCOC(=O)c1ccc(-c2c3nc(c(-c4c(F)c(F)c(F)c(F)c4F)c4ccc([nH]4)c(-c4c(F)c(F)c(F)c(F)c4F)c4nc(c(-c5c(F)c(F)c(F)c(F)c5F)c5ccc2[nH]5)C=C4)C=C3)cc1
REMARK SMILES IDX 20 1 19 2 17 3 18 4 16 5 1 6 2 7 3 8 4 9 15 10 5 11 6 12
REMARK SMILES IDX 7 13 8 15 9 16 10 17 13 18 11 19 12 20 14 21 21 22 22 23
REMARK SMILES IDX 23 24 24 25 25 26 26 27 87 28 27 29 86 30 28 31 29 32 30 33
REMARK SMILES IDX 80 34 31 35 85 36 79 37 81 38 32 39 84 40 78 41 77 42 33 44
REMARK SMILES IDX 65 45 45 46 64 47 46 48 49 49 63 50 82 51 47 52 48 53 62 55
REMARK SMILES IDX 83 56 50 57 34 58 35 59 43 60 36 61 37 62 41 63 44 64 38 65
REMARK SMILES IDX 39 66 42 67 40 68 66 69 67 70 75 71 68 72 69 73 73 74 76 75
REMARK SMILES IDX 70 76 71 77 74 78 72 79 51 80 52 81 60 82 53 83 54 84 58 85
REMARK SMILES IDX 61 86 55 87 56 88 59 89 57 90
REMARK H PARENT 6 14 81 43 49 54
REMARK Flexibility Score: inf
ROOT
ATOM      1  C   UNL A   1      31.519  29.580  24.617  1.00  0.00     0.275 C 
ENDROOT
BRANCH   1   2
ATOM      2  O   UNL A   1      30.272  29.534  23.897  1.00  0.00    -0.458 OA
BRANCH   2   3
ATOM      3  C   UNL A   1      30.296  28.832  22.730  1.00  0.00     0.341 C 
ATOM      4  O   UNL A   1      30.007  29.298  21.637  1.00  0.00    -0.246 OA
BRANCH   3   5
ATOM      5  C   UNL A   1      30.830  27.487  22.865  1.00  0.00     0.101 A 
ATOM      6  C   UNL A   1      33.338  27.558  22.027  1.00  0.00     0.088 C 
ATOM      7  C   UNL A   1      32.071  26.978  22.521  1.00  0.00     0.115 A 
ATOM      8  O   UNL A   1      32.110  25.630  22.762  1.00  0.00    -0.464 OA
ATOM      9  C   UNL A   1      30.910  25.277  23.295  1.00  0.00     0.124 A 
ATOM     10  C   UNL A   1      30.119  26.389  23.433  1.00  0.00     0.063 A 
BRANCH   9  11
ATOM     11  C   UNL A   1      30.699  23.877  23.717  1.00  0.00     0.191 C 
BRANCH  11  12
ATOM     12  N   UNL A   1      30.280  23.774  25.093  1.00  0.00    -0.343 N 
ATOM     13  C   UNL A   1      31.072  23.528  26.185  1.00  0.00     0.269 C 
ATOM     14  H   UNL A   1      29.318  23.893  25.269  1.00  0.00     0.164 HD
ATOM     15  O   UNL A   1      30.552  23.436  27.292  1.00  0.00    -0.268 OA
BRANCH  13  16
ATOM     16  C   UNL A   1      32.478  23.327  25.959  1.00  0.00     0.125 A 
ATOM     17  C   UNL A   1      33.486  24.269  26.034  1.00  0.00     0.055 A 
ATOM     18  N   UNL A   1      33.110  22.159  25.609  1.00  0.00    -0.263 N 
ATOM     19  C   UNL A   1      34.678  23.550  25.848  1.00  0.00     0.136 A 
ATOM     20  N   UNL A   1      34.454  22.256  25.617  1.00  0.00    -0.181 NA
ATOM     21  C   UNL A   1      32.517  20.880  25.297  1.00  0.00     0.174 C 
ENDBRANCH  13  16
ENDBRANCH  11  12
ENDBRANCH   9  11
ENDBRANCH   3   5
ENDBRANCH   2   3
ENDBRANCH   1   2
BRANCH   1  22
ATOM     22  C   UNL A   1      31.455  30.612  25.745  1.00  0.00     0.275 C 
BRANCH  22  23
ATOM     23  O   UNL A   1      32.530  30.408  26.684  1.00  0.00    -0.458 OA
BRANCH  23  24
ATOM     24  C   UNL A   1      33.095  31.530  27.187  1.00  0.00     0.338 C 
ATOM     25  O   UNL A   1      32.623  32.651  27.228  1.00  0.00    -0.246 OA
BRANCH  24  26
ATOM     26  C   UNL A   1      34.413  31.205  27.758  1.00  0.00     0.060 A 
ATOM     27  C   UNL A   1      34.696  29.877  28.064  1.00  0.00     0.016 A 
ATOM     28  C   UNL A   1      35.305  32.213  28.120  1.00  0.00     0.016 A 
ATOM     29  C   UNL A   1      35.849  29.545  28.772  1.00  0.00     0.010 A 
ATOM     30  C   UNL A   1      36.492  31.875  28.784  1.00  0.00     0.010 A 
ATOM     31  C   UNL A   1      36.765  30.541  29.139  1.00  0.00    -0.014 A 
BRANCH  31  32
ATOM     32  C   UNL A   1      37.971  30.189  29.942  1.00  0.00     0.031 A 
ATOM     33  C   UNL A   1      39.034  29.298  29.358  1.00  0.00     0.074 A 
ATOM     34  C   UNL A   1      38.136  30.686  31.184  1.00  0.00     0.049 A 
ATOM     35  N   UNL A   1      40.085  28.769  29.935  1.00  0.00    -0.248 NA
ATOM     36  C   UNL A   1      38.896  28.953  27.934  1.00  0.00     0.031 C 
ATOM     37  C   UNL A   1      37.214  31.600  31.858  1.00  0.00     0.029 A 
ATOM     38  N   UNL A   1      39.143  30.493  32.099  1.00  0.00    -0.354 N 
ATOM     39  C   UNL A   1      40.703  27.993  28.963  1.00  0.00     0.074 A 
ATOM     40  C   UNL A   1      39.912  28.120  27.757  1.00  0.00     0.031 C 
ATOM     41  C   UNL A   1      37.709  31.908  33.068  1.00  0.00     0.029 A 
ATOM     42  C   UNL A   1      38.944  31.161  33.283  1.00  0.00     0.049 A 
ATOM     43  H   UNL A   1      39.932  29.931  31.922  1.00  0.00     0.167 HD
ATOM     44  C   UNL A   1      41.826  27.243  29.066  1.00  0.00     0.037 A 
ATOM     45  C   UNL A   1      39.654  31.145  34.428  1.00  0.00     0.037 A 
ATOM     46  C   UNL A   1      42.644  27.153  30.249  1.00  0.00     0.049 A 
ATOM     47  C   UNL A   1      40.881  30.280  34.528  1.00  0.00     0.074 A 
ATOM     48  C   UNL A   1      43.808  26.428  30.441  1.00  0.00     0.029 A 
ATOM     49  N   UNL A   1      42.390  27.822  31.436  1.00  0.00    -0.354 N 
ATOM     50  N   UNL A   1      41.428  29.513  33.618  1.00  0.00    -0.248 NA
ATOM     51  C   UNL A   1      41.577  30.265  35.824  1.00  0.00     0.031 C 
ATOM     52  C   UNL A   1      44.242  26.635  31.756  1.00  0.00     0.029 A 
ATOM     53  C   UNL A   1      43.368  27.518  32.369  1.00  0.00     0.049 A 
ATOM     54  H   UNL A   1      41.626  28.423  31.594  1.00  0.00     0.167 HD
ATOM     55  C   UNL A   1      42.535  28.934  34.223  1.00  0.00     0.074 A 
ATOM     56  C   UNL A   1      42.596  29.454  35.574  1.00  0.00     0.031 C 
ATOM     57  C   UNL A   1      43.419  28.045  33.708  1.00  0.00     0.037 A 
BRANCH  44  58
ATOM     58  C   UNL A   1      42.227  26.426  27.873  1.00  0.00     0.064 A 
ATOM     59  C   UNL A   1      43.198  26.869  26.965  1.00  0.00     0.173 A 
ATOM     60  C   UNL A   1      41.657  25.161  27.663  1.00  0.00     0.173 A 
ATOM     61  F   UNL A   1      43.763  28.077  27.115  1.00  0.00    -0.203 F 
ATOM     62  C   UNL A   1      43.569  26.084  25.875  1.00  0.00     0.198 A 
ATOM     63  C   UNL A   1      42.047  24.368  26.587  1.00  0.00     0.198 A 
ATOM     64  F   UNL A   1      40.728  24.689  28.507  1.00  0.00    -0.203 F 
ATOM     65  F   UNL A   1      44.470  26.544  24.996  1.00  0.00    -0.200 F 
ATOM     66  C   UNL A   1      42.998  24.833  25.691  1.00  0.00     0.200 A 
ATOM     67  F   UNL A   1      41.503  23.156  26.418  1.00  0.00    -0.200 F 
ATOM     68  F   UNL A   1      43.361  24.076  24.645  1.00  0.00    -0.200 F 
ENDBRANCH  44  58
BRANCH  45  69
ATOM     69  C   UNL A   1      39.201  31.952  35.590  1.00  0.00     0.064 A 
ATOM     70  C   UNL A   1      38.330  31.413  36.547  1.00  0.00     0.173 A 
ATOM     71  C   UNL A   1      39.628  33.277  35.768  1.00  0.00     0.173 A 
ATOM     72  F   UNL A   1      37.873  30.160  36.406  1.00  0.00    -0.203 F 
ATOM     73  C   UNL A   1      37.896  32.172  37.632  1.00  0.00     0.198 A 
ATOM     74  C   UNL A   1      39.216  34.024  36.868  1.00  0.00     0.198 A 
ATOM     75  F   UNL A   1      40.459  33.839  34.878  1.00  0.00    -0.203 F 
ATOM     76  F   UNL A   1      37.033  31.646  38.512  1.00  0.00    -0.200 F 
ATOM     77  C   UNL A   1      38.345  33.474  37.795  1.00  0.00     0.200 A 
ATOM     78  F   UNL A   1      39.663  35.277  37.027  1.00  0.00    -0.200 F 
ATOM     79  F   UNL A   1      37.934  34.200  38.844  1.00  0.00    -0.200 F 
ENDBRANCH  45  69
BRANCH  57  80
ATOM     80  C   UNL A   1      44.540  27.597  34.598  1.00  0.00     0.064 A 
ATOM     81  C   UNL A   1      45.747  28.307  34.669  1.00  0.00     0.173 A 
ATOM     82  C   UNL A   1      44.390  26.467  35.414  1.00  0.00     0.173 A 
ATOM     83  F   UNL A   1      45.941  29.385  33.895  1.00  0.00    -0.203 F 
ATOM     84  C   UNL A   1      46.774  27.887  35.510  1.00  0.00     0.198 A 
ATOM     85  C   UNL A   1      45.411  26.062  36.271  1.00  0.00     0.198 A 
ATOM     86  F   UNL A   1      43.252  25.756  35.385  1.00  0.00    -0.203 F 
ATOM     87  F   UNL A   1      47.935  28.555  35.533  1.00  0.00    -0.200 F 
ATOM     88  C   UNL A   1      46.602  26.770  36.314  1.00  0.00     0.200 A 
ATOM     89  F   UNL A   1      45.241  24.987  37.053  1.00  0.00    -0.200 F 
ATOM     90  F   UNL A   1      47.591  26.369  37.125  1.00  0.00    -0.200 F 
ENDBRANCH  57  80
ENDBRANCH  31  32
ENDBRANCH  24  26
ENDBRANCH  23  24
ENDBRANCH  22  23
ENDBRANCH   1  22
TORSDOF 14
ENDMDL
MODEL 2
REMARK VINA RESULT:     -11.9      0.884      2.065
REMARK SMILES Cc1oc(CNC(=O)c2ccnn2C)cc1C(=O)OCCOC(=O)c1ccc(-c2c3nc(c(-c4c(F)c(F)c(F)c(F)c4F)c4ccc([nH]4)c(-c4c(F)c(F)c(F)c(F)c4F)c4nc(c(-c5c(F)c(F)c(F)c(F)c5F)c5ccc2[nH]5)C=C4)C=C3)cc1
REMARK SMILES IDX 20 1 19 2 17 3 18 4 16 5 1 6 2 7 3 8 4 9 15 10 5 11 6 12
REMARK SMILES IDX 7 13 8 15 9 16 10 17 13 18 11 19 12 20 14 21 21 22 22 23
REMARK SMILES IDX 23 24 24 25 25 26 26 27 87 28 27 29 86 30 28 31 29 32 30 33
REMARK SMILES IDX 80 34 31 35 85 36 79 37 81 38 32 39 84 40 78 41 77 42 33 44
REMARK SMILES IDX 65 45 45 46 64 47 46 48 49 49 63 50 82 51 47 52 48 53 62 55
REMARK SMILES IDX 83 56 50 57 34 58 35 59 43 60 36 61 37 62 41 63 44 64 38 65
REMARK SMILES IDX 39 66 42 67 40 68 66 69 67 70 75 71 68 72 69 73 73 74 76 75
REMARK SMILES IDX 70 76 71 77 74 78 72 79 51 80 52 81 60 82 53 83 54 84 58 85
REMARK SMILES IDX 61 86 55 87 56 88 59 89 57 90
REMARK H PARENT 6 14 81 43 49 54
REMARK Flexibility Score: inf
ROOT
ATOM      1  C   UNL A   1      31.356  29.003  24.922  1.00  0.00     0.275 C 
ENDROOT
BRANCH   1   2
ATOM      2  O   UNL A   1      31.378  29.327  23.520  1.00  0.00    -0.458 OA
BRANCH   2   3
ATOM      3  C   UNL A   1      30.929  28.348  22.685  1.00  0.00     0.341 C 
ATOM      4  O   UNL A   1      29.920  28.432  22.001  1.00  0.00    -0.246 OA
BRANCH   3   5
ATOM      5  C   UNL A   1      31.834  27.217  22.570  1.00  0.00     0.101 A 
ATOM      6  C   UNL A   1      34.243  28.193  22.078  1.00  0.00     0.088 C 
ATOM      7  C   UNL A   1      33.185  27.178  22.269  1.00  0.00     0.115 A 
ATOM      8  O   UNL A   1      33.614  25.880  22.195  1.00  0.00    -0.464 OA
ATOM      9  C   UNL A   1      32.552  25.082  22.485  1.00  0.00     0.124 A 
ATOM     10  C   UNL A   1      31.458  25.857  22.779  1.00  0.00     0.063 A 
BRANCH   9  11
ATOM     11  C   UNL A   1      32.749  23.620  22.544  1.00  0.00     0.191 C 
BRANCH  11  12
ATOM     12  N   UNL A   1      33.885  23.250  23.353  1.00  0.00    -0.343 N 
ATOM     13  C   UNL A   1      33.908  23.057  24.710  1.00  0.00     0.269 C 
ATOM     14  H   UNL A   1      34.738  23.123  22.878  1.00  0.00     0.164 HD
ATOM     15  O   UNL A   1      34.971  22.776  25.255  1.00  0.00    -0.268 OA
BRANCH  13  16
ATOM     16  C   UNL A   1      32.682  23.257  25.435  1.00  0.00     0.125 A 
ATOM     17  C   UNL A   1      31.655  22.351  25.618  1.00  0.00     0.055 A 
ATOM     18  N   UNL A   1      32.272  24.394  26.085  1.00  0.00    -0.263 N 
ATOM     19  C   UNL A   1      30.754  22.986  26.489  1.00  0.00     0.136 A 
ATOM     20  N   UNL A   1      31.142  24.224  26.799  1.00  0.00    -0.181 NA
ATOM     21  C   UNL A   1      32.920  25.685  26.126  1.00  0.00     0.174 C 
ENDBRANCH  13  16
ENDBRANCH  11  12
ENDBRANCH   9  11
ENDBRANCH   3   5
ENDBRANCH   2   3
ENDBRANCH   1   2
BRANCH   1  22
ATOM     22  C   UNL A   1      31.598  30.253  25.771  1.00  0.00     0.275 C 
BRANCH  22  23
ATOM     23  O   UNL A   1      32.996  30.384  26.100  1.00  0.00    -0.458 OA
BRANCH  23  24
ATOM     24  C   UNL A   1      33.299  31.325  27.024  1.00  0.00     0.338 C 
ATOM     25  O   UNL A   1      32.622  32.274  27.375  1.00  0.00    -0.246 OA
BRANCH  24  26
ATOM     26  C   UNL A   1      34.607  31.021  27.627  1.00  0.00     0.060 A 
ATOM     27  C   UNL A   1      34.892  29.701  27.967  1.00  0.00     0.016 A 
ATOM     28  C   UNL A   1      35.487  32.042  27.982  1.00  0.00     0.016 A 
ATOM     29  C   UNL A   1      36.033  29.392  28.704  1.00  0.00     0.010 A 
ATOM     30  C   UNL A   1      36.664  31.725  28.675  1.00  0.00     0.010 A 
ATOM     31  C   UNL A   1      36.937  30.401  29.066  1.00  0.00    -0.014 A 
BRANCH  31  32
ATOM     32  C   UNL A   1      38.129  30.073  29.899  1.00  0.00     0.031 A 
ATOM     33  C   UNL A   1      39.217  29.193  29.347  1.00  0.00     0.074 A 
ATOM     34  C   UNL A   1      38.259  30.584  31.139  1.00  0.00     0.049 A 
ATOM     35  N   UNL A   1      40.263  28.685  29.952  1.00  0.00    -0.248 NA
ATOM     36  C   UNL A   1      39.117  28.833  27.924  1.00  0.00     0.031 C 
ATOM     37  C   UNL A   1      37.310  31.491  31.784  1.00  0.00     0.029 A 
ATOM     38  N   UNL A   1      39.248  30.415  32.078  1.00  0.00    -0.354 N 
ATOM     39  C   UNL A   1      40.914  27.908  29.002  1.00  0.00     0.074 A 
ATOM     40  C   UNL A   1      40.148  28.012  27.777  1.00  0.00     0.031 C 
ATOM     41  C   UNL A   1      37.772  31.818  33.001  1.00  0.00     0.029 A 
ATOM     42  C   UNL A   1      39.013  31.090  33.252  1.00  0.00     0.049 A 
ATOM     43  H   UNL A   1      40.048  29.862  31.924  1.00  0.00     0.167 HD
ATOM     44  C   UNL A   1      42.045  27.176  29.137  1.00  0.00     0.037 A 
ATOM     45  C   UNL A   1      39.697  31.095  34.412  1.00  0.00     0.037 A 
ATOM     46  C   UNL A   1      42.837  27.109  30.339  1.00  0.00     0.049 A 
ATOM     47  C   UNL A   1      40.934  30.249  34.548  1.00  0.00     0.074 A 
ATOM     48  C   UNL A   1      44.007  26.402  30.564  1.00  0.00     0.029 A 
ATOM     49  N   UNL A   1      42.546  27.785  31.513  1.00  0.00    -0.354 N 
ATOM     50  N   UNL A   1      41.512  29.482  33.658  1.00  0.00    -0.248 NA
ATOM     51  C   UNL A   1      41.601  30.256  35.859  1.00  0.00     0.031 C 
ATOM     52  C   UNL A   1      44.408  26.627  31.886  1.00  0.00     0.029 A 
ATOM     53  C   UNL A   1      43.508  27.503  32.472  1.00  0.00     0.049 A 
ATOM     54  H   UNL A   1      41.771  28.376  31.649  1.00  0.00     0.167 HD
ATOM     55  C   UNL A   1      42.613  28.924  34.293  1.00  0.00     0.074 A 
ATOM     56  C   UNL A   1      42.636  29.458  35.639  1.00  0.00     0.031 C 
ATOM     57  C   UNL A   1      43.521  28.043  33.806  1.00  0.00     0.037 A 
BRANCH  44  58
ATOM     58  C   UNL A   1      42.484  26.354  27.962  1.00  0.00     0.064 A 
ATOM     59  C   UNL A   1      41.998  25.058  27.741  1.00  0.00     0.173 A 
ATOM     60  C   UNL A   1      43.376  26.892  27.020  1.00  0.00     0.173 A 
ATOM     61  F   UNL A   1      41.154  24.494  28.619  1.00  0.00    -0.203 F 
ATOM     62  C   UNL A   1      42.406  24.321  26.631  1.00  0.00     0.198 A 
ATOM     63  C   UNL A   1      43.762  26.162  25.899  1.00  0.00     0.198 A 
ATOM     64  F   UNL A   1      43.864  28.130  27.184  1.00  0.00    -0.203 F 
ATOM     65  F   UNL A   1      41.960  23.068  26.460  1.00  0.00    -0.200 F 
ATOM     66  C   UNL A   1      43.281  24.876  25.709  1.00  0.00     0.200 A 
ATOM     67  F   UNL A   1      44.598  26.705  25.004  1.00  0.00    -0.200 F 
ATOM     68  F   UNL A   1      43.667  24.168  24.638  1.00  0.00    -0.200 F 
ENDBRANCH  44  58
BRANCH  45  69
ATOM     69  C   UNL A   1      39.207  31.906  35.556  1.00  0.00     0.064 A 
ATOM     70  C   UNL A   1      39.582  33.249  35.702  1.00  0.00     0.173 A 
ATOM     71  C   UNL A   1      38.354  31.357  36.526  1.00  0.00     0.173 A 
ATOM     72  F   UNL A   1      40.418  33.810  34.816  1.00  0.00    -0.203 F 
ATOM     73  C   UNL A   1      39.131  34.008  36.780  1.00  0.00     0.198 A 
ATOM     74  C   UNL A   1      37.881  32.125  37.586  1.00  0.00     0.198 A 
ATOM     75  F   UNL A   1      37.969  30.076  36.432  1.00  0.00    -0.203 F 
ATOM     76  F   UNL A   1      39.536  35.278  36.917  1.00  0.00    -0.200 F 
ATOM     77  C   UNL A   1      38.275  33.448  37.716  1.00  0.00     0.200 A 
ATOM     78  F   UNL A   1      37.045  31.582  38.482  1.00  0.00    -0.200 F 
ATOM     79  F   UNL A   1      37.835  34.182  38.748  1.00  0.00    -0.200 F 
ENDBRANCH  45  69
BRANCH  57  80
ATOM     80  C   UNL A   1      44.628  27.620  34.725  1.00  0.00     0.064 A 
ATOM     81  C   UNL A   1      45.814  28.360  34.833  1.00  0.00     0.173 A 
ATOM     82  C   UNL A   1      44.485  26.482  35.532  1.00  0.00     0.173 A 
ATOM     83  F   UNL A   1      46.002  29.447  34.069  1.00  0.00    -0.203 F 
ATOM     84  C   UNL A   1      46.827  27.962  35.701  1.00  0.00     0.198 A 
ATOM     85  C   UNL A   1      45.491  26.100  36.416  1.00  0.00     0.198 A 
ATOM     86  F   UNL A   1      43.367  25.743  35.468  1.00  0.00    -0.203 F 
ATOM     87  F   UNL A   1      47.970  28.660  35.758  1.00  0.00    -0.200 F 
ATOM     88  C   UNL A   1      46.663  26.837  36.494  1.00  0.00     0.200 A 
ATOM     89  F   UNL A   1      45.327  25.017  37.188  1.00  0.00    -0.200 F 
ATOM     90  F   UNL A   1      47.638  26.458  37.331  1.00  0.00    -0.200 F 
ENDBRANCH  57  80
ENDBRANCH  31  32
ENDBRANCH  24  26
ENDBRANCH  23  24
ENDBRANCH  22  23
ENDBRANCH   1  22
TORSDOF 14
ENDMDL
MODEL 3
REMARK VINA RESULT:     -11.9      4.402      9.760
REMARK SMILES Cc1oc(CNC(=O)c2ccnn2C)cc1C(=O)OCCOC(=O)c1ccc(-c2c3nc(c(-c4c(F)c(F)c(F)c(F)c4F)c4ccc([nH]4)c(-c4c(F)c(F)c(F)c(F)c4F)c4nc(c(-c5c(F)c(F)c(F)c(F)c5F)c5ccc2[nH]5)C=C4)C=C3)cc1
REMARK SMILES IDX 20 1 19 2 17 3 18 4 16 5 1 6 2 7 3 8 4 9 15 10 5 11 6 12
REMARK SMILES IDX 7 13 8 15 9 16 10 17 13 18 11 19 12 20 14 21 21 22 22 23
REMARK SMILES IDX 23 24 24 25 25 26 26 27 87 28 27 29 86 30 28 31 29 32 30 33
REMARK SMILES IDX 80 34 31 35 85 36 79 37 81 38 32 39 84 40 78 41 77 42 33 44
REMARK SMILES IDX 65 45 45 46 64 47 46 48 49 49 63 50 82 51 47 52 48 53 62 55
REMARK SMILES IDX 83 56 50 57 34 58 35 59 43 60 36 61 37 62 41 63 44 64 38 65
REMARK SMILES IDX 39 66 42 67 40 68 66 69 67 70 75 71 68 72 69 73 73 74 76 75
REMARK SMILES IDX 70 76 71 77 74 78 72 79 51 80 52 81 60 82 53 83 54 84 58 85
REMARK SMILES IDX 61 86 55 87 56 88 59 89 57 90
REMARK H PARENT 6 14 81 43 49 54
REMARK Flexibility Score: inf
ROOT
ATOM      1  C   UNL A   1      35.131  21.042  24.737  1.00  0.00     0.275 C 
ENDROOT
BRANCH   1   2
ATOM      2  O   UNL A   1      34.209  20.302  25.559  1.00  0.00    -0.458 OA
BRANCH   2   3
ATOM      3  C   UNL A   1      32.905  20.353  25.168  1.00  0.00     0.341 C 
ATOM      4  O   UNL A   1      32.178  19.376  25.054  1.00  0.00    -0.246 OA
BRANCH   3   5
ATOM      5  C   UNL A   1      32.392  21.704  25.016  1.00  0.00     0.101 A 
ATOM      6  C   UNL A   1      32.611  22.888  27.371  1.00  0.00     0.088 C 
ATOM      7  C   UNL A   1      32.235  22.712  25.952  1.00  0.00     0.115 A 
ATOM      8  O   UNL A   1      31.640  23.802  25.375  1.00  0.00    -0.464 OA
ATOM      9  C   UNL A   1      31.447  23.513  24.061  1.00  0.00     0.124 A 
ATOM     10  C   UNL A   1      31.946  22.265  23.783  1.00  0.00     0.063 A 
BRANCH   9  11
ATOM     11  C   UNL A   1      30.876  24.548  23.176  1.00  0.00     0.191 C 
BRANCH  11  12
ATOM     12  N   UNL A   1      31.700  24.799  22.019  1.00  0.00    -0.343 N 
ATOM     13  C   UNL A   1      32.623  25.800  21.860  1.00  0.00     0.269 C 
ATOM     14  H   UNL A   1      31.587  24.184  21.258  1.00  0.00     0.164 HD
ATOM     15  O   UNL A   1      33.222  25.898  20.793  1.00  0.00    -0.268 OA
BRANCH  13  16
ATOM     16  C   UNL A   1      32.795  26.729  22.944  1.00  0.00     0.125 A 
ATOM     17  C   UNL A   1      33.723  26.667  23.967  1.00  0.00     0.055 A 
ATOM     18  N   UNL A   1      32.066  27.865  23.195  1.00  0.00    -0.263 N 
ATOM     19  C   UNL A   1      33.556  27.860  24.689  1.00  0.00     0.136 A 
ATOM     20  N   UNL A   1      32.564  28.608  24.204  1.00  0.00    -0.181 NA
ATOM     21  C   UNL A   1      30.902  28.354  22.495  1.00  0.00     0.174 C 
ENDBRANCH  13  16
ENDBRANCH  11  12
ENDBRANCH   9  11
ENDBRANCH   3   5
ENDBRANCH   2   3
ENDBRANCH   1   2
BRANCH   1  22
ATOM     22  C   UNL A   1      36.570  20.591  24.995  1.00  0.00     0.275 C 
BRANCH  22  23
ATOM     23  O   UNL A   1      37.305  21.610  25.705  1.00  0.00    -0.458 OA
BRANCH  23  24
ATOM     24  C   UNL A   1      38.610  21.343  25.936  1.00  0.00     0.338 C 
ATOM     25  O   UNL A   1      39.219  20.317  25.691  1.00  0.00    -0.246 OA
BRANCH  24  26
ATOM     26  C   UNL A   1      39.262  22.530  26.514  1.00  0.00     0.060 A 
ATOM     27  C   UNL A   1      38.775  23.789  26.170  1.00  0.00     0.016 A 
ATOM     28  C   UNL A   1      40.426  22.411  27.272  1.00  0.00     0.016 A 
ATOM     29  C   UNL A   1      39.469  24.939  26.541  1.00  0.00     0.010 A 
ATOM     30  C   UNL A   1      41.093  23.570  27.693  1.00  0.00     0.010 A 
ATOM     31  C   UNL A   1      40.637  24.845  27.310  1.00  0.00    -0.014 A 
BRANCH  31  32
ATOM     32  C   UNL A   1      41.403  26.075  27.660  1.00  0.00     0.031 A 
ATOM     33  C   UNL A   1      40.774  27.138  28.519  1.00  0.00     0.074 A 
ATOM     34  C   UNL A   1      42.673  26.233  27.238  1.00  0.00     0.049 A 
ATOM     35  N   UNL A   1      41.220  28.332  28.824  1.00  0.00    -0.248 NA
ATOM     36  C   UNL A   1      39.467  26.819  29.113  1.00  0.00     0.031 C 
ATOM     37  C   UNL A   1      43.427  25.264  26.443  1.00  0.00     0.029 A 
ATOM     38  N   UNL A   1      43.556  27.270  27.424  1.00  0.00    -0.354 N 
ATOM     39  C   UNL A   1      40.230  28.922  29.600  1.00  0.00     0.074 A 
ATOM     40  C   UNL A   1      39.160  27.955  29.723  1.00  0.00     0.031 C 
ATOM     41  C   UNL A   1      44.665  25.739  26.230  1.00  0.00     0.029 A 
ATOM     42  C   UNL A   1      44.770  27.075  26.811  1.00  0.00     0.049 A 
ATOM     43  H   UNL A   1      43.338  28.076  27.946  1.00  0.00     0.167 HD
ATOM     44  C   UNL A   1      40.216  30.156  30.158  1.00  0.00     0.037 A 
ATOM     45  C   UNL A   1      45.835  27.891  26.696  1.00  0.00     0.037 A 
ATOM     46  C   UNL A   1      41.299  31.102  30.080  1.00  0.00     0.049 A 
ATOM     47  C   UNL A   1      45.782  29.268  27.299  1.00  0.00     0.074 A 
ATOM     48  C   UNL A   1      41.378  32.372  30.628  1.00  0.00     0.029 A 
ATOM     49  N   UNL A   1      42.499  30.875  29.425  1.00  0.00    -0.354 N 
ATOM     50  N   UNL A   1      44.823  29.832  27.989  1.00  0.00    -0.248 NA
ATOM     51  C   UNL A   1      46.956  30.129  27.088  1.00  0.00     0.031 C 
ATOM     52  C   UNL A   1      42.615  32.925  30.276  1.00  0.00     0.029 A 
ATOM     53  C   UNL A   1      43.320  31.986  29.543  1.00  0.00     0.049 A 
ATOM     54  H   UNL A   1      42.733  30.049  28.944  1.00  0.00     0.167 HD
ATOM     55  C   UNL A   1      45.277  31.105  28.304  1.00  0.00     0.074 A 
ATOM     56  C   UNL A   1      46.609  31.225  27.748  1.00  0.00     0.031 C 
ATOM     57  C   UNL A   1      44.645  32.090  28.988  1.00  0.00     0.037 A 
BRANCH  44  58
ATOM     58  C   UNL A   1      38.970  30.575  30.882  1.00  0.00     0.064 A 
ATOM     59  C   UNL A   1      38.830  30.417  32.268  1.00  0.00     0.173 A 
ATOM     60  C   UNL A   1      37.918  31.182  30.179  1.00  0.00     0.173 A 
ATOM     61  F   UNL A   1      39.802  29.830  32.982  1.00  0.00    -0.203 F 
ATOM     62  C   UNL A   1      37.672  30.832  32.921  1.00  0.00     0.198 A 
ATOM     63  C   UNL A   1      36.772  31.618  30.838  1.00  0.00     0.198 A 
ATOM     64  F   UNL A   1      38.006  31.361  28.853  1.00  0.00    -0.203 F 
ATOM     65  F   UNL A   1      37.542  30.635  34.241  1.00  0.00    -0.200 F 
ATOM     66  C   UNL A   1      36.648  31.437  32.208  1.00  0.00     0.200 A 
ATOM     67  F   UNL A   1      35.789  32.213  30.149  1.00  0.00    -0.200 F 
ATOM     68  F   UNL A   1      35.536  31.842  32.839  1.00  0.00    -0.200 F 
ENDBRANCH  44  58
BRANCH  45  69
ATOM     69  C   UNL A   1      47.036  27.439  25.947  1.00  0.00     0.064 A 
ATOM     70  C   UNL A   1      48.097  26.800  26.603  1.00  0.00     0.173 A 
ATOM     71  C   UNL A   1      47.147  27.637  24.562  1.00  0.00     0.173 A 
ATOM     72  F   UNL A   1      48.048  26.613  27.930  1.00  0.00    -0.203 F 
ATOM     73  C   UNL A   1      49.229  26.384  25.904  1.00  0.00     0.198 A 
ATOM     74  C   UNL A   1      48.265  27.195  23.860  1.00  0.00     0.198 A 
ATOM     75  F   UNL A   1      46.160  28.246  23.890  1.00  0.00    -0.203 F 
ATOM     76  F   UNL A   1      50.246  25.810  26.560  1.00  0.00    -0.200 F 
ATOM     77  C   UNL A   1      49.308  26.575  24.532  1.00  0.00     0.200 A 
ATOM     78  F   UNL A   1      48.332  27.371  22.534  1.00  0.00    -0.200 F 
ATOM     79  F   UNL A   1      50.393  26.167  23.859  1.00  0.00    -0.200 F 
ENDBRANCH  45  69
BRANCH  57  80
ATOM     80  C   UNL A   1      45.394  33.373  29.194  1.00  0.00     0.064 A 
ATOM     81  C   UNL A   1      45.282  34.439  28.290  1.00  0.00     0.173 A 
ATOM     82  C   UNL A   1      46.204  33.549  30.325  1.00  0.00     0.173 A 
ATOM     83  F   UNL A   1      44.532  34.310  27.185  1.00  0.00    -0.203 F 
ATOM     84  C   UNL A   1      45.974  35.629  28.500  1.00  0.00     0.198 A 
ATOM     85  C   UNL A   1      46.876  34.749  30.544  1.00  0.00     0.198 A 
ATOM     86  F   UNL A   1      46.340  32.560  31.221  1.00  0.00    -0.203 F 
ATOM     87  F   UNL A   1      45.886  36.620  27.603  1.00  0.00    -0.200 F 
ATOM     88  C   UNL A   1      46.764  35.785  29.629  1.00  0.00     0.200 A 
ATOM     89  F   UNL A   1      47.633  34.901  31.640  1.00  0.00    -0.200 F 
ATOM     90  F   UNL A   1      47.427  36.932  29.831  1.00  0.00    -0.200 F 
ENDBRANCH  57  80
ENDBRANCH  31  32
ENDBRANCH  24  26
ENDBRANCH  23  24
ENDBRANCH  22  23
ENDBRANCH   1  22
TORSDOF 14
ENDMDL
