MODEL 1
REMARK VINA RESULT:     -12.0      0.000      0.000
REMARK SMILES CC[C@H](C)[C@H](C(=O)OCCOC(=O)c1ccc(-c2c3nc(c(-c4c(F)c(F)c(F)c(F)c4F)c4ccc([nH]4)c(-c4c(F)c(F)c(F)c(F)c4F)c4nc(c(-c5c(F)c(F)c(F)c(F)c5F)c5ccc2[nH]5)C=C4)C=C3)cc1)N1C(=O)/C(=C/c2ccc(C)o2)SC1=S
REMARK SMILES IDX 9 1 8 2 6 3 7 4 5 5 3 6 4 7 2 8 1 9 77 10 78 11 89 12 79 13
REMARK SMILES IDX 80 14 88 15 90 16 81 17 82 18 83 19 87 20 84 21 85 22 86 23
REMARK SMILES IDX 10 24 11 25 12 26 13 27 14 28 15 29 76 30 16 31 75 32 17 33
REMARK SMILES IDX 18 34 19 35 69 36 20 37 74 38 68 39 70 40 21 41 73 42 67 43
REMARK SMILES IDX 66 44 22 46 54 47 34 48 53 49 35 50 38 51 52 52 71 53 36 54
REMARK SMILES IDX 37 55 51 57 72 58 39 59 23 60 24 61 32 62 25 63 26 64 30 65
REMARK SMILES IDX 33 66 27 67 28 68 31 69 29 70 55 71 56 72 64 73 57 74 58 75
REMARK SMILES IDX 62 76 65 77 59 78 60 79 63 80 61 81 40 82 41 83 49 84 42 85
REMARK SMILES IDX 43 86 47 87 50 88 44 89 45 90 48 91 46 92
REMARK H PARENT 70 45 38 56
REMARK Flexibility Score: inf
ROOT
ATOM      1  C   UNL A   1      36.442  22.832  23.685  1.00  0.00     0.274 C 
ENDROOT
BRANCH   1   2
ATOM      2  O   UNL A   1      35.557  23.642  24.487  1.00  0.00    -0.461 OA
BRANCH   2   3
ATOM      3  C   UNL A   1      34.355  23.097  24.803  1.00  0.00     0.329 C 
ATOM      4  O   UNL A   1      34.065  22.822  25.960  1.00  0.00    -0.250 OA
BRANCH   3   5
ATOM      5  C   UNL A   1      33.382  22.935  23.583  1.00  0.00     0.204 C 
BRANCH   5   6
ATOM      6  C   UNL A   1      32.623  21.550  23.648  1.00  0.00     0.020 C 
ATOM      7  C   UNL A   1      31.881  21.203  22.345  1.00  0.00     0.010 C 
BRANCH   6   8
ATOM      8  C   UNL A   1      33.503  20.417  24.246  1.00  0.00     0.002 C 
ATOM      9  C   UNL A   1      32.877  19.578  25.351  1.00  0.00     0.004 C 
ENDBRANCH   6   8
ENDBRANCH   5   6
BRANCH   5  10
ATOM     10  N   UNL A   1      32.489  24.158  23.475  1.00  0.00    -0.278 N 
ATOM     11  C   UNL A   1      32.895  25.330  22.844  1.00  0.00     0.267 C 
ATOM     12  C   UNL A   1      31.416  24.425  24.315  1.00  0.00     0.149 C 
ATOM     13  O   UNL A   1      34.011  25.618  22.434  1.00  0.00    -0.268 OA
ATOM     14  C   UNL A   1      31.822  26.362  22.888  1.00  0.00     0.084 C 
ATOM     15  S   UNL A   1      30.419  25.673  23.584  1.00  0.00    -0.054 SA
ATOM     16  S   UNL A   1      31.082  23.934  25.872  1.00  0.00    -0.052 S 
ATOM     17  C   UNL A   1      32.027  27.642  22.553  1.00  0.00     0.068 C 
BRANCH  17  18
ATOM     18  C   UNL A   1      31.009  28.612  22.736  1.00  0.00     0.128 A 
ATOM     19  C   UNL A   1      30.663  29.317  23.884  1.00  0.00     0.050 A 
ATOM     20  O   UNL A   1      30.121  28.954  21.748  1.00  0.00    -0.462 OA
ATOM     21  C   UNL A   1      29.489  30.050  23.600  1.00  0.00     0.046 A 
ATOM     22  C   UNL A   1      29.191  29.788  22.284  1.00  0.00     0.101 A 
ATOM     23  C   UNL A   1      28.085  30.193  21.397  1.00  0.00     0.087 C 
ENDBRANCH  17  18
ENDBRANCH   5  10
ENDBRANCH   3   5
ENDBRANCH   2   3
ENDBRANCH   1   2
BRANCH   1  24
ATOM     24  C   UNL A   1      36.931  21.610  24.467  1.00  0.00     0.275 C 
BRANCH  24  25
ATOM     25  O   UNL A   1      37.393  21.949  25.790  1.00  0.00    -0.458 OA
BRANCH  25  26
ATOM     26  C   UNL A   1      38.679  21.625  26.067  1.00  0.00     0.338 C 
ATOM     27  O   UNL A   1      39.228  20.559  25.836  1.00  0.00    -0.246 OA
BRANCH  26  28
ATOM     28  C   UNL A   1      39.412  22.797  26.585  1.00  0.00     0.060 A 
ATOM     29  C   UNL A   1      39.052  24.061  26.103  1.00  0.00     0.016 A 
ATOM     30  C   UNL A   1      40.460  22.670  27.497  1.00  0.00     0.016 A 
ATOM     31  C   UNL A   1      39.704  25.207  26.559  1.00  0.00     0.010 A 
ATOM     32  C   UNL A   1      41.130  23.816  27.936  1.00  0.00     0.010 A 
ATOM     33  C   UNL A   1      40.754  25.089  27.473  1.00  0.00    -0.014 A 
BRANCH  33  34
ATOM     34  C   UNL A   1      41.540  26.278  27.877  1.00  0.00     0.031 A 
ATOM     35  C   UNL A   1      40.859  27.365  28.650  1.00  0.00     0.074 A 
ATOM     36  C   UNL A   1      42.833  26.402  27.527  1.00  0.00     0.049 A 
ATOM     37  N   UNL A   1      41.286  28.564  28.954  1.00  0.00    -0.248 NA
ATOM     38  C   UNL A   1      39.507  27.061  29.143  1.00  0.00     0.031 C 
ATOM     39  C   UNL A   1      43.623  25.389  26.830  1.00  0.00     0.029 A 
ATOM     40  N   UNL A   1      43.701  27.455  27.688  1.00  0.00    -0.354 N 
ATOM     41  C   UNL A   1      40.246  29.166  29.650  1.00  0.00     0.074 A 
ATOM     42  C   UNL A   1      39.163  28.207  29.712  1.00  0.00     0.031 C 
ATOM     43  C   UNL A   1      44.851  25.880  26.596  1.00  0.00     0.029 A 
ATOM     44  C   UNL A   1      44.918  27.258  27.081  1.00  0.00     0.049 A 
ATOM     45  H   UNL A   1      43.474  28.271  28.188  1.00  0.00     0.167 HD
ATOM     46  C   UNL A   1      40.203  30.408  30.186  1.00  0.00     0.037 A 
ATOM     47  C   UNL A   1      45.946  28.109  26.900  1.00  0.00     0.037 A 
ATOM     48  C   UNL A   1      41.286  31.353  30.121  1.00  0.00     0.049 A 
ATOM     49  C   UNL A   1      45.840  29.518  27.427  1.00  0.00     0.074 A 
ATOM     50  C   UNL A   1      41.345  32.633  30.643  1.00  0.00     0.029 A 
ATOM     51  N   UNL A   1      42.497  31.123  29.485  1.00  0.00    -0.354 N 
ATOM     52  N   UNL A   1      44.860  30.085  28.088  1.00  0.00    -0.248 NA
ATOM     53  C   UNL A   1      46.982  30.411  27.176  1.00  0.00     0.031 C 
ATOM     54  C   UNL A   1      42.569  33.198  30.275  1.00  0.00     0.029 A 
ATOM     55  C   UNL A   1      43.300  32.248  29.580  1.00  0.00     0.049 A 
ATOM     56  H   UNL A   1      42.748  30.285  29.034  1.00  0.00     0.167 HD
ATOM     57  C   UNL A   1      45.282  31.379  28.368  1.00  0.00     0.074 A 
ATOM     58  C   UNL A   1      46.607  31.518  27.802  1.00  0.00     0.031 C 
ATOM     59  C   UNL A   1      44.630  32.362  29.036  1.00  0.00     0.037 A 
BRANCH  46  60
ATOM     60  C   UNL A   1      38.930  30.830  30.858  1.00  0.00     0.064 A 
ATOM     61  C   UNL A   1      38.746  30.702  32.243  1.00  0.00     0.173 A 
ATOM     62  C   UNL A   1      37.891  31.403  30.109  1.00  0.00     0.173 A 
ATOM     63  F   UNL A   1      39.703  30.148  33.004  1.00  0.00    -0.203 F 
ATOM     64  C   UNL A   1      37.559  31.106  32.847  1.00  0.00     0.198 A 
ATOM     65  C   UNL A   1      36.719  31.836  30.721  1.00  0.00     0.198 A 
ATOM     66  F   UNL A   1      38.017  31.553  28.782  1.00  0.00    -0.203 F 
ATOM     67  F   UNL A   1      37.385  30.929  34.165  1.00  0.00    -0.200 F 
ATOM     68  C   UNL A   1      36.550  31.680  32.088  1.00  0.00     0.200 A 
ATOM     69  F   UNL A   1      35.752  32.402  29.987  1.00  0.00    -0.200 F 
ATOM     70  F   UNL A   1      35.412  32.076  32.673  1.00  0.00    -0.200 F 
ENDBRANCH  46  60
BRANCH  47  71
ATOM     71  C   UNL A   1      47.159  27.666  26.162  1.00  0.00     0.064 A 
ATOM     72  C   UNL A   1      47.218  27.736  24.764  1.00  0.00     0.173 A 
ATOM     73  C   UNL A   1      48.273  27.142  26.836  1.00  0.00     0.173 A 
ATOM     74  F   UNL A   1      46.167  28.201  24.073  1.00  0.00    -0.203 F 
ATOM     75  C   UNL A   1      48.336  27.281  24.065  1.00  0.00     0.198 A 
ATOM     76  C   UNL A   1      49.403  26.717  26.138  1.00  0.00     0.198 A 
ATOM     77  F   UNL A   1      48.267  27.045  28.173  1.00  0.00    -0.203 F 
ATOM     78  F   UNL A   1      48.343  27.311  22.726  1.00  0.00    -0.200 F 
ATOM     79  C   UNL A   1      49.429  26.778  24.754  1.00  0.00     0.200 A 
ATOM     80  F   UNL A   1      50.460  26.239  26.808  1.00  0.00    -0.200 F 
ATOM     81  F   UNL A   1      50.503  26.342  24.082  1.00  0.00    -0.200 F 
ENDBRANCH  47  71
BRANCH  59  82
ATOM     82  C   UNL A   1      45.355  33.658  29.262  1.00  0.00     0.064 A 
ATOM     83  C   UNL A   1      46.204  33.852  30.359  1.00  0.00     0.173 A 
ATOM     84  C   UNL A   1      45.262  34.688  28.311  1.00  0.00     0.173 A 
ATOM     85  F   UNL A   1      46.317  32.904  31.302  1.00  0.00    -0.203 F 
ATOM     86  C   UNL A   1      46.926  35.035  30.504  1.00  0.00     0.198 A 
ATOM     87  C   UNL A   1      46.008  35.855  28.443  1.00  0.00     0.198 A 
ATOM     88  F   UNL A   1      44.469  34.549  27.238  1.00  0.00    -0.203 F 
ATOM     89  F   UNL A   1      47.708  35.213  31.577  1.00  0.00    -0.200 F 
ATOM     90  C   UNL A   1      46.837  36.029  29.541  1.00  0.00     0.200 A 
ATOM     91  F   UNL A   1      45.933  36.807  27.502  1.00  0.00    -0.200 F 
ATOM     92  F   UNL A   1      47.548  37.157  29.671  1.00  0.00    -0.200 F 
ENDBRANCH  59  82
ENDBRANCH  33  34
ENDBRANCH  26  28
ENDBRANCH  25  26
ENDBRANCH  24  25
ENDBRANCH   1  24
TORSDOF 15
ENDMDL
MODEL 2
REMARK VINA RESULT:     -12.0      4.276      9.842
REMARK SMILES CC[C@H](C)[C@H](C(=O)OCCOC(=O)c1ccc(-c2c3nc(c(-c4c(F)c(F)c(F)c(F)c4F)c4ccc([nH]4)c(-c4c(F)c(F)c(F)c(F)c4F)c4nc(c(-c5c(F)c(F)c(F)c(F)c5F)c5ccc2[nH]5)C=C4)C=C3)cc1)N1C(=O)/C(=C/c2ccc(C)o2)SC1=S
REMARK SMILES IDX 9 1 8 2 6 3 7 4 5 5 3 6 4 7 2 8 1 9 77 10 78 11 89 12 79 13
REMARK SMILES IDX 80 14 88 15 90 16 81 17 82 18 83 19 87 20 84 21 85 22 86 23
REMARK SMILES IDX 10 24 11 25 12 26 13 27 14 28 15 29 76 30 16 31 75 32 17 33
REMARK SMILES IDX 18 34 19 35 69 36 20 37 74 38 68 39 70 40 21 41 73 42 67 43
REMARK SMILES IDX 66 44 22 46 54 47 34 48 53 49 35 50 38 51 52 52 71 53 36 54
REMARK SMILES IDX 37 55 51 57 72 58 39 59 23 60 24 61 32 62 25 63 26 64 30 65
REMARK SMILES IDX 33 66 27 67 28 68 31 69 29 70 55 71 56 72 64 73 57 74 58 75
REMARK SMILES IDX 62 76 65 77 59 78 60 79 63 80 61 81 40 82 41 83 49 84 42 85
REMARK SMILES IDX 43 86 47 87 50 88 44 89 45 90 48 91 46 92
REMARK H PARENT 70 45 38 56
REMARK Flexibility Score: inf
ROOT
ATOM      1  C   UNL A   1      31.843  28.662  27.621  1.00  0.00     0.274 C 
ENDROOT
BRANCH   1   2
ATOM      2  O   UNL A   1      30.985  27.655  27.046  1.00  0.00    -0.461 OA
BRANCH   2   3
ATOM      3  C   UNL A   1      31.491  26.951  26.002  1.00  0.00     0.329 C 
ATOM      4  O   UNL A   1      32.682  26.993  25.723  1.00  0.00    -0.250 OA
BRANCH   3   5
ATOM      5  C   UNL A   1      30.440  26.049  25.267  1.00  0.00     0.204 C 
BRANCH   5   6
ATOM      6  C   UNL A   1      29.865  26.780  23.989  1.00  0.00     0.020 C 
ATOM      7  C   UNL A   1      28.333  26.689  23.876  1.00  0.00     0.010 C 
BRANCH   6   8
ATOM      8  C   UNL A   1      30.473  28.197  23.791  1.00  0.00     0.002 C 
ATOM      9  C   UNL A   1      29.723  29.137  22.858  1.00  0.00     0.004 C 
ENDBRANCH   6   8
ENDBRANCH   5   6
BRANCH   5  10
ATOM     10  N   UNL A   1      31.035  24.674  25.012  1.00  0.00    -0.278 N 
ATOM     11  C   UNL A   1      31.346  23.789  26.040  1.00  0.00     0.267 C 
ATOM     12  C   UNL A   1      31.723  24.316  23.860  1.00  0.00     0.149 C 
ATOM     13  O   UNL A   1      31.343  24.002  27.244  1.00  0.00    -0.268 OA
ATOM     14  C   UNL A   1      31.914  22.521  25.503  1.00  0.00     0.084 C 
ATOM     15  S   UNL A   1      31.846  22.565  23.794  1.00  0.00    -0.054 SA
ATOM     16  S   UNL A   1      32.559  25.228  22.744  1.00  0.00    -0.052 S 
ATOM     17  C   UNL A   1      32.496  21.598  26.277  1.00  0.00     0.068 C 
BRANCH  17  18
ATOM     18  C   UNL A   1      33.138  20.471  25.704  1.00  0.00     0.128 A 
ATOM     19  C   UNL A   1      34.443  20.342  25.242  1.00  0.00     0.050 A 
ATOM     20  O   UNL A   1      32.482  19.294  25.447  1.00  0.00    -0.462 OA
ATOM     21  C   UNL A   1      34.557  19.077  24.623  1.00  0.00     0.046 A 
ATOM     22  C   UNL A   1      33.329  18.477  24.766  1.00  0.00     0.101 A 
ATOM     23  C   UNL A   1      32.773  17.190  24.310  1.00  0.00     0.087 C 
ENDBRANCH  17  18
ENDBRANCH   5  10
ENDBRANCH   3   5
ENDBRANCH   2   3
ENDBRANCH   1   2
BRANCH   1  24
ATOM     24  C   UNL A   1      31.776  29.966  26.820  1.00  0.00     0.275 C 
BRANCH  24  25
ATOM     25  O   UNL A   1      33.081  30.465  26.466  1.00  0.00    -0.458 OA
BRANCH  25  26
ATOM     26  C   UNL A   1      33.503  31.552  27.154  1.00  0.00     0.338 C 
ATOM     27  O   UNL A   1      32.895  32.600  27.309  1.00  0.00    -0.246 OA
BRANCH  26  28
ATOM     28  C   UNL A   1      34.781  31.273  27.838  1.00  0.00     0.060 A 
ATOM     29  C   UNL A   1      34.988  29.983  28.341  1.00  0.00     0.016 A 
ATOM     30  C   UNL A   1      35.753  32.257  28.021  1.00  0.00     0.016 A 
ATOM     31  C   UNL A   1      36.178  29.656  28.990  1.00  0.00     0.010 A 
ATOM     32  C   UNL A   1      36.936  31.937  28.693  1.00  0.00     0.010 A 
ATOM     33  C   UNL A   1      37.157  30.635  29.178  1.00  0.00    -0.014 A 
BRANCH  33  34
ATOM     34  C   UNL A   1      38.374  30.345  29.971  1.00  0.00     0.031 A 
ATOM     35  C   UNL A   1      39.389  29.394  29.413  1.00  0.00     0.074 A 
ATOM     36  C   UNL A   1      38.553  30.892  31.186  1.00  0.00     0.049 A 
ATOM     37  N   UNL A   1      40.430  28.853  29.992  1.00  0.00    -0.248 NA
ATOM     38  C   UNL A   1      39.199  28.992  28.011  1.00  0.00     0.031 C 
ATOM     39  C   UNL A   1      37.671  31.876  31.810  1.00  0.00     0.029 A 
ATOM     40  N   UNL A   1      39.530  30.670  32.127  1.00  0.00    -0.354 N 
ATOM     41  C   UNL A   1      41.004  28.028  29.034  1.00  0.00     0.074 A 
ATOM     42  C   UNL A   1      40.189  28.127  27.842  1.00  0.00     0.031 C 
ATOM     43  C   UNL A   1      38.130  32.152  33.042  1.00  0.00     0.029 A 
ATOM     44  C   UNL A   1      39.306  31.327  33.312  1.00  0.00     0.049 A 
ATOM     45  H   UNL A   1      40.313  30.096  31.967  1.00  0.00     0.167 HD
ATOM     46  C   UNL A   1      42.111  27.257  29.145  1.00  0.00     0.037 A 
ATOM     47  C   UNL A   1      39.953  31.236  34.491  1.00  0.00     0.037 A 
ATOM     48  C   UNL A   1      42.915  27.166  30.335  1.00  0.00     0.049 A 
ATOM     49  C   UNL A   1      41.129  30.301  34.618  1.00  0.00     0.074 A 
ATOM     50  C   UNL A   1      44.063  26.422  30.544  1.00  0.00     0.029 A 
ATOM     51  N   UNL A   1      42.649  27.835  31.520  1.00  0.00    -0.354 N 
ATOM     52  N   UNL A   1      41.675  29.526  33.712  1.00  0.00    -0.248 NA
ATOM     53  C   UNL A   1      41.778  30.223  35.936  1.00  0.00     0.031 C 
ATOM     54  C   UNL A   1      44.459  26.596  31.873  1.00  0.00     0.029 A 
ATOM     55  C   UNL A   1      43.597  27.500  32.473  1.00  0.00     0.049 A 
ATOM     56  H   UNL A   1      41.898  28.455  31.663  1.00  0.00     0.167 HD
ATOM     57  C   UNL A   1      42.749  28.903  34.334  1.00  0.00     0.074 A 
ATOM     58  C   UNL A   1      42.781  29.388  35.697  1.00  0.00     0.031 C 
ATOM     59  C   UNL A   1      43.633  28.013  33.819  1.00  0.00     0.037 A 
BRANCH  46  60
ATOM     60  C   UNL A   1      42.496  26.422  27.961  1.00  0.00     0.064 A 
ATOM     61  C   UNL A   1      41.932  25.157  27.730  1.00  0.00     0.173 A 
ATOM     62  C   UNL A   1      43.419  26.908  27.022  1.00  0.00     0.173 A 
ATOM     63  F   UNL A   1      41.055  24.640  28.604  1.00  0.00    -0.203 F 
ATOM     64  C   UNL A   1      42.299  24.402  26.620  1.00  0.00     0.198 A 
ATOM     65  C   UNL A   1      43.758  26.164  25.897  1.00  0.00     0.198 A 
ATOM     66  F   UNL A   1      43.984  28.113  27.192  1.00  0.00    -0.203 F 
ATOM     67  F   UNL A   1      41.785  23.176  26.446  1.00  0.00    -0.200 F 
ATOM     68  C   UNL A   1      43.205  24.908  25.701  1.00  0.00     0.200 A 
ATOM     69  F   UNL A   1      44.624  26.661  25.003  1.00  0.00    -0.200 F 
ATOM     70  F   UNL A   1      43.550  24.183  24.628  1.00  0.00    -0.200 F 
ENDBRANCH  46  60
BRANCH  47  71
ATOM     71  C   UNL A   1      39.488  32.031  35.659  1.00  0.00     0.064 A 
ATOM     72  C   UNL A   1      40.036  33.290  35.939  1.00  0.00     0.173 A 
ATOM     73  C   UNL A   1      38.505  31.539  36.532  1.00  0.00     0.173 A 
ATOM     74  F   UNL A   1      41.000  33.789  35.152  1.00  0.00    -0.203 F 
ATOM     75  C   UNL A   1      39.634  34.018  37.058  1.00  0.00     0.198 A 
ATOM     76  C   UNL A   1      38.081  32.283  37.632  1.00  0.00     0.198 A 
ATOM     77  F   UNL A   1      37.953  30.337  36.315  1.00  0.00    -0.203 F 
ATOM     78  F   UNL A   1      40.213  35.195  37.331  1.00  0.00    -0.200 F 
ATOM     79  C   UNL A   1      38.653  33.517  37.899  1.00  0.00     0.200 A 
ATOM     80  F   UNL A   1      37.127  31.798  38.438  1.00  0.00    -0.200 F 
ATOM     81  F   UNL A   1      38.266  34.219  38.973  1.00  0.00    -0.200 F 
ENDBRANCH  47  71
BRANCH  59  82
ATOM     82  C   UNL A   1      44.756  27.548  34.702  1.00  0.00     0.064 A 
ATOM     83  C   UNL A   1      44.657  26.387  35.480  1.00  0.00     0.173 A 
ATOM     84  C   UNL A   1      45.982  28.235  34.698  1.00  0.00     0.173 A 
ATOM     85  F   UNL A   1      43.503  25.703  35.529  1.00  0.00    -0.203 F 
ATOM     86  C   UNL A   1      45.739  25.934  36.230  1.00  0.00     0.198 A 
ATOM     87  C   UNL A   1      47.070  27.763  35.425  1.00  0.00     0.198 A 
ATOM     88  F   UNL A   1      46.131  29.348  33.964  1.00  0.00    -0.203 F 
ATOM     89  F   UNL A   1      45.614  24.839  36.991  1.00  0.00    -0.200 F 
ATOM     90  C   UNL A   1      46.948  26.615  36.192  1.00  0.00     0.200 A 
ATOM     91  F   UNL A   1      48.241  28.413  35.373  1.00  0.00    -0.200 F 
ATOM     92  F   UNL A   1      47.994  26.166  36.898  1.00  0.00    -0.200 F 
ENDBRANCH  59  82
ENDBRANCH  33  34
ENDBRANCH  26  28
ENDBRANCH  25  26
ENDBRANCH  24  25
ENDBRANCH   1  24
TORSDOF 15
ENDMDL
MODEL 3
REMARK VINA RESULT:     -11.9      3.183      7.931
REMARK SMILES CC[C@H](C)[C@H](C(=O)OCCOC(=O)c1ccc(-c2c3nc(c(-c4c(F)c(F)c(F)c(F)c4F)c4ccc([nH]4)c(-c4c(F)c(F)c(F)c(F)c4F)c4nc(c(-c5c(F)c(F)c(F)c(F)c5F)c5ccc2[nH]5)C=C4)C=C3)cc1)N1C(=O)/C(=C/c2ccc(C)o2)SC1=S
REMARK SMILES IDX 9 1 8 2 6 3 7 4 5 5 3 6 4 7 2 8 1 9 77 10 78 11 89 12 79 13
REMARK SMILES IDX 80 14 88 15 90 16 81 17 82 18 83 19 87 20 84 21 85 22 86 23
REMARK SMILES IDX 10 24 11 25 12 26 13 27 14 28 15 29 76 30 16 31 75 32 17 33
REMARK SMILES IDX 18 34 19 35 69 36 20 37 74 38 68 39 70 40 21 41 73 42 67 43
REMARK SMILES IDX 66 44 22 46 54 47 34 48 53 49 35 50 38 51 52 52 71 53 36 54
REMARK SMILES IDX 37 55 51 57 72 58 39 59 23 60 24 61 32 62 25 63 26 64 30 65
REMARK SMILES IDX 33 66 27 67 28 68 31 69 29 70 55 71 56 72 64 73 57 74 58 75
REMARK SMILES IDX 62 76 65 77 59 78 60 79 63 80 61 81 40 82 41 83 49 84 42 85
REMARK SMILES IDX 43 86 47 87 50 88 44 89 45 90 48 91 46 92
REMARK H PARENT 70 45 38 56
REMARK Flexibility Score: inf
ROOT
ATOM      1  C   UNL A   1      36.181  21.725  24.896  1.00  0.00     0.274 C 
ENDROOT
BRANCH   1   2
ATOM      2  O   UNL A   1      34.899  22.113  24.358  1.00  0.00    -0.461 OA
BRANCH   2   3
ATOM      3  C   UNL A   1      34.917  22.963  23.301  1.00  0.00     0.329 C 
ATOM      4  O   UNL A   1      35.912  23.083  22.597  1.00  0.00    -0.250 OA
BRANCH   3   5
ATOM      5  C   UNL A   1      33.553  23.691  23.038  1.00  0.00     0.204 C 
BRANCH   5   6
ATOM      6  C   UNL A   1      32.339  22.808  23.534  1.00  0.00     0.020 C 
ATOM      7  C   UNL A   1      31.050  23.619  23.757  1.00  0.00     0.010 C 
BRANCH   6   8
ATOM      8  C   UNL A   1      32.179  21.500  22.710  1.00  0.00     0.002 C 
ATOM      9  C   UNL A   1      32.313  20.191  23.475  1.00  0.00     0.004 C 
ENDBRANCH   6   8
ENDBRANCH   5   6
BRANCH   5  10
ATOM     10  N   UNL A   1      33.605  25.097  23.609  1.00  0.00    -0.278 N 
ATOM     11  C   UNL A   1      33.696  25.351  24.974  1.00  0.00     0.267 C 
ATOM     12  C   UNL A   1      33.143  26.230  22.951  1.00  0.00     0.149 C 
ATOM     13  O   UNL A   1      33.600  24.554  25.896  1.00  0.00    -0.268 OA
ATOM     14  C   UNL A   1      33.728  26.815  25.247  1.00  0.00     0.084 C 
ATOM     15  S   UNL A   1      33.782  27.655  23.757  1.00  0.00    -0.054 SA
ATOM     16  S   UNL A   1      32.004  26.424  21.750  1.00  0.00    -0.052 S 
ATOM     17  C   UNL A   1      33.592  27.331  26.474  1.00  0.00     0.068 C 
BRANCH  17  18
ATOM     18  C   UNL A   1      33.499  28.733  26.666  1.00  0.00     0.128 A 
ATOM     19  C   UNL A   1      34.395  29.598  27.285  1.00  0.00     0.050 A 
ATOM     20  O   UNL A   1      32.395  29.461  26.300  1.00  0.00    -0.462 OA
ATOM     21  C   UNL A   1      33.782  30.869  27.359  1.00  0.00     0.046 A 
ATOM     22  C   UNL A   1      32.558  30.732  26.751  1.00  0.00     0.101 A 
ATOM     23  C   UNL A   1      31.425  31.653  26.539  1.00  0.00     0.087 C 
ENDBRANCH  17  18
ENDBRANCH   5  10
ENDBRANCH   3   5
ENDBRANCH   2   3
ENDBRANCH   1   2
BRANCH   1  24
ATOM     24  C   UNL A   1      36.629  22.686  26.000  1.00  0.00     0.275 C 
BRANCH  24  25
ATOM     25  O   UNL A   1      37.769  23.480  25.613  1.00  0.00    -0.458 OA
BRANCH  25  26
ATOM     26  C   UNL A   1      38.912  23.242  26.298  1.00  0.00     0.338 C 
ATOM     27  O   UNL A   1      39.532  22.191  26.344  1.00  0.00    -0.246 OA
BRANCH  26  28
ATOM     28  C   UNL A   1      39.421  24.486  26.909  1.00  0.00     0.060 A 
ATOM     29  C   UNL A   1      39.069  24.757  28.237  1.00  0.00     0.016 A 
ATOM     30  C   UNL A   1      40.199  25.397  26.194  1.00  0.00     0.016 A 
ATOM     31  C   UNL A   1      39.525  25.913  28.871  1.00  0.00     0.010 A 
ATOM     32  C   UNL A   1      40.636  26.568  26.821  1.00  0.00     0.010 A 
ATOM     33  C   UNL A   1      40.304  26.831  28.163  1.00  0.00    -0.014 A 
BRANCH  33  34
ATOM     34  C   UNL A   1      40.696  28.121  28.775  1.00  0.00     0.031 A 
ATOM     35  C   UNL A   1      42.092  28.279  29.296  1.00  0.00     0.074 A 
ATOM     36  C   UNL A   1      39.809  29.124  28.899  1.00  0.00     0.049 A 
ATOM     37  N   UNL A   1      42.607  29.235  30.025  1.00  0.00    -0.248 NA
ATOM     38  C   UNL A   1      43.037  27.204  28.954  1.00  0.00     0.031 C 
ATOM     39  C   UNL A   1      38.443  29.115  28.379  1.00  0.00     0.029 A 
ATOM     40  N   UNL A   1      39.921  30.338  29.532  1.00  0.00    -0.354 N 
ATOM     41  C   UNL A   1      43.926  28.867  30.249  1.00  0.00     0.074 A 
ATOM     42  C   UNL A   1      44.131  27.593  29.593  1.00  0.00     0.031 C 
ATOM     43  C   UNL A   1      37.833  30.257  28.739  1.00  0.00     0.029 A 
ATOM     44  C   UNL A   1      38.748  31.052  29.557  1.00  0.00     0.049 A 
ATOM     45  H   UNL A   1      40.760  30.664  29.930  1.00  0.00     0.167 HD
ATOM     46  C   UNL A   1      44.878  29.534  30.944  1.00  0.00     0.037 A 
ATOM     47  C   UNL A   1      38.439  32.194  30.204  1.00  0.00     0.037 A 
ATOM     48  C   UNL A   1      44.665  30.801  31.592  1.00  0.00     0.049 A 
ATOM     49  C   UNL A   1      39.490  32.872  31.046  1.00  0.00     0.074 A 
ATOM     50  C   UNL A   1      45.568  31.564  32.310  1.00  0.00     0.029 A 
ATOM     51  N   UNL A   1      43.459  31.486  31.607  1.00  0.00    -0.354 N 
ATOM     52  N   UNL A   1      40.737  32.527  31.254  1.00  0.00    -0.248 NA
ATOM     53  C   UNL A   1      39.087  34.099  31.751  1.00  0.00     0.031 C 
ATOM     54  C   UNL A   1      44.894  32.683  32.808  1.00  0.00     0.029 A 
ATOM     55  C   UNL A   1      43.588  32.652  32.345  1.00  0.00     0.049 A 
ATOM     56  H   UNL A   1      42.633  31.189  31.160  1.00  0.00     0.167 HD
ATOM     57  C   UNL A   1      41.277  33.510  32.074  1.00  0.00     0.074 A 
ATOM     58  C   UNL A   1      40.222  34.467  32.330  1.00  0.00     0.031 C 
ATOM     59  C   UNL A   1      42.536  33.611  32.567  1.00  0.00     0.037 A 
BRANCH  46  60
ATOM     60  C   UNL A   1      46.225  28.889  31.069  1.00  0.00     0.064 A 
ATOM     61  C   UNL A   1      46.525  27.995  32.109  1.00  0.00     0.173 A 
ATOM     62  C   UNL A   1      47.223  29.142  30.115  1.00  0.00     0.173 A 
ATOM     63  F   UNL A   1      45.611  27.729  33.055  1.00  0.00    -0.203 F 
ATOM     64  C   UNL A   1      47.781  27.402  32.203  1.00  0.00     0.198 A 
ATOM     65  C   UNL A   1      48.466  28.522  30.194  1.00  0.00     0.198 A 
ATOM     66  F   UNL A   1      46.987  29.984  29.098  1.00  0.00    -0.203 F 
ATOM     67  F   UNL A   1      48.061  26.590  33.232  1.00  0.00    -0.200 F 
ATOM     68  C   UNL A   1      48.747  27.659  31.242  1.00  0.00     0.200 A 
ATOM     69  F   UNL A   1      49.393  28.761  29.257  1.00  0.00    -0.200 F 
ATOM     70  F   UNL A   1      49.952  27.080  31.330  1.00  0.00    -0.200 F 
ENDBRANCH  46  60
BRANCH  47  71
ATOM     71  C   UNL A   1      37.066  32.756  30.107  1.00  0.00     0.064 A 
ATOM     72  C   UNL A   1      36.115  32.512  31.107  1.00  0.00     0.173 A 
ATOM     73  C   UNL A   1      36.669  33.528  29.004  1.00  0.00     0.173 A 
ATOM     74  F   UNL A   1      36.437  31.756  32.166  1.00  0.00    -0.203 F 
ATOM     75  C   UNL A   1      34.814  33.002  30.999  1.00  0.00     0.198 A 
ATOM     76  C   UNL A   1      35.377  34.042  28.912  1.00  0.00     0.198 A 
ATOM     77  F   UNL A   1      37.537  33.785  28.015  1.00  0.00    -0.203 F 
ATOM     78  F   UNL A   1      33.910  32.708  31.943  1.00  0.00    -0.200 F 
ATOM     79  C   UNL A   1      34.448  33.771  29.905  1.00  0.00     0.200 A 
ATOM     80  F   UNL A   1      35.029  34.792  27.858  1.00  0.00    -0.200 F 
ATOM     81  F   UNL A   1      33.197  34.241  29.803  1.00  0.00    -0.200 F 
ENDBRANCH  47  71
BRANCH  59  82
ATOM     82  C   UNL A   1      42.876  34.828  33.379  1.00  0.00     0.064 A 
ATOM     83  C   UNL A   1      43.259  36.036  32.780  1.00  0.00     0.173 A 
ATOM     84  C   UNL A   1      42.731  34.804  34.776  1.00  0.00     0.173 A 
ATOM     85  F   UNL A   1      43.426  36.108  31.451  1.00  0.00    -0.203 F 
ATOM     86  C   UNL A   1      43.495  37.173  33.550  1.00  0.00     0.198 A 
ATOM     87  C   UNL A   1      42.937  35.949  35.538  1.00  0.00     0.198 A 
ATOM     88  F   UNL A   1      42.359  33.674  35.397  1.00  0.00    -0.203 F 
ATOM     89  F   UNL A   1      43.890  38.309  32.961  1.00  0.00    -0.200 F 
ATOM     90  C   UNL A   1      43.321  37.132  34.926  1.00  0.00     0.200 A 
ATOM     91  F   UNL A   1      42.752  35.911  36.866  1.00  0.00    -0.200 F 
ATOM     92  F   UNL A   1      43.527  38.232  35.662  1.00  0.00    -0.200 F 
ENDBRANCH  59  82
ENDBRANCH  33  34
ENDBRANCH  26  28
ENDBRANCH  25  26
ENDBRANCH  24  25
ENDBRANCH   1  24
TORSDOF 15
ENDMDL
