MODEL 1
REMARK VINA RESULT:     -13.2      0.000      0.000
REMARK SMILES Cc1cc2c(c(C)c1Cl)C=C(C(=O)OCCOC(=O)c1ccc(-c3c4nc(c(-c5c(F)c(F)c(F)c(F)c5F)c5ccc([nH]5)c(-c5c(F)c(F)c(F)c(F)c5F)c5nc(c(-c6c(F)c(F)c(F)c(F)c6F)c6ccc3[nH]6)C=C5)C=C4)cc1)[C@@H](C(F)(F)F)O2
REMARK SMILES IDX 16 1 15 2 14 3 12 4 13 5 11 6 1 7 2 8 3 9 8 10 4 11 6 12
REMARK SMILES IDX 9 13 5 14 88 15 7 16 10 17 83 18 84 19 85 20 86 21 87 22
REMARK SMILES IDX 17 23 18 24 19 25 20 26 21 27 82 28 22 29 81 30 23 31 24 32
REMARK SMILES IDX 25 33 75 34 26 35 80 36 74 37 76 38 27 39 79 40 73 41 72 42
REMARK SMILES IDX 28 44 60 45 40 46 59 47 41 48 44 49 58 50 77 51 42 52 43 53
REMARK SMILES IDX 57 55 78 56 45 57 29 58 30 59 38 60 31 61 32 62 36 63 39 64
REMARK SMILES IDX 33 65 34 66 37 67 35 68 61 69 62 70 70 71 63 72 64 73 68 74
REMARK SMILES IDX 71 75 65 76 66 77 69 78 67 79 46 80 47 81 55 82 48 83 49 84
REMARK SMILES IDX 53 85 56 86 50 87 51 88 54 89 52 90
REMARK H PARENT 76 43 44 54
REMARK Flexibility Score: inf
ROOT
ATOM      1  C   UNL A   1      31.774  30.177  25.720  1.00  0.00     0.275 C 
ENDROOT
BRANCH   1   2
ATOM      2  C   UNL A   1      31.479  28.762  25.225  1.00  0.00     0.275 C 
BRANCH   2   3
ATOM      3  O   UNL A   1      32.480  27.825  25.682  1.00  0.00    -0.459 OA
BRANCH   3   4
ATOM      4  C   UNL A   1      33.256  27.279  24.718  1.00  0.00     0.338 C 
ATOM      5  O   UNL A   1      33.901  27.878  23.870  1.00  0.00    -0.246 OA
BRANCH   4   6
ATOM      6  C   UNL A   1      33.247  25.806  24.820  1.00  0.00     0.087 C 
ATOM      7  C   UNL A   1      34.327  19.402  24.663  1.00  0.00     0.046 C 
ATOM      8  C   UNL A   1      34.405  20.902  24.766  1.00  0.00    -0.028 A 
ATOM      9  C   UNL A   1      33.220  21.647  24.725  1.00  0.00     0.052 A 
ATOM     10  C   UNL A   1      35.631  21.575  24.918  1.00  0.00     0.047 A 
ATOM     11  C   UNL A   1      33.246  23.039  24.800  1.00  0.00     0.128 A 
ATOM     12  C   UNL A   1      35.680  22.986  24.992  1.00  0.00    -0.021 A 
ATOM     13  Cl  UNL A   1      37.088  20.631  25.016  1.00  0.00    -0.084 Cl
ATOM     14  C   UNL A   1      34.463  23.717  24.920  1.00  0.00     0.022 A 
ATOM     15  O   UNL A   1      32.021  23.646  24.766  1.00  0.00    -0.475 OA
ATOM     16  C   UNL A   1      36.991  23.716  25.164  1.00  0.00     0.047 C 
ATOM     17  C   UNL A   1      34.422  25.177  24.946  1.00  0.00     0.027 C 
ATOM     18  C   UNL A   1      31.944  25.089  24.639  1.00  0.00     0.316 C 
BRANCH  18  19
ATOM     19  C   UNL A   1      31.299  25.439  23.287  1.00  0.00     0.430 C 
ATOM     20  F   UNL A   1      32.235  25.706  22.346  1.00  0.00    -0.167 F 
ATOM     21  F   UNL A   1      30.556  24.410  22.810  1.00  0.00    -0.167 F 
ATOM     22  F   UNL A   1      30.488  26.517  23.373  1.00  0.00    -0.167 F 
ENDBRANCH  18  19
ENDBRANCH   4   6
ENDBRANCH   3   4
ENDBRANCH   2   3
ENDBRANCH   1   2
BRANCH   1  23
ATOM     23  O   UNL A   1      32.537  30.122  26.939  1.00  0.00    -0.458 OA
BRANCH  23  24
ATOM     24  C   UNL A   1      33.189  31.261  27.262  1.00  0.00     0.338 C 
ATOM     25  O   UNL A   1      32.709  32.371  27.424  1.00  0.00    -0.246 OA
BRANCH  24  26
ATOM     26  C   UNL A   1      34.615  30.990  27.505  1.00  0.00     0.060 A 
ATOM     27  C   UNL A   1      35.031  29.673  27.654  1.00  0.00     0.016 A 
ATOM     28  C   UNL A   1      35.481  32.031  27.831  1.00  0.00     0.016 A 
ATOM     29  C   UNL A   1      36.226  29.398  28.312  1.00  0.00     0.010 A 
ATOM     30  C   UNL A   1      36.745  31.741  28.360  1.00  0.00     0.010 A 
ATOM     31  C   UNL A   1      37.105  30.421  28.692  1.00  0.00    -0.014 A 
BRANCH  31  32
ATOM     32  C   UNL A   1      38.329  30.141  29.513  1.00  0.00     0.031 A 
ATOM     33  C   UNL A   1      39.441  29.287  28.941  1.00  0.00     0.074 A 
ATOM     34  C   UNL A   1      38.505  30.665  30.745  1.00  0.00     0.049 A 
ATOM     35  N   UNL A   1      40.418  28.667  29.557  1.00  0.00    -0.248 NA
ATOM     36  C   UNL A   1      39.446  29.096  27.482  1.00  0.00     0.031 C 
ATOM     37  C   UNL A   1      37.603  31.599  31.418  1.00  0.00     0.029 A 
ATOM     38  N   UNL A   1      39.526  30.490  31.653  1.00  0.00    -0.354 N 
ATOM     39  C   UNL A   1      41.092  27.946  28.577  1.00  0.00     0.074 A 
ATOM     40  C   UNL A   1      40.422  28.212  27.323  1.00  0.00     0.031 C 
ATOM     41  C   UNL A   1      38.134  31.962  32.593  1.00  0.00     0.029 A 
ATOM     42  C   UNL A   1      39.334  31.172  32.831  1.00  0.00     0.049 A 
ATOM     43  H   UNL A   1      40.316  29.932  31.475  1.00  0.00     0.167 HD
ATOM     44  C   UNL A   1      42.169  27.133  28.715  1.00  0.00     0.037 A 
ATOM     45  C   UNL A   1      39.990  31.115  34.006  1.00  0.00     0.037 A 
ATOM     46  C   UNL A   1      42.889  26.944  29.949  1.00  0.00     0.049 A 
ATOM     47  C   UNL A   1      41.131  30.149  34.166  1.00  0.00     0.074 A 
ATOM     48  C   UNL A   1      43.988  26.138  30.194  1.00  0.00     0.029 A 
ATOM     49  N   UNL A   1      42.603  27.597  31.140  1.00  0.00    -0.354 N 
ATOM     50  N   UNL A   1      41.672  29.354  33.277  1.00  0.00    -0.248 NA
ATOM     51  C   UNL A   1      41.724  30.047  35.506  1.00  0.00     0.031 C 
ATOM     52  C   UNL A   1      44.340  26.271  31.542  1.00  0.00     0.029 A 
ATOM     53  C   UNL A   1      43.495  27.200  32.123  1.00  0.00     0.049 A 
ATOM     54  H   UNL A   1      41.874  28.246  31.265  1.00  0.00     0.167 HD
ATOM     55  C   UNL A   1      42.670  28.660  33.947  1.00  0.00     0.074 A 
ATOM     56  C   UNL A   1      42.683  29.154  35.307  1.00  0.00     0.031 C 
ATOM     57  C   UNL A   1      43.493  27.690  33.478  1.00  0.00     0.037 A 
BRANCH  44  58
ATOM     58  C   UNL A   1      42.625  26.348  27.517  1.00  0.00     0.064 A 
ATOM     59  C   UNL A   1      43.655  26.793  26.676  1.00  0.00     0.173 A 
ATOM     60  C   UNL A   1      42.066  25.086  27.253  1.00  0.00     0.173 A 
ATOM     61  F   UNL A   1      44.215  27.996  26.872  1.00  0.00    -0.203 F 
ATOM     62  C   UNL A   1      44.098  26.011  25.609  1.00  0.00     0.198 A 
ATOM     63  C   UNL A   1      42.533  24.293  26.207  1.00  0.00     0.198 A 
ATOM     64  F   UNL A   1      41.083  24.607  28.030  1.00  0.00    -0.203 F 
ATOM     65  F   UNL A   1      45.059  26.472  24.797  1.00  0.00    -0.200 F 
ATOM     66  C   UNL A   1      43.546  24.759  25.384  1.00  0.00     0.200 A 
ATOM     67  F   UNL A   1      42.009  23.077  26.003  1.00  0.00    -0.200 F 
ATOM     68  F   UNL A   1      43.988  24.001  24.370  1.00  0.00    -0.200 F 
ENDBRANCH  44  58
BRANCH  45  69
ATOM     69  C   UNL A   1      39.524  31.942  35.154  1.00  0.00     0.064 A 
ATOM     70  C   UNL A   1      39.961  33.263  35.315  1.00  0.00     0.173 A 
ATOM     71  C   UNL A   1      38.620  31.435  36.101  1.00  0.00     0.173 A 
ATOM     72  F   UNL A   1      40.853  33.781  34.458  1.00  0.00    -0.203 F 
ATOM     73  C   UNL A   1      39.509  34.046  36.375  1.00  0.00     0.198 A 
ATOM     74  C   UNL A   1      38.137  32.231  37.136  1.00  0.00     0.198 A 
ATOM     75  F   UNL A   1      38.176  30.173  36.001  1.00  0.00    -0.203 F 
ATOM     76  F   UNL A   1      39.972  35.294  36.527  1.00  0.00    -0.200 F 
ATOM     77  C   UNL A   1      38.587  33.535  37.276  1.00  0.00     0.200 A 
ATOM     78  F   UNL A   1      37.232  31.737  37.992  1.00  0.00    -0.200 F 
ATOM     79  F   UNL A   1      38.135  34.296  38.282  1.00  0.00    -0.200 F 
ENDBRANCH  45  69
BRANCH  57  80
ATOM     80  C   UNL A   1      44.486  27.110  34.442  1.00  0.00     0.064 A 
ATOM     81  C   UNL A   1      45.741  27.703  34.648  1.00  0.00     0.173 A 
ATOM     82  C   UNL A   1      44.175  25.960  35.186  1.00  0.00     0.173 A 
ATOM     83  F   UNL A   1      46.093  28.795  33.952  1.00  0.00    -0.203 F 
ATOM     84  C   UNL A   1      46.659  27.149  35.535  1.00  0.00     0.198 A 
ATOM     85  C   UNL A   1      45.083  25.428  36.096  1.00  0.00     0.198 A 
ATOM     86  F   UNL A   1      42.986  25.358  35.033  1.00  0.00    -0.203 F 
ATOM     87  F   UNL A   1      47.873  27.701  35.672  1.00  0.00    -0.200 F 
ATOM     88  C   UNL A   1      46.327  26.016  36.263  1.00  0.00     0.200 A 
ATOM     89  F   UNL A   1      44.754  24.342  36.809  1.00  0.00    -0.200 F 
ATOM     90  F   UNL A   1      47.211  25.485  37.119  1.00  0.00    -0.200 F 
ENDBRANCH  57  80
ENDBRANCH  31  32
ENDBRANCH  24  26
ENDBRANCH  23  24
ENDBRANCH   1  23
TORSDOF 12
ENDMDL
MODEL 2
REMARK VINA RESULT:     -13.2      0.112      1.605
REMARK SMILES Cc1cc2c(c(C)c1Cl)C=C(C(=O)OCCOC(=O)c1ccc(-c3c4nc(c(-c5c(F)c(F)c(F)c(F)c5F)c5ccc([nH]5)c(-c5c(F)c(F)c(F)c(F)c5F)c5nc(c(-c6c(F)c(F)c(F)c(F)c6F)c6ccc3[nH]6)C=C5)C=C4)cc1)[C@@H](C(F)(F)F)O2
REMARK SMILES IDX 16 1 15 2 14 3 12 4 13 5 11 6 1 7 2 8 3 9 8 10 4 11 6 12
REMARK SMILES IDX 9 13 5 14 88 15 7 16 10 17 83 18 84 19 85 20 86 21 87 22
REMARK SMILES IDX 17 23 18 24 19 25 20 26 21 27 82 28 22 29 81 30 23 31 24 32
REMARK SMILES IDX 25 33 75 34 26 35 80 36 74 37 76 38 27 39 79 40 73 41 72 42
REMARK SMILES IDX 28 44 60 45 40 46 59 47 41 48 44 49 58 50 77 51 42 52 43 53
REMARK SMILES IDX 57 55 78 56 45 57 29 58 30 59 38 60 31 61 32 62 36 63 39 64
REMARK SMILES IDX 33 65 34 66 37 67 35 68 61 69 62 70 70 71 63 72 64 73 68 74
REMARK SMILES IDX 71 75 65 76 66 77 69 78 67 79 46 80 47 81 55 82 48 83 49 84
REMARK SMILES IDX 53 85 56 86 50 87 51 88 54 89 52 90
REMARK H PARENT 76 43 44 54
REMARK Flexibility Score: inf
ROOT
ATOM      1  C   UNL A   1      31.810  30.115  25.612  1.00  0.00     0.275 C 
ENDROOT
BRANCH   1   2
ATOM      2  C   UNL A   1      31.418  28.704  25.175  1.00  0.00     0.275 C 
BRANCH   2   3
ATOM      3  O   UNL A   1      32.371  27.724  25.643  1.00  0.00    -0.459 OA
BRANCH   3   4
ATOM      4  C   UNL A   1      33.181  27.196  24.697  1.00  0.00     0.338 C 
ATOM      5  O   UNL A   1      33.834  27.810  23.867  1.00  0.00    -0.246 OA
BRANCH   4   6
ATOM      6  C   UNL A   1      33.198  25.723  24.795  1.00  0.00     0.087 C 
ATOM      7  C   UNL A   1      34.398  19.340  24.627  1.00  0.00     0.046 C 
ATOM      8  C   UNL A   1      34.447  20.841  24.734  1.00  0.00    -0.028 A 
ATOM      9  C   UNL A   1      33.249  21.565  24.689  1.00  0.00     0.052 A 
ATOM     10  C   UNL A   1      35.660  21.536  24.895  1.00  0.00     0.047 A 
ATOM     11  C   UNL A   1      33.249  22.956  24.767  1.00  0.00     0.128 A 
ATOM     12  C   UNL A   1      35.683  22.948  24.973  1.00  0.00    -0.021 A 
ATOM     13  Cl  UNL A   1      37.134  20.619  24.998  1.00  0.00    -0.084 Cl
ATOM     14  C   UNL A   1      34.453  23.657  24.896  1.00  0.00     0.022 A 
ATOM     15  O   UNL A   1      32.013  23.541  24.728  1.00  0.00    -0.475 OA
ATOM     16  C   UNL A   1      36.979  23.702  25.154  1.00  0.00     0.047 C 
ATOM     17  C   UNL A   1      34.384  25.115  24.926  1.00  0.00     0.027 C 
ATOM     18  C   UNL A   1      31.910  24.983  24.605  1.00  0.00     0.316 C 
BRANCH  18  19
ATOM     19  C   UNL A   1      31.266  25.324  23.250  1.00  0.00     0.430 C 
ATOM     20  F   UNL A   1      32.201  25.633  22.322  1.00  0.00    -0.167 F 
ATOM     21  F   UNL A   1      30.564  24.275  22.756  1.00  0.00    -0.167 F 
ATOM     22  F   UNL A   1      30.417  26.372  23.339  1.00  0.00    -0.167 F 
ENDBRANCH  18  19
ENDBRANCH   4   6
ENDBRANCH   3   4
ENDBRANCH   2   3
ENDBRANCH   1   2
BRANCH   1  23
ATOM     23  O   UNL A   1      32.474  30.067  26.889  1.00  0.00    -0.458 OA
BRANCH  23  24
ATOM     24  C   UNL A   1      33.107  31.204  27.251  1.00  0.00     0.338 C 
ATOM     25  O   UNL A   1      32.613  32.303  27.438  1.00  0.00    -0.246 OA
BRANCH  24  26
ATOM     26  C   UNL A   1      34.534  30.943  27.502  1.00  0.00     0.060 A 
ATOM     27  C   UNL A   1      34.960  29.629  27.644  1.00  0.00     0.016 A 
ATOM     28  C   UNL A   1      35.389  31.989  27.842  1.00  0.00     0.016 A 
ATOM     29  C   UNL A   1      36.153  29.359  28.308  1.00  0.00     0.010 A 
ATOM     30  C   UNL A   1      36.651  31.705  28.378  1.00  0.00     0.010 A 
ATOM     31  C   UNL A   1      37.021  30.386  28.702  1.00  0.00    -0.014 A 
BRANCH  31  32
ATOM     32  C   UNL A   1      38.241  30.110  29.529  1.00  0.00     0.031 A 
ATOM     33  C   UNL A   1      39.362  29.265  28.961  1.00  0.00     0.074 A 
ATOM     34  C   UNL A   1      38.407  30.631  30.764  1.00  0.00     0.049 A 
ATOM     35  N   UNL A   1      40.338  28.648  29.581  1.00  0.00    -0.248 NA
ATOM     36  C   UNL A   1      39.377  29.079  27.501  1.00  0.00     0.031 C 
ATOM     37  C   UNL A   1      37.495  31.556  31.435  1.00  0.00     0.029 A 
ATOM     38  N   UNL A   1      39.422  30.458  31.678  1.00  0.00    -0.354 N 
ATOM     39  C   UNL A   1      41.023  27.934  28.602  1.00  0.00     0.074 A 
ATOM     40  C   UNL A   1      40.358  28.201  27.345  1.00  0.00     0.031 C 
ATOM     41  C   UNL A   1      38.016  31.919  32.615  1.00  0.00     0.029 A 
ATOM     42  C   UNL A   1      39.220  31.135  32.857  1.00  0.00     0.049 A 
ATOM     43  H   UNL A   1      40.217  29.905  31.503  1.00  0.00     0.167 HD
ATOM     44  C   UNL A   1      42.103  27.127  28.744  1.00  0.00     0.037 A 
ATOM     45  C   UNL A   1      39.869  31.077  34.036  1.00  0.00     0.037 A 
ATOM     46  C   UNL A   1      42.817  26.937  29.983  1.00  0.00     0.049 A 
ATOM     47  C   UNL A   1      41.014  30.117  34.200  1.00  0.00     0.074 A 
ATOM     48  C   UNL A   1      43.919  26.137  30.231  1.00  0.00     0.029 A 
ATOM     49  N   UNL A   1      42.520  27.584  31.173  1.00  0.00    -0.354 N 
ATOM     50  N   UNL A   1      41.565  29.329  33.311  1.00  0.00    -0.248 NA
ATOM     51  C   UNL A   1      41.600  30.013  35.543  1.00  0.00     0.031 C 
ATOM     52  C   UNL A   1      44.262  26.267  31.581  1.00  0.00     0.029 A 
ATOM     53  C   UNL A   1      43.408  27.189  32.161  1.00  0.00     0.049 A 
ATOM     54  H   UNL A   1      41.786  28.229  31.297  1.00  0.00     0.167 HD
ATOM     55  C   UNL A   1      42.563  28.638  33.985  1.00  0.00     0.074 A 
ATOM     56  C   UNL A   1      42.564  29.126  35.347  1.00  0.00     0.031 C 
ATOM     57  C   UNL A   1      43.395  27.674  33.517  1.00  0.00     0.037 A 
BRANCH  44  58
ATOM     58  C   UNL A   1      42.571  26.348  27.546  1.00  0.00     0.064 A 
ATOM     59  C   UNL A   1      43.592  26.810  26.703  1.00  0.00     0.173 A 
ATOM     60  C   UNL A   1      42.033  25.077  27.284  1.00  0.00     0.173 A 
ATOM     61  F   UNL A   1      44.132  28.023  26.898  1.00  0.00    -0.203 F 
ATOM     62  C   UNL A   1      44.047  26.036  25.637  1.00  0.00     0.198 A 
ATOM     63  C   UNL A   1      42.512  24.292  26.238  1.00  0.00     0.198 A 
ATOM     64  F   UNL A   1      41.060  24.582  28.062  1.00  0.00    -0.203 F 
ATOM     65  F   UNL A   1      44.999  26.513  24.824  1.00  0.00    -0.200 F 
ATOM     66  C   UNL A   1      43.516  24.774  25.413  1.00  0.00     0.200 A 
ATOM     67  F   UNL A   1      42.009  23.067  26.036  1.00  0.00    -0.200 F 
ATOM     68  F   UNL A   1      43.970  24.023  24.400  1.00  0.00    -0.200 F 
ENDBRANCH  44  58
BRANCH  45  69
ATOM     69  C   UNL A   1      39.391  31.897  35.184  1.00  0.00     0.064 A 
ATOM     70  C   UNL A   1      38.553  31.348  36.163  1.00  0.00     0.173 A 
ATOM     71  C   UNL A   1      39.776  33.239  35.334  1.00  0.00     0.173 A 
ATOM     72  F   UNL A   1      38.127  30.082  36.045  1.00  0.00    -0.203 F 
ATOM     73  C   UNL A   1      38.123  32.107  37.250  1.00  0.00     0.198 A 
ATOM     74  C   UNL A   1      39.379  33.983  36.442  1.00  0.00     0.198 A 
ATOM     75  F   UNL A   1      40.570  33.818  34.421  1.00  0.00    -0.203 F 
ATOM     76  F   UNL A   1      37.292  31.568  38.152  1.00  0.00    -0.200 F 
ATOM     77  C   UNL A   1      38.548  33.419  37.396  1.00  0.00     0.200 A 
ATOM     78  F   UNL A   1      39.809  35.245  36.587  1.00  0.00    -0.200 F 
ATOM     79  F   UNL A   1      38.153  34.141  38.453  1.00  0.00    -0.200 F 
ENDBRANCH  45  69
BRANCH  57  80
ATOM     80  C   UNL A   1      44.385  27.096  34.486  1.00  0.00     0.064 A 
ATOM     81  C   UNL A   1      44.102  25.932  35.217  1.00  0.00     0.173 A 
ATOM     82  C   UNL A   1      45.639  27.699  34.673  1.00  0.00     0.173 A 
ATOM     83  F   UNL A   1      42.913  25.326  35.085  1.00  0.00    -0.203 F 
ATOM     84  C   UNL A   1      45.023  25.413  36.122  1.00  0.00     0.198 A 
ATOM     85  C   UNL A   1      46.570  27.158  35.555  1.00  0.00     0.198 A 
ATOM     86  F   UNL A   1      45.964  28.810  33.993  1.00  0.00    -0.203 F 
ATOM     87  F   UNL A   1      44.708  24.333  36.851  1.00  0.00    -0.200 F 
ATOM     88  C   UNL A   1      46.259  26.023  36.285  1.00  0.00     0.200 A 
ATOM     89  F   UNL A   1      47.768  27.741  35.700  1.00  0.00    -0.200 F 
ATOM     90  F   UNL A   1      47.145  25.520  37.156  1.00  0.00    -0.200 F 
ENDBRANCH  57  80
ENDBRANCH  31  32
ENDBRANCH  24  26
ENDBRANCH  23  24
ENDBRANCH   1  23
TORSDOF 12
ENDMDL
MODEL 3
REMARK VINA RESULT:     -13.0      0.211      1.222
REMARK SMILES Cc1cc2c(c(C)c1Cl)C=C(C(=O)OCCOC(=O)c1ccc(-c3c4nc(c(-c5c(F)c(F)c(F)c(F)c5F)c5ccc([nH]5)c(-c5c(F)c(F)c(F)c(F)c5F)c5nc(c(-c6c(F)c(F)c(F)c(F)c6F)c6ccc3[nH]6)C=C5)C=C4)cc1)[C@@H](C(F)(F)F)O2
REMARK SMILES IDX 16 1 15 2 14 3 12 4 13 5 11 6 1 7 2 8 3 9 8 10 4 11 6 12
REMARK SMILES IDX 9 13 5 14 88 15 7 16 10 17 83 18 84 19 85 20 86 21 87 22
REMARK SMILES IDX 17 23 18 24 19 25 20 26 21 27 82 28 22 29 81 30 23 31 24 32
REMARK SMILES IDX 25 33 75 34 26 35 80 36 74 37 76 38 27 39 79 40 73 41 72 42
REMARK SMILES IDX 28 44 60 45 40 46 59 47 41 48 44 49 58 50 77 51 42 52 43 53
REMARK SMILES IDX 57 55 78 56 45 57 29 58 30 59 38 60 31 61 32 62 36 63 39 64
REMARK SMILES IDX 33 65 34 66 37 67 35 68 61 69 62 70 70 71 63 72 64 73 68 74
REMARK SMILES IDX 71 75 65 76 66 77 69 78 67 79 46 80 47 81 55 82 48 83 49 84
REMARK SMILES IDX 53 85 56 86 50 87 51 88 54 89 52 90
REMARK H PARENT 76 43 44 54
REMARK Flexibility Score: inf
ROOT
ATOM      1  C   UNL A   1      31.814  30.162  25.724  1.00  0.00     0.275 C 
ENDROOT
BRANCH   1   2
ATOM      2  C   UNL A   1      31.447  28.813  25.106  1.00  0.00     0.275 C 
BRANCH   2   3
ATOM      3  O   UNL A   1      32.343  27.770  25.552  1.00  0.00    -0.459 OA
BRANCH   3   4
ATOM      4  C   UNL A   1      33.106  27.202  24.591  1.00  0.00     0.338 C 
ATOM      5  O   UNL A   1      33.727  27.782  23.713  1.00  0.00    -0.246 OA
BRANCH   4   6
ATOM      6  C   UNL A   1      33.117  25.734  24.740  1.00  0.00     0.087 C 
ATOM      7  C   UNL A   1      34.251  19.337  24.725  1.00  0.00     0.046 C 
ATOM      8  C   UNL A   1      34.319  20.840  24.778  1.00  0.00    -0.028 A 
ATOM      9  C   UNL A   1      33.126  21.574  24.775  1.00  0.00     0.052 A 
ATOM     10  C   UNL A   1      35.545  21.527  24.845  1.00  0.00     0.047 A 
ATOM     11  C   UNL A   1      33.143  22.967  24.805  1.00  0.00     0.128 A 
ATOM     12  C   UNL A   1      35.584  22.941  24.872  1.00  0.00    -0.021 A 
ATOM     13  Cl  UNL A   1      37.015  20.599  24.896  1.00  0.00    -0.084 Cl
ATOM     14  C   UNL A   1      34.358  23.659  24.841  1.00  0.00     0.022 A 
ATOM     15  O   UNL A   1      31.911  23.563  24.816  1.00  0.00    -0.475 OA
ATOM     16  C   UNL A   1      36.895  23.687  24.953  1.00  0.00     0.047 C 
ATOM     17  C   UNL A   1      34.303  25.119  24.824  1.00  0.00     0.027 C 
ATOM     18  C   UNL A   1      31.814  25.000  24.648  1.00  0.00     0.316 C 
BRANCH  18  19
ATOM     19  C   UNL A   1      31.097  25.302  23.321  1.00  0.00     0.430 C 
ATOM     20  F   UNL A   1      30.274  24.288  22.963  1.00  0.00    -0.167 F 
ATOM     21  F   UNL A   1      30.324  26.411  23.415  1.00  0.00    -0.167 F 
ATOM     22  F   UNL A   1      31.966  25.500  22.305  1.00  0.00    -0.167 F 
ENDBRANCH  18  19
ENDBRANCH   4   6
ENDBRANCH   3   4
ENDBRANCH   2   3
ENDBRANCH   1   2
BRANCH   1  23
ATOM     23  O   UNL A   1      32.762  29.974  26.790  1.00  0.00    -0.458 OA
BRANCH  23  24
ATOM     24  C   UNL A   1      33.348  31.102  27.245  1.00  0.00     0.338 C 
ATOM     25  O   UNL A   1      32.812  32.169  27.495  1.00  0.00    -0.246 OA
BRANCH  24  26
ATOM     26  C   UNL A   1      34.776  30.871  27.515  1.00  0.00     0.060 A 
ATOM     27  C   UNL A   1      35.230  29.566  27.649  1.00  0.00     0.016 A 
ATOM     28  C   UNL A   1      35.602  31.932  27.880  1.00  0.00     0.016 A 
ATOM     29  C   UNL A   1      36.419  29.315  28.329  1.00  0.00     0.010 A 
ATOM     30  C   UNL A   1      36.862  31.672  28.432  1.00  0.00     0.010 A 
ATOM     31  C   UNL A   1      37.257  30.357  28.747  1.00  0.00    -0.014 A 
BRANCH  31  32
ATOM     32  C   UNL A   1      38.470  30.099  29.590  1.00  0.00     0.031 A 
ATOM     33  C   UNL A   1      39.593  29.238  29.051  1.00  0.00     0.074 A 
ATOM     34  C   UNL A   1      38.628  30.651  30.812  1.00  0.00     0.049 A 
ATOM     35  N   UNL A   1      40.564  28.636  29.694  1.00  0.00    -0.248 NA
ATOM     36  C   UNL A   1      39.618  29.016  27.597  1.00  0.00     0.031 C 
ATOM     37  C   UNL A   1      37.713  31.595  31.454  1.00  0.00     0.029 A 
ATOM     38  N   UNL A   1      39.637  30.499  31.737  1.00  0.00    -0.354 N 
ATOM     39  C   UNL A   1      41.254  27.896  28.737  1.00  0.00     0.074 A 
ATOM     40  C   UNL A   1      40.599  28.133  27.469  1.00  0.00     0.031 C 
ATOM     41  C   UNL A   1      38.227  31.985  32.628  1.00  0.00     0.029 A 
ATOM     42  C   UNL A   1      39.427  31.205  32.898  1.00  0.00     0.049 A 
ATOM     43  H   UNL A   1      40.432  29.940  31.583  1.00  0.00     0.167 HD
ATOM     44  C   UNL A   1      42.332  27.091  28.907  1.00  0.00     0.037 A 
ATOM     45  C   UNL A   1      40.068  31.176  34.083  1.00  0.00     0.037 A 
ATOM     46  C   UNL A   1      43.036  26.931  30.155  1.00  0.00     0.049 A 
ATOM     47  C   UNL A   1      41.210  30.218  34.278  1.00  0.00     0.074 A 
ATOM     48  C   UNL A   1      44.135  26.135  30.432  1.00  0.00     0.029 A 
ATOM     49  N   UNL A   1      42.732  27.608  31.327  1.00  0.00    -0.354 N 
ATOM     50  N   UNL A   1      41.766  29.407  33.414  1.00  0.00    -0.248 NA
ATOM     51  C   UNL A   1      41.786  30.147  35.628  1.00  0.00     0.031 C 
ATOM     52  C   UNL A   1      44.469  26.298  31.780  1.00  0.00     0.029 A 
ATOM     53  C   UNL A   1      43.612  27.236  32.331  1.00  0.00     0.049 A 
ATOM     54  H   UNL A   1      41.999  28.257  31.429  1.00  0.00     0.167 HD
ATOM     55  C   UNL A   1      42.757  28.731  34.111  1.00  0.00     0.074 A 
ATOM     56  C   UNL A   1      42.750  29.254  35.461  1.00  0.00     0.031 C 
ATOM     57  C   UNL A   1      43.591  27.755  33.674  1.00  0.00     0.037 A 
BRANCH  44  58
ATOM     58  C   UNL A   1      42.807  26.282  27.732  1.00  0.00     0.064 A 
ATOM     59  C   UNL A   1      42.262  25.031  27.413  1.00  0.00     0.173 A 
ATOM     60  C   UNL A   1      43.780  26.811  26.867  1.00  0.00     0.173 A 
ATOM     61  F   UNL A   1      41.340  24.472  28.211  1.00  0.00    -0.203 F 
ATOM     62  C   UNL A   1      42.681  24.334  26.280  1.00  0.00     0.198 A 
ATOM     63  C   UNL A   1      44.173  26.127  25.719  1.00  0.00     0.198 A 
ATOM     64  F   UNL A   1      44.331  28.007  27.120  1.00  0.00    -0.203 F 
ATOM     65  F   UNL A   1      42.171  23.124  26.014  1.00  0.00    -0.200 F 
ATOM     66  C   UNL A   1      43.625  24.888  25.428  1.00  0.00     0.200 A 
ATOM     67  F   UNL A   1      45.073  26.673  24.889  1.00  0.00    -0.200 F 
ATOM     68  F   UNL A   1      44.011  24.225  24.329  1.00  0.00    -0.200 F 
ENDBRANCH  44  58
BRANCH  45  69
ATOM     69  C   UNL A   1      39.583  32.025  35.206  1.00  0.00     0.064 A 
ATOM     70  C   UNL A   1      40.030  33.344  35.357  1.00  0.00     0.173 A 
ATOM     71  C   UNL A   1      38.652  31.542  36.140  1.00  0.00     0.173 A 
ATOM     72  F   UNL A   1      40.946  33.840  34.513  1.00  0.00    -0.203 F 
ATOM     73  C   UNL A   1      39.561  34.148  36.394  1.00  0.00     0.198 A 
ATOM     74  C   UNL A   1      38.154  32.359  37.151  1.00  0.00     0.198 A 
ATOM     75  F   UNL A   1      38.199  30.283  36.049  1.00  0.00    -0.203 F 
ATOM     76  F   UNL A   1      40.032  35.394  36.537  1.00  0.00    -0.200 F 
ATOM     77  C   UNL A   1      38.613  33.660  37.281  1.00  0.00     0.200 A 
ATOM     78  F   UNL A   1      37.224  31.887  37.993  1.00  0.00    -0.200 F 
ATOM     79  F   UNL A   1      38.145  34.441  38.264  1.00  0.00    -0.200 F 
ENDBRANCH  45  69
BRANCH  57  80
ATOM     80  C   UNL A   1      44.573  27.199  34.664  1.00  0.00     0.064 A 
ATOM     81  C   UNL A   1      45.832  27.787  34.855  1.00  0.00     0.173 A 
ATOM     82  C   UNL A   1      44.246  26.080  35.446  1.00  0.00     0.173 A 
ATOM     83  F   UNL A   1      46.199  28.849  34.122  1.00  0.00    -0.203 F 
ATOM     84  C   UNL A   1      46.740  27.255  35.766  1.00  0.00     0.198 A 
ATOM     85  C   UNL A   1      45.144  25.572  36.380  1.00  0.00     0.198 A 
ATOM     86  F   UNL A   1      43.051  25.484  35.309  1.00  0.00    -0.203 F 
ATOM     87  F   UNL A   1      47.959  27.799  35.890  1.00  0.00    -0.200 F 
ATOM     88  C   UNL A   1      46.393  26.152  36.532  1.00  0.00     0.200 A 
ATOM     89  F   UNL A   1      44.801  24.514  37.129  1.00  0.00    -0.200 F 
ATOM     90  F   UNL A   1      47.268  25.643  37.411  1.00  0.00    -0.200 F 
ENDBRANCH  57  80
ENDBRANCH  31  32
ENDBRANCH  24  26
ENDBRANCH  23  24
ENDBRANCH   1  23
TORSDOF 12
ENDMDL
