MODEL 1
REMARK VINA RESULT:     -12.0      0.000      0.000
REMARK SMILES CCc1c(C)nn(CC(=O)N2CCC[C@@H](Cn3cc(C(=O)OCCOC(=O)c4ccc(-c5c6nc(c(-c7c(F)c(F)c(F)c(F)c7F)c7ccc([nH]7)c(-c7c(F)c(F)c(F)c(F)c7F)c7nc(c(-c8c(F)c(F)c(F)c(F)c8F)c8ccc5[nH]8)C=C7)C=C6)cc4)nn3)C2)c1C
REMARK SMILES IDX 20 1 21 2 19 3 17 4 18 5 92 6 91 7 16 8 15 9 11 10 12 11
REMARK SMILES IDX 93 12 13 13 14 14 9 15 10 16 8 17 7 18 3 19 4 20 94 21 5 22
REMARK SMILES IDX 6 23 95 24 2 25 1 26 22 27 23 28 24 29 25 30 26 31 27 32
REMARK SMILES IDX 28 33 29 34 90 35 30 36 89 37 31 38 32 39 33 40 83 41 34 42
REMARK SMILES IDX 88 43 82 44 84 45 35 46 87 47 81 48 80 49 36 51 68 52 48 53
REMARK SMILES IDX 67 54 49 55 52 56 66 57 85 58 50 59 51 60 65 62 86 63 53 64
REMARK SMILES IDX 37 65 38 66 46 67 39 68 40 69 44 70 47 71 41 72 42 73 45 74
REMARK SMILES IDX 43 75 69 76 70 77 78 78 71 79 72 80 76 81 79 82 73 83 74 84
REMARK SMILES IDX 77 85 75 86 54 87 55 88 63 89 56 90 57 91 61 92 64 93 58 94
REMARK SMILES IDX 59 95 62 96 60 97
REMARK H PARENT 84 50 52 61
REMARK Flexibility Score: inf
ROOT
ATOM      1  C   UNL A   1      32.711  35.929  29.585  1.00  0.00     0.360 C 
ATOM      2  O   UNL A   1      32.449  36.669  28.638  1.00  0.00    -0.244 OA
ENDROOT
BRANCH   1   3
ATOM      3  C   UNL A   1      32.836  36.390  30.956  1.00  0.00     0.190 A 
ATOM      4  N   UNL A   1      33.261  36.409  33.057  1.00  0.00    -0.251 N 
ATOM      5  C   UNL A   1      32.609  35.670  32.115  1.00  0.00     0.146 A 
ATOM      6  N   UNL A   1      33.479  37.658  32.615  1.00  0.00    -0.067 NA
ATOM      7  N   UNL A   1      33.267  37.647  31.305  1.00  0.00    -0.123 NA
BRANCH   4   8
ATOM      8  C   UNL A   1      34.071  35.871  34.134  1.00  0.00     0.151 C 
BRANCH   8   9
ATOM      9  C   UNL A   1      35.111  34.825  33.652  1.00  0.00     0.030 C 
ATOM     10  N   UNL A   1      37.046  33.427  34.361  1.00  0.00    -0.341 N 
ATOM     11  C   UNL A   1      36.472  32.230  33.741  1.00  0.00     0.119 C 
ATOM     12  C   UNL A   1      36.060  34.402  34.787  1.00  0.00     0.125 C 
ATOM     13  C   UNL A   1      35.547  32.577  32.579  1.00  0.00     0.022 C 
ATOM     14  C   UNL A   1      34.478  33.588  32.996  1.00  0.00     0.009 C 
BRANCH  10  15
ATOM     15  C   UNL A   1      38.418  33.495  34.554  1.00  0.00     0.244 C 
ATOM     16  O   UNL A   1      38.951  32.752  35.394  1.00  0.00    -0.273 OA
BRANCH  15  17
ATOM     17  C   UNL A   1      39.278  34.617  33.985  1.00  0.00     0.244 C 
BRANCH  17  18
ATOM     18  N   UNL A   1      39.768  34.531  32.621  1.00  0.00    -0.260 N 
ATOM     19  C   UNL A   1      41.012  34.271  30.812  1.00  0.00    -0.004 A 
ATOM     20  C   UNL A   1      39.642  34.507  30.501  1.00  0.00     0.063 A 
ATOM     21  C   UNL A   1      41.059  34.286  32.200  1.00  0.00     0.039 A 
ATOM     22  C   UNL A   1      38.990  34.614  29.172  1.00  0.00     0.069 C 
ATOM     23  N   UNL A   1      38.899  34.660  31.602  1.00  0.00    -0.177 NA
ATOM     24  C   UNL A   1      42.198  34.111  33.140  1.00  0.00     0.066 C 
BRANCH  19  25
ATOM     25  C   UNL A   1      42.135  34.037  29.853  1.00  0.00     0.036 C 
ATOM     26  C   UNL A   1      42.888  35.308  29.486  1.00  0.00     0.009 C 
ENDBRANCH  19  25
ENDBRANCH  17  18
ENDBRANCH  15  17
ENDBRANCH  10  15
ENDBRANCH   8   9
ENDBRANCH   4   8
ENDBRANCH   1   3
BRANCH   1  27
ATOM     27  O   UNL A   1      32.900  34.575  29.468  1.00  0.00    -0.457 OA
BRANCH  27  28
ATOM     28  C   UNL A   1      34.268  34.139  29.408  1.00  0.00     0.275 C 
BRANCH  28  29
ATOM     29  C   UNL A   1      34.693  33.915  27.963  1.00  0.00     0.275 C 
BRANCH  29  30
ATOM     30  O   UNL A   1      35.780  32.996  27.901  1.00  0.00    -0.458 OA
BRANCH  30  31
ATOM     31  C   UNL A   1      35.429  31.691  27.839  1.00  0.00     0.338 C 
ATOM     32  O   UNL A   1      34.417  31.226  27.342  1.00  0.00    -0.246 OA
BRANCH  31  33
ATOM     33  C   UNL A   1      36.338  30.916  28.684  1.00  0.00     0.060 A 
ATOM     34  C   UNL A   1      37.345  31.629  29.339  1.00  0.00     0.016 A 
ATOM     35  C   UNL A   1      36.408  29.530  28.482  1.00  0.00     0.016 A 
ATOM     36  C   UNL A   1      38.541  30.988  29.568  1.00  0.00     0.010 A 
ATOM     37  C   UNL A   1      37.608  28.902  28.682  1.00  0.00     0.010 A 
ATOM     38  C   UNL A   1      38.680  29.663  29.137  1.00  0.00    -0.014 A 
BRANCH  38  39
ATOM     39  C   UNL A   1      39.966  29.028  29.290  1.00  0.00     0.031 A 
ATOM     40  C   UNL A   1      40.273  28.728  30.704  1.00  0.00     0.074 A 
ATOM     41  C   UNL A   1      40.712  28.646  28.238  1.00  0.00     0.049 A 
ATOM     42  N   UNL A   1      41.219  29.228  31.424  1.00  0.00    -0.248 NA
ATOM     43  C   UNL A   1      39.305  27.911  31.455  1.00  0.00     0.031 C 
ATOM     44  C   UNL A   1      40.363  28.650  26.816  1.00  0.00     0.029 A 
ATOM     45  N   UNL A   1      41.943  28.074  28.246  1.00  0.00    -0.354 N 
ATOM     46  C   UNL A   1      41.078  28.640  32.675  1.00  0.00     0.074 A 
ATOM     47  C   UNL A   1      39.789  28.002  32.692  1.00  0.00     0.031 C 
ATOM     48  C   UNL A   1      41.263  27.901  26.135  1.00  0.00     0.029 A 
ATOM     49  C   UNL A   1      42.309  27.474  27.049  1.00  0.00     0.049 A 
ATOM     50  H   UNL A   1      42.529  28.083  29.037  1.00  0.00     0.167 HD
ATOM     51  C   UNL A   1      42.152  28.491  33.493  1.00  0.00     0.037 A 
ATOM     52  C   UNL A   1      43.354  26.624  26.881  1.00  0.00     0.037 A 
ATOM     53  C   UNL A   1      43.205  29.410  33.142  1.00  0.00     0.049 A 
ATOM     54  C   UNL A   1      44.275  26.825  28.033  1.00  0.00     0.074 A 
ATOM     55  C   UNL A   1      43.285  30.787  33.061  1.00  0.00     0.029 A 
ATOM     56  N   UNL A   1      44.269  28.936  32.414  1.00  0.00    -0.354 N 
ATOM     57  N   UNL A   1      44.970  27.915  28.220  1.00  0.00    -0.248 NA
ATOM     58  C   UNL A   1      44.046  26.020  29.226  1.00  0.00     0.031 C 
ATOM     59  C   UNL A   1      44.071  31.046  31.900  1.00  0.00     0.029 A 
ATOM     60  C   UNL A   1      44.486  29.818  31.384  1.00  0.00     0.049 A 
ATOM     61  H   UNL A   1      44.781  28.114  32.595  1.00  0.00     0.167 HD
ATOM     62  C   UNL A   1      44.890  28.154  29.584  1.00  0.00     0.074 A 
ATOM     63  C   UNL A   1      44.365  26.919  30.162  1.00  0.00     0.031 C 
ATOM     64  C   UNL A   1      44.972  29.422  30.085  1.00  0.00     0.037 A 
BRANCH  51  65
ATOM     65  C   UNL A   1      42.375  27.258  34.330  1.00  0.00     0.064 A 
ATOM     66  C   UNL A   1      42.044  27.292  35.695  1.00  0.00     0.173 A 
ATOM     67  C   UNL A   1      43.163  26.158  33.920  1.00  0.00     0.173 A 
ATOM     68  F   UNL A   1      41.324  28.306  36.198  1.00  0.00    -0.203 F 
ATOM     69  C   UNL A   1      42.527  26.335  36.592  1.00  0.00     0.198 A 
ATOM     70  C   UNL A   1      43.594  25.175  34.806  1.00  0.00     0.198 A 
ATOM     71  F   UNL A   1      43.652  26.045  32.679  1.00  0.00    -0.203 F 
ATOM     72  F   UNL A   1      42.294  26.480  37.904  1.00  0.00    -0.200 F 
ATOM     73  C   UNL A   1      43.303  25.280  36.147  1.00  0.00     0.200 A 
ATOM     74  F   UNL A   1      44.364  24.175  34.355  1.00  0.00    -0.200 F 
ATOM     75  F   UNL A   1      43.817  24.399  37.014  1.00  0.00    -0.200 F 
ENDBRANCH  51  65
BRANCH  52  76
ATOM     76  C   UNL A   1      43.427  25.423  26.011  1.00  0.00     0.064 A 
ATOM     77  C   UNL A   1      44.575  25.152  25.247  1.00  0.00     0.173 A 
ATOM     78  C   UNL A   1      42.493  24.374  26.126  1.00  0.00     0.173 A 
ATOM     79  F   UNL A   1      45.537  26.076  25.124  1.00  0.00    -0.203 F 
ATOM     80  C   UNL A   1      44.785  23.899  24.657  1.00  0.00     0.198 A 
ATOM     81  C   UNL A   1      42.701  23.129  25.531  1.00  0.00     0.198 A 
ATOM     82  F   UNL A   1      41.404  24.501  26.897  1.00  0.00    -0.203 F 
ATOM     83  F   UNL A   1      45.922  23.658  23.988  1.00  0.00    -0.200 F 
ATOM     84  C   UNL A   1      43.853  22.886  24.808  1.00  0.00     0.200 A 
ATOM     85  F   UNL A   1      41.807  22.147  25.718  1.00  0.00    -0.200 F 
ATOM     86  F   UNL A   1      44.083  21.669  24.297  1.00  0.00    -0.200 F 
ENDBRANCH  52  76
BRANCH  64  87
ATOM     87  C   UNL A   1      45.379  30.524  29.144  1.00  0.00     0.064 A 
ATOM     88  C   UNL A   1      46.712  30.826  28.813  1.00  0.00     0.173 A 
ATOM     89  C   UNL A   1      44.374  31.202  28.442  1.00  0.00     0.173 A 
ATOM     90  F   UNL A   1      47.730  30.151  29.359  1.00  0.00    -0.203 F 
ATOM     91  C   UNL A   1      47.020  31.795  27.858  1.00  0.00     0.198 A 
ATOM     92  C   UNL A   1      44.684  32.141  27.462  1.00  0.00     0.198 A 
ATOM     93  F   UNL A   1      43.083  30.917  28.673  1.00  0.00    -0.203 F 
ATOM     94  F   UNL A   1      48.301  32.073  27.570  1.00  0.00    -0.200 F 
ATOM     95  C   UNL A   1      46.005  32.447  27.178  1.00  0.00     0.200 A 
ATOM     96  F   UNL A   1      43.698  32.731  26.771  1.00  0.00    -0.200 F 
ATOM     97  F   UNL A   1      46.299  33.348  26.231  1.00  0.00    -0.200 F 
ENDBRANCH  64  87
ENDBRANCH  38  39
ENDBRANCH  31  33
ENDBRANCH  30  31
ENDBRANCH  29  30
ENDBRANCH  28  29
ENDBRANCH  27  28
ENDBRANCH   1  27
TORSDOF 17
ENDMDL
MODEL 2
REMARK VINA RESULT:     -11.9      5.296     11.430
REMARK SMILES CCc1c(C)nn(CC(=O)N2CCC[C@@H](Cn3cc(C(=O)OCCOC(=O)c4ccc(-c5c6nc(c(-c7c(F)c(F)c(F)c(F)c7F)c7ccc([nH]7)c(-c7c(F)c(F)c(F)c(F)c7F)c7nc(c(-c8c(F)c(F)c(F)c(F)c8F)c8ccc5[nH]8)C=C7)C=C6)cc4)nn3)C2)c1C
REMARK SMILES IDX 20 1 21 2 19 3 17 4 18 5 92 6 91 7 16 8 15 9 11 10 12 11
REMARK SMILES IDX 93 12 13 13 14 14 9 15 10 16 8 17 7 18 3 19 4 20 94 21 5 22
REMARK SMILES IDX 6 23 95 24 2 25 1 26 22 27 23 28 24 29 25 30 26 31 27 32
REMARK SMILES IDX 28 33 29 34 90 35 30 36 89 37 31 38 32 39 33 40 83 41 34 42
REMARK SMILES IDX 88 43 82 44 84 45 35 46 87 47 81 48 80 49 36 51 68 52 48 53
REMARK SMILES IDX 67 54 49 55 52 56 66 57 85 58 50 59 51 60 65 62 86 63 53 64
REMARK SMILES IDX 37 65 38 66 46 67 39 68 40 69 44 70 47 71 41 72 42 73 45 74
REMARK SMILES IDX 43 75 69 76 70 77 78 78 71 79 72 80 76 81 79 82 73 83 74 84
REMARK SMILES IDX 77 85 75 86 54 87 55 88 63 89 56 90 57 91 61 92 64 93 58 94
REMARK SMILES IDX 59 95 62 96 60 97
REMARK H PARENT 84 50 52 61
REMARK Flexibility Score: inf
ROOT
ATOM      1  C   UNL A   1      41.326  20.734  26.172  1.00  0.00     0.360 C 
ATOM      2  O   UNL A   1      42.140  21.442  26.761  1.00  0.00    -0.244 OA
ENDROOT
BRANCH   1   3
ATOM      3  C   UNL A   1      39.910  21.043  26.079  1.00  0.00     0.190 A 
ATOM      4  N   UNL A   1      38.089  22.144  25.822  1.00  0.00    -0.251 N 
ATOM      5  C   UNL A   1      39.263  22.185  26.514  1.00  0.00     0.146 A 
ATOM      6  N   UNL A   1      37.851  20.905  25.362  1.00  0.00    -0.067 NA
ATOM      7  N   UNL A   1      38.987  20.228  25.470  1.00  0.00    -0.123 NA
BRANCH   4   8
ATOM      8  C   UNL A   1      37.440  23.283  25.200  1.00  0.00     0.151 C 
BRANCH   8   9
ATOM      9  C   UNL A   1      35.939  23.037  24.892  1.00  0.00     0.030 C 
ATOM     10  N   UNL A   1      33.621  23.783  25.414  1.00  0.00    -0.341 N 
ATOM     11  C   UNL A   1      33.268  23.842  23.993  1.00  0.00     0.119 C 
ATOM     12  C   UNL A   1      35.031  23.997  25.680  1.00  0.00     0.125 C 
ATOM     13  C   UNL A   1      34.107  22.883  23.156  1.00  0.00     0.022 C 
ATOM     14  C   UNL A   1      35.603  23.093  23.394  1.00  0.00     0.009 C 
BRANCH  10  15
ATOM     15  C   UNL A   1      32.615  23.614  26.353  1.00  0.00     0.244 C 
ATOM     16  O   UNL A   1      32.665  22.646  27.129  1.00  0.00    -0.273 OA
BRANCH  15  17
ATOM     17  C   UNL A   1      31.309  24.397  26.315  1.00  0.00     0.244 C 
BRANCH  17  18
ATOM     18  N   UNL A   1      31.327  25.817  26.014  1.00  0.00    -0.260 N 
ATOM     19  C   UNL A   1      31.072  27.804  25.080  1.00  0.00    -0.004 A 
ATOM     20  C   UNL A   1      31.673  27.882  26.369  1.00  0.00     0.063 A 
ATOM     21  C   UNL A   1      30.854  26.447  24.882  1.00  0.00     0.039 A 
ATOM     22  C   UNL A   1      32.141  29.079  27.111  1.00  0.00     0.069 C 
ATOM     23  N   UNL A   1      31.820  26.676  26.925  1.00  0.00    -0.177 NA
ATOM     24  C   UNL A   1      30.266  25.711  23.730  1.00  0.00     0.066 C 
BRANCH  19  25
ATOM     25  C   UNL A   1      30.734  28.937  24.165  1.00  0.00     0.036 C 
ATOM     26  C   UNL A   1      31.606  28.986  22.918  1.00  0.00     0.009 C 
ENDBRANCH  19  25
ENDBRANCH  17  18
ENDBRANCH  15  17
ENDBRANCH  10  15
ENDBRANCH   8   9
ENDBRANCH   4   8
ENDBRANCH   1   3
BRANCH   1  27
ATOM     27  O   UNL A   1      41.654  19.574  25.515  1.00  0.00    -0.457 OA
BRANCH  27  28
ATOM     28  C   UNL A   1      42.569  18.705  26.202  1.00  0.00     0.275 C 
BRANCH  28  29
ATOM     29  C   UNL A   1      43.858  18.554  25.407  1.00  0.00     0.275 C 
BRANCH  29  30
ATOM     30  O   UNL A   1      44.611  19.763  25.445  1.00  0.00    -0.458 OA
BRANCH  30  31
ATOM     31  C   UNL A   1      44.630  20.467  24.290  1.00  0.00     0.338 C 
ATOM     32  O   UNL A   1      44.604  20.018  23.156  1.00  0.00    -0.246 OA
BRANCH  31  33
ATOM     33  C   UNL A   1      44.936  21.866  24.594  1.00  0.00     0.060 A 
ATOM     34  C   UNL A   1      45.824  22.097  25.647  1.00  0.00     0.016 A 
ATOM     35  C   UNL A   1      44.062  22.852  24.117  1.00  0.00     0.016 A 
ATOM     36  C   UNL A   1      45.656  23.244  26.388  1.00  0.00     0.010 A 
ATOM     37  C   UNL A   1      43.875  23.977  24.873  1.00  0.00     0.010 A 
ATOM     38  C   UNL A   1      44.612  24.111  26.045  1.00  0.00    -0.014 A 
BRANCH  38  39
ATOM     39  C   UNL A   1      44.377  25.262  26.884  1.00  0.00     0.031 A 
ATOM     40  C   UNL A   1      45.414  26.300  26.707  1.00  0.00     0.074 A 
ATOM     41  C   UNL A   1      43.264  25.398  27.627  1.00  0.00     0.049 A 
ATOM     42  N   UNL A   1      46.267  26.713  27.582  1.00  0.00    -0.248 NA
ATOM     43  C   UNL A   1      45.646  26.809  25.345  1.00  0.00     0.031 C 
ATOM     44  C   UNL A   1      42.066  24.556  27.647  1.00  0.00     0.029 A 
ATOM     45  N   UNL A   1      42.941  26.406  28.477  1.00  0.00    -0.354 N 
ATOM     46  C   UNL A   1      47.024  27.677  26.929  1.00  0.00     0.074 A 
ATOM     47  C   UNL A   1      46.734  27.555  25.526  1.00  0.00     0.031 C 
ATOM     48  C   UNL A   1      41.071  25.215  28.290  1.00  0.00     0.029 A 
ATOM     49  C   UNL A   1      41.599  26.457  28.828  1.00  0.00     0.049 A 
ATOM     50  H   UNL A   1      43.604  27.049  28.816  1.00  0.00     0.167 HD
ATOM     51  C   UNL A   1      47.616  28.681  27.628  1.00  0.00     0.037 A 
ATOM     52  C   UNL A   1      40.984  27.502  29.440  1.00  0.00     0.037 A 
ATOM     53  C   UNL A   1      47.776  28.324  29.015  1.00  0.00     0.049 A 
ATOM     54  C   UNL A   1      42.048  28.331  30.071  1.00  0.00     0.074 A 
ATOM     55  C   UNL A   1      48.430  27.298  29.670  1.00  0.00     0.029 A 
ATOM     56  N   UNL A   1      46.882  28.832  29.927  1.00  0.00    -0.354 N 
ATOM     57  N   UNL A   1      42.764  27.934  31.088  1.00  0.00    -0.248 NA
ATOM     58  C   UNL A   1      42.644  29.388  29.264  1.00  0.00     0.031 C 
ATOM     59  C   UNL A   1      47.560  26.924  30.736  1.00  0.00     0.029 A 
ATOM     60  C   UNL A   1      46.466  27.789  30.716  1.00  0.00     0.049 A 
ATOM     61  H   UNL A   1      46.592  29.770  29.999  1.00  0.00     0.167 HD
ATOM     62  C   UNL A   1      44.051  28.365  30.803  1.00  0.00     0.074 A 
ATOM     63  C   UNL A   1      43.904  29.312  29.700  1.00  0.00     0.031 C 
ATOM     64  C   UNL A   1      45.142  27.696  31.281  1.00  0.00     0.037 A 
BRANCH  51  65
ATOM     65  C   UNL A   1      47.674  30.100  27.127  1.00  0.00     0.064 A 
ATOM     66  C   UNL A   1      48.888  30.803  27.210  1.00  0.00     0.173 A 
ATOM     67  C   UNL A   1      46.532  30.885  26.845  1.00  0.00     0.173 A 
ATOM     68  F   UNL A   1      50.030  30.162  27.502  1.00  0.00    -0.203 F 
ATOM     69  C   UNL A   1      48.941  32.195  27.091  1.00  0.00     0.198 A 
ATOM     70  C   UNL A   1      46.597  32.263  26.669  1.00  0.00     0.198 A 
ATOM     71  F   UNL A   1      45.293  30.379  26.845  1.00  0.00    -0.203 F 
ATOM     72  F   UNL A   1      50.098  32.835  27.307  1.00  0.00    -0.200 F 
ATOM     73  C   UNL A   1      47.795  32.923  26.824  1.00  0.00     0.200 A 
ATOM     74  F   UNL A   1      45.470  32.950  26.434  1.00  0.00    -0.200 F 
ATOM     75  F   UNL A   1      47.834  34.260  26.772  1.00  0.00    -0.200 F 
ENDBRANCH  51  65
BRANCH  52  76
ATOM     76  C   UNL A   1      39.611  28.018  29.210  1.00  0.00     0.064 A 
ATOM     77  C   UNL A   1      38.698  28.139  30.271  1.00  0.00     0.173 A 
ATOM     78  C   UNL A   1      39.260  28.666  28.010  1.00  0.00     0.173 A 
ATOM     79  F   UNL A   1      38.973  27.593  31.464  1.00  0.00    -0.203 F 
ATOM     80  C   UNL A   1      37.518  28.883  30.144  1.00  0.00     0.198 A 
ATOM     81  C   UNL A   1      38.081  29.401  27.882  1.00  0.00     0.198 A 
ATOM     82  F   UNL A   1      40.099  28.681  26.963  1.00  0.00    -0.203 F 
ATOM     83  F   UNL A   1      36.701  29.027  31.197  1.00  0.00    -0.200 F 
ATOM     84  C   UNL A   1      37.217  29.522  28.952  1.00  0.00     0.200 A 
ATOM     85  F   UNL A   1      37.822  30.045  26.735  1.00  0.00    -0.200 F 
ATOM     86  F   UNL A   1      36.120  30.286  28.849  1.00  0.00    -0.200 F 
ENDBRANCH  52  76
BRANCH  64  87
ATOM     87  C   UNL A   1      44.912  26.621  32.308  1.00  0.00     0.064 A 
ATOM     88  C   UNL A   1      44.640  25.277  31.996  1.00  0.00     0.173 A 
ATOM     89  C   UNL A   1      45.121  26.936  33.657  1.00  0.00     0.173 A 
ATOM     90  F   UNL A   1      44.532  24.871  30.725  1.00  0.00    -0.203 F 
ATOM     91  C   UNL A   1      44.535  24.307  32.993  1.00  0.00     0.198 A 
ATOM     92  C   UNL A   1      45.055  25.959  34.647  1.00  0.00     0.198 A 
ATOM     93  F   UNL A   1      45.441  28.190  34.012  1.00  0.00    -0.203 F 
ATOM     94  F   UNL A   1      44.261  23.034  32.669  1.00  0.00    -0.200 F 
ATOM     95  C   UNL A   1      44.749  24.648  34.317  1.00  0.00     0.200 A 
ATOM     96  F   UNL A   1      45.314  26.285  35.921  1.00  0.00    -0.200 F 
ATOM     97  F   UNL A   1      44.691  23.711  35.273  1.00  0.00    -0.200 F 
ENDBRANCH  64  87
ENDBRANCH  38  39
ENDBRANCH  31  33
ENDBRANCH  30  31
ENDBRANCH  29  30
ENDBRANCH  28  29
ENDBRANCH  27  28
ENDBRANCH   1  27
TORSDOF 17
ENDMDL
MODEL 3
REMARK VINA RESULT:     -11.7      5.234     11.241
REMARK SMILES CCc1c(C)nn(CC(=O)N2CCC[C@@H](Cn3cc(C(=O)OCCOC(=O)c4ccc(-c5c6nc(c(-c7c(F)c(F)c(F)c(F)c7F)c7ccc([nH]7)c(-c7c(F)c(F)c(F)c(F)c7F)c7nc(c(-c8c(F)c(F)c(F)c(F)c8F)c8ccc5[nH]8)C=C7)C=C6)cc4)nn3)C2)c1C
REMARK SMILES IDX 20 1 21 2 19 3 17 4 18 5 92 6 91 7 16 8 15 9 11 10 12 11
REMARK SMILES IDX 93 12 13 13 14 14 9 15 10 16 8 17 7 18 3 19 4 20 94 21 5 22
REMARK SMILES IDX 6 23 95 24 2 25 1 26 22 27 23 28 24 29 25 30 26 31 27 32
REMARK SMILES IDX 28 33 29 34 90 35 30 36 89 37 31 38 32 39 33 40 83 41 34 42
REMARK SMILES IDX 88 43 82 44 84 45 35 46 87 47 81 48 80 49 36 51 68 52 48 53
REMARK SMILES IDX 67 54 49 55 52 56 66 57 85 58 50 59 51 60 65 62 86 63 53 64
REMARK SMILES IDX 37 65 38 66 46 67 39 68 40 69 44 70 47 71 41 72 42 73 45 74
REMARK SMILES IDX 43 75 69 76 70 77 78 78 71 79 72 80 76 81 79 82 73 83 74 84
REMARK SMILES IDX 77 85 75 86 54 87 55 88 63 89 56 90 57 91 61 92 64 93 58 94
REMARK SMILES IDX 59 95 62 96 60 97
REMARK H PARENT 84 50 52 61
REMARK Flexibility Score: inf
ROOT
ATOM      1  C   UNL A   1      40.399  21.478  26.813  1.00  0.00     0.360 C 
ATOM      2  O   UNL A   1      40.677  21.509  28.010  1.00  0.00    -0.244 OA
ENDROOT
BRANCH   1   3
ATOM      3  C   UNL A   1      39.202  22.077  26.249  1.00  0.00     0.190 A 
ATOM      4  N   UNL A   1      37.158  22.358  25.666  1.00  0.00    -0.251 N 
ATOM      5  C   UNL A   1      38.162  21.438  25.598  1.00  0.00     0.146 A 
ATOM      6  N   UNL A   1      37.651  23.581  25.927  1.00  0.00    -0.067 NA
ATOM      7  N   UNL A   1      38.902  23.415  26.337  1.00  0.00    -0.123 NA
BRANCH   4   8
ATOM      8  C   UNL A   1      35.766  22.065  25.950  1.00  0.00     0.151 C 
BRANCH   8   9
ATOM      9  C   UNL A   1      34.806  22.498  24.811  1.00  0.00     0.030 C 
ATOM     10  N   UNL A   1      32.855  23.941  24.254  1.00  0.00    -0.341 N 
ATOM     11  C   UNL A   1      33.518  24.460  23.055  1.00  0.00     0.119 C 
ATOM     12  C   UNL A   1      33.769  23.524  25.300  1.00  0.00     0.125 C 
ATOM     13  C   UNL A   1      34.535  23.472  22.493  1.00  0.00     0.022 C 
ATOM     14  C   UNL A   1      35.532  23.025  23.563  1.00  0.00     0.009 C 
BRANCH  10  15
ATOM     15  C   UNL A   1      31.469  23.963  24.322  1.00  0.00     0.244 C 
ATOM     16  O   UNL A   1      30.811  23.303  23.503  1.00  0.00    -0.273 OA
BRANCH  15  17
ATOM     17  C   UNL A   1      30.700  24.962  25.178  1.00  0.00     0.244 C 
BRANCH  17  18
ATOM     18  N   UNL A   1      30.838  26.385  24.926  1.00  0.00    -0.260 N 
ATOM     19  C   UNL A   1      31.491  28.497  24.912  1.00  0.00    -0.004 A 
ATOM     20  C   UNL A   1      30.432  28.249  23.993  1.00  0.00     0.063 A 
ATOM     21  C   UNL A   1      31.736  27.262  25.499  1.00  0.00     0.039 A 
ATOM     22  C   UNL A   1      29.738  29.199  23.088  1.00  0.00     0.069 C 
ATOM     23  N   UNL A   1      30.047  26.969  24.007  1.00  0.00    -0.177 NA
ATOM     24  C   UNL A   1      32.712  26.854  26.545  1.00  0.00     0.066 C 
BRANCH  19  25
ATOM     25  C   UNL A   1      32.191  29.794  25.165  1.00  0.00     0.036 C 
ATOM     26  C   UNL A   1      31.889  30.385  26.535  1.00  0.00     0.009 C 
ENDBRANCH  19  25
ENDBRANCH  17  18
ENDBRANCH  15  17
ENDBRANCH  10  15
ENDBRANCH   8   9
ENDBRANCH   4   8
ENDBRANCH   1   3
BRANCH   1  27
ATOM     27  O   UNL A   1      41.191  20.891  25.858  1.00  0.00    -0.457 OA
BRANCH  27  28
ATOM     28  C   UNL A   1      41.562  19.525  26.108  1.00  0.00     0.275 C 
BRANCH  28  29
ATOM     29  C   UNL A   1      42.927  19.225  25.505  1.00  0.00     0.275 C 
BRANCH  29  30
ATOM     30  O   UNL A   1      43.832  20.294  25.766  1.00  0.00    -0.458 OA
BRANCH  30  31
ATOM     31  C   UNL A   1      44.433  20.820  24.674  1.00  0.00     0.338 C 
ATOM     32  O   UNL A   1      44.884  20.209  23.719  1.00  0.00    -0.246 OA
BRANCH  31  33
ATOM     33  C   UNL A   1      44.689  22.240  24.912  1.00  0.00     0.060 A 
ATOM     34  C   UNL A   1      45.576  22.551  25.946  1.00  0.00     0.016 A 
ATOM     35  C   UNL A   1      43.775  23.172  24.401  1.00  0.00     0.016 A 
ATOM     36  C   UNL A   1      45.371  23.723  26.637  1.00  0.00     0.010 A 
ATOM     37  C   UNL A   1      43.553  24.322  25.108  1.00  0.00     0.010 A 
ATOM     38  C   UNL A   1      44.293  24.535  26.266  1.00  0.00    -0.014 A 
BRANCH  38  39
ATOM     39  C   UNL A   1      44.022  25.712  27.055  1.00  0.00     0.031 A 
ATOM     40  C   UNL A   1      44.994  26.794  26.793  1.00  0.00     0.074 A 
ATOM     41  C   UNL A   1      42.928  25.826  27.829  1.00  0.00     0.049 A 
ATOM     42  N   UNL A   1      45.851  27.295  27.616  1.00  0.00    -0.248 NA
ATOM     43  C   UNL A   1      45.154  27.245  25.401  1.00  0.00     0.031 C 
ATOM     44  C   UNL A   1      41.778  24.924  27.932  1.00  0.00     0.029 A 
ATOM     45  N   UNL A   1      42.577  26.857  28.640  1.00  0.00    -0.354 N 
ATOM     46  C   UNL A   1      46.532  28.265  26.892  1.00  0.00     0.074 A 
ATOM     47  C   UNL A   1      46.205  28.056  25.507  1.00  0.00     0.031 C 
ATOM     48  C   UNL A   1      40.770  25.560  28.576  1.00  0.00     0.029 A 
ATOM     49  C   UNL A   1      41.246  26.854  29.034  1.00  0.00     0.049 A 
ATOM     50  H   UNL A   1      43.214  27.551  28.924  1.00  0.00     0.167 HD
ATOM     51  C   UNL A   1      47.090  29.332  27.520  1.00  0.00     0.037 A 
ATOM     52  C   UNL A   1      40.594  27.894  29.615  1.00  0.00     0.037 A 
ATOM     53  C   UNL A   1      47.313  29.055  28.916  1.00  0.00     0.049 A 
ATOM     54  C   UNL A   1      41.631  28.809  30.168  1.00  0.00     0.074 A 
ATOM     55  C   UNL A   1      48.044  28.100  29.597  1.00  0.00     0.029 A 
ATOM     56  N   UNL A   1      46.423  29.560  29.832  1.00  0.00    -0.354 N 
ATOM     57  N   UNL A   1      42.399  28.503  31.178  1.00  0.00    -0.248 NA
ATOM     58  C   UNL A   1      42.141  29.855  29.290  1.00  0.00     0.031 C 
ATOM     59  C   UNL A   1      47.230  27.734  30.709  1.00  0.00     0.029 A 
ATOM     60  C   UNL A   1      46.090  28.538  30.686  1.00  0.00     0.049 A 
ATOM     61  H   UNL A   1      46.084  30.484  29.869  1.00  0.00     0.167 HD
ATOM     62  C   UNL A   1      43.651  28.988  30.828  1.00  0.00     0.074 A 
ATOM     63  C   UNL A   1      43.417  29.869  29.686  1.00  0.00     0.031 C 
ATOM     64  C   UNL A   1      44.791  28.403  31.300  1.00  0.00     0.037 A 
BRANCH  51  65
ATOM     65  C   UNL A   1      47.054  30.726  26.949  1.00  0.00     0.064 A 
ATOM     66  C   UNL A   1      48.229  31.497  26.956  1.00  0.00     0.173 A 
ATOM     67  C   UNL A   1      45.861  31.433  26.667  1.00  0.00     0.173 A 
ATOM     68  F   UNL A   1      49.413  30.933  27.240  1.00  0.00    -0.203 F 
ATOM     69  C   UNL A   1      48.201  32.881  26.768  1.00  0.00     0.198 A 
ATOM     70  C   UNL A   1      45.845  32.802  26.423  1.00  0.00     0.198 A 
ATOM     71  F   UNL A   1      44.653  30.862  26.734  1.00  0.00    -0.203 F 
ATOM     72  F   UNL A   1      49.327  33.592  26.913  1.00  0.00    -0.200 F 
ATOM     73  C   UNL A   1      47.009  33.533  26.505  1.00  0.00     0.200 A 
ATOM     74  F   UNL A   1      44.675  33.415  26.193  1.00  0.00    -0.200 F 
ATOM     75  F   UNL A   1      46.973  34.865  26.386  1.00  0.00    -0.200 F 
ENDBRANCH  51  65
BRANCH  52  76
ATOM     76  C   UNL A   1      39.189  28.324  29.408  1.00  0.00     0.064 A 
ATOM     77  C   UNL A   1      38.316  28.493  30.498  1.00  0.00     0.173 A 
ATOM     78  C   UNL A   1      38.754  28.849  28.176  1.00  0.00     0.173 A 
ATOM     79  F   UNL A   1      38.670  28.065  31.718  1.00  0.00    -0.203 F 
ATOM     80  C   UNL A   1      37.096  29.167  30.364  1.00  0.00     0.198 A 
ATOM     81  C   UNL A   1      37.534  29.515  28.043  1.00  0.00     0.198 A 
ATOM     82  F   UNL A   1      39.544  28.813  27.094  1.00  0.00    -0.203 F 
ATOM     83  F   UNL A   1      36.320  29.363  31.439  1.00  0.00    -0.200 F 
ATOM     84  C   UNL A   1      36.712  29.687  29.139  1.00  0.00     0.200 A 
ATOM     85  F   UNL A   1      37.194  30.045  26.859  1.00  0.00    -0.200 F 
ATOM     86  F   UNL A   1      35.574  30.387  29.024  1.00  0.00    -0.200 F 
ENDBRANCH  52  76
BRANCH  64  87
ATOM     87  C   UNL A   1      44.654  27.370  32.386  1.00  0.00     0.064 A 
ATOM     88  C   UNL A   1      44.534  27.675  33.754  1.00  0.00     0.173 A 
ATOM     89  C   UNL A   1      44.493  26.030  32.010  1.00  0.00     0.173 A 
ATOM     90  F   UNL A   1      44.569  28.941  34.186  1.00  0.00    -0.203 F 
ATOM     91  C   UNL A   1      44.310  26.677  34.702  1.00  0.00     0.198 A 
ATOM     92  C   UNL A   1      44.231  25.041  32.955  1.00  0.00     0.198 A 
ATOM     93  F   UNL A   1      44.541  25.685  30.715  1.00  0.00    -0.203 F 
ATOM     94  F   UNL A   1      44.212  26.993  36.002  1.00  0.00    -0.200 F 
ATOM     95  C   UNL A   1      44.152  25.362  34.300  1.00  0.00     0.200 A 
ATOM     96  F   UNL A   1      44.028  23.778  32.555  1.00  0.00    -0.200 F 
ATOM     97  F   UNL A   1      43.895  24.407  35.205  1.00  0.00    -0.200 F 
ENDBRANCH  64  87
ENDBRANCH  38  39
ENDBRANCH  31  33
ENDBRANCH  30  31
ENDBRANCH  29  30
ENDBRANCH  28  29
ENDBRANCH  27  28
ENDBRANCH   1  27
TORSDOF 17
ENDMDL
