MODEL 1
REMARK VINA RESULT:     -10.3      0.000      0.000
REMARK SMILES C=CCN(CC(=O)OCCOC(=O)c1ccc(-c2c3nc(c(-c4c(F)c(F)c(F)c(F)c4F)c4ccc([nH]4)c(-c4c(F)c(F)c(F)c(F)c4F)c4nc(c(-c5c(F)c(F)c(F)c(F)c5F)c5ccc2[nH]5)C=C4)C=C3)cc1)C(=O)NCC(C)C
REMARK SMILES IDX 9 1 8 2 6 3 7 4 5 5 4 6 3 7 2 8 1 9 77 10 78 11 79 12 80 14
REMARK SMILES IDX 81 15 82 16 83 17 10 18 11 19 12 20 13 21 14 22 15 23 76 24
REMARK SMILES IDX 16 25 75 26 17 27 18 28 19 29 69 30 20 31 74 32 68 33 70 34
REMARK SMILES IDX 21 35 73 36 67 37 66 38 22 40 54 41 34 42 53 43 35 44 38 45
REMARK SMILES IDX 52 46 71 47 36 48 37 49 51 51 72 52 39 53 23 54 24 55 32 56
REMARK SMILES IDX 25 57 26 58 30 59 33 60 27 61 28 62 31 63 29 64 55 65 56 66
REMARK SMILES IDX 64 67 57 68 58 69 62 70 65 71 59 72 60 73 63 74 61 75 40 76
REMARK SMILES IDX 41 77 49 78 42 79 43 80 47 81 50 82 44 83 45 84 48 85 46 86
REMARK H PARENT 79 13 70 39 38 50
REMARK Flexibility Score: inf
ROOT
ATOM      1  C   UNL A   1      32.896  31.129  27.101  1.00  0.00     0.274 C 
ENDROOT
BRANCH   1   2
ATOM      2  O   UNL A   1      31.978  30.054  26.768  1.00  0.00    -0.461 OA
BRANCH   2   3
ATOM      3  C   UNL A   1      32.418  29.168  25.831  1.00  0.00     0.325 C 
ATOM      4  O   UNL A   1      33.608  28.896  25.663  1.00  0.00    -0.250 OA
BRANCH   3   5
ATOM      5  C   UNL A   1      31.308  28.347  25.141  1.00  0.00     0.244 C 
BRANCH   5   6
ATOM      6  N   UNL A   1      31.331  28.165  23.693  1.00  0.00    -0.310 N 
BRANCH   6   7
ATOM      7  C   UNL A   1      30.690  26.922  23.252  1.00  0.00     0.149 C 
BRANCH   7   8
ATOM      8  C   UNL A   1      29.566  26.583  24.200  1.00  0.00    -0.013 C 
ATOM      9  C   UNL A   1      28.267  26.594  23.870  1.00  0.00     0.006 C 
ENDBRANCH   7   8
ENDBRANCH   6   7
BRANCH   6  10
ATOM     10  C   UNL A   1      31.743  29.007  22.706  1.00  0.00     0.318 C 
ATOM     11  O   UNL A   1      32.949  29.130  22.444  1.00  0.00    -0.249 OA
ATOM     12  N   UNL A   1      30.980  29.751  21.900  1.00  0.00    -0.338 N 
ATOM     13  H   UNL A   1      31.564  30.156  21.219  1.00  0.00     0.165 HD
BRANCH  12  14
ATOM     14  C   UNL A   1      29.606  30.194  21.640  1.00  0.00     0.120 C 
BRANCH  14  15
ATOM     15  C   UNL A   1      28.978  30.749  22.955  1.00  0.00     0.002 C 
ATOM     16  C   UNL A   1      28.857  32.274  22.868  1.00  0.00     0.009 C 
ATOM     17  C   UNL A   1      27.589  30.228  23.338  1.00  0.00     0.009 C 
ENDBRANCH  14  15
ENDBRANCH  12  14
ENDBRANCH   6  10
ENDBRANCH   5   6
ENDBRANCH   3   5
ENDBRANCH   2   3
ENDBRANCH   1   2
BRANCH   1  18
ATOM     18  C   UNL A   1      32.223  32.502  27.354  1.00  0.00     0.275 C 
BRANCH  18  19
ATOM     19  O   UNL A   1      33.134  33.633  27.375  1.00  0.00    -0.458 OA
BRANCH  19  20
ATOM     20  C   UNL A   1      33.392  34.009  28.638  1.00  0.00     0.338 C 
ATOM     21  O   UNL A   1      32.635  34.710  29.297  1.00  0.00    -0.246 OA
BRANCH  20  22
ATOM     22  C   UNL A   1      34.638  33.601  29.284  1.00  0.00     0.060 A 
ATOM     23  C   UNL A   1      35.856  34.059  28.762  1.00  0.00     0.016 A 
ATOM     24  C   UNL A   1      34.599  32.436  30.052  1.00  0.00     0.016 A 
ATOM     25  C   UNL A   1      37.037  33.349  29.008  1.00  0.00     0.010 A 
ATOM     26  C   UNL A   1      35.774  31.723  30.291  1.00  0.00     0.010 A 
ATOM     27  C   UNL A   1      37.004  32.177  29.779  1.00  0.00    -0.014 A 
BRANCH  27  28
ATOM     28  C   UNL A   1      38.244  31.588  30.339  1.00  0.00     0.031 A 
ATOM     29  C   UNL A   1      39.014  30.482  29.685  1.00  0.00     0.074 A 
ATOM     30  C   UNL A   1      38.540  31.983  31.590  1.00  0.00     0.049 A 
ATOM     31  N   UNL A   1      40.004  29.778  30.176  1.00  0.00    -0.248 NA
ATOM     32  C   UNL A   1      38.635  30.110  28.316  1.00  0.00     0.031 C 
ATOM     33  C   UNL A   1      37.813  33.024  32.324  1.00  0.00     0.029 A 
ATOM     34  N   UNL A   1      39.454  31.511  32.491  1.00  0.00    -0.354 N 
ATOM     35  C   UNL A   1      40.373  28.882  29.182  1.00  0.00     0.074 A 
ATOM     36  C   UNL A   1      39.486  29.118  28.061  1.00  0.00     0.031 C 
ATOM     37  C   UNL A   1      38.245  33.047  33.588  1.00  0.00     0.029 A 
ATOM     38  C   UNL A   1      39.271  32.025  33.749  1.00  0.00     0.049 A 
ATOM     39  H   UNL A   1      40.166  30.871  32.262  1.00  0.00     0.167 HD
ATOM     40  C   UNL A   1      41.367  27.958  29.218  1.00  0.00     0.037 A 
ATOM     41  C   UNL A   1      39.833  31.690  34.922  1.00  0.00     0.037 A 
ATOM     42  C   UNL A   1      42.240  27.745  30.350  1.00  0.00     0.049 A 
ATOM     43  C   UNL A   1      40.911  30.660  34.941  1.00  0.00     0.074 A 
ATOM     44  C   UNL A   1      43.356  26.930  30.441  1.00  0.00     0.029 A 
ATOM     45  N   UNL A   1      42.076  28.330  31.598  1.00  0.00    -0.354 N 
ATOM     46  N   UNL A   1      41.335  29.902  33.961  1.00  0.00    -0.248 NA
ATOM     47  C   UNL A   1      41.614  30.464  36.212  1.00  0.00     0.031 C 
ATOM     48  C   UNL A   1      43.834  26.979  31.757  1.00  0.00     0.029 A 
ATOM     49  C   UNL A   1      43.047  27.864  32.474  1.00  0.00     0.049 A 
ATOM     50  H   UNL A   1      41.375  28.981  31.829  1.00  0.00     0.167 HD
ATOM     51  C   UNL A   1      42.382  29.162  34.483  1.00  0.00     0.074 A 
ATOM     52  C   UNL A   1      42.521  29.558  35.871  1.00  0.00     0.031 C 
ATOM     53  C   UNL A   1      43.167  28.252  33.857  1.00  0.00     0.037 A 
BRANCH  40  54
ATOM     54  C   UNL A   1      41.593  27.094  28.007  1.00  0.00     0.064 A 
ATOM     55  C   UNL A   1      42.499  27.459  27.000  1.00  0.00     0.173 A 
ATOM     56  C   UNL A   1      40.992  25.827  27.917  1.00  0.00     0.173 A 
ATOM     57  F   UNL A   1      43.107  28.653  27.041  1.00  0.00    -0.203 F 
ATOM     58  C   UNL A   1      42.787  26.594  25.945  1.00  0.00     0.198 A 
ATOM     59  C   UNL A   1      41.298  24.956  26.873  1.00  0.00     0.198 A 
ATOM     60  F   UNL A   1      40.132  25.419  28.861  1.00  0.00    -0.203 F 
ATOM     61  F   UNL A   1      43.646  26.970  24.987  1.00  0.00    -0.200 F 
ATOM     62  C   UNL A   1      42.193  25.341  25.887  1.00  0.00     0.200 A 
ATOM     63  F   UNL A   1      40.738  23.739  26.828  1.00  0.00    -0.200 F 
ATOM     64  F   UNL A   1      42.488  24.503  24.883  1.00  0.00    -0.200 F 
ENDBRANCH  40  54
BRANCH  41  65
ATOM     65  C   UNL A   1      39.377  32.395  36.140  1.00  0.00     0.064 A 
ATOM     66  C   UNL A   1      38.370  31.848  36.942  1.00  0.00     0.173 A 
ATOM     67  C   UNL A   1      40.042  33.542  36.598  1.00  0.00     0.173 A 
ATOM     68  F   UNL A   1      37.718  30.748  36.539  1.00  0.00    -0.203 F 
ATOM     69  C   UNL A   1      38.045  32.422  38.168  1.00  0.00     0.198 A 
ATOM     70  C   UNL A   1      39.728  34.104  37.831  1.00  0.00     0.198 A 
ATOM     71  F   UNL A   1      41.034  34.079  35.872  1.00  0.00    -0.203 F 
ATOM     72  F   UNL A   1      37.082  31.878  38.923  1.00  0.00    -0.200 F 
ATOM     73  C   UNL A   1      38.730  33.542  38.617  1.00  0.00     0.200 A 
ATOM     74  F   UNL A   1      40.409  35.170  38.274  1.00  0.00    -0.200 F 
ATOM     75  F   UNL A   1      38.440  34.072  39.812  1.00  0.00    -0.200 F 
ENDBRANCH  41  65
BRANCH  53  76
ATOM     76  C   UNL A   1      44.266  27.641  34.670  1.00  0.00     0.064 A 
ATOM     77  C   UNL A   1      44.084  26.433  35.357  1.00  0.00     0.173 A 
ATOM     78  C   UNL A   1      45.518  28.268  34.755  1.00  0.00     0.173 A 
ATOM     79  F   UNL A   1      42.896  25.810  35.323  1.00  0.00    -0.203 F 
ATOM     80  C   UNL A   1      45.112  25.883  36.117  1.00  0.00     0.198 A 
ATOM     81  C   UNL A   1      46.551  27.704  35.497  1.00  0.00     0.198 A 
ATOM     82  F   UNL A   1      45.738  29.427  34.116  1.00  0.00    -0.203 F 
ATOM     83  F   UNL A   1      44.904  24.749  36.802  1.00  0.00    -0.200 F 
ATOM     84  C   UNL A   1      46.346  26.516  36.183  1.00  0.00     0.200 A 
ATOM     85  F   UNL A   1      47.742  28.314  35.557  1.00  0.00    -0.200 F 
ATOM     86  F   UNL A   1      47.333  25.985  36.917  1.00  0.00    -0.200 F 
ENDBRANCH  53  76
ENDBRANCH  27  28
ENDBRANCH  20  22
ENDBRANCH  19  20
ENDBRANCH  18  19
ENDBRANCH   1  18
TORSDOF 17
ENDMDL
MODEL 2
REMARK VINA RESULT:      -9.9      6.113     11.294
REMARK SMILES C=CCN(CC(=O)OCCOC(=O)c1ccc(-c2c3nc(c(-c4c(F)c(F)c(F)c(F)c4F)c4ccc([nH]4)c(-c4c(F)c(F)c(F)c(F)c4F)c4nc(c(-c5c(F)c(F)c(F)c(F)c5F)c5ccc2[nH]5)C=C4)C=C3)cc1)C(=O)NCC(C)C
REMARK SMILES IDX 9 1 8 2 6 3 7 4 5 5 4 6 3 7 2 8 1 9 77 10 78 11 79 12 80 14
REMARK SMILES IDX 81 15 82 16 83 17 10 18 11 19 12 20 13 21 14 22 15 23 76 24
REMARK SMILES IDX 16 25 75 26 17 27 18 28 19 29 69 30 20 31 74 32 68 33 70 34
REMARK SMILES IDX 21 35 73 36 67 37 66 38 22 40 54 41 34 42 53 43 35 44 38 45
REMARK SMILES IDX 52 46 71 47 36 48 37 49 51 51 72 52 39 53 23 54 24 55 32 56
REMARK SMILES IDX 25 57 26 58 30 59 33 60 27 61 28 62 31 63 29 64 55 65 56 66
REMARK SMILES IDX 64 67 57 68 58 69 62 70 65 71 59 72 60 73 63 74 61 75 40 76
REMARK SMILES IDX 41 77 49 78 42 79 43 80 47 81 50 82 44 83 45 84 48 85 46 86
REMARK H PARENT 79 13 70 39 38 50
REMARK Flexibility Score: inf
ROOT
ATOM      1  C   UNL A   1      38.020  19.757  24.985  1.00  0.00     0.274 C 
ENDROOT
BRANCH   1   2
ATOM      2  O   UNL A   1      37.437  20.978  24.455  1.00  0.00    -0.461 OA
BRANCH   2   3
ATOM      3  C   UNL A   1      36.923  21.838  25.379  1.00  0.00     0.325 C 
ATOM      4  O   UNL A   1      37.381  22.963  25.584  1.00  0.00    -0.250 OA
BRANCH   3   5
ATOM      5  C   UNL A   1      35.579  21.400  25.996  1.00  0.00     0.244 C 
BRANCH   5   6
ATOM      6  N   UNL A   1      34.325  21.901  25.441  1.00  0.00    -0.310 N 
BRANCH   6   7
ATOM      7  C   UNL A   1      33.910  23.188  26.008  1.00  0.00     0.149 C 
BRANCH   7   8
ATOM      8  C   UNL A   1      32.828  22.949  27.034  1.00  0.00    -0.013 C 
ATOM      9  C   UNL A   1      31.559  23.363  26.908  1.00  0.00     0.006 C 
ENDBRANCH   7   8
ENDBRANCH   6   7
BRANCH   6  10
ATOM     10  C   UNL A   1      33.563  21.425  24.419  1.00  0.00     0.318 C 
ATOM     11  O   UNL A   1      33.291  22.146  23.447  1.00  0.00    -0.249 OA
ATOM     12  N   UNL A   1      33.054  20.197  24.285  1.00  0.00    -0.338 N 
ATOM     13  H   UNL A   1      32.654  20.131  23.388  1.00  0.00     0.165 HD
BRANCH  12  14
ATOM     14  C   UNL A   1      32.864  18.910  24.963  1.00  0.00     0.120 C 
BRANCH  14  15
ATOM     15  C   UNL A   1      32.883  17.757  23.914  1.00  0.00     0.002 C 
ATOM     16  C   UNL A   1      32.407  18.285  22.556  1.00  0.00     0.009 C 
ATOM     17  C   UNL A   1      34.226  17.066  23.661  1.00  0.00     0.009 C 
ENDBRANCH  14  15
ENDBRANCH  12  14
ENDBRANCH   6  10
ENDBRANCH   5   6
ENDBRANCH   3   5
ENDBRANCH   2   3
ENDBRANCH   1   2
BRANCH   1  18
ATOM     18  C   UNL A   1      39.324  19.961  25.798  1.00  0.00     0.275 C 
BRANCH  18  19
ATOM     19  O   UNL A   1      40.308  18.903  25.647  1.00  0.00    -0.458 OA
BRANCH  19  20
ATOM     20  C   UNL A   1      41.516  19.320  26.057  1.00  0.00     0.338 C 
ATOM     21  O   UNL A   1      42.485  18.578  26.155  1.00  0.00    -0.246 OA
BRANCH  20  22
ATOM     22  C   UNL A   1      41.719  20.717  26.437  1.00  0.00     0.060 A 
ATOM     23  C   UNL A   1      42.139  21.633  25.463  1.00  0.00     0.016 A 
ATOM     24  C   UNL A   1      41.954  20.976  27.789  1.00  0.00     0.016 A 
ATOM     25  C   UNL A   1      42.797  22.809  25.841  1.00  0.00     0.010 A 
ATOM     26  C   UNL A   1      42.617  22.143  28.167  1.00  0.00     0.010 A 
ATOM     27  C   UNL A   1      43.036  23.074  27.198  1.00  0.00    -0.014 A 
BRANCH  27  28
ATOM     28  C   UNL A   1      43.417  24.429  27.663  1.00  0.00     0.031 A 
ATOM     29  C   UNL A   1      42.432  25.478  28.081  1.00  0.00     0.074 A 
ATOM     30  C   UNL A   1      44.717  24.735  27.503  1.00  0.00     0.049 A 
ATOM     31  N   UNL A   1      42.650  26.746  28.331  1.00  0.00    -0.248 NA
ATOM     32  C   UNL A   1      41.031  25.067  28.239  1.00  0.00     0.031 C 
ATOM     33  C   UNL A   1      45.742  23.786  27.054  1.00  0.00     0.029 A 
ATOM     34  N   UNL A   1      45.382  25.925  27.609  1.00  0.00    -0.354 N 
ATOM     35  C   UNL A   1      41.420  27.288  28.680  1.00  0.00     0.074 A 
ATOM     36  C   UNL A   1      40.453  26.213  28.591  1.00  0.00     0.031 C 
ATOM     37  C   UNL A   1      46.881  24.448  26.833  1.00  0.00     0.029 A 
ATOM     38  C   UNL A   1      46.663  25.860  27.123  1.00  0.00     0.049 A 
ATOM     39  H   UNL A   1      44.986  26.740  27.993  1.00  0.00     0.167 HD
ATOM     40  C   UNL A   1      41.144  28.567  29.042  1.00  0.00     0.037 A 
ATOM     41  C   UNL A   1      47.561  26.831  26.891  1.00  0.00     0.037 A 
ATOM     42  C   UNL A   1      42.131  29.620  29.124  1.00  0.00     0.049 A 
ATOM     43  C   UNL A   1      47.231  28.232  27.281  1.00  0.00     0.074 A 
ATOM     44  C   UNL A   1      41.981  30.911  29.605  1.00  0.00     0.029 A 
ATOM     45  N   UNL A   1      43.444  29.513  28.688  1.00  0.00    -0.354 N 
ATOM     46  N   UNL A   1      46.096  28.711  27.725  1.00  0.00    -0.248 NA
ATOM     47  C   UNL A   1      48.310  29.218  27.176  1.00  0.00     0.031 C 
ATOM     48  C   UNL A   1      43.186  31.599  29.409  1.00  0.00     0.029 A 
ATOM     49  C   UNL A   1      44.102  30.723  28.853  1.00  0.00     0.049 A 
ATOM     50  H   UNL A   1      43.850  28.696  28.317  1.00  0.00     0.167 HD
ATOM     51  C   UNL A   1      46.330  30.050  27.991  1.00  0.00     0.074 A 
ATOM     52  C   UNL A   1      47.716  30.307  27.647  1.00  0.00     0.031 C 
ATOM     53  C   UNL A   1      45.476  30.973  28.493  1.00  0.00     0.037 A 
BRANCH  40  54
ATOM     54  C   UNL A   1      39.726  28.929  29.389  1.00  0.00     0.064 A 
ATOM     55  C   UNL A   1      38.821  29.377  28.415  1.00  0.00     0.173 A 
ATOM     56  C   UNL A   1      39.231  28.702  30.684  1.00  0.00     0.173 A 
ATOM     57  F   UNL A   1      39.238  29.602  27.161  1.00  0.00    -0.203 F 
ATOM     58  C   UNL A   1      37.480  29.594  28.726  1.00  0.00     0.198 A 
ATOM     59  C   UNL A   1      37.885  28.899  30.987  1.00  0.00     0.198 A 
ATOM     60  F   UNL A   1      40.047  28.256  31.650  1.00  0.00    -0.203 F 
ATOM     61  F   UNL A   1      36.636  30.035  27.782  1.00  0.00    -0.200 F 
ATOM     62  C   UNL A   1      37.011  29.347  30.008  1.00  0.00     0.200 A 
ATOM     63  F   UNL A   1      37.430  28.642  32.221  1.00  0.00    -0.200 F 
ATOM     64  F   UNL A   1      35.716  29.535  30.300  1.00  0.00    -0.200 F 
ENDBRANCH  40  54
BRANCH  41  65
ATOM     65  C   UNL A   1      48.859  26.452  26.291  1.00  0.00     0.064 A 
ATOM     66  C   UNL A   1      49.128  26.726  24.946  1.00  0.00     0.173 A 
ATOM     67  C   UNL A   1      49.899  25.948  27.087  1.00  0.00     0.173 A 
ATOM     68  F   UNL A   1      48.160  27.215  24.157  1.00  0.00    -0.203 F 
ATOM     69  C   UNL A   1      50.398  26.517  24.416  1.00  0.00     0.198 A 
ATOM     70  C   UNL A   1      51.172  25.755  26.560  1.00  0.00     0.198 A 
ATOM     71  F   UNL A   1      49.689  25.700  28.389  1.00  0.00    -0.203 F 
ATOM     72  F   UNL A   1      50.635  26.793  23.127  1.00  0.00    -0.200 F 
ATOM     73  C   UNL A   1      51.421  26.042  25.224  1.00  0.00     0.200 A 
ATOM     74  F   UNL A   1      52.164  25.322  27.349  1.00  0.00    -0.200 F 
ATOM     75  F   UNL A   1      52.650  25.872  24.721  1.00  0.00    -0.200 F 
ENDBRANCH  41  65
BRANCH  53  76
ATOM     76  C   UNL A   1      46.029  32.345  28.723  1.00  0.00     0.064 A 
ATOM     77  C   UNL A   1      46.663  32.686  29.926  1.00  0.00     0.173 A 
ATOM     78  C   UNL A   1      45.932  33.326  27.725  1.00  0.00     0.173 A 
ATOM     79  F   UNL A   1      46.758  31.787  30.918  1.00  0.00    -0.203 F 
ATOM     80  C   UNL A   1      47.163  33.970  30.130  1.00  0.00     0.198 A 
ATOM     81  C   UNL A   1      46.453  34.601  27.923  1.00  0.00     0.198 A 
ATOM     82  F   UNL A   1      45.333  33.046  26.559  1.00  0.00    -0.203 F 
ATOM     83  F   UNL A   1      47.726  34.289  31.304  1.00  0.00    -0.200 F 
ATOM     84  C   UNL A   1      47.062  34.924  29.127  1.00  0.00     0.200 A 
ATOM     85  F   UNL A   1      46.359  35.520  26.953  1.00  0.00    -0.200 F 
ATOM     86  F   UNL A   1      47.543  36.158  29.326  1.00  0.00    -0.200 F 
ENDBRANCH  53  76
ENDBRANCH  27  28
ENDBRANCH  20  22
ENDBRANCH  19  20
ENDBRANCH  18  19
ENDBRANCH   1  18
TORSDOF 17
ENDMDL
MODEL 3
REMARK VINA RESULT:      -9.8      4.150      9.918
REMARK SMILES C=CCN(CC(=O)OCCOC(=O)c1ccc(-c2c3nc(c(-c4c(F)c(F)c(F)c(F)c4F)c4ccc([nH]4)c(-c4c(F)c(F)c(F)c(F)c4F)c4nc(c(-c5c(F)c(F)c(F)c(F)c5F)c5ccc2[nH]5)C=C4)C=C3)cc1)C(=O)NCC(C)C
REMARK SMILES IDX 9 1 8 2 6 3 7 4 5 5 4 6 3 7 2 8 1 9 77 10 78 11 79 12 80 14
REMARK SMILES IDX 81 15 82 16 83 17 10 18 11 19 12 20 13 21 14 22 15 23 76 24
REMARK SMILES IDX 16 25 75 26 17 27 18 28 19 29 69 30 20 31 74 32 68 33 70 34
REMARK SMILES IDX 21 35 73 36 67 37 66 38 22 40 54 41 34 42 53 43 35 44 38 45
REMARK SMILES IDX 52 46 71 47 36 48 37 49 51 51 72 52 39 53 23 54 24 55 32 56
REMARK SMILES IDX 25 57 26 58 30 59 33 60 27 61 28 62 31 63 29 64 55 65 56 66
REMARK SMILES IDX 64 67 57 68 58 69 62 70 65 71 59 72 60 73 63 74 61 75 40 76
REMARK SMILES IDX 41 77 49 78 42 79 43 80 47 81 50 82 44 83 45 84 48 85 46 86
REMARK H PARENT 79 13 70 39 38 50
REMARK Flexibility Score: inf
ROOT
ATOM      1  C   UNL A   1      34.338  32.917  29.287  1.00  0.00     0.274 C 
ENDROOT
BRANCH   1   2
ATOM      2  O   UNL A   1      34.410  32.331  30.614  1.00  0.00    -0.461 OA
BRANCH   2   3
ATOM      3  C   UNL A   1      34.478  33.214  31.649  1.00  0.00     0.325 C 
ATOM      4  O   UNL A   1      33.844  33.079  32.696  1.00  0.00    -0.250 OA
BRANCH   3   5
ATOM      5  C   UNL A   1      35.583  34.283  31.519  1.00  0.00     0.244 C 
BRANCH   5   6
ATOM      6  N   UNL A   1      36.887  34.061  32.134  1.00  0.00    -0.310 N 
BRANCH   6   7
ATOM      7  C   UNL A   1      38.009  34.253  31.210  1.00  0.00     0.149 C 
BRANCH   7   8
ATOM      8  C   UNL A   1      37.934  33.213  30.119  1.00  0.00    -0.013 C 
ATOM      9  C   UNL A   1      37.801  33.491  28.814  1.00  0.00     0.006 C 
ENDBRANCH   7   8
ENDBRANCH   6   7
BRANCH   6  10
ATOM     10  C   UNL A   1      37.219  33.822  33.433  1.00  0.00     0.318 C 
ATOM     11  O   UNL A   1      36.998  34.674  34.307  1.00  0.00    -0.249 OA
ATOM     12  N   UNL A   1      37.759  32.712  33.945  1.00  0.00    -0.338 N 
ATOM     13  H   UNL A   1      37.769  32.804  34.925  1.00  0.00     0.165 HD
BRANCH  12  14
ATOM     14  C   UNL A   1      38.343  31.410  33.606  1.00  0.00     0.120 C 
BRANCH  14  15
ATOM     15  C   UNL A   1      39.286  30.943  34.756  1.00  0.00     0.002 C 
ATOM     16  C   UNL A   1      40.294  29.922  34.217  1.00  0.00     0.009 C 
ATOM     17  C   UNL A   1      40.105  32.023  35.469  1.00  0.00     0.009 C 
ENDBRANCH  14  15
ENDBRANCH  12  14
ENDBRANCH   6  10
ENDBRANCH   5   6
ENDBRANCH   3   5
ENDBRANCH   2   3
ENDBRANCH   1   2
BRANCH   1  18
ATOM     18  C   UNL A   1      33.619  32.042  28.229  1.00  0.00     0.275 C 
BRANCH  18  19
ATOM     19  O   UNL A   1      34.498  31.420  27.253  1.00  0.00    -0.458 OA
BRANCH  19  20
ATOM     20  C   UNL A   1      34.948  30.240  27.708  1.00  0.00     0.338 C 
ATOM     21  O   UNL A   1      34.260  29.229  27.747  1.00  0.00    -0.246 OA
BRANCH  20  22
ATOM     22  C   UNL A   1      36.315  30.123  28.213  1.00  0.00     0.060 A 
ATOM     23  C   UNL A   1      37.377  30.086  27.298  1.00  0.00     0.016 A 
ATOM     24  C   UNL A   1      36.472  29.582  29.490  1.00  0.00     0.016 A 
ATOM     25  C   UNL A   1      38.597  29.505  27.661  1.00  0.00     0.010 A 
ATOM     26  C   UNL A   1      37.685  28.995  29.851  1.00  0.00     0.010 A 
ATOM     27  C   UNL A   1      38.761  28.959  28.944  1.00  0.00    -0.014 A 
BRANCH  27  28
ATOM     28  C   UNL A   1      40.106  28.644  29.482  1.00  0.00     0.031 A 
ATOM     29  C   UNL A   1      40.984  29.640  30.175  1.00  0.00     0.074 A 
ATOM     30  C   UNL A   1      40.582  27.435  29.135  1.00  0.00     0.049 A 
ATOM     31  N   UNL A   1      42.242  29.515  30.521  1.00  0.00    -0.248 NA
ATOM     32  C   UNL A   1      40.392  30.937  30.526  1.00  0.00     0.031 C 
ATOM     33  C   UNL A   1      39.810  26.417  28.415  1.00  0.00     0.029 A 
ATOM     34  N   UNL A   1      41.831  26.891  29.254  1.00  0.00    -0.354 N 
ATOM     35  C   UNL A   1      42.596  30.710  31.133  1.00  0.00     0.074 A 
ATOM     36  C   UNL A   1      41.422  31.559  31.096  1.00  0.00     0.031 C 
ATOM     37  C   UNL A   1      40.624  25.413  28.076  1.00  0.00     0.029 A 
ATOM     38  C   UNL A   1      41.967  25.721  28.550  1.00  0.00     0.049 A 
ATOM     39  H   UNL A   1      42.554  27.294  29.787  1.00  0.00     0.167 HD
ATOM     40  C   UNL A   1      43.794  31.047  31.676  1.00  0.00     0.037 A 
ATOM     41  C   UNL A   1      43.058  24.988  28.275  1.00  0.00     0.037 A 
ATOM     42  C   UNL A   1      44.949  30.179  31.701  1.00  0.00     0.049 A 
ATOM     43  C   UNL A   1      44.368  25.387  28.867  1.00  0.00     0.074 A 
ATOM     44  C   UNL A   1      46.164  30.373  32.338  1.00  0.00     0.029 A 
ATOM     45  N   UNL A   1      45.043  28.964  31.036  1.00  0.00    -0.354 N 
ATOM     46  N   UNL A   1      44.662  26.465  29.550  1.00  0.00    -0.248 NA
ATOM     47  C   UNL A   1      45.484  24.455  28.686  1.00  0.00     0.031 C 
ATOM     48  C   UNL A   1      47.010  29.304  32.014  1.00  0.00     0.029 A 
ATOM     49  C   UNL A   1      46.306  28.418  31.216  1.00  0.00     0.049 A 
ATOM     50  H   UNL A   1      44.319  28.550  30.514  1.00  0.00     0.167 HD
ATOM     51  C   UNL A   1      45.991  26.328  29.915  1.00  0.00     0.074 A 
ATOM     52  C   UNL A   1      46.446  25.064  29.368  1.00  0.00     0.031 C 
ATOM     53  C   UNL A   1      46.753  27.168  30.655  1.00  0.00     0.037 A 
BRANCH  40  54
ATOM     54  C   UNL A   1      43.946  32.408  32.299  1.00  0.00     0.064 A 
ATOM     55  C   UNL A   1      44.334  33.525  31.543  1.00  0.00     0.173 A 
ATOM     56  C   UNL A   1      43.576  32.622  33.637  1.00  0.00     0.173 A 
ATOM     57  F   UNL A   1      44.688  33.379  30.258  1.00  0.00    -0.203 F 
ATOM     58  C   UNL A   1      44.355  34.801  32.105  1.00  0.00     0.198 A 
ATOM     59  C   UNL A   1      43.579  33.902  34.190  1.00  0.00     0.198 A 
ATOM     60  F   UNL A   1      43.181  31.594  34.401  1.00  0.00    -0.203 F 
ATOM     61  F   UNL A   1      44.741  35.851  31.367  1.00  0.00    -0.200 F 
ATOM     62  C   UNL A   1      43.969  34.989  33.424  1.00  0.00     0.200 A 
ATOM     63  F   UNL A   1      43.188  34.085  35.459  1.00  0.00    -0.200 F 
ATOM     64  F   UNL A   1      43.970  36.219  33.956  1.00  0.00    -0.200 F 
ENDBRANCH  40  54
BRANCH  41  65
ATOM     65  C   UNL A   1      42.896  23.790  27.423  1.00  0.00     0.064 A 
ATOM     66  C   UNL A   1      43.307  23.807  26.086  1.00  0.00     0.173 A 
ATOM     67  C   UNL A   1      42.469  22.571  27.971  1.00  0.00     0.173 A 
ATOM     68  F   UNL A   1      43.728  24.953  25.531  1.00  0.00    -0.203 F 
ATOM     69  C   UNL A   1      43.304  22.643  25.324  1.00  0.00     0.198 A 
ATOM     70  C   UNL A   1      42.482  21.405  27.213  1.00  0.00     0.198 A 
ATOM     71  F   UNL A   1      42.095  22.506  29.258  1.00  0.00    -0.203 F 
ATOM     72  F   UNL A   1      43.708  22.681  24.048  1.00  0.00    -0.200 F 
ATOM     73  C   UNL A   1      42.902  21.441  25.890  1.00  0.00     0.200 A 
ATOM     74  F   UNL A   1      42.119  20.241  27.769  1.00  0.00    -0.200 F 
ATOM     75  F   UNL A   1      42.931  20.315  25.165  1.00  0.00    -0.200 F 
ENDBRANCH  41  65
BRANCH  53  76
ATOM     76  C   UNL A   1      48.157  26.729  30.935  1.00  0.00     0.064 A 
ATOM     77  C   UNL A   1      48.468  25.935  32.048  1.00  0.00     0.173 A 
ATOM     78  C   UNL A   1      49.201  27.100  30.075  1.00  0.00     0.173 A 
ATOM     79  F   UNL A   1      47.505  25.576  32.911  1.00  0.00    -0.203 F 
ATOM     80  C   UNL A   1      49.780  25.544  32.301  1.00  0.00     0.198 A 
ATOM     81  C   UNL A   1      50.508  26.688  30.318  1.00  0.00     0.198 A 
ATOM     82  F   UNL A   1      48.953  27.860  28.999  1.00  0.00    -0.203 F 
ATOM     83  F   UNL A   1      50.063  24.822  33.395  1.00  0.00    -0.200 F 
ATOM     84  C   UNL A   1      50.798  25.916  31.434  1.00  0.00     0.200 A 
ATOM     85  F   UNL A   1      51.489  27.044  29.479  1.00  0.00    -0.200 F 
ATOM     86  F   UNL A   1      52.059  25.540  31.681  1.00  0.00    -0.200 F 
ENDBRANCH  53  76
ENDBRANCH  27  28
ENDBRANCH  20  22
ENDBRANCH  19  20
ENDBRANCH  18  19
ENDBRANCH   1  18
TORSDOF 17
ENDMDL
