MODEL 1
REMARK VINA RESULT:     -12.5      0.000      0.000
REMARK SMILES Cc1ccc(O[C@H](C)C(=O)NNC(=O)[C@@H]2[C@@H](C(=O)OCCOC(=O)c3ccc(-c4c5nc(c(-c6c(F)c(F)c(F)c(F)c6F)c6ccc([nH]6)c(-c6c(F)c(F)c(F)c(F)c6F)c6nc(c(-c7c(F)c(F)c(F)c(F)c7F)c7ccc4[nH]7)C=C6)C=C5)cc3)[C@@H]3C=C[C@H]2C3)cc1C
REMARK SMILES IDX 19 1 17 2 18 3 16 4 15 5 91 6 88 7 90 8 92 9 89 10 13 11
REMARK SMILES IDX 12 12 14 14 11 15 9 16 10 17 7 19 8 20 6 21 5 22 1 23 2 24
REMARK SMILES IDX 3 25 94 26 4 27 93 28 95 29 20 30 21 31 22 32 23 33 24 34
REMARK SMILES IDX 25 35 26 36 87 37 27 38 86 39 28 40 29 41 30 42 80 43 31 44
REMARK SMILES IDX 85 45 79 46 81 47 32 48 84 49 78 50 77 51 33 53 65 54 45 55
REMARK SMILES IDX 64 56 46 57 49 58 63 59 82 60 47 61 48 62 62 64 83 65 50 66
REMARK SMILES IDX 34 67 35 68 43 69 36 70 37 71 41 72 44 73 38 74 39 75 42 76
REMARK SMILES IDX 40 77 66 78 67 79 75 80 68 81 69 82 73 83 76 84 70 85 71 86
REMARK SMILES IDX 74 87 72 88 51 89 52 90 60 91 53 92 54 93 58 94 61 95 55 96
REMARK SMILES IDX 56 97 59 98 57 99
REMARK H PARENT 12 13 11 18 81 52 49 63
REMARK Flexibility Score: inf
ROOT
ATOM      1  O   UNL A   1      31.345  28.231  25.125  1.00  0.00    -0.462 OA
ENDROOT
BRANCH   1   2
ATOM      2  C   UNL A   1      31.796  27.186  25.866  1.00  0.00     0.310 C 
ATOM      3  O   UNL A   1      32.085  27.256  27.056  1.00  0.00    -0.252 OA
BRANCH   2   4
ATOM      4  C   UNL A   1      31.999  25.926  25.051  1.00  0.00     0.119 C 
ATOM      5  C   UNL A   1      33.311  25.102  25.349  1.00  0.00     0.102 C 
ATOM      6  C   UNL A   1      33.963  25.021  23.942  1.00  0.00     0.025 C 
ATOM      7  C   UNL A   1      32.164  26.282  23.549  1.00  0.00     0.027 C 
ATOM      8  C   UNL A   1      33.082  24.249  22.996  1.00  0.00    -0.027 C 
ATOM      9  C   UNL A   1      33.681  26.431  23.426  1.00  0.00     0.017 C 
ATOM     10  C   UNL A   1      32.001  25.005  22.757  1.00  0.00    -0.027 C 
BRANCH   5  11
ATOM     11  C   UNL A   1      32.953  23.797  26.058  1.00  0.00     0.242 C 
ATOM     12  N   UNL A   1      33.849  23.149  26.865  1.00  0.00    -0.267 N 
ATOM     13  H   UNL A   1      33.517  22.378  27.379  1.00  0.00     0.191 HD
ATOM     14  O   UNL A   1      31.804  23.344  26.011  1.00  0.00    -0.273 OA
BRANCH  12  15
ATOM     15  N   UNL A   1      35.180  23.486  27.023  1.00  0.00    -0.264 N 
ATOM     16  C   UNL A   1      36.164  23.183  26.111  1.00  0.00     0.279 C 
ATOM     17  O   UNL A   1      37.259  23.742  26.217  1.00  0.00    -0.269 OA
ATOM     18  H   UNL A   1      35.439  23.973  27.838  1.00  0.00     0.191 HD
BRANCH  16  19
ATOM     19  C   UNL A   1      35.939  22.050  25.091  1.00  0.00     0.260 C 
ATOM     20  C   UNL A   1      37.317  21.679  24.525  1.00  0.00     0.064 C 
BRANCH  19  21
ATOM     21  O   UNL A   1      35.275  20.927  25.670  1.00  0.00    -0.481 OA
BRANCH  21  22
ATOM     22  C   UNL A   1      34.406  20.207  24.893  1.00  0.00     0.120 A 
ATOM     23  C   UNL A   1      32.033  17.705  22.268  1.00  0.00     0.044 C 
ATOM     24  C   UNL A   1      32.860  18.531  23.214  1.00  0.00    -0.048 A 
ATOM     25  C   UNL A   1      32.526  19.879  23.402  1.00  0.00     0.007 A 
ATOM     26  C   UNL A   1      33.956  18.001  23.918  1.00  0.00    -0.045 A 
ATOM     27  C   UNL A   1      33.279  20.703  24.244  1.00  0.00     0.047 A 
ATOM     28  C   UNL A   1      34.718  18.852  24.746  1.00  0.00     0.050 A 
ATOM     29  C   UNL A   1      34.346  16.549  23.850  1.00  0.00     0.045 C 
ENDBRANCH  21  22
ENDBRANCH  19  21
ENDBRANCH  16  19
ENDBRANCH  12  15
ENDBRANCH   5  11
ENDBRANCH   2   4
ENDBRANCH   1   2
BRANCH   1  30
ATOM     30  C   UNL A   1      32.217  29.379  25.073  1.00  0.00     0.274 C 
BRANCH  30  31
ATOM     31  C   UNL A   1      31.691  30.526  25.932  1.00  0.00     0.275 C 
BRANCH  31  32
ATOM     32  O   UNL A   1      32.411  30.602  27.175  1.00  0.00    -0.458 OA
BRANCH  32  33
ATOM     33  C   UNL A   1      33.175  31.704  27.338  1.00  0.00     0.338 C 
ATOM     34  O   UNL A   1      32.858  32.866  27.152  1.00  0.00    -0.246 OA
BRANCH  33  35
ATOM     35  C   UNL A   1      34.517  31.326  27.808  1.00  0.00     0.060 A 
ATOM     36  C   UNL A   1      34.791  29.997  28.126  1.00  0.00     0.016 A 
ATOM     37  C   UNL A   1      35.443  32.326  28.104  1.00  0.00     0.016 A 
ATOM     38  C   UNL A   1      35.940  29.678  28.846  1.00  0.00     0.010 A 
ATOM     39  C   UNL A   1      36.644  31.988  28.733  1.00  0.00     0.010 A 
ATOM     40  C   UNL A   1      36.887  30.668  29.152  1.00  0.00    -0.014 A 
BRANCH  40  41
ATOM     41  C   UNL A   1      38.110  30.343  29.938  1.00  0.00     0.031 A 
ATOM     42  C   UNL A   1      39.176  29.459  29.345  1.00  0.00     0.074 A 
ATOM     43  C   UNL A   1      38.269  30.825  31.185  1.00  0.00     0.049 A 
ATOM     44  N   UNL A   1      40.188  28.872  29.933  1.00  0.00    -0.248 NA
ATOM     45  C   UNL A   1      39.084  29.192  27.902  1.00  0.00     0.031 C 
ATOM     46  C   UNL A   1      37.348  31.733  31.869  1.00  0.00     0.029 A 
ATOM     47  N   UNL A   1      39.268  30.614  32.103  1.00  0.00    -0.354 N 
ATOM     48  C   UNL A   1      40.812  28.116  28.949  1.00  0.00     0.074 A 
ATOM     49  C   UNL A   1      40.075  28.328  27.722  1.00  0.00     0.031 C 
ATOM     50  C   UNL A   1      37.835  32.021  33.085  1.00  0.00     0.029 A 
ATOM     51  C   UNL A   1      39.056  31.252  33.300  1.00  0.00     0.049 A 
ATOM     52  H   UNL A   1      40.060  30.058  31.921  1.00  0.00     0.167 HD
ATOM     53  C   UNL A   1      41.896  27.311  29.065  1.00  0.00     0.037 A 
ATOM     54  C   UNL A   1      39.738  31.190  34.458  1.00  0.00     0.037 A 
ATOM     55  C   UNL A   1      42.667  27.152  30.271  1.00  0.00     0.049 A 
ATOM     56  C   UNL A   1      40.931  30.286  34.567  1.00  0.00     0.074 A 
ATOM     57  C   UNL A   1      43.785  26.366  30.485  1.00  0.00     0.029 A 
ATOM     58  N   UNL A   1      42.410  27.814  31.462  1.00  0.00    -0.354 N 
ATOM     59  N   UNL A   1      41.463  29.509  33.656  1.00  0.00    -0.248 NA
ATOM     60  C   UNL A   1      41.604  30.232  35.872  1.00  0.00     0.031 C 
ATOM     61  C   UNL A   1      44.195  26.537  31.813  1.00  0.00     0.029 A 
ATOM     62  C   UNL A   1      43.348  27.452  32.415  1.00  0.00     0.049 A 
ATOM     63  H   UNL A   1      41.670  28.446  31.608  1.00  0.00     0.167 HD
ATOM     64  C   UNL A   1      42.533  28.878  34.273  1.00  0.00     0.074 A 
ATOM     65  C   UNL A   1      42.588  29.376  35.631  1.00  0.00     0.031 C 
ATOM     66  C   UNL A   1      43.389  27.961  33.760  1.00  0.00     0.037 A 
BRANCH  53  67
ATOM     67  C   UNL A   1      42.300  26.511  27.864  1.00  0.00     0.064 A 
ATOM     68  C   UNL A   1      41.701  25.282  27.557  1.00  0.00     0.173 A 
ATOM     69  C   UNL A   1      43.269  27.011  26.979  1.00  0.00     0.173 A 
ATOM     70  F   UNL A   1      40.780  24.756  28.377  1.00  0.00    -0.203 F 
ATOM     71  C   UNL A   1      42.071  24.573  26.414  1.00  0.00     0.198 A 
ATOM     72  C   UNL A   1      43.619  26.311  25.828  1.00  0.00     0.198 A 
ATOM     73  F   UNL A   1      43.867  28.186  27.227  1.00  0.00    -0.203 F 
ATOM     74  F   UNL A   1      41.510  23.384  26.155  1.00  0.00    -0.200 F 
ATOM     75  C   UNL A   1      43.023  25.091  25.549  1.00  0.00     0.200 A 
ATOM     76  F   UNL A   1      44.532  26.818  24.988  1.00  0.00    -0.200 F 
ATOM     77  F   UNL A   1      43.370  24.411  24.447  1.00  0.00    -0.200 F 
ENDBRANCH  53  67
BRANCH  54  78
ATOM     78  C   UNL A   1      39.270  31.981  35.624  1.00  0.00     0.064 A 
ATOM     79  C   UNL A   1      39.692  33.304  35.811  1.00  0.00     0.173 A 
ATOM     80  C   UNL A   1      38.374  31.440  36.559  1.00  0.00     0.173 A 
ATOM     81  F   UNL A   1      40.568  33.854  34.957  1.00  0.00    -0.203 F 
ATOM     82  C   UNL A   1      39.236  34.056  36.890  1.00  0.00     0.198 A 
ATOM     83  C   UNL A   1      37.900  32.201  37.623  1.00  0.00     0.198 A 
ATOM     84  F   UNL A   1      37.944  30.177  36.422  1.00  0.00    -0.203 F 
ATOM     85  F   UNL A   1      39.676  35.309  37.064  1.00  0.00    -0.200 F 
ATOM     86  C   UNL A   1      38.333  33.507  37.791  1.00  0.00     0.200 A 
ATOM     87  F   UNL A   1      37.019  31.672  38.482  1.00  0.00    -0.200 F 
ATOM     88  F   UNL A   1      37.886  34.236  38.821  1.00  0.00    -0.200 F 
ENDBRANCH  54  78
BRANCH  66  89
ATOM     89  C   UNL A   1      44.468  27.457  34.667  1.00  0.00     0.064 A 
ATOM     90  C   UNL A   1      44.290  26.303  35.442  1.00  0.00     0.173 A 
ATOM     91  C   UNL A   1      45.705  28.116  34.734  1.00  0.00     0.173 A 
ATOM     92  F   UNL A   1      43.118  25.651  35.421  1.00  0.00    -0.203 F 
ATOM     93  C   UNL A   1      45.307  25.836  36.269  1.00  0.00     0.198 A 
ATOM     94  C   UNL A   1      46.725  27.636  35.548  1.00  0.00     0.198 A 
ATOM     95  F   UNL A   1      45.921  29.223  34.008  1.00  0.00    -0.203 F 
ATOM     96  F   UNL A   1      45.105  24.751  37.030  1.00  0.00    -0.200 F 
ATOM     97  C   UNL A   1      46.524  26.499  36.318  1.00  0.00     0.200 A 
ATOM     98  F   UNL A   1      47.903  28.274  35.591  1.00  0.00    -0.200 F 
ATOM     99  F   UNL A   1      47.504  26.047  37.114  1.00  0.00    -0.200 F 
ENDBRANCH  66  89
ENDBRANCH  40  41
ENDBRANCH  33  35
ENDBRANCH  32  33
ENDBRANCH  31  32
ENDBRANCH  30  31
ENDBRANCH   1  30
TORSDOF 16
ENDMDL
MODEL 2
REMARK VINA RESULT:     -12.2      4.166     10.039
REMARK SMILES Cc1ccc(O[C@H](C)C(=O)NNC(=O)[C@@H]2[C@@H](C(=O)OCCOC(=O)c3ccc(-c4c5nc(c(-c6c(F)c(F)c(F)c(F)c6F)c6ccc([nH]6)c(-c6c(F)c(F)c(F)c(F)c6F)c6nc(c(-c7c(F)c(F)c(F)c(F)c7F)c7ccc4[nH]7)C=C6)C=C5)cc3)[C@@H]3C=C[C@H]2C3)cc1C
REMARK SMILES IDX 19 1 17 2 18 3 16 4 15 5 91 6 88 7 90 8 92 9 89 10 13 11
REMARK SMILES IDX 12 12 14 14 11 15 9 16 10 17 7 19 8 20 6 21 5 22 1 23 2 24
REMARK SMILES IDX 3 25 94 26 4 27 93 28 95 29 20 30 21 31 22 32 23 33 24 34
REMARK SMILES IDX 25 35 26 36 87 37 27 38 86 39 28 40 29 41 30 42 80 43 31 44
REMARK SMILES IDX 85 45 79 46 81 47 32 48 84 49 78 50 77 51 33 53 65 54 45 55
REMARK SMILES IDX 64 56 46 57 49 58 63 59 82 60 47 61 48 62 62 64 83 65 50 66
REMARK SMILES IDX 34 67 35 68 43 69 36 70 37 71 41 72 44 73 38 74 39 75 42 76
REMARK SMILES IDX 40 77 66 78 67 79 75 80 68 81 69 82 73 83 76 84 70 85 71 86
REMARK SMILES IDX 74 87 72 88 51 89 52 90 60 91 53 92 54 93 58 94 61 95 55 96
REMARK SMILES IDX 56 97 59 98 57 99
REMARK H PARENT 12 13 11 18 81 52 49 63
REMARK Flexibility Score: inf
ROOT
ATOM      1  O   UNL A   1      34.747  21.516  24.428  1.00  0.00    -0.462 OA
ENDROOT
BRANCH   1   2
ATOM      2  C   UNL A   1      34.729  22.844  24.148  1.00  0.00     0.310 C 
ATOM      3  O   UNL A   1      35.721  23.503  23.857  1.00  0.00    -0.252 OA
BRANCH   2   4
ATOM      4  C   UNL A   1      33.359  23.467  24.320  1.00  0.00     0.119 C 
ATOM      5  C   UNL A   1      33.324  24.938  24.890  1.00  0.00     0.102 C 
ATOM      6  C   UNL A   1      32.398  24.778  26.126  1.00  0.00     0.025 C 
ATOM      7  C   UNL A   1      32.544  22.680  25.380  1.00  0.00     0.027 C 
ATOM      8  C   UNL A   1      31.014  24.365  25.699  1.00  0.00    -0.027 C 
ATOM      9  C   UNL A   1      32.887  23.434  26.665  1.00  0.00     0.017 C 
ATOM     10  C   UNL A   1      31.099  23.104  25.251  1.00  0.00    -0.027 C 
BRANCH   5  11
ATOM     11  C   UNL A   1      32.902  25.910  23.790  1.00  0.00     0.242 C 
ATOM     12  N   UNL A   1      33.296  27.221  23.802  1.00  0.00    -0.267 N 
ATOM     13  H   UNL A   1      33.083  27.762  23.007  1.00  0.00     0.191 HD
ATOM     14  O   UNL A   1      32.284  25.514  22.796  1.00  0.00    -0.273 OA
BRANCH  12  15
ATOM     15  N   UNL A   1      33.966  27.851  24.832  1.00  0.00    -0.264 N 
ATOM     16  C   UNL A   1      33.371  28.250  26.006  1.00  0.00     0.279 C 
ATOM     17  O   UNL A   1      34.093  28.567  26.957  1.00  0.00    -0.269 OA
ATOM     18  H   UNL A   1      34.928  28.024  24.719  1.00  0.00     0.191 HD
BRANCH  16  19
ATOM     19  C   UNL A   1      31.844  28.448  26.062  1.00  0.00     0.260 C 
ATOM     20  C   UNL A   1      31.410  28.164  27.507  1.00  0.00     0.064 C 
BRANCH  19  21
ATOM     21  O   UNL A   1      31.453  29.751  25.629  1.00  0.00    -0.481 OA
BRANCH  21  22
ATOM     22  C   UNL A   1      30.705  29.865  24.486  1.00  0.00     0.120 A 
ATOM     23  C   UNL A   1      28.026  30.453  21.132  1.00  0.00     0.044 C 
ATOM     24  C   UNL A   1      28.972  30.300  22.290  1.00  0.00    -0.048 A 
ATOM     25  C   UNL A   1      29.675  29.097  22.433  1.00  0.00     0.007 A 
ATOM     26  C   UNL A   1      29.180  31.322  23.234  1.00  0.00    -0.045 A 
ATOM     27  C   UNL A   1      30.544  28.886  23.509  1.00  0.00     0.047 A 
ATOM     28  C   UNL A   1      30.043  31.085  24.325  1.00  0.00     0.050 A 
ATOM     29  C   UNL A   1      28.538  32.679  23.124  1.00  0.00     0.045 C 
ENDBRANCH  21  22
ENDBRANCH  19  21
ENDBRANCH  16  19
ENDBRANCH  12  15
ENDBRANCH   5  11
ENDBRANCH   2   4
ENDBRANCH   1   2
BRANCH   1  30
ATOM     30  C   UNL A   1      35.613  21.120  25.512  1.00  0.00     0.274 C 
BRANCH  30  31
ATOM     31  C   UNL A   1      36.916  20.513  25.001  1.00  0.00     0.275 C 
BRANCH  31  32
ATOM     32  O   UNL A   1      37.982  21.478  25.055  1.00  0.00    -0.458 OA
BRANCH  32  33
ATOM     33  C   UNL A   1      38.979  21.194  25.920  1.00  0.00     0.338 C 
ATOM     34  O   UNL A   1      39.450  20.101  26.184  1.00  0.00    -0.246 OA
BRANCH  33  35
ATOM     35  C   UNL A   1      39.480  22.430  26.540  1.00  0.00     0.060 A 
ATOM     36  C   UNL A   1      38.980  23.664  26.129  1.00  0.00     0.016 A 
ATOM     37  C   UNL A   1      40.577  22.366  27.400  1.00  0.00     0.016 A 
ATOM     38  C   UNL A   1      39.646  24.836  26.482  1.00  0.00     0.010 A 
ATOM     39  C   UNL A   1      41.178  23.550  27.837  1.00  0.00     0.010 A 
ATOM     40  C   UNL A   1      40.749  24.796  27.348  1.00  0.00    -0.014 A 
BRANCH  40  41
ATOM     41  C   UNL A   1      41.480  26.040  27.717  1.00  0.00     0.031 A 
ATOM     42  C   UNL A   1      40.803  27.094  28.552  1.00  0.00     0.074 A 
ATOM     43  C   UNL A   1      42.745  26.238  27.300  1.00  0.00     0.049 A 
ATOM     44  N   UNL A   1      41.169  28.330  28.784  1.00  0.00    -0.248 NA
ATOM     45  C   UNL A   1      39.541  26.711  29.204  1.00  0.00     0.031 C 
ATOM     46  C   UNL A   1      43.546  25.285  26.530  1.00  0.00     0.029 A 
ATOM     47  N   UNL A   1      43.581  27.316  27.464  1.00  0.00    -0.354 N 
ATOM     48  C   UNL A   1      40.154  28.889  29.550  1.00  0.00     0.074 A 
ATOM     49  C   UNL A   1      39.162  27.856  29.757  1.00  0.00     0.031 C 
ATOM     50  C   UNL A   1      44.761  25.807  26.312  1.00  0.00     0.029 A 
ATOM     51  C   UNL A   1      44.798  27.163  26.849  1.00  0.00     0.049 A 
ATOM     52  H   UNL A   1      43.330  28.120  27.974  1.00  0.00     0.167 HD
ATOM     53  C   UNL A   1      40.057  30.154  30.028  1.00  0.00     0.037 A 
ATOM     54  C   UNL A   1      45.814  28.031  26.690  1.00  0.00     0.037 A 
ATOM     55  C   UNL A   1      41.075  31.162  29.876  1.00  0.00     0.049 A 
ATOM     56  C   UNL A   1      45.683  29.429  27.220  1.00  0.00     0.074 A 
ATOM     57  C   UNL A   1      41.072  32.469  30.331  1.00  0.00     0.029 A 
ATOM     58  N   UNL A   1      42.289  30.963  29.239  1.00  0.00    -0.354 N 
ATOM     59  N   UNL A   1      44.683  29.974  27.869  1.00  0.00    -0.248 NA
ATOM     60  C   UNL A   1      46.810  30.339  26.975  1.00  0.00     0.031 C 
ATOM     61  C   UNL A   1      42.278  33.069  29.952  1.00  0.00     0.029 A 
ATOM     62  C   UNL A   1      43.043  32.125  29.286  1.00  0.00     0.049 A 
ATOM     63  H   UNL A   1      42.574  30.122  28.814  1.00  0.00     0.167 HD
ATOM     64  C   UNL A   1      45.060  31.287  28.113  1.00  0.00     0.074 A 
ATOM     65  C   UNL A   1      46.388  31.452  27.560  1.00  0.00     0.031 C 
ATOM     66  C   UNL A   1      44.364  32.269  28.734  1.00  0.00     0.037 A 
BRANCH  53  67
ATOM     67  C   UNL A   1      38.792  30.535  30.735  1.00  0.00     0.064 A 
ATOM     68  C   UNL A   1      38.678  30.485  32.131  1.00  0.00     0.173 A 
ATOM     69  C   UNL A   1      37.692  31.007  30.001  1.00  0.00     0.173 A 
ATOM     70  F   UNL A   1      39.696  30.029  32.875  1.00  0.00    -0.203 F 
ATOM     71  C   UNL A   1      37.501  30.878  32.765  1.00  0.00     0.198 A 
ATOM     72  C   UNL A   1      36.526  31.419  30.640  1.00  0.00     0.198 A 
ATOM     73  F   UNL A   1      37.754  31.079  28.662  1.00  0.00    -0.203 F 
ATOM     74  F   UNL A   1      37.400  30.792  34.099  1.00  0.00    -0.200 F 
ATOM     75  C   UNL A   1      36.430  31.351  32.021  1.00  0.00     0.200 A 
ATOM     76  F   UNL A   1      35.497  31.885  29.919  1.00  0.00    -0.200 F 
ATOM     77  F   UNL A   1      35.303  31.736  32.635  1.00  0.00    -0.200 F 
ENDBRANCH  53  67
BRANCH  54  78
ATOM     78  C   UNL A   1      47.029  27.605  25.951  1.00  0.00     0.064 A 
ATOM     79  C   UNL A   1      47.099  27.719  24.557  1.00  0.00     0.173 A 
ATOM     80  C   UNL A   1      48.152  27.101  26.626  1.00  0.00     0.173 A 
ATOM     81  F   UNL A   1      46.041  28.172  23.868  1.00  0.00    -0.203 F 
ATOM     82  C   UNL A   1      48.247  27.344  23.863  1.00  0.00     0.198 A 
ATOM     83  C   UNL A   1      49.307  26.750  25.934  1.00  0.00     0.198 A 
ATOM     84  F   UNL A   1      48.131  26.972  27.960  1.00  0.00    -0.203 F 
ATOM     85  F   UNL A   1      48.280  27.435  22.527  1.00  0.00    -0.200 F 
ATOM     86  C   UNL A   1      49.353  26.867  24.553  1.00  0.00     0.200 A 
ATOM     87  F   UNL A   1      50.377  26.302  26.604  1.00  0.00    -0.200 F 
ATOM     88  F   UNL A   1      50.461  26.518  23.886  1.00  0.00    -0.200 F 
ENDBRANCH  54  78
BRANCH  66  89
ATOM     89  C   UNL A   1      45.036  33.600  28.866  1.00  0.00     0.064 A 
ATOM     90  C   UNL A   1      45.857  33.898  29.962  1.00  0.00     0.173 A 
ATOM     91  C   UNL A   1      44.882  34.575  27.869  1.00  0.00     0.173 A 
ATOM     92  F   UNL A   1      46.019  33.001  30.946  1.00  0.00    -0.203 F 
ATOM     93  C   UNL A   1      46.487  35.134  30.064  1.00  0.00     0.198 A 
ATOM     94  C   UNL A   1      45.528  35.802  27.966  1.00  0.00     0.198 A 
ATOM     95  F   UNL A   1      44.107  34.333  26.801  1.00  0.00    -0.203 F 
ATOM     96  F   UNL A   1      47.241  35.413  31.137  1.00  0.00    -0.200 F 
ATOM     97  C   UNL A   1      46.327  36.083  29.065  1.00  0.00     0.200 A 
ATOM     98  F   UNL A   1      45.377  36.717  26.998  1.00  0.00    -0.200 F 
ATOM     99  F   UNL A   1      46.937  37.272  29.165  1.00  0.00    -0.200 F 
ENDBRANCH  66  89
ENDBRANCH  40  41
ENDBRANCH  33  35
ENDBRANCH  32  33
ENDBRANCH  31  32
ENDBRANCH  30  31
ENDBRANCH   1  30
TORSDOF 16
ENDMDL
MODEL 3
REMARK VINA RESULT:     -12.1      3.173      7.859
REMARK SMILES Cc1ccc(O[C@H](C)C(=O)NNC(=O)[C@@H]2[C@@H](C(=O)OCCOC(=O)c3ccc(-c4c5nc(c(-c6c(F)c(F)c(F)c(F)c6F)c6ccc([nH]6)c(-c6c(F)c(F)c(F)c(F)c6F)c6nc(c(-c7c(F)c(F)c(F)c(F)c7F)c7ccc4[nH]7)C=C6)C=C5)cc3)[C@@H]3C=C[C@H]2C3)cc1C
REMARK SMILES IDX 19 1 17 2 18 3 16 4 15 5 91 6 88 7 90 8 92 9 89 10 13 11
REMARK SMILES IDX 12 12 14 14 11 15 9 16 10 17 7 19 8 20 6 21 5 22 1 23 2 24
REMARK SMILES IDX 3 25 94 26 4 27 93 28 95 29 20 30 21 31 22 32 23 33 24 34
REMARK SMILES IDX 25 35 26 36 87 37 27 38 86 39 28 40 29 41 30 42 80 43 31 44
REMARK SMILES IDX 85 45 79 46 81 47 32 48 84 49 78 50 77 51 33 53 65 54 45 55
REMARK SMILES IDX 64 56 46 57 49 58 63 59 82 60 47 61 48 62 62 64 83 65 50 66
REMARK SMILES IDX 34 67 35 68 43 69 36 70 37 71 41 72 44 73 38 74 39 75 42 76
REMARK SMILES IDX 40 77 66 78 67 79 75 80 68 81 69 82 73 83 76 84 70 85 71 86
REMARK SMILES IDX 74 87 72 88 51 89 52 90 60 91 53 92 54 93 58 94 61 95 55 96
REMARK SMILES IDX 56 97 59 98 57 99
REMARK H PARENT 12 13 11 18 81 52 49 63
REMARK Flexibility Score: inf
ROOT
ATOM      1  O   UNL A   1      31.369  28.826  26.030  1.00  0.00    -0.462 OA
ENDROOT
BRANCH   1   2
ATOM      2  C   UNL A   1      31.213  27.497  25.800  1.00  0.00     0.310 C 
ATOM      3  O   UNL A   1      30.844  26.688  26.645  1.00  0.00    -0.252 OA
BRANCH   2   4
ATOM      4  C   UNL A   1      31.632  27.084  24.405  1.00  0.00     0.119 C 
ATOM      5  C   UNL A   1      32.420  25.722  24.283  1.00  0.00     0.102 C 
ATOM      6  C   UNL A   1      33.714  26.168  23.549  1.00  0.00     0.025 C 
ATOM      7  C   UNL A   1      32.645  28.107  23.826  1.00  0.00     0.027 C 
ATOM      8  C   UNL A   1      33.388  26.692  22.175  1.00  0.00    -0.027 C 
ATOM      9  C   UNL A   1      33.982  27.499  24.249  1.00  0.00     0.017 C 
ATOM     10  C   UNL A   1      32.747  27.858  22.339  1.00  0.00    -0.027 C 
BRANCH   5  11
ATOM     11  C   UNL A   1      31.535  24.670  23.617  1.00  0.00     0.242 C 
ATOM     12  N   UNL A   1      30.747  23.826  24.351  1.00  0.00    -0.267 N 
ATOM     13  H   UNL A   1      30.119  23.251  23.855  1.00  0.00     0.191 HD
ATOM     14  O   UNL A   1      31.421  24.624  22.387  1.00  0.00    -0.273 OA
BRANCH  12  15
ATOM     15  N   UNL A   1      30.755  23.711  25.728  1.00  0.00    -0.264 N 
ATOM     16  C   UNL A   1      31.759  23.103  26.443  1.00  0.00     0.279 C 
ATOM     17  O   UNL A   1      31.802  23.275  27.665  1.00  0.00    -0.269 OA
ATOM     18  H   UNL A   1      29.995  24.088  26.226  1.00  0.00     0.191 HD
BRANCH  16  19
ATOM     19  C   UNL A   1      32.701  22.104  25.743  1.00  0.00     0.260 C 
ATOM     20  C   UNL A   1      31.812  21.056  25.059  1.00  0.00     0.064 C 
BRANCH  19  21
ATOM     21  O   UNL A   1      33.580  22.748  24.820  1.00  0.00    -0.481 OA
BRANCH  21  22
ATOM     22  C   UNL A   1      34.920  22.784  25.107  1.00  0.00     0.120 A 
ATOM     23  C   UNL A   1      39.106  22.462  26.179  1.00  0.00     0.044 C 
ATOM     24  C   UNL A   1      37.663  22.544  25.763  1.00  0.00    -0.048 A 
ATOM     25  C   UNL A   1      36.973  23.748  25.956  1.00  0.00     0.007 A 
ATOM     26  C   UNL A   1      36.982  21.458  25.184  1.00  0.00    -0.045 A 
ATOM     27  C   UNL A   1      35.621  23.873  25.618  1.00  0.00     0.047 A 
ATOM     28  C   UNL A   1      35.614  21.594  24.869  1.00  0.00     0.050 A 
ATOM     29  C   UNL A   1      37.655  20.152  24.859  1.00  0.00     0.045 C 
ENDBRANCH  21  22
ENDBRANCH  19  21
ENDBRANCH  16  19
ENDBRANCH  12  15
ENDBRANCH   5  11
ENDBRANCH   2   4
ENDBRANCH   1   2
BRANCH   1  30
ATOM     30  C   UNL A   1      31.901  29.176  27.324  1.00  0.00     0.274 C 
BRANCH  30  31
ATOM     31  C   UNL A   1      33.413  28.979  27.385  1.00  0.00     0.275 C 
BRANCH  31  32
ATOM     32  O   UNL A   1      34.098  30.205  27.071  1.00  0.00    -0.458 OA
BRANCH  32  33
ATOM     33  C   UNL A   1      34.763  30.777  28.097  1.00  0.00     0.338 C 
ATOM     34  O   UNL A   1      34.423  31.738  28.765  1.00  0.00    -0.246 OA
BRANCH  33  35
ATOM     35  C   UNL A   1      36.022  30.058  28.349  1.00  0.00     0.060 A 
ATOM     36  C   UNL A   1      36.229  29.432  29.577  1.00  0.00     0.016 A 
ATOM     37  C   UNL A   1      37.065  30.164  27.429  1.00  0.00     0.016 A 
ATOM     38  C   UNL A   1      37.509  29.015  29.938  1.00  0.00     0.010 A 
ATOM     39  C   UNL A   1      38.323  29.648  27.752  1.00  0.00     0.010 A 
ATOM     40  C   UNL A   1      38.571  29.109  29.027  1.00  0.00    -0.014 A 
BRANCH  40  41
ATOM     41  C   UNL A   1      39.947  28.684  29.406  1.00  0.00     0.031 A 
ATOM     42  C   UNL A   1      40.791  29.559  30.295  1.00  0.00     0.074 A 
ATOM     43  C   UNL A   1      40.452  27.521  28.953  1.00  0.00     0.049 A 
ATOM     44  N   UNL A   1      42.074  29.492  30.550  1.00  0.00    -0.248 NA
ATOM     45  C   UNL A   1      40.103  30.665  30.978  1.00  0.00     0.031 C 
ATOM     46  C   UNL A   1      39.736  26.547  28.129  1.00  0.00     0.029 A 
ATOM     47  N   UNL A   1      41.696  26.962  29.119  1.00  0.00    -0.354 N 
ATOM     48  C   UNL A   1      42.357  30.579  31.366  1.00  0.00     0.074 A 
ATOM     49  C   UNL A   1      41.111  31.285  31.577  1.00  0.00     0.031 C 
ATOM     50  C   UNL A   1      40.539  25.502  27.884  1.00  0.00     0.029 A 
ATOM     51  C   UNL A   1      41.853  25.769  28.459  1.00  0.00     0.049 A 
ATOM     52  H   UNL A   1      42.406  27.377  29.661  1.00  0.00     0.167 HD
ATOM     53  C   UNL A   1      43.551  30.957  31.883  1.00  0.00     0.037 A 
ATOM     54  C   UNL A   1      42.943  24.998  28.290  1.00  0.00     0.037 A 
ATOM     55  C   UNL A   1      44.777  30.218  31.726  1.00  0.00     0.049 A 
ATOM     56  C   UNL A   1      44.257  25.439  28.865  1.00  0.00     0.074 A 
ATOM     57  C   UNL A   1      46.036  30.516  32.218  1.00  0.00     0.029 A 
ATOM     58  N   UNL A   1      44.890  29.018  31.041  1.00  0.00    -0.354 N 
ATOM     59  N   UNL A   1      44.533  26.514  29.563  1.00  0.00    -0.248 NA
ATOM     60  C   UNL A   1      45.416  24.574  28.608  1.00  0.00     0.031 C 
ATOM     61  C   UNL A   1      46.916  29.505  31.815  1.00  0.00     0.029 A 
ATOM     62  C   UNL A   1      46.197  28.563  31.097  1.00  0.00     0.049 A 
ATOM     63  H   UNL A   1      44.150  28.557  30.583  1.00  0.00     0.167 HD
ATOM     64  C   UNL A   1      45.893  26.453  29.831  1.00  0.00     0.074 A 
ATOM     65  C   UNL A   1      46.383  25.226  29.238  1.00  0.00     0.031 C 
ATOM     66  C   UNL A   1      46.666  27.339  30.504  1.00  0.00     0.037 A 
BRANCH  53  67
ATOM     67  C   UNL A   1      43.603  32.248  32.644  1.00  0.00     0.064 A 
ATOM     68  C   UNL A   1      43.740  33.483  31.998  1.00  0.00     0.173 A 
ATOM     69  C   UNL A   1      43.460  32.246  34.041  1.00  0.00     0.173 A 
ATOM     70  F   UNL A   1      43.893  33.537  30.667  1.00  0.00    -0.203 F 
ATOM     71  C   UNL A   1      43.751  34.672  32.726  1.00  0.00     0.198 A 
ATOM     72  C   UNL A   1      43.449  33.436  34.762  1.00  0.00     0.198 A 
ATOM     73  F   UNL A   1      43.320  31.088  34.704  1.00  0.00    -0.203 F 
ATOM     74  F   UNL A   1      43.917  35.842  32.093  1.00  0.00    -0.200 F 
ATOM     75  C   UNL A   1      43.599  34.648  34.105  1.00  0.00     0.200 A 
ATOM     76  F   UNL A   1      43.292  33.411  36.092  1.00  0.00    -0.200 F 
ATOM     77  F   UNL A   1      43.601  35.793  34.801  1.00  0.00    -0.200 F 
ENDBRANCH  53  67
BRANCH  54  78
ATOM     78  C   UNL A   1      42.837  23.747  27.498  1.00  0.00     0.064 A 
ATOM     79  C   UNL A   1      43.174  23.727  26.138  1.00  0.00     0.173 A 
ATOM     80  C   UNL A   1      42.422  22.544  28.090  1.00  0.00     0.173 A 
ATOM     81  F   UNL A   1      43.551  24.858  25.525  1.00  0.00    -0.203 F 
ATOM     82  C   UNL A   1      43.099  22.549  25.399  1.00  0.00     0.198 A 
ATOM     83  C   UNL A   1      42.372  21.363  27.356  1.00  0.00     0.198 A 
ATOM     84  F   UNL A   1      42.088  22.515  29.388  1.00  0.00    -0.203 F 
ATOM     85  F   UNL A   1      43.398  22.560  24.093  1.00  0.00    -0.200 F 
ATOM     86  C   UNL A   1      42.706  21.366  26.010  1.00  0.00     0.200 A 
ATOM     87  F   UNL A   1      42.005  20.221  27.952  1.00  0.00    -0.200 F 
ATOM     88  F   UNL A   1      42.646  20.232  25.300  1.00  0.00    -0.200 F 
ENDBRANCH  54  78
BRANCH  66  89
ATOM     89  C   UNL A   1      48.117  27.001  30.651  1.00  0.00     0.064 A 
ATOM     90  C   UNL A   1      48.570  26.161  31.678  1.00  0.00     0.173 A 
ATOM     91  C   UNL A   1      49.057  27.497  29.736  1.00  0.00     0.173 A 
ATOM     92  F   UNL A   1      47.707  25.678  32.585  1.00  0.00    -0.203 F 
ATOM     93  C   UNL A   1      49.920  25.843  31.794  1.00  0.00     0.198 A 
ATOM     94  C   UNL A   1      50.403  27.162  29.845  1.00  0.00     0.198 A 
ATOM     95  F   UNL A   1      48.669  28.302  28.737  1.00  0.00    -0.203 F 
ATOM     96  F   UNL A   1      50.339  25.067  32.803  1.00  0.00    -0.200 F 
ATOM     97  C   UNL A   1      50.834  26.339  30.876  1.00  0.00     0.200 A 
ATOM     98  F   UNL A   1      51.285  27.637  28.955  1.00  0.00    -0.200 F 
ATOM     99  F   UNL A   1      52.133  26.030  30.989  1.00  0.00    -0.200 F 
ENDBRANCH  66  89
ENDBRANCH  40  41
ENDBRANCH  33  35
ENDBRANCH  32  33
ENDBRANCH  31  32
ENDBRANCH  30  31
ENDBRANCH   1  30
TORSDOF 16
ENDMDL
