MODEL 1
REMARK VINA RESULT:     -12.4      0.000      0.000
REMARK SMILES N#Cc1cccc(-c2ccnc(C(=O)OCCOC(=O)c3ccc(-c4c5nc(c(-c6c(F)c(F)c(F)c(F)c6F)c6ccc([nH]6)c(-c6c(F)c(F)c(F)c(F)c6F)c6nc(c(-c7c(F)c(F)c(F)c(F)c7F)c7ccc4[nH]7)C=C6)C=C5)cc3)c2)c1F
REMARK SMILES IDX 16 1 15 2 13 3 14 4 12 5 8 6 9 7 84 8 10 9 11 10 7 11 3 12
REMARK SMILES IDX 4 13 85 14 5 15 86 16 6 17 2 18 1 19 17 20 18 21 19 22 20 23
REMARK SMILES IDX 21 24 22 25 83 26 23 27 82 28 24 29 25 30 26 31 76 32 27 33
REMARK SMILES IDX 81 34 75 35 77 36 28 37 80 38 74 39 73 40 29 42 61 43 41 44
REMARK SMILES IDX 60 45 42 46 45 47 59 48 78 49 43 50 44 51 58 53 79 54 46 55
REMARK SMILES IDX 30 56 31 57 39 58 32 59 33 60 37 61 40 62 34 63 35 64 38 65
REMARK SMILES IDX 36 66 62 67 63 68 71 69 64 70 65 71 69 72 72 73 66 74 67 75
REMARK SMILES IDX 70 76 68 77 47 78 48 79 56 80 49 81 50 82 54 83 57 84 51 85
REMARK SMILES IDX 52 86 55 87 53 88
REMARK H PARENT 77 41 45 52
REMARK Flexibility Score: inf
ROOT
ATOM      1  C   UNL A   1      42.426  20.476  25.915  1.00  0.00     0.275 C 
ENDROOT
BRANCH   1   2
ATOM      2  O   UNL A   1      41.227  21.183  26.295  1.00  0.00    -0.457 OA
BRANCH   2   3
ATOM      3  C   UNL A   1      40.056  20.630  25.873  1.00  0.00     0.357 C 
ATOM      4  O   UNL A   1      39.870  19.440  25.669  1.00  0.00    -0.244 OA
BRANCH   3   5
ATOM      5  C   UNL A   1      38.973  21.666  25.805  1.00  0.00     0.148 A 
ATOM      6  C   UNL A   1      36.884  22.524  25.011  1.00  0.00    -0.011 A 
ATOM      7  C   UNL A   1      37.140  23.702  25.722  1.00  0.00     0.029 A 
ATOM      8  C   UNL A   1      37.853  21.509  25.010  1.00  0.00     0.045 A 
ATOM      9  C   UNL A   1      38.283  23.773  26.489  1.00  0.00     0.112 A 
ATOM     10  N   UNL A   1      39.166  22.764  26.583  1.00  0.00    -0.249 NA
BRANCH   6  11
ATOM     11  C   UNL A   1      35.577  22.303  24.389  1.00  0.00     0.019 A 
ATOM     12  C   UNL A   1      33.522  20.987  24.282  1.00  0.00     0.088 A 
ATOM     13  C   UNL A   1      33.008  21.867  23.329  1.00  0.00     0.022 A 
ATOM     14  C   UNL A   1      34.793  21.212  24.802  1.00  0.00     0.148 A 
ATOM     15  C   UNL A   1      33.768  22.961  22.906  1.00  0.00     0.002 A 
ATOM     16  F   UNL A   1      35.273  20.376  25.739  1.00  0.00    -0.205 F 
ATOM     17  C   UNL A   1      35.044  23.179  23.434  1.00  0.00     0.012 A 
BRANCH  12  18
ATOM     18  C   UNL A   1      32.764  19.864  24.741  1.00  0.00     0.102 C 
ATOM     19  N   UNL A   1      32.145  18.954  25.101  1.00  0.00    -0.192 NA
ENDBRANCH  12  18
ENDBRANCH   6  11
ENDBRANCH   3   5
ENDBRANCH   2   3
ENDBRANCH   1   2
BRANCH   1  20
ATOM     20  C   UNL A   1      43.518  21.427  25.407  1.00  0.00     0.275 C 
BRANCH  20  21
ATOM     21  O   UNL A   1      42.968  22.611  24.795  1.00  0.00    -0.458 OA
BRANCH  21  22
ATOM     22  C   UNL A   1      43.676  23.741  25.019  1.00  0.00     0.338 C 
ATOM     23  O   UNL A   1      44.691  24.102  24.441  1.00  0.00    -0.246 OA
BRANCH  22  24
ATOM     24  C   UNL A   1      42.988  24.610  25.985  1.00  0.00     0.060 A 
ATOM     25  C   UNL A   1      43.483  25.900  26.113  1.00  0.00     0.016 A 
ATOM     26  C   UNL A   1      42.019  24.153  26.873  1.00  0.00     0.016 A 
ATOM     27  C   UNL A   1      43.106  26.719  27.164  1.00  0.00     0.010 A 
ATOM     28  C   UNL A   1      41.566  25.011  27.892  1.00  0.00     0.010 A 
ATOM     29  C   UNL A   1      42.130  26.291  28.065  1.00  0.00    -0.014 A 
BRANCH  29  30
ATOM     30  C   UNL A   1      41.753  27.199  29.183  1.00  0.00     0.031 A 
ATOM     31  C   UNL A   1      42.573  27.237  30.442  1.00  0.00     0.074 A 
ATOM     32  C   UNL A   1      40.714  28.045  29.033  1.00  0.00     0.049 A 
ATOM     33  N   UNL A   1      42.374  27.925  31.541  1.00  0.00    -0.248 NA
ATOM     34  C   UNL A   1      43.774  26.388  30.479  1.00  0.00     0.031 C 
ATOM     35  C   UNL A   1      39.873  28.147  27.837  1.00  0.00     0.029 A 
ATOM     36  N   UNL A   1      40.195  28.994  29.880  1.00  0.00    -0.354 N 
ATOM     37  C   UNL A   1      43.397  27.563  32.407  1.00  0.00     0.074 A 
ATOM     38  C   UNL A   1      44.206  26.580  31.717  1.00  0.00     0.031 C 
ATOM     39  C   UNL A   1      38.968  29.120  28.015  1.00  0.00     0.029 A 
ATOM     40  C   UNL A   1      39.106  29.654  29.364  1.00  0.00     0.049 A 
ATOM     41  H   UNL A   1      40.569  29.183  30.771  1.00  0.00     0.167 HD
ATOM     42  C   UNL A   1      43.638  28.013  33.663  1.00  0.00     0.037 A 
ATOM     43  C   UNL A   1      38.283  30.558  29.925  1.00  0.00     0.037 A 
ATOM     44  C   UNL A   1      42.843  29.011  34.332  1.00  0.00     0.049 A 
ATOM     45  C   UNL A   1      38.540  30.993  31.342  1.00  0.00     0.074 A 
ATOM     46  C   UNL A   1      43.018  29.550  35.595  1.00  0.00     0.029 A 
ATOM     47  N   UNL A   1      41.717  29.620  33.793  1.00  0.00    -0.354 N 
ATOM     48  N   UNL A   1      39.506  30.641  32.154  1.00  0.00    -0.248 NA
ATOM     49  C   UNL A   1      37.588  31.951  31.920  1.00  0.00     0.031 C 
ATOM     50  C   UNL A   1      41.962  30.431  35.848  1.00  0.00     0.029 A 
ATOM     51  C   UNL A   1      41.170  30.504  34.713  1.00  0.00     0.049 A 
ATOM     52  H   UNL A   1      41.360  29.451  32.892  1.00  0.00     0.167 HD
ATOM     53  C   UNL A   1      39.294  31.350  33.329  1.00  0.00     0.074 A 
ATOM     54  C   UNL A   1      38.123  32.174  33.111  1.00  0.00     0.031 C 
ATOM     55  C   UNL A   1      40.003  31.319  34.484  1.00  0.00     0.037 A 
BRANCH  42  56
ATOM     56  C   UNL A   1      44.785  27.401  34.418  1.00  0.00     0.064 A 
ATOM     57  C   UNL A   1      46.065  27.974  34.431  1.00  0.00     0.173 A 
ATOM     58  C   UNL A   1      44.583  26.237  35.179  1.00  0.00     0.173 A 
ATOM     59  F   UNL A   1      46.318  29.079  33.713  1.00  0.00    -0.203 F 
ATOM     60  C   UNL A   1      47.106  27.391  35.152  1.00  0.00     0.198 A 
ATOM     61  C   UNL A   1      45.617  25.677  35.927  1.00  0.00     0.198 A 
ATOM     62  F   UNL A   1      43.378  25.648  35.210  1.00  0.00    -0.203 F 
ATOM     63  F   UNL A   1      48.333  27.927  35.107  1.00  0.00    -0.200 F 
ATOM     64  C   UNL A   1      46.878  26.249  35.906  1.00  0.00     0.200 A 
ATOM     65  F   UNL A   1      45.389  24.584  36.667  1.00  0.00    -0.200 F 
ATOM     66  F   UNL A   1      47.878  25.696  36.607  1.00  0.00    -0.200 F 
ENDBRANCH  42  56
BRANCH  43  67
ATOM     67  C   UNL A   1      37.114  31.077  29.165  1.00  0.00     0.064 A 
ATOM     68  C   UNL A   1      37.090  32.389  28.673  1.00  0.00     0.173 A 
ATOM     69  C   UNL A   1      35.984  30.277  28.933  1.00  0.00     0.173 A 
ATOM     70  F   UNL A   1      38.133  33.206  28.888  1.00  0.00    -0.203 F 
ATOM     71  C   UNL A   1      35.973  32.888  28.004  1.00  0.00     0.198 A 
ATOM     72  C   UNL A   1      34.885  30.763  28.229  1.00  0.00     0.198 A 
ATOM     73  F   UNL A   1      35.951  29.013  29.382  1.00  0.00    -0.203 F 
ATOM     74  F   UNL A   1      35.952  34.166  27.601  1.00  0.00    -0.200 F 
ATOM     75  C   UNL A   1      34.875  32.072  27.776  1.00  0.00     0.200 A 
ATOM     76  F   UNL A   1      33.834  29.964  27.997  1.00  0.00    -0.200 F 
ATOM     77  F   UNL A   1      33.802  32.552  27.132  1.00  0.00    -0.200 F 
ENDBRANCH  43  67
BRANCH  55  78
ATOM     78  C   UNL A   1      39.553  32.236  35.587  1.00  0.00     0.064 A 
ATOM     79  C   UNL A   1      39.973  33.574  35.657  1.00  0.00     0.173 A 
ATOM     80  C   UNL A   1      38.685  31.770  36.586  1.00  0.00     0.173 A 
ATOM     81  F   UNL A   1      40.815  34.068  34.736  1.00  0.00    -0.203 F 
ATOM     82  C   UNL A   1      39.575  34.395  36.709  1.00  0.00     0.198 A 
ATOM     83  C   UNL A   1      38.256  32.606  37.613  1.00  0.00     0.198 A 
ATOM     84  F   UNL A   1      38.245  30.503  36.564  1.00  0.00    -0.203 F 
ATOM     85  F   UNL A   1      40.047  35.647  36.794  1.00  0.00    -0.200 F 
ATOM     86  C   UNL A   1      38.713  33.913  37.682  1.00  0.00     0.200 A 
ATOM     87  F   UNL A   1      37.407  32.144  38.542  1.00  0.00    -0.200 F 
ATOM     88  F   UNL A   1      38.330  34.705  38.693  1.00  0.00    -0.200 F 
ENDBRANCH  55  78
ENDBRANCH  29  30
ENDBRANCH  22  24
ENDBRANCH  21  22
ENDBRANCH  20  21
ENDBRANCH   1  20
TORSDOF 13
ENDMDL
MODEL 2
REMARK VINA RESULT:     -12.4      4.772      9.508
REMARK SMILES N#Cc1cccc(-c2ccnc(C(=O)OCCOC(=O)c3ccc(-c4c5nc(c(-c6c(F)c(F)c(F)c(F)c6F)c6ccc([nH]6)c(-c6c(F)c(F)c(F)c(F)c6F)c6nc(c(-c7c(F)c(F)c(F)c(F)c7F)c7ccc4[nH]7)C=C6)C=C5)cc3)c2)c1F
REMARK SMILES IDX 16 1 15 2 13 3 14 4 12 5 8 6 9 7 84 8 10 9 11 10 7 11 3 12
REMARK SMILES IDX 4 13 85 14 5 15 86 16 6 17 2 18 1 19 17 20 18 21 19 22 20 23
REMARK SMILES IDX 21 24 22 25 83 26 23 27 82 28 24 29 25 30 26 31 76 32 27 33
REMARK SMILES IDX 81 34 75 35 77 36 28 37 80 38 74 39 73 40 29 42 61 43 41 44
REMARK SMILES IDX 60 45 42 46 45 47 59 48 78 49 43 50 44 51 58 53 79 54 46 55
REMARK SMILES IDX 30 56 31 57 39 58 32 59 33 60 37 61 40 62 34 63 35 64 38 65
REMARK SMILES IDX 36 66 62 67 63 68 71 69 64 70 65 71 69 72 72 73 66 74 67 75
REMARK SMILES IDX 70 76 68 77 47 78 48 79 56 80 49 81 50 82 54 83 57 84 51 85
REMARK SMILES IDX 52 86 55 87 53 88
REMARK H PARENT 77 41 45 52
REMARK Flexibility Score: inf
ROOT
ATOM      1  C   UNL A   1      33.952  35.063  28.552  1.00  0.00     0.275 C 
ENDROOT
BRANCH   1   2
ATOM      2  O   UNL A   1      33.712  33.675  28.864  1.00  0.00    -0.457 OA
BRANCH   2   3
ATOM      3  C   UNL A   1      33.041  32.964  27.916  1.00  0.00     0.357 C 
ATOM      4  O   UNL A   1      32.076  33.364  27.284  1.00  0.00    -0.244 OA
BRANCH   3   5
ATOM      5  C   UNL A   1      33.720  31.652  27.656  1.00  0.00     0.148 A 
ATOM      6  C   UNL A   1      33.741  29.350  27.001  1.00  0.00    -0.011 A 
ATOM      7  C   UNL A   1      35.101  29.307  27.327  1.00  0.00     0.029 A 
ATOM      8  C   UNL A   1      33.026  30.536  27.227  1.00  0.00     0.045 A 
ATOM      9  C   UNL A   1      35.713  30.468  27.749  1.00  0.00     0.112 A 
ATOM     10  N   UNL A   1      35.064  31.638  27.865  1.00  0.00    -0.249 NA
BRANCH   6  11
ATOM     11  C   UNL A   1      33.107  28.221  26.316  1.00  0.00     0.019 A 
ATOM     12  C   UNL A   1      32.972  26.806  24.330  1.00  0.00     0.088 A 
ATOM     13  C   UNL A   1      32.025  26.002  24.966  1.00  0.00     0.022 A 
ATOM     14  C   UNL A   1      33.503  27.899  25.005  1.00  0.00     0.148 A 
ATOM     15  C   UNL A   1      31.618  26.300  26.270  1.00  0.00     0.002 A 
ATOM     16  F   UNL A   1      34.435  28.654  24.397  1.00  0.00    -0.205 F 
ATOM     17  C   UNL A   1      32.158  27.402  26.942  1.00  0.00     0.012 A 
BRANCH  12  18
ATOM     18  C   UNL A   1      33.413  26.520  22.999  1.00  0.00     0.102 C 
ATOM     19  N   UNL A   1      33.768  26.299  21.919  1.00  0.00    -0.192 NA
ENDBRANCH  12  18
ENDBRANCH   6  11
ENDBRANCH   3   5
ENDBRANCH   2   3
ENDBRANCH   1   2
BRANCH   1  20
ATOM     20  C   UNL A   1      33.184  36.004  29.488  1.00  0.00     0.275 C 
BRANCH  20  21
ATOM     21  O   UNL A   1      32.491  35.290  30.531  1.00  0.00    -0.458 OA
BRANCH  21  22
ATOM     22  C   UNL A   1      32.729  35.748  31.781  1.00  0.00     0.338 C 
ATOM     23  O   UNL A   1      32.086  36.589  32.392  1.00  0.00    -0.246 OA
BRANCH  22  24
ATOM     24  C   UNL A   1      33.816  34.992  32.420  1.00  0.00     0.060 A 
ATOM     25  C   UNL A   1      35.060  35.605  32.442  1.00  0.00     0.016 A 
ATOM     26  C   UNL A   1      33.694  33.666  32.821  1.00  0.00     0.016 A 
ATOM     27  C   UNL A   1      36.208  34.902  32.766  1.00  0.00     0.010 A 
ATOM     28  C   UNL A   1      34.844  32.968  33.235  1.00  0.00     0.010 A 
ATOM     29  C   UNL A   1      36.117  33.572  33.180  1.00  0.00    -0.014 A 
BRANCH  29  30
ATOM     30  C   UNL A   1      37.373  32.848  33.517  1.00  0.00     0.031 A 
ATOM     31  C   UNL A   1      38.071  33.100  34.824  1.00  0.00     0.074 A 
ATOM     32  C   UNL A   1      37.844  31.906  32.675  1.00  0.00     0.049 A 
ATOM     33  N   UNL A   1      39.198  32.602  35.272  1.00  0.00    -0.248 NA
ATOM     34  C   UNL A   1      37.423  34.038  35.753  1.00  0.00     0.031 C 
ATOM     35  C   UNL A   1      37.228  31.526  31.401  1.00  0.00     0.029 A 
ATOM     36  N   UNL A   1      38.939  31.081  32.768  1.00  0.00    -0.354 N 
ATOM     37  C   UNL A   1      39.411  33.194  36.510  1.00  0.00     0.074 A 
ATOM     38  C   UNL A   1      38.307  34.103  36.738  1.00  0.00     0.031 C 
ATOM     39  C   UNL A   1      37.933  30.528  30.848  1.00  0.00     0.029 A 
ATOM     40  C   UNL A   1      39.097  30.254  31.682  1.00  0.00     0.049 A 
ATOM     41  H   UNL A   1      39.552  31.084  33.538  1.00  0.00     0.167 HD
ATOM     42  C   UNL A   1      40.434  32.993  37.376  1.00  0.00     0.037 A 
ATOM     43  C   UNL A   1      40.087  29.397  31.370  1.00  0.00     0.037 A 
ATOM     44  C   UNL A   1      41.514  32.066  37.153  1.00  0.00     0.049 A 
ATOM     45  C   UNL A   1      41.239  29.241  32.323  1.00  0.00     0.074 A 
ATOM     46  C   UNL A   1      42.586  31.775  37.980  1.00  0.00     0.029 A 
ATOM     47  N   UNL A   1      41.664  31.281  36.018  1.00  0.00    -0.354 N 
ATOM     48  N   UNL A   1      41.434  29.809  33.489  1.00  0.00    -0.248 NA
ATOM     49  C   UNL A   1      42.312  28.324  31.915  1.00  0.00     0.031 C 
ATOM     50  C   UNL A   1      43.418  30.868  37.317  1.00  0.00     0.029 A 
ATOM     51  C   UNL A   1      42.828  30.531  36.109  1.00  0.00     0.049 A 
ATOM     52  H   UNL A   1      41.037  31.259  35.259  1.00  0.00     0.167 HD
ATOM     53  C   UNL A   1      42.636  29.303  33.964  1.00  0.00     0.074 A 
ATOM     54  C   UNL A   1      43.110  28.360  32.972  1.00  0.00     0.031 C 
ATOM     55  C   UNL A   1      43.289  29.595  35.115  1.00  0.00     0.037 A 
BRANCH  42  56
ATOM     56  C   UNL A   1      40.461  33.821  38.631  1.00  0.00     0.064 A 
ATOM     57  C   UNL A   1      41.198  35.011  38.727  1.00  0.00     0.173 A 
ATOM     58  C   UNL A   1      39.697  33.434  39.745  1.00  0.00     0.173 A 
ATOM     59  F   UNL A   1      41.954  35.423  37.698  1.00  0.00    -0.203 F 
ATOM     60  C   UNL A   1      41.192  35.766  39.899  1.00  0.00     0.198 A 
ATOM     61  C   UNL A   1      39.666  34.210  40.902  1.00  0.00     0.198 A 
ATOM     62  F   UNL A   1      38.968  32.309  39.708  1.00  0.00    -0.203 F 
ATOM     63  F   UNL A   1      41.945  36.872  39.986  1.00  0.00    -0.200 F 
ATOM     64  C   UNL A   1      40.419  35.370  40.981  1.00  0.00     0.200 A 
ATOM     65  F   UNL A   1      38.906  33.833  41.938  1.00  0.00    -0.200 F 
ATOM     66  F   UNL A   1      40.408  36.103  42.103  1.00  0.00    -0.200 F 
ENDBRANCH  42  56
BRANCH  43  67
ATOM     67  C   UNL A   1      40.054  28.658  30.079  1.00  0.00     0.064 A 
ATOM     68  C   UNL A   1      39.448  27.398  29.977  1.00  0.00     0.173 A 
ATOM     69  C   UNL A   1      40.651  29.186  28.923  1.00  0.00     0.173 A 
ATOM     70  F   UNL A   1      38.885  26.835  31.056  1.00  0.00    -0.203 F 
ATOM     71  C   UNL A   1      39.463  26.687  28.778  1.00  0.00     0.198 A 
ATOM     72  C   UNL A   1      40.630  28.492  27.717  1.00  0.00     0.198 A 
ATOM     73  F   UNL A   1      41.247  30.388  28.964  1.00  0.00    -0.203 F 
ATOM     74  F   UNL A   1      38.932  25.457  28.725  1.00  0.00    -0.200 F 
ATOM     75  C   UNL A   1      40.048  27.238  27.648  1.00  0.00     0.200 A 
ATOM     76  F   UNL A   1      41.182  29.037  26.623  1.00  0.00    -0.200 F 
ATOM     77  F   UNL A   1      40.061  26.553  26.495  1.00  0.00    -0.200 F 
ENDBRANCH  43  67
BRANCH  55  78
ATOM     78  C   UNL A   1      44.569  28.852  35.382  1.00  0.00     0.064 A 
ATOM     79  C   UNL A   1      45.816  29.353  34.979  1.00  0.00     0.173 A 
ATOM     80  C   UNL A   1      44.545  27.621  36.056  1.00  0.00     0.173 A 
ATOM     81  F   UNL A   1      45.895  30.518  34.317  1.00  0.00    -0.203 F 
ATOM     82  C   UNL A   1      46.985  28.629  35.202  1.00  0.00     0.198 A 
ATOM     83  C   UNL A   1      45.720  26.920  36.315  1.00  0.00     0.198 A 
ATOM     84  F   UNL A   1      43.382  27.099  36.473  1.00  0.00    -0.203 F 
ATOM     85  F   UNL A   1      48.156  29.093  34.743  1.00  0.00    -0.200 F 
ATOM     86  C   UNL A   1      46.937  27.417  35.874  1.00  0.00     0.200 A 
ATOM     87  F   UNL A   1      45.673  25.759  36.982  1.00  0.00    -0.200 F 
ATOM     88  F   UNL A   1      48.062  26.723  36.089  1.00  0.00    -0.200 F 
ENDBRANCH  55  78
ENDBRANCH  29  30
ENDBRANCH  22  24
ENDBRANCH  21  22
ENDBRANCH  20  21
ENDBRANCH   1  20
TORSDOF 13
ENDMDL
MODEL 3
REMARK VINA RESULT:     -12.2      5.358      7.427
REMARK SMILES N#Cc1cccc(-c2ccnc(C(=O)OCCOC(=O)c3ccc(-c4c5nc(c(-c6c(F)c(F)c(F)c(F)c6F)c6ccc([nH]6)c(-c6c(F)c(F)c(F)c(F)c6F)c6nc(c(-c7c(F)c(F)c(F)c(F)c7F)c7ccc4[nH]7)C=C6)C=C5)cc3)c2)c1F
REMARK SMILES IDX 16 1 15 2 13 3 14 4 12 5 8 6 9 7 84 8 10 9 11 10 7 11 3 12
REMARK SMILES IDX 4 13 85 14 5 15 86 16 6 17 2 18 1 19 17 20 18 21 19 22 20 23
REMARK SMILES IDX 21 24 22 25 83 26 23 27 82 28 24 29 25 30 26 31 76 32 27 33
REMARK SMILES IDX 81 34 75 35 77 36 28 37 80 38 74 39 73 40 29 42 61 43 41 44
REMARK SMILES IDX 60 45 42 46 45 47 59 48 78 49 43 50 44 51 58 53 79 54 46 55
REMARK SMILES IDX 30 56 31 57 39 58 32 59 33 60 37 61 40 62 34 63 35 64 38 65
REMARK SMILES IDX 36 66 62 67 63 68 71 69 64 70 65 71 69 72 72 73 66 74 67 75
REMARK SMILES IDX 70 76 68 77 47 78 48 79 56 80 49 81 50 82 54 83 57 84 51 85
REMARK SMILES IDX 52 86 55 87 53 88
REMARK H PARENT 77 41 45 52
REMARK Flexibility Score: inf
ROOT
ATOM      1  C   UNL A   1      42.023  19.375  27.093  1.00  0.00     0.275 C 
ENDROOT
BRANCH   1   2
ATOM      2  O   UNL A   1      41.373  20.507  26.478  1.00  0.00    -0.457 OA
BRANCH   2   3
ATOM      3  C   UNL A   1      40.103  20.291  26.035  1.00  0.00     0.357 C 
ATOM      4  O   UNL A   1      39.636  19.204  25.732  1.00  0.00    -0.244 OA
BRANCH   3   5
ATOM      5  C   UNL A   1      39.302  21.558  26.083  1.00  0.00     0.148 A 
ATOM      6  C   UNL A   1      37.424  22.922  25.495  1.00  0.00    -0.011 A 
ATOM      7  C   UNL A   1      38.016  23.976  26.200  1.00  0.00     0.029 A 
ATOM      8  C   UNL A   1      38.115  21.705  25.390  1.00  0.00     0.045 A 
ATOM      9  C   UNL A   1      39.203  23.742  26.861  1.00  0.00     0.112 A 
ATOM     10  N   UNL A   1      39.819  22.548  26.859  1.00  0.00    -0.249 NA
BRANCH   6  11
ATOM     11  C   UNL A   1      36.055  23.044  24.991  1.00  0.00     0.019 A 
ATOM     12  C   UNL A   1      33.675  23.297  25.479  1.00  0.00     0.088 A 
ATOM     13  C   UNL A   1      33.405  23.393  24.113  1.00  0.00     0.022 A 
ATOM     14  C   UNL A   1      34.988  23.126  25.903  1.00  0.00     0.148 A 
ATOM     15  C   UNL A   1      34.449  23.317  23.187  1.00  0.00     0.002 A 
ATOM     16  F   UNL A   1      35.246  23.061  27.221  1.00  0.00    -0.205 F 
ATOM     17  C   UNL A   1      35.767  23.146  23.623  1.00  0.00     0.012 A 
BRANCH  12  18
ATOM     18  C   UNL A   1      32.627  23.379  26.450  1.00  0.00     0.102 C 
ATOM     19  N   UNL A   1      31.786  23.451  27.242  1.00  0.00    -0.192 NA
ENDBRANCH  12  18
ENDBRANCH   6  11
ENDBRANCH   3   5
ENDBRANCH   2   3
ENDBRANCH   1   2
BRANCH   1  20
ATOM     20  C   UNL A   1      42.934  18.630  26.109  1.00  0.00     0.275 C 
BRANCH  20  21
ATOM     21  O   UNL A   1      43.132  19.366  24.885  1.00  0.00    -0.458 OA
BRANCH  21  22
ATOM     22  C   UNL A   1      44.427  19.563  24.550  1.00  0.00     0.338 C 
ATOM     23  O   UNL A   1      45.186  18.756  24.035  1.00  0.00    -0.246 OA
BRANCH  22  24
ATOM     24  C   UNL A   1      44.815  20.967  24.752  1.00  0.00     0.060 A 
ATOM     25  C   UNL A   1      45.383  21.277  25.979  1.00  0.00     0.016 A 
ATOM     26  C   UNL A   1      44.480  21.989  23.871  1.00  0.00     0.016 A 
ATOM     27  C   UNL A   1      45.541  22.589  26.393  1.00  0.00     0.010 A 
ATOM     28  C   UNL A   1      44.717  23.323  24.248  1.00  0.00     0.010 A 
ATOM     29  C   UNL A   1      45.221  23.635  25.527  1.00  0.00    -0.014 A 
BRANCH  29  30
ATOM     30  C   UNL A   1      45.401  25.033  26.009  1.00  0.00     0.031 A 
ATOM     31  C   UNL A   1      46.741  25.706  25.908  1.00  0.00     0.074 A 
ATOM     32  C   UNL A   1      44.337  25.721  26.468  1.00  0.00     0.049 A 
ATOM     33  N   UNL A   1      47.103  26.898  26.317  1.00  0.00    -0.248 NA
ATOM     34  C   UNL A   1      47.823  24.942  25.267  1.00  0.00     0.031 C 
ATOM     35  C   UNL A   1      42.970  25.200  26.564  1.00  0.00     0.029 A 
ATOM     36  N   UNL A   1      44.228  27.012  26.925  1.00  0.00    -0.354 N 
ATOM     37  C   UNL A   1      48.455  27.009  26.020  1.00  0.00     0.074 A 
ATOM     38  C   UNL A   1      48.857  25.757  25.412  1.00  0.00     0.031 C 
ATOM     39  C   UNL A   1      42.160  26.166  27.018  1.00  0.00     0.029 A 
ATOM     40  C   UNL A   1      42.958  27.347  27.327  1.00  0.00     0.049 A 
ATOM     41  H   UNL A   1      44.988  27.637  26.961  1.00  0.00     0.167 HD
ATOM     42  C   UNL A   1      49.283  28.061  26.233  1.00  0.00     0.037 A 
ATOM     43  C   UNL A   1      42.490  28.463  27.916  1.00  0.00     0.037 A 
ATOM     44  C   UNL A   1      48.868  29.313  26.814  1.00  0.00     0.049 A 
ATOM     45  C   UNL A   1      43.446  29.590  28.195  1.00  0.00     0.074 A 
ATOM     46  C   UNL A   1      49.625  30.447  27.052  1.00  0.00     0.029 A 
ATOM     47  N   UNL A   1      47.581  29.595  27.253  1.00  0.00    -0.354 N 
ATOM     48  N   UNL A   1      44.723  29.683  27.915  1.00  0.00    -0.248 NA
ATOM     49  C   UNL A   1      42.893  30.769  28.875  1.00  0.00     0.031 C 
ATOM     50  C   UNL A   1      48.817  31.389  27.696  1.00  0.00     0.029 A 
ATOM     51  C   UNL A   1      47.534  30.874  27.791  1.00  0.00     0.049 A 
ATOM     52  H   UNL A   1      46.815  28.980  27.193  1.00  0.00     0.167 HD
ATOM     53  C   UNL A   1      45.121  30.936  28.362  1.00  0.00     0.074 A 
ATOM     54  C   UNL A   1      43.942  31.577  28.906  1.00  0.00     0.031 C 
ATOM     55  C   UNL A   1      46.353  31.502  28.329  1.00  0.00     0.037 A 
BRANCH  42  56
ATOM     56  C   UNL A   1      50.734  27.894  25.877  1.00  0.00     0.064 A 
ATOM     57  C   UNL A   1      51.209  28.068  24.569  1.00  0.00     0.173 A 
ATOM     58  C   UNL A   1      51.673  27.593  26.879  1.00  0.00     0.173 A 
ATOM     59  F   UNL A   1      50.356  28.345  23.571  1.00  0.00    -0.203 F 
ATOM     60  C   UNL A   1      52.563  27.921  24.272  1.00  0.00     0.198 A 
ATOM     61  C   UNL A   1      53.029  27.481  26.584  1.00  0.00     0.198 A 
ATOM     62  F   UNL A   1      51.276  27.421  28.149  1.00  0.00    -0.203 F 
ATOM     63  F   UNL A   1      52.986  28.041  23.006  1.00  0.00    -0.200 F 
ATOM     64  C   UNL A   1      53.472  27.637  25.280  1.00  0.00     0.200 A 
ATOM     65  F   UNL A   1      53.906  27.223  27.563  1.00  0.00    -0.200 F 
ATOM     66  F   UNL A   1      54.775  27.506  24.994  1.00  0.00    -0.200 F 
ENDBRANCH  42  56
BRANCH  43  67
ATOM     67  C   UNL A   1      41.061  28.551  28.321  1.00  0.00     0.064 A 
ATOM     68  C   UNL A   1      40.075  28.982  27.423  1.00  0.00     0.173 A 
ATOM     69  C   UNL A   1      40.655  28.228  29.626  1.00  0.00     0.173 A 
ATOM     70  F   UNL A   1      40.412  29.328  26.172  1.00  0.00    -0.203 F 
ATOM     71  C   UNL A   1      38.745  29.110  27.822  1.00  0.00     0.198 A 
ATOM     72  C   UNL A   1      39.320  28.318  30.010  1.00  0.00     0.198 A 
ATOM     73  F   UNL A   1      41.557  27.811  30.527  1.00  0.00    -0.203 F 
ATOM     74  F   UNL A   1      37.834  29.585  26.961  1.00  0.00    -0.200 F 
ATOM     75  C   UNL A   1      38.368  28.771  29.112  1.00  0.00     0.200 A 
ATOM     76  F   UNL A   1      38.958  27.973  31.254  1.00  0.00    -0.200 F 
ATOM     77  F   UNL A   1      37.089  28.894  29.493  1.00  0.00    -0.200 F 
ENDBRANCH  43  67
BRANCH  55  78
ATOM     78  C   UNL A   1      46.475  32.904  28.858  1.00  0.00     0.064 A 
ATOM     79  C   UNL A   1      46.276  34.026  28.040  1.00  0.00     0.173 A 
ATOM     80  C   UNL A   1      46.792  33.126  30.208  1.00  0.00     0.173 A 
ATOM     81  F   UNL A   1      45.986  33.872  26.739  1.00  0.00    -0.203 F 
ATOM     82  C   UNL A   1      46.433  35.316  28.542  1.00  0.00     0.198 A 
ATOM     83  C   UNL A   1      46.907  34.416  30.716  1.00  0.00     0.198 A 
ATOM     84  F   UNL A   1      46.984  32.090  31.038  1.00  0.00    -0.203 F 
ATOM     85  F   UNL A   1      46.310  36.371  27.724  1.00  0.00    -0.200 F 
ATOM     86  C   UNL A   1      46.742  35.510  29.880  1.00  0.00     0.200 A 
ATOM     87  F   UNL A   1      47.186  34.601  32.013  1.00  0.00    -0.200 F 
ATOM     88  F   UNL A   1      46.891  36.751  30.362  1.00  0.00    -0.200 F 
ENDBRANCH  55  78
ENDBRANCH  29  30
ENDBRANCH  22  24
ENDBRANCH  21  22
ENDBRANCH  20  21
ENDBRANCH   1  20
TORSDOF 13
ENDMDL
