MODEL 1
REMARK VINA RESULT:     -12.9      0.000      0.000
REMARK SMILES C[C@@H]1CN(C(=O)Nc2ccc(O)c(C(=O)OCCOC(=O)c3ccc(-c4c5nc(c(-c6c(F)c(F)c(F)c(F)c6F)c6ccc([nH]6)c(-c6c(F)c(F)c(F)c(F)c6F)c6nc(c(-c7c(F)c(F)c(F)c(F)c7F)c7ccc4[nH]7)C=C6)C=C5)cc3)c2)C[C@H]1C
REMARK SMILES IDX 18 1 17 2 16 3 14 4 15 5 13 6 8 7 9 8 85 9 10 10 11 11 7 12
REMARK SMILES IDX 1 13 2 14 3 15 87 16 4 17 86 18 88 19 5 20 6 21 12 23 19 25
REMARK SMILES IDX 20 26 21 27 22 28 23 29 84 30 24 31 83 32 25 33 26 34 27 35
REMARK SMILES IDX 77 36 28 37 82 38 76 39 78 40 29 41 81 42 75 43 74 44 30 46
REMARK SMILES IDX 62 47 42 48 61 49 43 50 46 51 60 52 79 53 44 54 45 55 59 57
REMARK SMILES IDX 80 58 47 59 31 60 32 61 40 62 33 63 34 64 38 65 41 66 35 67
REMARK SMILES IDX 36 68 39 69 37 70 63 71 64 72 72 73 65 74 66 75 70 76 73 77
REMARK SMILES IDX 67 78 68 79 71 80 69 81 48 82 49 83 57 84 50 85 51 86 55 87
REMARK SMILES IDX 58 88 52 89 53 90 56 91 54 92
REMARK H PARENT 7 22 12 24 78 45 46 56
REMARK Flexibility Score: inf
ROOT
ATOM      1  C   UNL A   1      31.403  31.497  26.437  1.00  0.00     0.275 C 
ENDROOT
BRANCH   1   2
ATOM      2  C   UNL A   1      31.068  30.549  25.290  1.00  0.00     0.275 C 
BRANCH   2   3
ATOM      3  O   UNL A   1      32.179  29.665  25.057  1.00  0.00    -0.458 OA
BRANCH   3   4
ATOM      4  C   UNL A   1      32.099  28.861  23.973  1.00  0.00     0.342 C 
ATOM      5  O   UNL A   1      32.886  28.816  23.039  1.00  0.00    -0.246 OA
BRANCH   4   6
ATOM      6  C   UNL A   1      31.008  27.872  24.133  1.00  0.00     0.103 A 
ATOM      7  C   UNL A   1      30.138  26.025  25.438  1.00  0.00     0.044 A 
ATOM      8  C   UNL A   1      29.023  25.953  24.606  1.00  0.00     0.030 A 
ATOM      9  C   UNL A   1      31.108  26.998  25.224  1.00  0.00     0.045 A 
ATOM     10  C   UNL A   1      28.927  26.803  23.501  1.00  0.00     0.049 A 
ATOM     11  C   UNL A   1      29.930  27.743  23.251  1.00  0.00     0.130 A 
BRANCH   7  12
ATOM     12  N   UNL A   1      30.318  25.138  26.496  1.00  0.00    -0.308 N 
ATOM     13  C   UNL A   1      32.903  23.092  22.175  1.00  0.00     0.010 C 
ATOM     14  C   UNL A   1      31.946  22.581  23.240  1.00  0.00     0.010 C 
ATOM     15  C   UNL A   1      31.343  23.723  24.052  1.00  0.00     0.125 C 
ATOM     16  C   UNL A   1      32.599  21.710  24.318  1.00  0.00     0.010 C 
ATOM     17  N   UNL A   1      31.080  23.181  25.378  1.00  0.00    -0.324 N 
ATOM     18  C   UNL A   1      31.612  21.830  25.481  1.00  0.00     0.125 C 
ATOM     19  C   UNL A   1      32.816  20.273  23.876  1.00  0.00     0.010 C 
ATOM     20  C   UNL A   1      30.619  23.810  26.502  1.00  0.00     0.321 C 
ATOM     21  O   UNL A   1      30.570  23.234  27.592  1.00  0.00    -0.248 OA
ATOM     22  H   UNL A   1      30.211  25.538  27.390  1.00  0.00     0.171 HD
ENDBRANCH   7  12
BRANCH  11  23
ATOM     23  O   UNL A   1      29.877  28.489  22.108  1.00  0.00    -0.507 OA
ATOM     24  H   UNL A   1      29.993  28.077  21.274  1.00  0.00     0.293 HD
ENDBRANCH  11  23
ENDBRANCH   4   6
ENDBRANCH   3   4
ENDBRANCH   2   3
ENDBRANCH   1   2
BRANCH   1  25
ATOM     25  O   UNL A   1      32.754  31.257  26.876  1.00  0.00    -0.458 OA
BRANCH  25  26
ATOM     26  C   UNL A   1      33.373  32.297  27.479  1.00  0.00     0.338 C 
ATOM     27  O   UNL A   1      32.967  33.436  27.619  1.00  0.00    -0.246 OA
BRANCH  26  28
ATOM     28  C   UNL A   1      34.672  31.848  28.001  1.00  0.00     0.060 A 
ATOM     29  C   UNL A   1      34.824  30.517  28.382  1.00  0.00     0.016 A 
ATOM     30  C   UNL A   1      35.694  32.765  28.233  1.00  0.00     0.016 A 
ATOM     31  C   UNL A   1      35.958  30.113  29.086  1.00  0.00     0.010 A 
ATOM     32  C   UNL A   1      36.875  32.335  28.848  1.00  0.00     0.010 A 
ATOM     33  C   UNL A   1      37.008  31.014  29.318  1.00  0.00    -0.014 A 
BRANCH  33  34
ATOM     34  C   UNL A   1      38.225  30.595  30.076  1.00  0.00     0.031 A 
ATOM     35  C   UNL A   1      39.221  29.653  29.445  1.00  0.00     0.074 A 
ATOM     36  C   UNL A   1      38.444  31.040  31.329  1.00  0.00     0.049 A 
ATOM     37  N   UNL A   1      40.221  29.009  29.997  1.00  0.00    -0.248 NA
ATOM     38  C   UNL A   1      39.064  29.387  28.006  1.00  0.00     0.031 C 
ATOM     39  C   UNL A   1      37.593  31.979  32.060  1.00  0.00     0.029 A 
ATOM     40  N   UNL A   1      39.456  30.757  32.217  1.00  0.00    -0.354 N 
ATOM     41  C   UNL A   1      40.762  28.214  28.994  1.00  0.00     0.074 A 
ATOM     42  C   UNL A   1      39.990  28.460  27.796  1.00  0.00     0.031 C 
ATOM     43  C   UNL A   1      38.128  32.215  33.267  1.00  0.00     0.029 A 
ATOM     44  C   UNL A   1      39.313  31.381  33.434  1.00  0.00     0.049 A 
ATOM     45  H   UNL A   1      40.212  30.162  32.002  1.00  0.00     0.167 HD
ATOM     46  C   UNL A   1      41.806  27.354  29.070  1.00  0.00     0.037 A 
ATOM     47  C   UNL A   1      40.022  31.263  34.573  1.00  0.00     0.037 A 
ATOM     48  C   UNL A   1      42.629  27.171  30.237  1.00  0.00     0.049 A 
ATOM     49  C   UNL A   1      41.180  30.305  34.626  1.00  0.00     0.074 A 
ATOM     50  C   UNL A   1      43.739  26.357  30.390  1.00  0.00     0.029 A 
ATOM     51  N   UNL A   1      42.448  27.828  31.443  1.00  0.00    -0.354 N 
ATOM     52  N   UNL A   1      41.655  29.529  33.684  1.00  0.00    -0.248 NA
ATOM     53  C   UNL A   1      41.888  30.191  35.910  1.00  0.00     0.031 C 
ATOM     54  C   UNL A   1      44.209  26.495  31.699  1.00  0.00     0.029 A 
ATOM     55  C   UNL A   1      43.416  27.426  32.349  1.00  0.00     0.049 A 
ATOM     56  H   UNL A   1      41.736  28.482  31.629  1.00  0.00     0.167 HD
ATOM     57  C   UNL A   1      42.723  28.848  34.254  1.00  0.00     0.074 A 
ATOM     58  C   UNL A   1      42.841  29.318  35.618  1.00  0.00     0.031 C 
ATOM     59  C   UNL A   1      43.528  27.911  33.699  1.00  0.00     0.037 A 
BRANCH  46  60
ATOM     60  C   UNL A   1      42.117  26.512  27.868  1.00  0.00     0.064 A 
ATOM     61  C   UNL A   1      43.112  26.865  26.947  1.00  0.00     0.173 A 
ATOM     62  C   UNL A   1      41.459  25.285  27.687  1.00  0.00     0.173 A 
ATOM     63  F   UNL A   1      43.763  28.032  27.071  1.00  0.00    -0.203 F 
ATOM     64  C   UNL A   1      43.433  26.024  25.884  1.00  0.00     0.198 A 
ATOM     65  C   UNL A   1      41.798  24.435  26.638  1.00  0.00     0.198 A 
ATOM     66  F   UNL A   1      40.503  24.897  28.545  1.00  0.00    -0.203 F 
ATOM     67  F   UNL A   1      44.372  26.391  25.001  1.00  0.00    -0.200 F 
ATOM     68  C   UNL A   1      42.784  24.807  25.736  1.00  0.00     0.200 A 
ATOM     69  F   UNL A   1      41.179  23.255  26.505  1.00  0.00    -0.200 F 
ATOM     70  F   UNL A   1      43.108  23.991  24.723  1.00  0.00    -0.200 F 
ENDBRANCH  46  60
BRANCH  47  71
ATOM     71  C   UNL A   1      39.625  32.034  35.781  1.00  0.00     0.064 A 
ATOM     72  C   UNL A   1      38.602  31.582  36.626  1.00  0.00     0.173 A 
ATOM     73  C   UNL A   1      40.245  33.253  36.101  1.00  0.00     0.173 A 
ATOM     74  F   UNL A   1      37.958  30.440  36.345  1.00  0.00    -0.203 F 
ATOM     75  C   UNL A   1      38.201  32.328  37.733  1.00  0.00     0.198 A 
ATOM     76  C   UNL A   1      39.865  33.980  37.226  1.00  0.00     0.198 A 
ATOM     77  F   UNL A   1      41.226  33.732  35.324  1.00  0.00    -0.203 F 
ATOM     78  F   UNL A   1      37.183  31.900  38.492  1.00  0.00    -0.200 F 
ATOM     79  C   UNL A   1      38.837  33.522  38.036  1.00  0.00     0.200 A 
ATOM     80  F   UNL A   1      40.491  35.127  37.522  1.00  0.00    -0.200 F 
ATOM     81  F   UNL A   1      38.451  34.238  39.101  1.00  0.00    -0.200 F 
ENDBRANCH  47  71
BRANCH  59  82
ATOM     82  C   UNL A   1      44.626  27.356  34.555  1.00  0.00     0.064 A 
ATOM     83  C   UNL A   1      45.879  27.979  34.634  1.00  0.00     0.173 A 
ATOM     84  C   UNL A   1      44.409  26.208  35.331  1.00  0.00     0.173 A 
ATOM     85  F   UNL A   1      46.138  29.071  33.899  1.00  0.00    -0.203 F 
ATOM     86  C   UNL A   1      46.886  27.458  35.442  1.00  0.00     0.198 A 
ATOM     87  C   UNL A   1      45.410  25.704  36.158  1.00  0.00     0.198 A 
ATOM     88  F   UNL A   1      43.225  25.579  35.294  1.00  0.00    -0.203 F 
ATOM     89  F   UNL A   1      48.090  28.045  35.470  1.00  0.00    -0.200 F 
ATOM     90  C   UNL A   1      46.648  26.325  36.208  1.00  0.00     0.200 A 
ATOM     91  F   UNL A   1      45.176  24.616  36.903  1.00  0.00    -0.200 F 
ATOM     92  F   UNL A   1      47.617  25.827  36.988  1.00  0.00    -0.200 F 
ENDBRANCH  59  82
ENDBRANCH  33  34
ENDBRANCH  26  28
ENDBRANCH  25  26
ENDBRANCH   1  25
TORSDOF 13
ENDMDL
MODEL 2
REMARK VINA RESULT:     -12.7      1.289      2.008
REMARK SMILES C[C@@H]1CN(C(=O)Nc2ccc(O)c(C(=O)OCCOC(=O)c3ccc(-c4c5nc(c(-c6c(F)c(F)c(F)c(F)c6F)c6ccc([nH]6)c(-c6c(F)c(F)c(F)c(F)c6F)c6nc(c(-c7c(F)c(F)c(F)c(F)c7F)c7ccc4[nH]7)C=C6)C=C5)cc3)c2)C[C@H]1C
REMARK SMILES IDX 18 1 17 2 16 3 14 4 15 5 13 6 8 7 9 8 85 9 10 10 11 11 7 12
REMARK SMILES IDX 1 13 2 14 3 15 87 16 4 17 86 18 88 19 5 20 6 21 12 23 19 25
REMARK SMILES IDX 20 26 21 27 22 28 23 29 84 30 24 31 83 32 25 33 26 34 27 35
REMARK SMILES IDX 77 36 28 37 82 38 76 39 78 40 29 41 81 42 75 43 74 44 30 46
REMARK SMILES IDX 62 47 42 48 61 49 43 50 46 51 60 52 79 53 44 54 45 55 59 57
REMARK SMILES IDX 80 58 47 59 31 60 32 61 40 62 33 63 34 64 38 65 41 66 35 67
REMARK SMILES IDX 36 68 39 69 37 70 63 71 64 72 72 73 65 74 66 75 70 76 73 77
REMARK SMILES IDX 67 78 68 79 71 80 69 81 48 82 49 83 57 84 50 85 51 86 55 87
REMARK SMILES IDX 58 88 52 89 53 90 56 91 54 92
REMARK H PARENT 7 22 12 24 78 45 46 56
REMARK Flexibility Score: inf
ROOT
ATOM      1  C   UNL A   1      31.412  30.365  25.445  1.00  0.00     0.275 C 
ENDROOT
BRANCH   1   2
ATOM      2  C   UNL A   1      31.244  29.274  24.392  1.00  0.00     0.275 C 
BRANCH   2   3
ATOM      3  O   UNL A   1      30.727  28.084  25.012  1.00  0.00    -0.458 OA
BRANCH   3   4
ATOM      4  C   UNL A   1      30.348  27.083  24.186  1.00  0.00     0.342 C 
ATOM      5  O   UNL A   1      29.208  26.830  23.822  1.00  0.00    -0.246 OA
BRANCH   4   6
ATOM      6  C   UNL A   1      31.530  26.410  23.600  1.00  0.00     0.103 A 
ATOM      7  C   UNL A   1      33.574  25.184  24.039  1.00  0.00     0.044 A 
ATOM      8  C   UNL A   1      33.808  25.071  22.671  1.00  0.00     0.030 A 
ATOM      9  C   UNL A   1      32.427  25.820  24.501  1.00  0.00     0.045 A 
ATOM     10  C   UNL A   1      32.933  25.678  21.765  1.00  0.00     0.049 A 
ATOM     11  C   UNL A   1      31.810  26.368  22.230  1.00  0.00     0.130 A 
BRANCH   7  12
ATOM     12  N   UNL A   1      34.467  24.674  24.978  1.00  0.00    -0.308 N 
ATOM     13  C   UNL A   1      32.153  20.457  22.448  1.00  0.00     0.010 C 
ATOM     14  C   UNL A   1      32.453  20.862  23.883  1.00  0.00     0.010 C 
ATOM     15  C   UNL A   1      32.891  22.320  23.978  1.00  0.00     0.125 C 
ATOM     16  C   UNL A   1      33.627  20.115  24.523  1.00  0.00     0.010 C 
ATOM     17  N   UNL A   1      33.790  22.398  25.121  1.00  0.00    -0.324 N 
ATOM     18  C   UNL A   1      34.049  21.065  25.646  1.00  0.00     0.125 C 
ATOM     19  C   UNL A   1      33.252  18.733  25.031  1.00  0.00     0.010 C 
ATOM     20  C   UNL A   1      34.518  23.458  25.587  1.00  0.00     0.321 C 
ATOM     21  O   UNL A   1      35.338  23.328  26.500  1.00  0.00    -0.248 OA
ATOM     22  H   UNL A   1      35.181  25.297  25.245  1.00  0.00     0.171 HD
ENDBRANCH   7  12
BRANCH  11  23
ATOM     23  O   UNL A   1      31.028  27.047  21.341  1.00  0.00    -0.507 OA
ATOM     24  H   UNL A   1      30.298  27.549  21.647  1.00  0.00     0.293 HD
ENDBRANCH  11  23
ENDBRANCH   4   6
ENDBRANCH   3   4
ENDBRANCH   2   3
ENDBRANCH   1   2
BRANCH   1  25
ATOM     25  O   UNL A   1      32.706  30.235  26.066  1.00  0.00    -0.458 OA
BRANCH  25  26
ATOM     26  C   UNL A   1      33.050  31.220  26.925  1.00  0.00     0.338 C 
ATOM     27  O   UNL A   1      32.400  32.197  27.251  1.00  0.00    -0.246 OA
BRANCH  26  28
ATOM     28  C   UNL A   1      34.384  30.937  27.474  1.00  0.00     0.060 A 
ATOM     29  C   UNL A   1      34.712  29.626  27.810  1.00  0.00     0.016 A 
ATOM     30  C   UNL A   1      35.260  31.977  27.773  1.00  0.00     0.016 A 
ATOM     31  C   UNL A   1      35.872  29.356  28.535  1.00  0.00     0.010 A 
ATOM     32  C   UNL A   1      36.472  31.691  28.411  1.00  0.00     0.010 A 
ATOM     33  C   UNL A   1      36.778  30.384  28.836  1.00  0.00    -0.014 A 
BRANCH  33  34
ATOM     34  C   UNL A   1      38.020  30.108  29.618  1.00  0.00     0.031 A 
ATOM     35  C   UNL A   1      39.095  29.222  29.040  1.00  0.00     0.074 A 
ATOM     36  C   UNL A   1      38.193  30.636  30.846  1.00  0.00     0.049 A 
ATOM     37  N   UNL A   1      40.141  28.693  29.628  1.00  0.00    -0.248 NA
ATOM     38  C   UNL A   1      38.971  28.867  27.617  1.00  0.00     0.031 C 
ATOM     39  C   UNL A   1      37.261  31.537  31.524  1.00  0.00     0.029 A 
ATOM     40  N   UNL A   1      39.218  30.485  31.751  1.00  0.00    -0.354 N 
ATOM     41  C   UNL A   1      40.754  27.894  28.670  1.00  0.00     0.074 A 
ATOM     42  C   UNL A   1      39.972  28.012  27.458  1.00  0.00     0.031 C 
ATOM     43  C   UNL A   1      37.766  31.881  32.718  1.00  0.00     0.029 A 
ATOM     44  C   UNL A   1      39.015  31.158  32.932  1.00  0.00     0.049 A 
ATOM     45  H   UNL A   1      40.022  29.945  31.569  1.00  0.00     0.167 HD
ATOM     46  C   UNL A   1      41.865  27.130  28.794  1.00  0.00     0.037 A 
ATOM     47  C   UNL A   1      39.724  31.160  34.078  1.00  0.00     0.037 A 
ATOM     48  C   UNL A   1      42.693  27.078  29.971  1.00  0.00     0.049 A 
ATOM     49  C   UNL A   1      40.958  30.306  34.184  1.00  0.00     0.074 A 
ATOM     50  C   UNL A   1      43.865  26.368  30.169  1.00  0.00     0.029 A 
ATOM     51  N   UNL A   1      42.449  27.780  31.140  1.00  0.00    -0.354 N 
ATOM     52  N   UNL A   1      41.502  29.524  33.285  1.00  0.00    -0.248 NA
ATOM     53  C   UNL A   1      41.664  30.320  35.474  1.00  0.00     0.031 C 
ATOM     54  C   UNL A   1      44.313  26.614  31.470  1.00  0.00     0.029 A 
ATOM     55  C   UNL A   1      43.441  27.508  32.068  1.00  0.00     0.049 A 
ATOM     56  H   UNL A   1      41.683  28.381  31.289  1.00  0.00     0.167 HD
ATOM     57  C   UNL A   1      42.619  28.966  33.893  1.00  0.00     0.074 A 
ATOM     58  C   UNL A   1      42.688  29.515  35.231  1.00  0.00     0.031 C 
ATOM     59  C   UNL A   1      43.503  28.071  33.391  1.00  0.00     0.037 A 
BRANCH  46  60
ATOM     60  C   UNL A   1      42.253  26.254  27.639  1.00  0.00     0.064 A 
ATOM     61  C   UNL A   1      43.237  26.631  26.715  1.00  0.00     0.173 A 
ATOM     62  C   UNL A   1      41.684  24.977  27.510  1.00  0.00     0.173 A 
ATOM     63  F   UNL A   1      43.803  27.845  26.790  1.00  0.00    -0.203 F 
ATOM     64  C   UNL A   1      43.632  25.765  25.699  1.00  0.00     0.198 A 
ATOM     65  C   UNL A   1      42.098  24.104  26.508  1.00  0.00     0.198 A 
ATOM     66  F   UNL A   1      40.743  24.565  28.373  1.00  0.00    -0.203 F 
ATOM     67  F   UNL A   1      44.558  26.153  24.811  1.00  0.00    -0.200 F 
ATOM     68  C   UNL A   1      43.071  24.499  25.603  1.00  0.00     0.200 A 
ATOM     69  F   UNL A   1      41.565  22.878  26.425  1.00  0.00    -0.200 F 
ATOM     70  F   UNL A   1      43.468  23.660  24.635  1.00  0.00    -0.200 F 
ENDBRANCH  46  60
BRANCH  47  71
ATOM     71  C   UNL A   1      39.256  31.958  35.242  1.00  0.00     0.064 A 
ATOM     72  C   UNL A   1      38.486  31.375  36.258  1.00  0.00     0.173 A 
ATOM     73  C   UNL A   1      39.549  33.327  35.350  1.00  0.00     0.173 A 
ATOM     74  F   UNL A   1      38.153  30.078  36.184  1.00  0.00    -0.203 F 
ATOM     75  C   UNL A   1      38.010  32.134  37.325  1.00  0.00     0.198 A 
ATOM     76  C   UNL A   1      39.102  34.076  36.435  1.00  0.00     0.198 A 
ATOM     77  F   UNL A   1      40.279  33.934  34.403  1.00  0.00    -0.203 F 
ATOM     78  F   UNL A   1      37.230  31.564  38.254  1.00  0.00    -0.200 F 
ATOM     79  C   UNL A   1      38.324  33.481  37.417  1.00  0.00     0.200 A 
ATOM     80  F   UNL A   1      39.418  35.375  36.525  1.00  0.00    -0.200 F 
ATOM     81  F   UNL A   1      37.868  34.210  38.445  1.00  0.00    -0.200 F 
ENDBRANCH  47  71
BRANCH  59  82
ATOM     82  C   UNL A   1      44.637  27.655  34.278  1.00  0.00     0.064 A 
ATOM     83  C   UNL A   1      44.544  26.527  35.104  1.00  0.00     0.173 A 
ATOM     84  C   UNL A   1      45.841  28.375  34.275  1.00  0.00     0.173 A 
ATOM     85  F   UNL A   1      43.408  25.816  35.152  1.00  0.00    -0.203 F 
ATOM     86  C   UNL A   1      45.610  26.146  35.915  1.00  0.00     0.198 A 
ATOM     87  C   UNL A   1      46.914  27.977  35.069  1.00  0.00     0.198 A 
ATOM     88  F   UNL A   1      45.980  29.458  33.497  1.00  0.00    -0.203 F 
ATOM     89  F   UNL A   1      45.485  25.089  36.729  1.00  0.00    -0.200 F 
ATOM     90  C   UNL A   1      46.795  26.868  35.892  1.00  0.00     0.200 A 
ATOM     91  F   UNL A   1      48.061  28.669  35.038  1.00  0.00    -0.200 F 
ATOM     92  F   UNL A   1      47.821  26.498  36.671  1.00  0.00    -0.200 F 
ENDBRANCH  59  82
ENDBRANCH  33  34
ENDBRANCH  26  28
ENDBRANCH  25  26
ENDBRANCH   1  25
TORSDOF 13
ENDMDL
MODEL 3
REMARK VINA RESULT:     -12.7      4.520      9.956
REMARK SMILES C[C@@H]1CN(C(=O)Nc2ccc(O)c(C(=O)OCCOC(=O)c3ccc(-c4c5nc(c(-c6c(F)c(F)c(F)c(F)c6F)c6ccc([nH]6)c(-c6c(F)c(F)c(F)c(F)c6F)c6nc(c(-c7c(F)c(F)c(F)c(F)c7F)c7ccc4[nH]7)C=C6)C=C5)cc3)c2)C[C@H]1C
REMARK SMILES IDX 18 1 17 2 16 3 14 4 15 5 13 6 8 7 9 8 85 9 10 10 11 11 7 12
REMARK SMILES IDX 1 13 2 14 3 15 87 16 4 17 86 18 88 19 5 20 6 21 12 23 19 25
REMARK SMILES IDX 20 26 21 27 22 28 23 29 84 30 24 31 83 32 25 33 26 34 27 35
REMARK SMILES IDX 77 36 28 37 82 38 76 39 78 40 29 41 81 42 75 43 74 44 30 46
REMARK SMILES IDX 62 47 42 48 61 49 43 50 46 51 60 52 79 53 44 54 45 55 59 57
REMARK SMILES IDX 80 58 47 59 31 60 32 61 40 62 33 63 34 64 38 65 41 66 35 67
REMARK SMILES IDX 36 68 39 69 37 70 63 71 64 72 72 73 65 74 66 75 70 76 73 77
REMARK SMILES IDX 67 78 68 79 71 80 69 81 48 82 49 83 57 84 50 85 51 86 55 87
REMARK SMILES IDX 58 88 52 89 53 90 56 91 54 92
REMARK H PARENT 7 22 12 24 78 45 46 56
REMARK Flexibility Score: inf
ROOT
ATOM      1  C   UNL A   1      37.557  20.191  24.870  1.00  0.00     0.275 C 
ENDROOT
BRANCH   1   2
ATOM      2  C   UNL A   1      36.048  20.253  25.084  1.00  0.00     0.275 C 
BRANCH   2   3
ATOM      3  O   UNL A   1      35.727  21.388  25.908  1.00  0.00    -0.458 OA
BRANCH   3   4
ATOM      4  C   UNL A   1      34.418  21.591  26.178  1.00  0.00     0.342 C 
ATOM      5  O   UNL A   1      33.932  21.865  27.266  1.00  0.00    -0.246 OA
BRANCH   4   6
ATOM      6  C   UNL A   1      33.623  21.625  24.929  1.00  0.00     0.103 A 
ATOM      7  C   UNL A   1      33.225  22.760  22.825  1.00  0.00     0.044 A 
ATOM      8  C   UNL A   1      32.240  21.830  22.501  1.00  0.00     0.030 A 
ATOM      9  C   UNL A   1      33.935  22.641  24.014  1.00  0.00     0.045 A 
ATOM     10  C   UNL A   1      31.904  20.829  23.418  1.00  0.00     0.049 A 
ATOM     11  C   UNL A   1      32.577  20.743  24.640  1.00  0.00     0.130 A 
BRANCH   7  12
ATOM     12  N   UNL A   1      33.528  23.826  21.982  1.00  0.00    -0.308 N 
ATOM     13  C   UNL A   1      29.983  25.618  25.691  1.00  0.00     0.010 C 
ATOM     14  C   UNL A   1      30.145  25.699  24.181  1.00  0.00     0.010 C 
ATOM     15  C   UNL A   1      31.227  24.747  23.678  1.00  0.00     0.125 C 
ATOM     16  C   UNL A   1      30.626  27.059  23.664  1.00  0.00     0.010 C 
ATOM     17  N   UNL A   1      31.788  25.368  22.486  1.00  0.00    -0.324 N 
ATOM     18  C   UNL A   1      31.229  26.699  22.304  1.00  0.00     0.125 C 
ATOM     19  C   UNL A   1      29.514  28.088  23.562  1.00  0.00     0.010 C 
ATOM     20  C   UNL A   1      32.837  24.965  21.705  1.00  0.00     0.321 C 
ATOM     21  O   UNL A   1      33.274  25.674  20.794  1.00  0.00    -0.248 OA
ATOM     22  H   UNL A   1      34.387  23.742  21.506  1.00  0.00     0.171 HD
ENDBRANCH   7  12
BRANCH  11  23
ATOM     23  O   UNL A   1      32.162  19.831  25.568  1.00  0.00    -0.507 OA
ATOM     24  H   UNL A   1      32.699  19.090  25.768  1.00  0.00     0.293 HD
ENDBRANCH  11  23
ENDBRANCH   4   6
ENDBRANCH   3   4
ENDBRANCH   2   3
ENDBRANCH   1   2
BRANCH   1  25
ATOM     25  O   UNL A   1      38.178  21.327  25.504  1.00  0.00    -0.458 OA
BRANCH  25  26
ATOM     26  C   UNL A   1      39.319  21.073  26.183  1.00  0.00     0.338 C 
ATOM     27  O   UNL A   1      39.883  20.005  26.336  1.00  0.00    -0.246 OA
BRANCH  26  28
ATOM     28  C   UNL A   1      39.844  22.333  26.729  1.00  0.00     0.060 A 
ATOM     29  C   UNL A   1      39.354  23.540  26.237  1.00  0.00     0.016 A 
ATOM     30  C   UNL A   1      40.905  22.323  27.631  1.00  0.00     0.016 A 
ATOM     31  C   UNL A   1      39.983  24.740  26.565  1.00  0.00     0.010 A 
ATOM     32  C   UNL A   1      41.470  23.537  28.040  1.00  0.00     0.010 A 
ATOM     33  C   UNL A   1      41.044  24.758  27.483  1.00  0.00    -0.014 A 
BRANCH  33  34
ATOM     34  C   UNL A   1      41.730  26.037  27.838  1.00  0.00     0.031 A 
ATOM     35  C   UNL A   1      41.000  27.091  28.633  1.00  0.00     0.074 A 
ATOM     36  C   UNL A   1      43.000  26.269  27.448  1.00  0.00     0.049 A 
ATOM     37  N   UNL A   1      41.334  28.337  28.864  1.00  0.00    -0.248 NA
ATOM     38  C   UNL A   1      39.715  26.699  29.234  1.00  0.00     0.031 C 
ATOM     39  C   UNL A   1      43.846  25.335  26.706  1.00  0.00     0.029 A 
ATOM     40  N   UNL A   1      43.802  27.373  27.620  1.00  0.00    -0.354 N 
ATOM     41  C   UNL A   1      40.275  28.891  29.572  1.00  0.00     0.074 A 
ATOM     42  C   UNL A   1      39.289  27.846  29.743  1.00  0.00     0.031 C 
ATOM     43  C   UNL A   1      45.052  25.889  26.511  1.00  0.00     0.029 A 
ATOM     44  C   UNL A   1      45.040  27.250  27.036  1.00  0.00     0.049 A 
ATOM     45  H   UNL A   1      43.517  28.176  28.114  1.00  0.00     0.167 HD
ATOM     46  C   UNL A   1      40.138  30.158  30.033  1.00  0.00     0.037 A 
ATOM     47  C   UNL A   1      46.039  28.144  26.892  1.00  0.00     0.037 A 
ATOM     48  C   UNL A   1      41.152  31.174  29.938  1.00  0.00     0.049 A 
ATOM     49  C   UNL A   1      45.861  29.541  27.420  1.00  0.00     0.074 A 
ATOM     50  C   UNL A   1      41.119  32.473  30.420  1.00  0.00     0.029 A 
ATOM     51  N   UNL A   1      42.391  31.002  29.342  1.00  0.00    -0.354 N 
ATOM     52  N   UNL A   1      44.838  30.063  28.050  1.00  0.00    -0.248 NA
ATOM     53  C   UNL A   1      46.970  30.480  27.195  1.00  0.00     0.031 C 
ATOM     54  C   UNL A   1      42.325  33.096  30.086  1.00  0.00     0.029 A 
ATOM     55  C   UNL A   1      43.124  32.174  29.431  1.00  0.00     0.049 A 
ATOM     56  H   UNL A   1      42.703  30.170  28.917  1.00  0.00     0.167 HD
ATOM     57  C   UNL A   1      45.185  31.382  28.310  1.00  0.00     0.074 A 
ATOM     58  C   UNL A   1      46.521  31.576  27.789  1.00  0.00     0.031 C 
ATOM     59  C   UNL A   1      44.457  32.349  28.919  1.00  0.00     0.037 A 
BRANCH  46  60
ATOM     60  C   UNL A   1      38.831  30.543  30.662  1.00  0.00     0.064 A 
ATOM     61  C   UNL A   1      38.639  30.523  32.050  1.00  0.00     0.173 A 
ATOM     62  C   UNL A   1      37.784  31.022  29.859  1.00  0.00     0.173 A 
ATOM     63  F   UNL A   1      39.605  30.065  32.860  1.00  0.00    -0.203 F 
ATOM     64  C   UNL A   1      37.442  30.962  32.611  1.00  0.00     0.198 A 
ATOM     65  C   UNL A   1      36.598  31.482  30.424  1.00  0.00     0.198 A 
ATOM     66  F   UNL A   1      37.921  31.068  28.525  1.00  0.00    -0.203 F 
ATOM     67  F   UNL A   1      37.268  30.913  33.939  1.00  0.00    -0.200 F 
ATOM     68  C   UNL A   1      36.428  31.450  31.800  1.00  0.00     0.200 A 
ATOM     69  F   UNL A   1      35.626  31.966  29.640  1.00  0.00    -0.200 F 
ATOM     70  F   UNL A   1      35.283  31.890  32.345  1.00  0.00    -0.200 F 
ENDBRANCH  46  60
BRANCH  47  71
ATOM     71  C   UNL A   1      47.282  27.763  26.170  1.00  0.00     0.064 A 
ATOM     72  C   UNL A   1      47.339  27.774  24.770  1.00  0.00     0.173 A 
ATOM     73  C   UNL A   1      48.431  27.355  26.866  1.00  0.00     0.173 A 
ATOM     74  F   UNL A   1      46.257  28.125  24.059  1.00  0.00    -0.203 F 
ATOM     75  C   UNL A   1      48.490  27.374  24.093  1.00  0.00     0.198 A 
ATOM     76  C   UNL A   1      49.590  26.987  26.189  1.00  0.00     0.198 A 
ATOM     77  F   UNL A   1      48.428  27.321  28.207  1.00  0.00    -0.203 F 
ATOM     78  F   UNL A   1      48.499  27.342  22.754  1.00  0.00    -0.200 F 
ATOM     79  C   UNL A   1      49.616  26.987  24.804  1.00  0.00     0.200 A 
ATOM     80  F   UNL A   1      50.681  26.626  26.880  1.00  0.00    -0.200 F 
ATOM     81  F   UNL A   1      50.723  26.604  24.152  1.00  0.00    -0.200 F 
ENDBRANCH  47  71
BRANCH  59  82
ATOM     82  C   UNL A   1      45.102  33.692  29.083  1.00  0.00     0.064 A 
ATOM     83  C   UNL A   1      45.900  33.990  30.196  1.00  0.00     0.173 A 
ATOM     84  C   UNL A   1      44.947  34.679  28.098  1.00  0.00     0.173 A 
ATOM     85  F   UNL A   1      46.065  33.084  31.171  1.00  0.00    -0.203 F 
ATOM     86  C   UNL A   1      46.501  35.238  30.330  1.00  0.00     0.198 A 
ATOM     87  C   UNL A   1      45.570  35.917  28.222  1.00  0.00     0.198 A 
ATOM     88  F   UNL A   1      44.198  34.439  27.011  1.00  0.00    -0.203 F 
ATOM     89  F   UNL A   1      47.225  35.517  31.422  1.00  0.00    -0.200 F 
ATOM     90  C   UNL A   1      46.341  36.198  29.340  1.00  0.00     0.200 A 
ATOM     91  F   UNL A   1      45.423  36.839  27.262  1.00  0.00    -0.200 F 
ATOM     92  F   UNL A   1      46.924  37.398  29.469  1.00  0.00    -0.200 F 
ENDBRANCH  59  82
ENDBRANCH  33  34
ENDBRANCH  26  28
ENDBRANCH  25  26
ENDBRANCH   1  25
TORSDOF 13
ENDMDL
