MODEL 1
REMARK VINA RESULT:     -11.7      0.000      0.000
REMARK SMILES C[C@H](NC(=O)c1ccncc1/C=C/C(=O)OCCOC(=O)c1ccc(-c2c3nc(c(-c4c(F)c(F)c(F)c(F)c4F)c4ccc([nH]4)c(-c4c(F)c(F)c(F)c(F)c4F)c4nc(c(-c5c(F)c(F)c(F)c(F)c5F)c5ccc2[nH]5)C=C4)C=C3)cc1)c1ccco1
REMARK SMILES IDX 17 1 16 2 14 3 15 4 13 5 12 6 11 7 6 8 7 9 8 10 10 11 9 12
REMARK SMILES IDX 4 13 3 14 5 16 2 17 1 18 85 19 86 20 89 21 87 22 88 23 18 24
REMARK SMILES IDX 19 25 20 26 21 27 22 28 23 29 84 30 24 31 83 32 25 33 26 34
REMARK SMILES IDX 27 35 77 36 28 37 82 38 76 39 78 40 29 41 81 42 75 43 74 44
REMARK SMILES IDX 30 46 62 47 42 48 61 49 43 50 46 51 60 52 79 53 44 54 45 55
REMARK SMILES IDX 59 57 80 58 47 59 31 60 32 61 40 62 33 63 34 64 38 65 41 66
REMARK SMILES IDX 35 67 36 68 39 69 37 70 63 71 64 72 72 73 65 74 66 75 70 76
REMARK SMILES IDX 73 77 67 78 68 79 71 80 69 81 48 82 49 83 57 84 50 85 51 86
REMARK SMILES IDX 55 87 58 88 52 89 53 90 56 91 54 92
REMARK H PARENT 3 15 78 45 46 56
REMARK Flexibility Score: inf
ROOT
ATOM      1  C   UNL A   1      31.267  28.901  25.257  1.00  0.00     0.275 C 
ENDROOT
BRANCH   1   2
ATOM      2  O   UNL A   1      32.385  28.000  25.168  1.00  0.00    -0.459 OA
BRANCH   2   3
ATOM      3  C   UNL A   1      32.361  26.961  26.031  1.00  0.00     0.330 C 
ATOM      4  O   UNL A   1      31.547  26.783  26.927  1.00  0.00    -0.247 OA
BRANCH   3   5
ATOM      5  C   UNL A   1      33.417  25.966  25.772  1.00  0.00     0.094 C 
ATOM      6  C   UNL A   1      33.690  25.347  24.610  1.00  0.00     0.018 C 
BRANCH   6   7
ATOM      7  C   UNL A   1      34.765  24.340  24.563  1.00  0.00     0.006 A 
ATOM      8  C   UNL A   1      34.820  23.282  23.649  1.00  0.00     0.050 A 
ATOM      9  C   UNL A   1      36.008  22.561  23.488  1.00  0.00     0.034 A 
ATOM     10  C   UNL A   1      37.046  22.797  24.368  1.00  0.00     0.112 A 
ATOM     11  C   UNL A   1      35.859  24.456  25.422  1.00  0.00     0.119 A 
ATOM     12  N   UNL A   1      36.984  23.706  25.357  1.00  0.00    -0.264 NA
BRANCH   8  13
ATOM     13  C   UNL A   1      33.719  23.002  22.715  1.00  0.00     0.252 C 
ATOM     14  N   UNL A   1      32.809  22.005  22.941  1.00  0.00    -0.342 N 
ATOM     15  H   UNL A   1      32.284  21.791  22.135  1.00  0.00     0.164 HD
ATOM     16  O   UNL A   1      33.652  23.647  21.670  1.00  0.00    -0.269 OA
BRANCH  14  17
ATOM     17  C   UNL A   1      32.424  21.178  24.087  1.00  0.00     0.145 C 
ATOM     18  C   UNL A   1      33.312  20.004  24.473  1.00  0.00     0.039 C 
BRANCH  17  19
ATOM     19  C   UNL A   1      32.079  22.041  25.255  1.00  0.00     0.125 A 
ATOM     20  C   UNL A   1      30.987  22.843  25.531  1.00  0.00     0.048 A 
ATOM     21  O   UNL A   1      32.915  22.016  26.334  1.00  0.00    -0.467 OA
ATOM     22  C   UNL A   1      31.151  23.303  26.859  1.00  0.00     0.042 A 
ATOM     23  C   UNL A   1      32.339  22.772  27.304  1.00  0.00     0.195 A 
ENDBRANCH  17  19
ENDBRANCH  14  17
ENDBRANCH   8  13
ENDBRANCH   6   7
ENDBRANCH   3   5
ENDBRANCH   2   3
ENDBRANCH   1   2
BRANCH   1  24
ATOM     24  C   UNL A   1      31.733  30.342  25.488  1.00  0.00     0.275 C 
BRANCH  24  25
ATOM     25  O   UNL A   1      33.091  30.404  25.963  1.00  0.00    -0.458 OA
BRANCH  25  26
ATOM     26  C   UNL A   1      33.306  31.277  26.977  1.00  0.00     0.338 C 
ATOM     27  O   UNL A   1      32.550  32.144  27.378  1.00  0.00    -0.246 OA
BRANCH  26  28
ATOM     28  C   UNL A   1      34.589  30.977  27.638  1.00  0.00     0.060 A 
ATOM     29  C   UNL A   1      34.846  29.648  27.993  1.00  0.00     0.016 A 
ATOM     30  C   UNL A   1      35.487  31.989  27.984  1.00  0.00     0.016 A 
ATOM     31  C   UNL A   1      36.001  29.327  28.705  1.00  0.00     0.010 A 
ATOM     32  C   UNL A   1      36.644  31.666  28.701  1.00  0.00     0.010 A 
ATOM     33  C   UNL A   1      36.901  30.336  29.078  1.00  0.00    -0.014 A 
BRANCH  33  34
ATOM     34  C   UNL A   1      38.088  29.995  29.899  1.00  0.00     0.031 A 
ATOM     35  C   UNL A   1      39.125  29.049  29.366  1.00  0.00     0.074 A 
ATOM     36  C   UNL A   1      38.243  30.551  31.115  1.00  0.00     0.049 A 
ATOM     37  N   UNL A   1      40.208  28.593  29.945  1.00  0.00    -0.248 NA
ATOM     38  C   UNL A   1      38.918  28.551  27.998  1.00  0.00     0.031 C 
ATOM     39  C   UNL A   1      37.319  31.502  31.730  1.00  0.00     0.029 A 
ATOM     40  N   UNL A   1      39.235  30.390  32.051  1.00  0.00    -0.354 N 
ATOM     41  C   UNL A   1      40.811  27.758  29.014  1.00  0.00     0.074 A 
ATOM     42  C   UNL A   1      39.960  27.745  27.844  1.00  0.00     0.031 C 
ATOM     43  C   UNL A   1      37.782  31.834  32.947  1.00  0.00     0.029 A 
ATOM     44  C   UNL A   1      39.016  31.096  33.207  1.00  0.00     0.049 A 
ATOM     45  H   UNL A   1      40.027  29.823  31.906  1.00  0.00     0.167 HD
ATOM     46  C   UNL A   1      41.975  27.075  29.123  1.00  0.00     0.037 A 
ATOM     47  C   UNL A   1      39.719  31.126  34.355  1.00  0.00     0.037 A 
ATOM     48  C   UNL A   1      42.822  27.085  30.289  1.00  0.00     0.049 A 
ATOM     49  C   UNL A   1      40.982  30.314  34.470  1.00  0.00     0.074 A 
ATOM     50  C   UNL A   1      44.015  26.414  30.498  1.00  0.00     0.029 A 
ATOM     51  N   UNL A   1      42.560  27.804  31.446  1.00  0.00    -0.354 N 
ATOM     52  N   UNL A   1      41.546  29.531  33.583  1.00  0.00    -0.248 NA
ATOM     53  C   UNL A   1      41.707  30.392  35.747  1.00  0.00     0.031 C 
ATOM     54  C   UNL A   1      44.459  26.700  31.793  1.00  0.00     0.029 A 
ATOM     55  C   UNL A   1      43.564  27.582  32.377  1.00  0.00     0.049 A 
ATOM     56  H   UNL A   1      41.778  28.384  31.586  1.00  0.00     0.167 HD
ATOM     57  C   UNL A   1      42.698  29.041  34.185  1.00  0.00     0.074 A 
ATOM     58  C   UNL A   1      42.763  29.628  35.506  1.00  0.00     0.031 C 
ATOM     59  C   UNL A   1      43.618  28.180  33.686  1.00  0.00     0.037 A 
BRANCH  46  60
ATOM     60  C   UNL A   1      42.403  26.244  27.950  1.00  0.00     0.064 A 
ATOM     61  C   UNL A   1      41.872  24.965  27.728  1.00  0.00     0.173 A 
ATOM     62  C   UNL A   1      43.316  26.750  27.013  1.00  0.00     0.173 A 
ATOM     63  F   UNL A   1      41.004  24.433  28.601  1.00  0.00    -0.203 F 
ATOM     64  C   UNL A   1      42.254  24.216  26.618  1.00  0.00     0.198 A 
ATOM     65  C   UNL A   1      43.677  26.007  25.892  1.00  0.00     0.198 A 
ATOM     66  F   UNL A   1      43.848  27.969  27.178  1.00  0.00    -0.203 F 
ATOM     67  F   UNL A   1      41.760  22.982  26.443  1.00  0.00    -0.200 F 
ATOM     68  C   UNL A   1      43.150  24.739  25.697  1.00  0.00     0.200 A 
ATOM     69  F   UNL A   1      44.535  26.518  24.998  1.00  0.00    -0.200 F 
ATOM     70  F   UNL A   1      43.509  24.019  24.626  1.00  0.00    -0.200 F 
ENDBRANCH  46  60
BRANCH  47  71
ATOM     71  C   UNL A   1      39.233  31.939  35.499  1.00  0.00     0.064 A 
ATOM     72  C   UNL A   1      39.605  33.283  35.645  1.00  0.00     0.173 A 
ATOM     73  C   UNL A   1      38.400  31.380  36.479  1.00  0.00     0.173 A 
ATOM     74  F   UNL A   1      40.422  33.852  34.748  1.00  0.00    -0.203 F 
ATOM     75  C   UNL A   1      39.176  34.031  36.740  1.00  0.00     0.198 A 
ATOM     76  C   UNL A   1      37.950  32.138  37.559  1.00  0.00     0.198 A 
ATOM     77  F   UNL A   1      38.019  30.098  36.387  1.00  0.00    -0.203 F 
ATOM     78  F   UNL A   1      39.587  35.299  36.883  1.00  0.00    -0.200 F 
ATOM     79  C   UNL A   1      38.345  33.459  37.693  1.00  0.00     0.200 A 
ATOM     80  F   UNL A   1      37.140  31.585  38.471  1.00  0.00    -0.200 F 
ATOM     81  F   UNL A   1      37.934  34.180  38.746  1.00  0.00    -0.200 F 
ENDBRANCH  47  71
BRANCH  59  82
ATOM     82  C   UNL A   1      44.787  27.841  34.563  1.00  0.00     0.064 A 
ATOM     83  C   UNL A   1      44.746  26.761  35.456  1.00  0.00     0.173 A 
ATOM     84  C   UNL A   1      45.975  28.583  34.481  1.00  0.00     0.173 A 
ATOM     85  F   UNL A   1      43.628  26.031  35.582  1.00  0.00    -0.203 F 
ATOM     86  C   UNL A   1      45.845  26.451  36.253  1.00  0.00     0.198 A 
ATOM     87  C   UNL A   1      47.080  28.255  35.261  1.00  0.00     0.198 A 
ATOM     88  F   UNL A   1      46.066  29.622  33.637  1.00  0.00    -0.203 F 
ATOM     89  F   UNL A   1      45.769  25.440  37.131  1.00  0.00    -0.200 F 
ATOM     90  C   UNL A   1      47.012  27.192  36.151  1.00  0.00     0.200 A 
ATOM     91  F   UNL A   1      48.210  28.965  35.153  1.00  0.00    -0.200 F 
ATOM     92  F   UNL A   1      48.070  26.888  36.915  1.00  0.00    -0.200 F 
ENDBRANCH  59  82
ENDBRANCH  33  34
ENDBRANCH  26  28
ENDBRANCH  25  26
ENDBRANCH  24  25
ENDBRANCH   1  24
TORSDOF 15
ENDMDL
MODEL 2
REMARK VINA RESULT:     -11.6      0.985      1.600
REMARK SMILES C[C@H](NC(=O)c1ccncc1/C=C/C(=O)OCCOC(=O)c1ccc(-c2c3nc(c(-c4c(F)c(F)c(F)c(F)c4F)c4ccc([nH]4)c(-c4c(F)c(F)c(F)c(F)c4F)c4nc(c(-c5c(F)c(F)c(F)c(F)c5F)c5ccc2[nH]5)C=C4)C=C3)cc1)c1ccco1
REMARK SMILES IDX 17 1 16 2 14 3 15 4 13 5 12 6 11 7 6 8 7 9 8 10 10 11 9 12
REMARK SMILES IDX 4 13 3 14 5 16 2 17 1 18 85 19 86 20 89 21 87 22 88 23 18 24
REMARK SMILES IDX 19 25 20 26 21 27 22 28 23 29 84 30 24 31 83 32 25 33 26 34
REMARK SMILES IDX 27 35 77 36 28 37 82 38 76 39 78 40 29 41 81 42 75 43 74 44
REMARK SMILES IDX 30 46 62 47 42 48 61 49 43 50 46 51 60 52 79 53 44 54 45 55
REMARK SMILES IDX 59 57 80 58 47 59 31 60 32 61 40 62 33 63 34 64 38 65 41 66
REMARK SMILES IDX 35 67 36 68 39 69 37 70 63 71 64 72 72 73 65 74 66 75 70 76
REMARK SMILES IDX 73 77 67 78 68 79 71 80 69 81 48 82 49 83 57 84 50 85 51 86
REMARK SMILES IDX 55 87 58 88 52 89 53 90 56 91 54 92
REMARK H PARENT 3 15 78 45 46 56
REMARK Flexibility Score: inf
ROOT
ATOM      1  C   UNL A   1      31.395  28.727  25.429  1.00  0.00     0.275 C 
ENDROOT
BRANCH   1   2
ATOM      2  O   UNL A   1      32.504  27.847  25.687  1.00  0.00    -0.459 OA
BRANCH   2   3
ATOM      3  C   UNL A   1      32.178  26.638  26.193  1.00  0.00     0.330 C 
ATOM      4  O   UNL A   1      31.087  26.311  26.642  1.00  0.00    -0.247 OA
BRANCH   3   5
ATOM      5  C   UNL A   1      33.279  25.661  26.119  1.00  0.00     0.094 C 
ATOM      6  C   UNL A   1      33.355  24.574  25.332  1.00  0.00     0.018 C 
BRANCH   6   7
ATOM      7  C   UNL A   1      34.527  23.686  25.439  1.00  0.00     0.006 A 
ATOM      8  C   UNL A   1      34.514  22.427  26.049  1.00  0.00     0.050 A 
ATOM      9  C   UNL A   1      35.579  21.543  25.844  1.00  0.00     0.034 A 
ATOM     10  C   UNL A   1      36.703  22.005  25.190  1.00  0.00     0.112 A 
ATOM     11  C   UNL A   1      35.731  24.056  24.837  1.00  0.00     0.119 A 
ATOM     12  N   UNL A   1      36.817  23.257  24.712  1.00  0.00    -0.264 NA
BRANCH   8  13
ATOM     13  C   UNL A   1      33.334  21.921  26.766  1.00  0.00     0.252 C 
ATOM     14  N   UNL A   1      32.323  21.254  26.126  1.00  0.00    -0.342 N 
ATOM     15  H   UNL A   1      31.514  21.184  26.681  1.00  0.00     0.164 HD
ATOM     16  O   UNL A   1      33.226  22.157  27.968  1.00  0.00    -0.269 OA
BRANCH  14  17
ATOM     17  C   UNL A   1      32.152  20.620  24.817  1.00  0.00     0.145 C 
ATOM     18  C   UNL A   1      32.549  21.398  23.570  1.00  0.00     0.039 C 
BRANCH  17  19
ATOM     19  C   UNL A   1      32.718  19.238  24.832  1.00  0.00     0.125 A 
ATOM     20  C   UNL A   1      33.806  18.671  24.199  1.00  0.00     0.048 A 
ATOM     21  O   UNL A   1      32.154  18.329  25.681  1.00  0.00    -0.467 OA
ATOM     22  C   UNL A   1      33.931  17.358  24.713  1.00  0.00     0.042 A 
ATOM     23  C   UNL A   1      32.903  17.199  25.611  1.00  0.00     0.195 A 
ENDBRANCH  17  19
ENDBRANCH  14  17
ENDBRANCH   8  13
ENDBRANCH   6   7
ENDBRANCH   3   5
ENDBRANCH   2   3
ENDBRANCH   1   2
BRANCH   1  24
ATOM     24  C   UNL A   1      31.694  30.151  25.904  1.00  0.00     0.275 C 
BRANCH  24  25
ATOM     25  O   UNL A   1      33.106  30.379  26.083  1.00  0.00    -0.458 OA
BRANCH  25  26
ATOM     26  C   UNL A   1      33.423  31.360  26.961  1.00  0.00     0.338 C 
ATOM     27  O   UNL A   1      32.753  32.337  27.252  1.00  0.00    -0.246 OA
BRANCH  26  28
ATOM     28  C   UNL A   1      34.695  31.044  27.635  1.00  0.00     0.060 A 
ATOM     29  C   UNL A   1      34.929  29.713  27.997  1.00  0.00     0.016 A 
ATOM     30  C   UNL A   1      35.606  32.044  27.983  1.00  0.00     0.016 A 
ATOM     31  C   UNL A   1      36.073  29.378  28.720  1.00  0.00     0.010 A 
ATOM     32  C   UNL A   1      36.752  31.706  28.710  1.00  0.00     0.010 A 
ATOM     33  C   UNL A   1      36.986  30.374  29.095  1.00  0.00    -0.014 A 
BRANCH  33  34
ATOM     34  C   UNL A   1      38.160  30.019  29.928  1.00  0.00     0.031 A 
ATOM     35  C   UNL A   1      39.198  29.071  29.400  1.00  0.00     0.074 A 
ATOM     36  C   UNL A   1      38.305  30.564  31.150  1.00  0.00     0.049 A 
ATOM     37  N   UNL A   1      40.271  28.603  29.987  1.00  0.00    -0.248 NA
ATOM     38  C   UNL A   1      39.004  28.586  28.025  1.00  0.00     0.031 C 
ATOM     39  C   UNL A   1      37.379  31.515  31.763  1.00  0.00     0.029 A 
ATOM     40  N   UNL A   1      39.284  30.389  32.097  1.00  0.00    -0.354 N 
ATOM     41  C   UNL A   1      40.880  27.772  29.057  1.00  0.00     0.074 A 
ATOM     42  C   UNL A   1      40.042  27.774  27.876  1.00  0.00     0.031 C 
ATOM     43  C   UNL A   1      37.829  31.835  32.987  1.00  0.00     0.029 A 
ATOM     44  C   UNL A   1      39.056  31.087  33.256  1.00  0.00     0.049 A 
ATOM     45  H   UNL A   1      40.074  29.818  31.957  1.00  0.00     0.167 HD
ATOM     46  C   UNL A   1      42.039  27.081  29.174  1.00  0.00     0.037 A 
ATOM     47  C   UNL A   1      39.745  31.103  34.412  1.00  0.00     0.037 A 
ATOM     48  C   UNL A   1      42.871  27.076  30.350  1.00  0.00     0.049 A 
ATOM     49  C   UNL A   1      41.002  30.282  34.536  1.00  0.00     0.074 A 
ATOM     50  C   UNL A   1      44.057  26.396  30.568  1.00  0.00     0.029 A 
ATOM     51  N   UNL A   1      42.600  27.787  31.510  1.00  0.00    -0.354 N 
ATOM     52  N   UNL A   1      41.571  29.503  33.649  1.00  0.00    -0.248 NA
ATOM     53  C   UNL A   1      41.712  30.345  35.822  1.00  0.00     0.031 C 
ATOM     54  C   UNL A   1      44.488  26.669  31.870  1.00  0.00     0.029 A 
ATOM     55  C   UNL A   1      43.592  27.551  32.451  1.00  0.00     0.049 A 
ATOM     56  H   UNL A   1      41.820  28.371  31.645  1.00  0.00     0.167 HD
ATOM     57  C   UNL A   1      42.713  29.001  34.260  1.00  0.00     0.074 A 
ATOM     58  C   UNL A   1      42.766  29.576  35.587  1.00  0.00     0.031 C 
ATOM     59  C   UNL A   1      43.633  28.137  33.765  1.00  0.00     0.037 A 
BRANCH  46  60
ATOM     60  C   UNL A   1      42.475  26.257  28.000  1.00  0.00     0.064 A 
ATOM     61  C   UNL A   1      41.986  24.959  27.795  1.00  0.00     0.173 A 
ATOM     62  C   UNL A   1      43.353  26.787  27.043  1.00  0.00     0.173 A 
ATOM     63  F   UNL A   1      41.152  24.403  28.687  1.00  0.00    -0.203 F 
ATOM     64  C   UNL A   1      42.374  24.215  26.684  1.00  0.00     0.198 A 
ATOM     65  C   UNL A   1      43.721  26.050  25.921  1.00  0.00     0.198 A 
ATOM     66  F   UNL A   1      43.845  28.026  27.190  1.00  0.00    -0.203 F 
ATOM     67  F   UNL A   1      41.922  22.963  26.526  1.00  0.00    -0.200 F 
ATOM     68  C   UNL A   1      43.235  24.763  25.744  1.00  0.00     0.200 A 
ATOM     69  F   UNL A   1      44.544  26.584  25.008  1.00  0.00    -0.200 F 
ATOM     70  F   UNL A   1      43.601  24.048  24.672  1.00  0.00    -0.200 F 
ENDBRANCH  46  60
BRANCH  47  71
ATOM     71  C   UNL A   1      39.250  31.910  35.557  1.00  0.00     0.064 A 
ATOM     72  C   UNL A   1      39.649  33.242  35.733  1.00  0.00     0.173 A 
ATOM     73  C   UNL A   1      38.383  31.355  36.509  1.00  0.00     0.173 A 
ATOM     74  F   UNL A   1      40.500  33.806  34.864  1.00  0.00    -0.203 F 
ATOM     75  C   UNL A   1      39.211  33.984  36.829  1.00  0.00     0.198 A 
ATOM     76  C   UNL A   1      37.924  32.107  37.590  1.00  0.00     0.198 A 
ATOM     77  F   UNL A   1      37.975  30.083  36.388  1.00  0.00    -0.203 F 
ATOM     78  F   UNL A   1      39.647  35.239  37.001  1.00  0.00    -0.200 F 
ATOM     79  C   UNL A   1      38.346  33.417  37.753  1.00  0.00     0.200 A 
ATOM     80  F   UNL A   1      37.081  31.558  38.474  1.00  0.00    -0.200 F 
ATOM     81  F   UNL A   1      37.927  34.131  38.807  1.00  0.00    -0.200 F 
ENDBRANCH  47  71
BRANCH  59  82
ATOM     82  C   UNL A   1      44.790  27.784  34.653  1.00  0.00     0.064 A 
ATOM     83  C   UNL A   1      44.752  26.666  35.498  1.00  0.00     0.173 A 
ATOM     84  C   UNL A   1      45.964  28.553  34.631  1.00  0.00     0.173 A 
ATOM     85  F   UNL A   1      43.647  25.908  35.565  1.00  0.00    -0.203 F 
ATOM     86  C   UNL A   1      45.839  26.343  36.305  1.00  0.00     0.198 A 
ATOM     87  C   UNL A   1      47.058  28.213  35.421  1.00  0.00     0.198 A 
ATOM     88  F   UNL A   1      46.051  29.630  33.835  1.00  0.00    -0.203 F 
ATOM     89  F   UNL A   1      45.766  25.293  37.136  1.00  0.00    -0.200 F 
ATOM     90  C   UNL A   1      46.992  27.111  36.262  1.00  0.00     0.200 A 
ATOM     91  F   UNL A   1      48.175  28.950  35.370  1.00  0.00    -0.200 F 
ATOM     92  F   UNL A   1      48.040  26.795  37.036  1.00  0.00    -0.200 F 
ENDBRANCH  59  82
ENDBRANCH  33  34
ENDBRANCH  26  28
ENDBRANCH  25  26
ENDBRANCH  24  25
ENDBRANCH   1  24
TORSDOF 15
ENDMDL
MODEL 3
REMARK VINA RESULT:     -11.6      2.092      3.861
REMARK SMILES C[C@H](NC(=O)c1ccncc1/C=C/C(=O)OCCOC(=O)c1ccc(-c2c3nc(c(-c4c(F)c(F)c(F)c(F)c4F)c4ccc([nH]4)c(-c4c(F)c(F)c(F)c(F)c4F)c4nc(c(-c5c(F)c(F)c(F)c(F)c5F)c5ccc2[nH]5)C=C4)C=C3)cc1)c1ccco1
REMARK SMILES IDX 17 1 16 2 14 3 15 4 13 5 12 6 11 7 6 8 7 9 8 10 10 11 9 12
REMARK SMILES IDX 4 13 3 14 5 16 2 17 1 18 85 19 86 20 89 21 87 22 88 23 18 24
REMARK SMILES IDX 19 25 20 26 21 27 22 28 23 29 84 30 24 31 83 32 25 33 26 34
REMARK SMILES IDX 27 35 77 36 28 37 82 38 76 39 78 40 29 41 81 42 75 43 74 44
REMARK SMILES IDX 30 46 62 47 42 48 61 49 43 50 46 51 60 52 79 53 44 54 45 55
REMARK SMILES IDX 59 57 80 58 47 59 31 60 32 61 40 62 33 63 34 64 38 65 41 66
REMARK SMILES IDX 35 67 36 68 39 69 37 70 63 71 64 72 72 73 65 74 66 75 70 76
REMARK SMILES IDX 73 77 67 78 68 79 71 80 69 81 48 82 49 83 57 84 50 85 51 86
REMARK SMILES IDX 55 87 58 88 52 89 53 90 56 91 54 92
REMARK H PARENT 3 15 78 45 46 56
REMARK Flexibility Score: inf
ROOT
ATOM      1  C   UNL A   1      31.946  31.303  26.499  1.00  0.00     0.275 C 
ENDROOT
BRANCH   1   2
ATOM      2  O   UNL A   1      32.509  30.380  27.449  1.00  0.00    -0.459 OA
BRANCH   2   3
ATOM      3  C   UNL A   1      33.725  29.887  27.126  1.00  0.00     0.330 C 
ATOM      4  O   UNL A   1      34.804  30.422  27.342  1.00  0.00    -0.247 OA
BRANCH   3   5
ATOM      5  C   UNL A   1      33.663  28.554  26.501  1.00  0.00     0.094 C 
ATOM      6  C   UNL A   1      33.950  28.234  25.227  1.00  0.00     0.018 C 
BRANCH   6   7
ATOM      7  C   UNL A   1      33.780  26.841  24.776  1.00  0.00     0.006 A 
ATOM      8  C   UNL A   1      33.452  26.467  23.468  1.00  0.00     0.050 A 
ATOM      9  C   UNL A   1      33.601  25.135  23.067  1.00  0.00     0.034 A 
ATOM     10  C   UNL A   1      33.897  24.187  24.027  1.00  0.00     0.112 A 
ATOM     11  C   UNL A   1      34.028  25.793  25.663  1.00  0.00     0.119 A 
ATOM     12  N   UNL A   1      34.079  24.483  25.326  1.00  0.00    -0.264 NA
BRANCH   8  13
ATOM     13  C   UNL A   1      33.116  27.458  22.436  1.00  0.00     0.252 C 
ATOM     14  N   UNL A   1      31.821  27.783  22.132  1.00  0.00    -0.342 N 
ATOM     15  H   UNL A   1      31.751  28.275  21.282  1.00  0.00     0.164 HD
ATOM     16  O   UNL A   1      34.028  27.967  21.785  1.00  0.00    -0.269 OA
BRANCH  14  17
ATOM     17  C   UNL A   1      30.515  27.577  22.761  1.00  0.00     0.145 C 
ATOM     18  C   UNL A   1      30.463  27.242  24.246  1.00  0.00     0.039 C 
BRANCH  17  19
ATOM     19  C   UNL A   1      29.582  28.683  22.392  1.00  0.00     0.125 A 
ATOM     20  C   UNL A   1      28.276  28.958  22.750  1.00  0.00     0.048 A 
ATOM     21  O   UNL A   1      30.073  29.700  21.626  1.00  0.00    -0.467 OA
ATOM     22  C   UNL A   1      27.966  30.224  22.200  1.00  0.00     0.042 A 
ATOM     23  C   UNL A   1      29.092  30.634  21.525  1.00  0.00     0.195 A 
ENDBRANCH  17  19
ENDBRANCH  14  17
ENDBRANCH   8  13
ENDBRANCH   6   7
ENDBRANCH   3   5
ENDBRANCH   2   3
ENDBRANCH   1   2
BRANCH   1  24
ATOM     24  C   UNL A   1      31.767  32.693  27.117  1.00  0.00     0.275 C 
BRANCH  24  25
ATOM     25  O   UNL A   1      32.987  33.459  27.095  1.00  0.00    -0.458 OA
BRANCH  25  26
ATOM     26  C   UNL A   1      33.181  34.261  28.170  1.00  0.00     0.338 C 
ATOM     27  O   UNL A   1      32.528  35.240  28.489  1.00  0.00    -0.246 OA
BRANCH  26  28
ATOM     28  C   UNL A   1      34.269  33.727  29.009  1.00  0.00     0.060 A 
ATOM     29  C   UNL A   1      35.564  34.200  28.777  1.00  0.00     0.016 A 
ATOM     30  C   UNL A   1      34.040  32.719  29.947  1.00  0.00     0.016 A 
ATOM     31  C   UNL A   1      36.641  33.658  29.478  1.00  0.00     0.010 A 
ATOM     32  C   UNL A   1      35.121  32.174  30.648  1.00  0.00     0.010 A 
ATOM     33  C   UNL A   1      36.429  32.630  30.408  1.00  0.00    -0.014 A 
BRANCH  33  34
ATOM     34  C   UNL A   1      37.588  32.008  31.093  1.00  0.00     0.031 A 
ATOM     35  C   UNL A   1      38.400  30.956  30.393  1.00  0.00     0.074 A 
ATOM     36  C   UNL A   1      37.922  32.401  32.335  1.00  0.00     0.049 A 
ATOM     37  N   UNL A   1      39.419  30.263  30.835  1.00  0.00    -0.248 NA
ATOM     38  C   UNL A   1      38.014  30.644  29.008  1.00  0.00     0.031 C 
ATOM     39  C   UNL A   1      37.228  33.429  33.109  1.00  0.00     0.029 A 
ATOM     40  N   UNL A   1      38.930  31.976  33.167  1.00  0.00    -0.354 N 
ATOM     41  C   UNL A   1      39.798  29.436  29.786  1.00  0.00     0.074 A 
ATOM     42  C   UNL A   1      38.881  29.689  28.695  1.00  0.00     0.031 C 
ATOM     43  C   UNL A   1      37.824  33.550  34.307  1.00  0.00     0.029 A 
ATOM     44  C   UNL A   1      38.920  32.588  34.395  1.00  0.00     0.049 A 
ATOM     45  H   UNL A   1      39.595  31.299  32.906  1.00  0.00     0.167 HD
ATOM     46  C   UNL A   1      40.825  28.554  29.736  1.00  0.00     0.037 A 
ATOM     47  C   UNL A   1      39.693  32.379  35.478  1.00  0.00     0.037 A 
ATOM     48  C   UNL A   1      41.736  28.299  30.822  1.00  0.00     0.049 A 
ATOM     49  C   UNL A   1      40.794  31.353  35.413  1.00  0.00     0.074 A 
ATOM     50  C   UNL A   1      42.800  27.414  30.869  1.00  0.00     0.029 A 
ATOM     51  N   UNL A   1      41.687  28.930  32.056  1.00  0.00    -0.354 N 
ATOM     52  N   UNL A   1      41.147  30.579  34.416  1.00  0.00    -0.248 NA
ATOM     53  C   UNL A   1      41.606  31.174  36.626  1.00  0.00     0.031 C 
ATOM     54  C   UNL A   1      43.375  27.486  32.143  1.00  0.00     0.029 A 
ATOM     55  C   UNL A   1      42.695  28.444  32.875  1.00  0.00     0.049 A 
ATOM     56  H   UNL A   1      41.033  29.620  32.312  1.00  0.00     0.167 HD
ATOM     57  C   UNL A   1      42.229  29.839  34.872  1.00  0.00     0.074 A 
ATOM     58  C   UNL A   1      42.488  30.268  36.230  1.00  0.00     0.031 C 
ATOM     59  C   UNL A   1      42.943  28.887  34.223  1.00  0.00     0.037 A 
BRANCH  46  60
ATOM     60  C   UNL A   1      41.016  27.786  28.462  1.00  0.00     0.064 A 
ATOM     61  C   UNL A   1      41.878  28.245  27.455  1.00  0.00     0.173 A 
ATOM     62  C   UNL A   1      40.370  26.558  28.266  1.00  0.00     0.173 A 
ATOM     63  F   UNL A   1      42.512  29.419  27.591  1.00  0.00    -0.203 F 
ATOM     64  C   UNL A   1      42.072  27.507  26.289  1.00  0.00     0.198 A 
ATOM     65  C   UNL A   1      40.583  25.812  27.109  1.00  0.00     0.198 A 
ATOM     66  F   UNL A   1      39.539  26.073  29.201  1.00  0.00    -0.203 F 
ATOM     67  F   UNL A   1      42.873  27.980  25.325  1.00  0.00    -0.200 F 
ATOM     68  C   UNL A   1      41.431  26.289  26.120  1.00  0.00     0.200 A 
ATOM     69  F   UNL A   1      39.972  24.630  26.952  1.00  0.00    -0.200 F 
ATOM     70  F   UNL A   1      41.625  25.578  25.001  1.00  0.00    -0.200 F 
ENDBRANCH  46  60
BRANCH  47  71
ATOM     71  C   UNL A   1      39.440  33.142  36.726  1.00  0.00     0.064 A 
ATOM     72  C   UNL A   1      38.499  32.703  37.668  1.00  0.00     0.173 A 
ATOM     73  C   UNL A   1      40.121  34.339  36.992  1.00  0.00     0.173 A 
ATOM     74  F   UNL A   1      37.802  31.579  37.443  1.00  0.00    -0.203 F 
ATOM     75  C   UNL A   1      38.237  33.441  38.820  1.00  0.00     0.198 A 
ATOM     76  C   UNL A   1      39.879  35.062  38.158  1.00  0.00     0.198 A 
ATOM     77  F   UNL A   1      41.029  34.804  36.120  1.00  0.00    -0.203 F 
ATOM     78  F   UNL A   1      37.298  33.025  39.680  1.00  0.00    -0.200 F 
ATOM     79  C   UNL A   1      38.931  34.617  39.067  1.00  0.00     0.200 A 
ATOM     80  F   UNL A   1      40.558  36.192  38.397  1.00  0.00    -0.200 F 
ATOM     81  F   UNL A   1      38.678  35.327  40.175  1.00  0.00    -0.200 F 
ENDBRANCH  47  71
BRANCH  59  82
ATOM     82  C   UNL A   1      44.089  28.263  34.964  1.00  0.00     0.064 A 
ATOM     83  C   UNL A   1      45.368  28.836  34.956  1.00  0.00     0.173 A 
ATOM     84  C   UNL A   1      43.894  27.098  35.722  1.00  0.00     0.173 A 
ATOM     85  F   UNL A   1      45.608  29.942  34.234  1.00  0.00    -0.203 F 
ATOM     86  C   UNL A   1      46.418  28.253  35.661  1.00  0.00     0.198 A 
ATOM     87  C   UNL A   1      44.940  26.531  36.446  1.00  0.00     0.198 A 
ATOM     88  F   UNL A   1      42.687  26.514  35.767  1.00  0.00    -0.203 F 
ATOM     89  F   UNL A   1      47.643  28.795  35.605  1.00  0.00    -0.200 F 
ATOM     90  C   UNL A   1      46.202  27.106  36.410  1.00  0.00     0.200 A 
ATOM     91  F   UNL A   1      44.727  25.430  37.178  1.00  0.00    -0.200 F 
ATOM     92  F   UNL A   1      47.212  26.550  37.092  1.00  0.00    -0.200 F 
ENDBRANCH  59  82
ENDBRANCH  33  34
ENDBRANCH  26  28
ENDBRANCH  25  26
ENDBRANCH  24  25
ENDBRANCH   1  24
TORSDOF 15
ENDMDL
