MODEL 1
REMARK VINA RESULT:     -11.9      0.000      0.000
REMARK SMILES CCOc1ccccc1Nc1ccc(C(=O)OCCOC(=O)c2ccc(-c3c4nc(c(-c5c(F)c(F)c(F)c(F)c5F)c5ccc([nH]5)c(-c5c(F)c(F)c(F)c(F)c5F)c5nc(c(-c6c(F)c(F)c(F)c(F)c6F)c6ccc3[nH]6)C=C5)C=C4)cc2)cc1N
REMARK SMILES IDX 18 1 17 2 15 3 16 4 14 5 11 6 12 7 87 8 13 9 86 10 10 11
REMARK SMILES IDX 9 13 4 14 5 15 6 16 8 17 7 18 3 19 2 20 1 21 88 22 19 25
REMARK SMILES IDX 20 26 21 27 22 28 23 29 24 30 85 31 25 32 84 33 26 34 27 35
REMARK SMILES IDX 28 36 78 37 29 38 83 39 77 40 79 41 30 42 82 43 76 44 75 45
REMARK SMILES IDX 31 47 63 48 43 49 62 50 44 51 47 52 61 53 80 54 45 55 46 56
REMARK SMILES IDX 60 58 81 59 48 60 32 61 33 62 41 63 34 64 35 65 39 66 42 67
REMARK SMILES IDX 36 68 37 69 40 70 38 71 64 72 65 73 73 74 66 75 67 76 71 77
REMARK SMILES IDX 74 78 68 79 69 80 72 81 70 82 49 83 50 84 58 85 51 86 52 87
REMARK SMILES IDX 56 88 59 89 53 90 54 91 57 92 55 93
REMARK H PARENT 10 12 88 23 88 24 79 46 47 57
REMARK Flexibility Score: inf
ROOT
ATOM      1  C   UNL A   1      35.060  20.888  24.656  1.00  0.00     0.275 C 
ENDROOT
BRANCH   1   2
ATOM      2  O   UNL A   1      34.141  20.645  25.741  1.00  0.00    -0.458 OA
BRANCH   2   3
ATOM      3  C   UNL A   1      32.831  20.709  25.401  1.00  0.00     0.338 C 
ATOM      4  O   UNL A   1      32.100  19.767  25.130  1.00  0.00    -0.246 OA
BRANCH   3   5
ATOM      5  C   UNL A   1      32.326  22.096  25.474  1.00  0.00     0.062 A 
ATOM      6  C   UNL A   1      31.239  24.662  25.806  1.00  0.00     0.062 A 
ATOM      7  C   UNL A   1      32.026  24.084  26.810  1.00  0.00     0.029 A 
ATOM      8  C   UNL A   1      31.045  23.960  24.591  1.00  0.00     0.056 A 
ATOM      9  C   UNL A   1      32.546  22.807  26.656  1.00  0.00     0.018 A 
ATOM     10  C   UNL A   1      31.587  22.675  24.440  1.00  0.00     0.043 A 
BRANCH   6  11
ATOM     11  N   UNL A   1      30.639  25.894  26.115  1.00  0.00    -0.351 N 
ATOM     12  H   UNL A   1      29.689  25.817  26.360  1.00  0.00     0.167 HD
BRANCH  11  13
ATOM     13  C   UNL A   1      31.119  27.215  26.147  1.00  0.00     0.081 A 
ATOM     14  C   UNL A   1      31.008  27.996  24.982  1.00  0.00     0.142 A 
ATOM     15  C   UNL A   1      31.458  29.315  24.942  1.00  0.00     0.048 A 
ATOM     16  C   UNL A   1      32.006  29.884  26.091  1.00  0.00     0.004 A 
ATOM     17  C   UNL A   1      31.671  27.805  27.286  1.00  0.00     0.030 A 
ATOM     18  C   UNL A   1      32.114  29.130  27.260  1.00  0.00     0.002 A 
BRANCH  14  19
ATOM     19  O   UNL A   1      30.547  27.416  23.824  1.00  0.00    -0.492 OA
BRANCH  19  20
ATOM     20  C   UNL A   1      29.904  28.368  22.966  1.00  0.00     0.226 C 
ATOM     21  C   UNL A   1      28.396  28.248  23.126  1.00  0.00     0.049 C 
ENDBRANCH  19  20
ENDBRANCH  14  19
ENDBRANCH  11  13
ENDBRANCH   6  11
BRANCH   8  22
ATOM     22  N   UNL A   1      30.281  24.491  23.557  1.00  0.00    -0.397 N 
ATOM     23  H   UNL A   1      30.678  25.145  22.936  1.00  0.00     0.156 HD
ATOM     24  H   UNL A   1      29.342  24.214  23.446  1.00  0.00     0.156 HD
ENDBRANCH   8  22
ENDBRANCH   3   5
ENDBRANCH   2   3
ENDBRANCH   1   2
BRANCH   1  25
ATOM     25  C   UNL A   1      36.464  20.396  25.005  1.00  0.00     0.275 C 
BRANCH  25  26
ATOM     26  O   UNL A   1      37.346  21.516  25.207  1.00  0.00    -0.458 OA
BRANCH  26  27
ATOM     27  C   UNL A   1      38.548  21.228  25.752  1.00  0.00     0.338 C 
ATOM     28  O   UNL A   1      39.116  20.145  25.751  1.00  0.00    -0.246 OA
BRANCH  27  29
ATOM     29  C   UNL A   1      39.133  22.427  26.388  1.00  0.00     0.060 A 
ATOM     30  C   UNL A   1      38.598  23.692  26.157  1.00  0.00     0.016 A 
ATOM     31  C   UNL A   1      40.312  22.304  27.123  1.00  0.00     0.016 A 
ATOM     32  C   UNL A   1      39.291  24.838  26.558  1.00  0.00     0.010 A 
ATOM     33  C   UNL A   1      40.951  23.450  27.615  1.00  0.00     0.010 A 
ATOM     34  C   UNL A   1      40.480  24.737  27.297  1.00  0.00    -0.014 A 
BRANCH  34  35
ATOM     35  C   UNL A   1      41.276  25.948  27.672  1.00  0.00     0.031 A 
ATOM     36  C   UNL A   1      40.663  27.006  28.560  1.00  0.00     0.074 A 
ATOM     37  C   UNL A   1      42.546  26.122  27.251  1.00  0.00     0.049 A 
ATOM     38  N   UNL A   1      41.068  28.230  28.801  1.00  0.00    -0.248 NA
ATOM     39  C   UNL A   1      39.420  26.643  29.259  1.00  0.00     0.031 C 
ATOM     40  C   UNL A   1      43.314  25.178  26.440  1.00  0.00     0.029 A 
ATOM     41  N   UNL A   1      43.422  27.163  27.461  1.00  0.00    -0.354 N 
ATOM     42  C   UNL A   1      40.090  28.804  29.605  1.00  0.00     0.074 A 
ATOM     43  C   UNL A   1      39.080  27.792  29.827  1.00  0.00     0.031 C 
ATOM     44  C   UNL A   1      44.558  25.652  26.271  1.00  0.00     0.029 A 
ATOM     45  C   UNL A   1      44.651  26.978  26.875  1.00  0.00     0.049 A 
ATOM     46  H   UNL A   1      43.191  27.965  27.982  1.00  0.00     0.167 HD
ATOM     47  C   UNL A   1      40.036  30.062  30.107  1.00  0.00     0.037 A 
ATOM     48  C   UNL A   1      45.720  27.794  26.791  1.00  0.00     0.037 A 
ATOM     49  C   UNL A   1      41.077  31.045  29.963  1.00  0.00     0.049 A 
ATOM     50  C   UNL A   1      45.643  29.182  27.364  1.00  0.00     0.074 A 
ATOM     51  C   UNL A   1      41.101  32.353  30.418  1.00  0.00     0.029 A 
ATOM     52  N   UNL A   1      42.298  30.814  29.350  1.00  0.00    -0.354 N 
ATOM     53  N   UNL A   1      44.660  29.758  28.011  1.00  0.00    -0.248 NA
ATOM     54  C   UNL A   1      46.818  30.046  27.166  1.00  0.00     0.031 C 
ATOM     55  C   UNL A   1      42.336  32.916  30.073  1.00  0.00     0.029 A 
ATOM     56  C   UNL A   1      43.088  31.950  29.428  1.00  0.00     0.049 A 
ATOM     57  H   UNL A   1      42.565  29.968  28.923  1.00  0.00     0.167 HD
ATOM     58  C   UNL A   1      45.095  31.045  28.296  1.00  0.00     0.074 A 
ATOM     59  C   UNL A   1      46.441  31.160  27.777  1.00  0.00     0.031 C 
ATOM     60  C   UNL A   1      44.429  32.047  28.919  1.00  0.00     0.037 A 
BRANCH  47  61
ATOM     61  C   UNL A   1      38.791  30.465  30.841  1.00  0.00     0.064 A 
ATOM     62  C   UNL A   1      38.694  30.389  32.236  1.00  0.00     0.173 A 
ATOM     63  C   UNL A   1      37.696  30.984  30.132  1.00  0.00     0.173 A 
ATOM     64  F   UNL A   1      39.709  29.887  32.956  1.00  0.00    -0.203 F 
ATOM     65  C   UNL A   1      37.539  30.801  32.896  1.00  0.00     0.198 A 
ATOM     66  C   UNL A   1      36.552  31.419  30.796  1.00  0.00     0.198 A 
ATOM     67  F   UNL A   1      37.741  31.084  28.795  1.00  0.00    -0.203 F 
ATOM     68  F   UNL A   1      37.454  30.689  34.228  1.00  0.00    -0.200 F 
ATOM     69  C   UNL A   1      36.473  31.323  32.176  1.00  0.00     0.200 A 
ATOM     70  F   UNL A   1      35.529  31.932  30.101  1.00  0.00    -0.200 F 
ATOM     71  F   UNL A   1      35.367  31.728  32.815  1.00  0.00    -0.200 F 
ENDBRANCH  47  61
BRANCH  48  72
ATOM     72  C   UNL A   1      46.952  27.334  26.100  1.00  0.00     0.064 A 
ATOM     73  C   UNL A   1      47.119  27.536  24.723  1.00  0.00     0.173 A 
ATOM     74  C   UNL A   1      47.980  26.679  26.793  1.00  0.00     0.173 A 
ATOM     75  F   UNL A   1      46.149  28.127  24.011  1.00  0.00    -0.203 F 
ATOM     76  C   UNL A   1      48.266  27.098  24.066  1.00  0.00     0.198 A 
ATOM     77  C   UNL A   1      49.139  26.266  26.141  1.00  0.00     0.198 A 
ATOM     78  F   UNL A   1      47.863  26.454  28.111  1.00  0.00    -0.203 F 
ATOM     79  F   UNL A   1      48.385  27.269  22.742  1.00  0.00    -0.200 F 
ATOM     80  C   UNL A   1      49.279  26.471  24.777  1.00  0.00     0.200 A 
ATOM     81  F   UNL A   1      50.119  25.671  26.834  1.00  0.00    -0.200 F 
ATOM     82  F   UNL A   1      50.385  26.056  24.146  1.00  0.00    -0.200 F 
ENDBRANCH  48  72
BRANCH  60  83
ATOM     83  C   UNL A   1      45.159  33.343  29.100  1.00  0.00     0.064 A 
ATOM     84  C   UNL A   1      45.963  33.577  30.223  1.00  0.00     0.173 A 
ATOM     85  C   UNL A   1      45.072  34.350  28.128  1.00  0.00     0.173 A 
ATOM     86  F   UNL A   1      46.064  32.648  31.186  1.00  0.00    -0.203 F 
ATOM     87  C   UNL A   1      46.638  34.784  30.379  1.00  0.00     0.198 A 
ATOM     88  C   UNL A   1      45.763  35.549  28.277  1.00  0.00     0.198 A 
ATOM     89  F   UNL A   1      44.316  34.170  27.034  1.00  0.00    -0.203 F 
ATOM     90  F   UNL A   1      47.372  35.003  31.480  1.00  0.00    -0.200 F 
ATOM     91  C   UNL A   1      46.541  35.767  29.405  1.00  0.00     0.200 A 
ATOM     92  F   UNL A   1      45.671  36.496  27.334  1.00  0.00    -0.200 F 
ATOM     93  F   UNL A   1      47.190  36.929  29.558  1.00  0.00    -0.200 F 
ENDBRANCH  60  83
ENDBRANCH  34  35
ENDBRANCH  27  29
ENDBRANCH  26  27
ENDBRANCH  25  26
ENDBRANCH   1  25
TORSDOF 16
ENDMDL
MODEL 2
REMARK VINA RESULT:     -11.8      4.007      9.635
REMARK SMILES CCOc1ccccc1Nc1ccc(C(=O)OCCOC(=O)c2ccc(-c3c4nc(c(-c5c(F)c(F)c(F)c(F)c5F)c5ccc([nH]5)c(-c5c(F)c(F)c(F)c(F)c5F)c5nc(c(-c6c(F)c(F)c(F)c(F)c6F)c6ccc3[nH]6)C=C5)C=C4)cc2)cc1N
REMARK SMILES IDX 18 1 17 2 15 3 16 4 14 5 11 6 12 7 87 8 13 9 86 10 10 11
REMARK SMILES IDX 9 13 4 14 5 15 6 16 8 17 7 18 3 19 2 20 1 21 88 22 19 25
REMARK SMILES IDX 20 26 21 27 22 28 23 29 24 30 85 31 25 32 84 33 26 34 27 35
REMARK SMILES IDX 28 36 78 37 29 38 83 39 77 40 79 41 30 42 82 43 76 44 75 45
REMARK SMILES IDX 31 47 63 48 43 49 62 50 44 51 47 52 61 53 80 54 45 55 46 56
REMARK SMILES IDX 60 58 81 59 48 60 32 61 33 62 41 63 34 64 35 65 39 66 42 67
REMARK SMILES IDX 36 68 37 69 40 70 38 71 64 72 65 73 73 74 66 75 67 76 71 77
REMARK SMILES IDX 74 78 68 79 69 80 72 81 70 82 49 83 50 84 58 85 51 86 52 87
REMARK SMILES IDX 56 88 59 89 53 90 54 91 57 92 55 93
REMARK H PARENT 10 12 88 23 88 24 79 46 47 57
REMARK Flexibility Score: inf
ROOT
ATOM      1  C   UNL A   1      31.428  29.506  24.458  1.00  0.00     0.275 C 
ENDROOT
BRANCH   1   2
ATOM      2  O   UNL A   1      30.114  29.345  23.886  1.00  0.00    -0.458 OA
BRANCH   2   3
ATOM      3  C   UNL A   1      30.072  28.587  22.764  1.00  0.00     0.338 C 
ATOM      4  O   UNL A   1      29.848  28.977  21.626  1.00  0.00    -0.246 OA
BRANCH   3   5
ATOM      5  C   UNL A   1      30.422  27.181  23.054  1.00  0.00     0.062 A 
ATOM      6  C   UNL A   1      31.176  24.588  23.820  1.00  0.00     0.062 A 
ATOM      7  C   UNL A   1      30.243  25.313  24.573  1.00  0.00     0.029 A 
ATOM      8  C   UNL A   1      31.693  25.156  22.630  1.00  0.00     0.056 A 
ATOM      9  C   UNL A   1      29.885  26.603  24.207  1.00  0.00     0.018 A 
ATOM     10  C   UNL A   1      31.316  26.457  22.263  1.00  0.00     0.043 A 
BRANCH   6  11
ATOM     11  N   UNL A   1      31.581  23.352  24.351  1.00  0.00    -0.351 N 
ATOM     12  H   UNL A   1      31.243  22.579  23.844  1.00  0.00     0.167 HD
BRANCH  11  13
ATOM     13  C   UNL A   1      32.370  22.994  25.458  1.00  0.00     0.081 A 
ATOM     14  C   UNL A   1      33.744  22.770  25.256  1.00  0.00     0.142 A 
ATOM     15  C   UNL A   1      34.587  22.416  26.308  1.00  0.00     0.048 A 
ATOM     16  C   UNL A   1      34.064  22.310  27.596  1.00  0.00     0.004 A 
ATOM     17  C   UNL A   1      31.866  22.882  26.756  1.00  0.00     0.030 A 
ATOM     18  C   UNL A   1      32.706  22.541  27.820  1.00  0.00     0.002 A 
BRANCH  14  19
ATOM     19  O   UNL A   1      34.249  22.790  23.977  1.00  0.00    -0.492 OA
BRANCH  19  20
ATOM     20  C   UNL A   1      35.398  23.640  23.869  1.00  0.00     0.226 C 
ATOM     21  C   UNL A   1      36.524  22.877  23.188  1.00  0.00     0.049 C 
ENDBRANCH  19  20
ENDBRANCH  14  19
ENDBRANCH  11  13
ENDBRANCH   6  11
BRANCH   8  22
ATOM     22  N   UNL A   1      32.615  24.478  21.840  1.00  0.00    -0.397 N 
ATOM     23  H   UNL A   1      32.953  23.597  22.123  1.00  0.00     0.156 HD
ATOM     24  H   UNL A   1      32.930  24.879  20.997  1.00  0.00     0.156 HD
ENDBRANCH   8  22
ENDBRANCH   3   5
ENDBRANCH   2   3
ENDBRANCH   1   2
BRANCH   1  25
ATOM     25  C   UNL A   1      31.409  30.519  25.602  1.00  0.00     0.275 C 
BRANCH  25  26
ATOM     26  O   UNL A   1      32.497  30.263  26.509  1.00  0.00    -0.458 OA
BRANCH  26  27
ATOM     27  C   UNL A   1      33.040  31.350  27.100  1.00  0.00     0.338 C 
ATOM     28  O   UNL A   1      32.524  32.451  27.230  1.00  0.00    -0.246 OA
BRANCH  27  29
ATOM     29  C   UNL A   1      34.400  31.051  27.595  1.00  0.00     0.060 A 
ATOM     30  C   UNL A   1      34.818  29.736  27.787  1.00  0.00     0.016 A 
ATOM     31  C   UNL A   1      35.227  32.099  27.998  1.00  0.00     0.016 A 
ATOM     32  C   UNL A   1      36.003  29.463  28.476  1.00  0.00     0.010 A 
ATOM     33  C   UNL A   1      36.464  31.824  28.596  1.00  0.00     0.010 A 
ATOM     34  C   UNL A   1      36.848  30.503  28.892  1.00  0.00    -0.014 A 
BRANCH  34  35
ATOM     35  C   UNL A   1      38.083  30.237  29.697  1.00  0.00     0.031 A 
ATOM     36  C   UNL A   1      39.199  29.405  29.109  1.00  0.00     0.074 A 
ATOM     37  C   UNL A   1      38.241  30.735  30.940  1.00  0.00     0.049 A 
ATOM     38  N   UNL A   1      40.226  28.848  29.704  1.00  0.00    -0.248 NA
ATOM     39  C   UNL A   1      39.143  29.153  27.661  1.00  0.00     0.031 C 
ATOM     40  C   UNL A   1      37.296  31.605  31.639  1.00  0.00     0.029 A 
ATOM     41  N   UNL A   1      39.274  30.585  31.838  1.00  0.00    -0.354 N 
ATOM     42  C   UNL A   1      40.885  28.116  28.723  1.00  0.00     0.074 A 
ATOM     43  C   UNL A   1      40.154  28.311  27.490  1.00  0.00     0.031 C 
ATOM     44  C   UNL A   1      37.815  31.958  32.826  1.00  0.00     0.029 A 
ATOM     45  C   UNL A   1      39.083  31.262  33.019  1.00  0.00     0.049 A 
ATOM     46  H   UNL A   1      40.075  30.043  31.652  1.00  0.00     0.167 HD
ATOM     47  C   UNL A   1      41.993  27.346  28.841  1.00  0.00     0.037 A 
ATOM     48  C   UNL A   1      39.819  31.290  34.148  1.00  0.00     0.037 A 
ATOM     49  C   UNL A   1      42.776  27.216  30.043  1.00  0.00     0.049 A 
ATOM     50  C   UNL A   1      41.051  30.437  34.254  1.00  0.00     0.074 A 
ATOM     51  C   UNL A   1      43.902  26.441  30.264  1.00  0.00     0.029 A 
ATOM     52  N   UNL A   1      42.535  27.913  31.216  1.00  0.00    -0.354 N 
ATOM     53  N   UNL A   1      41.592  29.647  33.360  1.00  0.00    -0.248 NA
ATOM     54  C   UNL A   1      41.761  30.456  35.543  1.00  0.00     0.031 C 
ATOM     55  C   UNL A   1      44.340  26.664  31.575  1.00  0.00     0.029 A 
ATOM     56  C   UNL A   1      43.500  27.597  32.159  1.00  0.00     0.049 A 
ATOM     57  H   UNL A   1      41.789  28.539  31.359  1.00  0.00     0.167 HD
ATOM     58  C   UNL A   1      42.699  29.077  33.974  1.00  0.00     0.074 A 
ATOM     59  C   UNL A   1      42.772  29.631  35.309  1.00  0.00     0.031 C 
ATOM     60  C   UNL A   1      43.568  28.164  33.479  1.00  0.00     0.037 A 
BRANCH  47  61
ATOM     61  C   UNL A   1      42.420  26.552  27.642  1.00  0.00     0.064 A 
ATOM     62  C   UNL A   1      43.411  27.009  26.763  1.00  0.00     0.173 A 
ATOM     63  C   UNL A   1      41.859  25.288  27.401  1.00  0.00     0.173 A 
ATOM     64  F   UNL A   1      43.967  28.217  26.943  1.00  0.00    -0.203 F 
ATOM     65  C   UNL A   1      43.813  26.237  25.675  1.00  0.00     0.198 A 
ATOM     66  C   UNL A   1      42.280  24.508  26.328  1.00  0.00     0.198 A 
ATOM     67  F   UNL A   1      40.912  24.802  28.218  1.00  0.00    -0.203 F 
ATOM     68  F   UNL A   1      44.737  26.708  24.828  1.00  0.00    -0.200 F 
ATOM     69  C   UNL A   1      43.253  24.985  25.464  1.00  0.00     0.200 A 
ATOM     70  F   UNL A   1      41.747  23.295  26.132  1.00  0.00    -0.200 F 
ATOM     71  F   UNL A   1      43.649  24.240  24.422  1.00  0.00    -0.200 F 
ENDBRANCH  47  61
BRANCH  48  72
ATOM     72  C   UNL A   1      39.386  32.132  35.293  1.00  0.00     0.064 A 
ATOM     73  C   UNL A   1      38.595  31.595  36.318  1.00  0.00     0.173 A 
ATOM     74  C   UNL A   1      39.745  33.484  35.384  1.00  0.00     0.173 A 
ATOM     75  F   UNL A   1      38.198  30.316  36.257  1.00  0.00    -0.203 F 
ATOM     76  C   UNL A   1      38.176  32.381  37.389  1.00  0.00     0.198 A 
ATOM     77  C   UNL A   1      39.350  34.262  36.471  1.00  0.00     0.198 A 
ATOM     78  F   UNL A   1      40.494  34.047  34.424  1.00  0.00    -0.203 F 
ATOM     79  F   UNL A   1      37.388  31.854  38.337  1.00  0.00    -0.200 F 
ATOM     80  C   UNL A   1      38.561  33.711  37.469  1.00  0.00     0.200 A 
ATOM     81  F   UNL A   1      39.733  35.543  36.548  1.00  0.00    -0.200 F 
ATOM     82  F   UNL A   1      38.165  34.464  38.504  1.00  0.00    -0.200 F 
ENDBRANCH  48  72
BRANCH  60  83
ATOM     83  C   UNL A   1      44.688  27.731  34.375  1.00  0.00     0.064 A 
ATOM     84  C   UNL A   1      44.564  26.612  35.210  1.00  0.00     0.173 A 
ATOM     85  C   UNL A   1      45.905  28.428  34.381  1.00  0.00     0.173 A 
ATOM     86  F   UNL A   1      43.413  25.924  35.249  1.00  0.00    -0.203 F 
ATOM     87  C   UNL A   1      45.612  26.219  36.037  1.00  0.00     0.198 A 
ATOM     88  C   UNL A   1      46.958  28.021  35.195  1.00  0.00     0.198 A 
ATOM     89  F   UNL A   1      46.071  29.504  33.597  1.00  0.00    -0.203 F 
ATOM     90  F   UNL A   1      45.459  25.168  36.856  1.00  0.00    -0.200 F 
ATOM     91  C   UNL A   1      46.808  26.921  36.026  1.00  0.00     0.200 A 
ATOM     92  F   UNL A   1      48.114  28.697  35.181  1.00  0.00    -0.200 F 
ATOM     93  F   UNL A   1      47.816  26.541  36.824  1.00  0.00    -0.200 F 
ENDBRANCH  60  83
ENDBRANCH  34  35
ENDBRANCH  27  29
ENDBRANCH  26  27
ENDBRANCH  25  26
ENDBRANCH   1  25
TORSDOF 16
ENDMDL
MODEL 3
REMARK VINA RESULT:     -11.8      4.596      8.871
REMARK SMILES CCOc1ccccc1Nc1ccc(C(=O)OCCOC(=O)c2ccc(-c3c4nc(c(-c5c(F)c(F)c(F)c(F)c5F)c5ccc([nH]5)c(-c5c(F)c(F)c(F)c(F)c5F)c5nc(c(-c6c(F)c(F)c(F)c(F)c6F)c6ccc3[nH]6)C=C5)C=C4)cc2)cc1N
REMARK SMILES IDX 18 1 17 2 15 3 16 4 14 5 11 6 12 7 87 8 13 9 86 10 10 11
REMARK SMILES IDX 9 13 4 14 5 15 6 16 8 17 7 18 3 19 2 20 1 21 88 22 19 25
REMARK SMILES IDX 20 26 21 27 22 28 23 29 24 30 85 31 25 32 84 33 26 34 27 35
REMARK SMILES IDX 28 36 78 37 29 38 83 39 77 40 79 41 30 42 82 43 76 44 75 45
REMARK SMILES IDX 31 47 63 48 43 49 62 50 44 51 47 52 61 53 80 54 45 55 46 56
REMARK SMILES IDX 60 58 81 59 48 60 32 61 33 62 41 63 34 64 35 65 39 66 42 67
REMARK SMILES IDX 36 68 37 69 40 70 38 71 64 72 65 73 73 74 66 75 67 76 71 77
REMARK SMILES IDX 74 78 68 79 69 80 72 81 70 82 49 83 50 84 58 85 51 86 52 87
REMARK SMILES IDX 56 88 59 89 53 90 54 91 57 92 55 93
REMARK H PARENT 10 12 88 23 88 24 79 46 47 57
REMARK Flexibility Score: inf
ROOT
ATOM      1  C   UNL A   1      42.660  20.501  26.112  1.00  0.00     0.275 C 
ENDROOT
BRANCH   1   2
ATOM      2  O   UNL A   1      41.309  20.833  25.732  1.00  0.00    -0.458 OA
BRANCH   2   3
ATOM      3  C   UNL A   1      40.504  21.199  26.757  1.00  0.00     0.338 C 
ATOM      4  O   UNL A   1      40.748  21.096  27.951  1.00  0.00    -0.246 OA
BRANCH   3   5
ATOM      5  C   UNL A   1      39.270  21.846  26.264  1.00  0.00     0.062 A 
ATOM      6  C   UNL A   1      36.877  23.132  25.559  1.00  0.00     0.062 A 
ATOM      7  C   UNL A   1      37.914  23.842  26.178  1.00  0.00     0.029 A 
ATOM      8  C   UNL A   1      37.071  21.766  25.237  1.00  0.00     0.056 A 
ATOM      9  C   UNL A   1      39.089  23.202  26.547  1.00  0.00     0.018 A 
ATOM     10  C   UNL A   1      38.268  21.132  25.602  1.00  0.00     0.043 A 
BRANCH   6  11
ATOM     11  N   UNL A   1      35.675  23.832  25.358  1.00  0.00    -0.351 N 
ATOM     12  H   UNL A   1      35.754  24.567  24.709  1.00  0.00     0.167 HD
BRANCH  11  13
ATOM     13  C   UNL A   1      34.383  23.696  25.895  1.00  0.00     0.081 A 
ATOM     14  C   UNL A   1      33.307  24.290  25.211  1.00  0.00     0.142 A 
ATOM     15  C   UNL A   1      31.999  24.191  25.683  1.00  0.00     0.048 A 
ATOM     16  C   UNL A   1      31.745  23.464  26.845  1.00  0.00     0.004 A 
ATOM     17  C   UNL A   1      34.107  22.972  27.057  1.00  0.00     0.030 A 
ATOM     18  C   UNL A   1      32.797  22.857  27.532  1.00  0.00     0.002 A 
BRANCH  14  19
ATOM     19  O   UNL A   1      33.561  25.078  24.113  1.00  0.00    -0.492 OA
BRANCH  19  20
ATOM     20  C   UNL A   1      32.649  24.810  23.039  1.00  0.00     0.226 C 
ATOM     21  C   UNL A   1      33.206  23.685  22.178  1.00  0.00     0.049 C 
ENDBRANCH  19  20
ENDBRANCH  14  19
ENDBRANCH  11  13
ENDBRANCH   6  11
BRANCH   8  22
ATOM     22  N   UNL A   1      36.079  21.017  24.613  1.00  0.00    -0.397 N 
ATOM     23  H   UNL A   1      36.311  20.414  23.870  1.00  0.00     0.156 HD
ATOM     24  H   UNL A   1      35.144  21.090  24.915  1.00  0.00     0.156 HD
ENDBRANCH   8  22
ENDBRANCH   3   5
ENDBRANCH   2   3
ENDBRANCH   1   2
BRANCH   1  25
ATOM     25  C   UNL A   1      43.655  21.513  25.545  1.00  0.00     0.275 C 
BRANCH  25  26
ATOM     26  O   UNL A   1      42.952  22.621  24.953  1.00  0.00    -0.458 OA
BRANCH  26  27
ATOM     27  C   UNL A   1      43.606  23.803  24.956  1.00  0.00     0.338 C 
ATOM     28  O   UNL A   1      44.604  24.094  24.312  1.00  0.00    -0.246 OA
BRANCH  27  29
ATOM     29  C   UNL A   1      42.953  24.759  25.875  1.00  0.00     0.060 A 
ATOM     30  C   UNL A   1      43.003  26.131  25.633  1.00  0.00     0.016 A 
ATOM     31  C   UNL A   1      42.393  24.292  27.063  1.00  0.00     0.016 A 
ATOM     32  C   UNL A   1      42.599  27.038  26.617  1.00  0.00     0.010 A 
ATOM     33  C   UNL A   1      41.894  25.200  28.006  1.00  0.00     0.010 A 
ATOM     34  C   UNL A   1      42.036  26.588  27.821  1.00  0.00    -0.014 A 
BRANCH  34  35
ATOM     35  C   UNL A   1      41.667  27.538  28.918  1.00  0.00     0.031 A 
ATOM     36  C   UNL A   1      42.540  27.644  30.147  1.00  0.00     0.074 A 
ATOM     37  C   UNL A   1      40.575  28.326  28.838  1.00  0.00     0.049 A 
ATOM     38  N   UNL A   1      42.284  28.201  31.307  1.00  0.00    -0.248 NA
ATOM     39  C   UNL A   1      43.873  27.026  30.066  1.00  0.00     0.031 C 
ATOM     40  C   UNL A   1      39.656  28.400  27.703  1.00  0.00     0.029 A 
ATOM     41  N   UNL A   1      40.059  29.232  29.737  1.00  0.00    -0.354 N 
ATOM     42  C   UNL A   1      43.383  27.928  32.112  1.00  0.00     0.074 A 
ATOM     43  C   UNL A   1      44.317  27.170  31.307  1.00  0.00     0.031 C 
ATOM     44  C   UNL A   1      38.728  29.338  27.947  1.00  0.00     0.029 A 
ATOM     45  C   UNL A   1      38.922  29.864  29.294  1.00  0.00     0.049 A 
ATOM     46  H   UNL A   1      40.466  29.411  30.615  1.00  0.00     0.167 HD
ATOM     47  C   UNL A   1      43.592  28.270  33.407  1.00  0.00     0.037 A 
ATOM     48  C   UNL A   1      38.101  30.736  29.912  1.00  0.00     0.037 A 
ATOM     49  C   UNL A   1      42.708  29.097  34.186  1.00  0.00     0.049 A 
ATOM     50  C   UNL A   1      38.356  31.112  31.344  1.00  0.00     0.074 A 
ATOM     51  C   UNL A   1      42.825  29.480  35.513  1.00  0.00     0.029 A 
ATOM     52  N   UNL A   1      41.563  29.703  33.696  1.00  0.00    -0.354 N 
ATOM     53  N   UNL A   1      39.331  30.742  32.137  1.00  0.00    -0.248 NA
ATOM     54  C   UNL A   1      37.374  32.006  31.979  1.00  0.00     0.031 C 
ATOM     55  C   UNL A   1      41.745  30.313  35.828  1.00  0.00     0.029 A 
ATOM     56  C   UNL A   1      40.972  30.469  34.690  1.00  0.00     0.049 A 
ATOM     57  H   UNL A   1      41.219  29.605  32.780  1.00  0.00     0.167 HD
ATOM     58  C   UNL A   1      39.083  31.354  33.358  1.00  0.00     0.074 A 
ATOM     59  C   UNL A   1      37.880  32.142  33.197  1.00  0.00     0.031 C 
ATOM     60  C   UNL A   1      39.783  31.258  34.514  1.00  0.00     0.037 A 
BRANCH  47  61
ATOM     61  C   UNL A   1      44.817  27.729  34.081  1.00  0.00     0.064 A 
ATOM     62  C   UNL A   1      46.008  28.462  34.158  1.00  0.00     0.173 A 
ATOM     63  C   UNL A   1      44.777  26.472  34.705  1.00  0.00     0.173 A 
ATOM     64  F   UNL A   1      46.101  29.662  33.565  1.00  0.00    -0.203 F 
ATOM     65  C   UNL A   1      47.122  27.950  34.819  1.00  0.00     0.198 A 
ATOM     66  C   UNL A   1      45.883  25.972  35.387  1.00  0.00     0.198 A 
ATOM     67  F   UNL A   1      43.657  25.733  34.666  1.00  0.00    -0.203 F 
ATOM     68  F   UNL A   1      48.262  28.652  34.852  1.00  0.00    -0.200 F 
ATOM     69  C   UNL A   1      47.056  26.709  35.439  1.00  0.00     0.200 A 
ATOM     70  F   UNL A   1      45.813  24.781  35.994  1.00  0.00    -0.200 F 
ATOM     71  F   UNL A   1      48.125  26.224  36.084  1.00  0.00    -0.200 F 
ENDBRANCH  47  61
BRANCH  48  72
ATOM     72  C   UNL A   1      36.927  31.289  29.187  1.00  0.00     0.064 A 
ATOM     73  C   UNL A   1      35.802  30.492  28.933  1.00  0.00     0.173 A 
ATOM     74  C   UNL A   1      36.906  32.614  28.729  1.00  0.00     0.173 A 
ATOM     75  F   UNL A   1      35.789  29.209  29.321  1.00  0.00    -0.203 F 
ATOM     76  C   UNL A   1      34.702  30.999  28.245  1.00  0.00     0.198 A 
ATOM     77  C   UNL A   1      35.795  33.129  28.067  1.00  0.00     0.198 A 
ATOM     78  F   UNL A   1      37.962  33.414  28.940  1.00  0.00    -0.203 F 
ATOM     79  F   UNL A   1      33.655  30.206  27.981  1.00  0.00    -0.200 F 
ATOM     80  C   UNL A   1      34.696  32.320  27.820  1.00  0.00     0.200 A 
ATOM     81  F   UNL A   1      35.789  34.408  27.668  1.00  0.00    -0.200 F 
ATOM     82  F   UNL A   1      33.635  32.810  27.166  1.00  0.00    -0.200 F 
ENDBRANCH  48  72
BRANCH  60  83
ATOM     83  C   UNL A   1      39.280  32.047  35.684  1.00  0.00     0.064 A 
ATOM     84  C   UNL A   1      38.388  31.490  36.611  1.00  0.00     0.173 A 
ATOM     85  C   UNL A   1      39.714  33.364  35.893  1.00  0.00     0.173 A 
ATOM     86  F   UNL A   1      37.935  30.239  36.443  1.00  0.00    -0.203 F 
ATOM     87  C   UNL A   1      37.931  32.233  37.695  1.00  0.00     0.198 A 
ATOM     88  C   UNL A   1      39.269  34.097  36.989  1.00  0.00     0.198 A 
ATOM     89  F   UNL A   1      40.570  33.938  35.033  1.00  0.00    -0.203 F 
ATOM     90  F   UNL A   1      37.048  31.694  38.549  1.00  0.00    -0.200 F 
ATOM     91  C   UNL A   1      38.374  33.533  37.885  1.00  0.00     0.200 A 
ATOM     92  F   UNL A   1      39.701  35.352  37.174  1.00  0.00    -0.200 F 
ATOM     93  F   UNL A   1      37.930  34.247  38.929  1.00  0.00    -0.200 F 
ENDBRANCH  60  83
ENDBRANCH  34  35
ENDBRANCH  27  29
ENDBRANCH  26  27
ENDBRANCH  25  26
ENDBRANCH   1  25
TORSDOF 16
ENDMDL
