MODEL 1
REMARK VINA RESULT:     -11.7      0.000      0.000
REMARK SMILES CC(C)(C)OC(=O)N[C@H](Cc1ccc(N=[N+]=[N-])cc1)C(=O)OCCOC(=O)c1ccc(-c2c3nc(c(-c4c(F)c(F)c(F)c(F)c4F)c4ccc([nH]4)c(-c4c(F)c(F)c(F)c(F)c4F)c4nc(c(-c5c(F)c(F)c(F)c(F)c5F)c5ccc2[nH]5)C=C4)C=C3)cc1
REMARK SMILES IDX 23 1 22 2 20 3 21 4 9 5 8 6 6 7 7 8 5 10 2 11 1 12 3 13 4 14
REMARK SMILES IDX 10 15 11 16 12 17 19 18 13 19 18 20 14 21 15 22 16 23 17 24
REMARK SMILES IDX 24 25 25 26 26 27 27 28 28 29 29 30 90 31 30 32 89 33 31 34
REMARK SMILES IDX 32 35 33 36 83 37 34 38 88 39 82 40 84 41 35 42 87 43 81 44
REMARK SMILES IDX 80 45 36 47 68 48 48 49 67 50 49 51 52 52 66 53 85 54 50 55
REMARK SMILES IDX 51 56 65 58 86 59 53 60 37 61 38 62 46 63 39 64 40 65 44 66
REMARK SMILES IDX 47 67 41 68 42 69 45 70 43 71 69 72 70 73 78 74 71 75 72 76
REMARK SMILES IDX 76 77 79 78 73 79 74 80 77 81 75 82 54 83 55 84 63 85 56 86
REMARK SMILES IDX 57 87 61 88 64 89 58 90 59 91 62 92 60 93
REMARK H PARENT 8 9 84 46 52 57
REMARK Flexibility Score: inf
ROOT
ATOM      1  C   UNL A   1      35.697  20.993  24.937  1.00  0.00     0.274 C 
ENDROOT
BRANCH   1   2
ATOM      2  O   UNL A   1      35.094  22.303  25.015  1.00  0.00    -0.461 OA
BRANCH   2   3
ATOM      3  C   UNL A   1      34.370  22.682  23.935  1.00  0.00     0.329 C 
ATOM      4  O   UNL A   1      34.863  23.044  22.867  1.00  0.00    -0.250 OA
BRANCH   3   5
ATOM      5  C   UNL A   1      32.847  22.658  24.132  1.00  0.00     0.199 C 
BRANCH   5   6
ATOM      6  N   UNL A   1      32.605  22.840  25.564  1.00  0.00    -0.308 N 
ATOM      7  C   UNL A   1      31.862  23.795  26.176  1.00  0.00     0.408 C 
ATOM      8  O   UNL A   1      31.629  23.737  27.373  1.00  0.00    -0.225 OA
ATOM      9  H   UNL A   1      33.037  22.184  26.159  1.00  0.00     0.168 HD
BRANCH   7  10
ATOM     10  O   UNL A   1      31.497  24.782  25.335  1.00  0.00    -0.444 OA
BRANCH  10  11
ATOM     11  C   UNL A   1      32.115  26.088  25.427  1.00  0.00     0.106 C 
ATOM     12  C   UNL A   1      32.068  26.638  23.994  1.00  0.00     0.056 C 
ATOM     13  C   UNL A   1      33.587  25.978  25.850  1.00  0.00     0.056 C 
ATOM     14  C   UNL A   1      31.310  27.004  26.347  1.00  0.00     0.056 C 
ENDBRANCH  10  11
ENDBRANCH   7  10
ENDBRANCH   5   6
BRANCH   5  15
ATOM     15  C   UNL A   1      32.020  21.571  23.408  1.00  0.00     0.072 C 
BRANCH  15  16
ATOM     16  C   UNL A   1      32.374  20.126  23.736  1.00  0.00    -0.045 A 
ATOM     17  C   UNL A   1      32.485  19.143  22.745  1.00  0.00     0.004 A 
ATOM     18  C   UNL A   1      32.475  19.722  25.074  1.00  0.00     0.004 A 
ATOM     19  C   UNL A   1      32.745  17.811  23.085  1.00  0.00     0.010 A 
ATOM     20  C   UNL A   1      32.719  18.383  25.411  1.00  0.00     0.010 A 
ATOM     21  C   UNL A   1      32.866  17.405  24.418  1.00  0.00     0.038 A 
BRANCH  21  22
ATOM     22  N   UNL A   1      33.124  16.039  24.641  1.00  0.00    -0.061 NA
ATOM     23  N   UNL A   1      34.284  15.739  24.979  1.00  0.00     0.005 N 
ATOM     24  N   UNL A   1      35.342  15.444  25.275  1.00  0.00    -0.003 NA
ENDBRANCH  21  22
ENDBRANCH  15  16
ENDBRANCH   5  15
ENDBRANCH   3   5
ENDBRANCH   2   3
ENDBRANCH   1   2
BRANCH   1  25
ATOM     25  C   UNL A   1      37.222  21.093  24.874  1.00  0.00     0.275 C 
BRANCH  25  26
ATOM     26  O   UNL A   1      37.758  21.647  26.092  1.00  0.00    -0.458 OA
BRANCH  26  27
ATOM     27  C   UNL A   1      39.093  21.490  26.238  1.00  0.00     0.338 C 
ATOM     28  O   UNL A   1      39.760  20.519  25.927  1.00  0.00    -0.246 OA
BRANCH  27  29
ATOM     29  C   UNL A   1      39.692  22.721  26.767  1.00  0.00     0.060 A 
ATOM     30  C   UNL A   1      39.290  23.945  26.235  1.00  0.00     0.016 A 
ATOM     31  C   UNL A   1      40.746  22.662  27.674  1.00  0.00     0.016 A 
ATOM     32  C   UNL A   1      39.979  25.110  26.545  1.00  0.00     0.010 A 
ATOM     33  C   UNL A   1      41.392  23.845  28.047  1.00  0.00     0.010 A 
ATOM     34  C   UNL A   1      41.031  25.076  27.467  1.00  0.00    -0.014 A 
BRANCH  34  35
ATOM     35  C   UNL A   1      41.752  26.327  27.811  1.00  0.00     0.031 A 
ATOM     36  C   UNL A   1      41.075  27.388  28.630  1.00  0.00     0.074 A 
ATOM     37  C   UNL A   1      43.017  26.506  27.386  1.00  0.00     0.049 A 
ATOM     38  N   UNL A   1      41.481  28.599  28.916  1.00  0.00    -0.248 NA
ATOM     39  C   UNL A   1      39.761  27.044  29.196  1.00  0.00     0.031 C 
ATOM     40  C   UNL A   1      43.799  25.531  26.622  1.00  0.00     0.029 A 
ATOM     41  N   UNL A   1      43.869  27.573  27.531  1.00  0.00    -0.354 N 
ATOM     42  C   UNL A   1      40.461  29.175  29.660  1.00  0.00     0.074 A 
ATOM     43  C   UNL A   1      39.406  28.187  29.767  1.00  0.00     0.031 C 
ATOM     44  C   UNL A   1      45.016  26.038  26.377  1.00  0.00     0.029 A 
ATOM     45  C   UNL A   1      45.076  27.399  26.898  1.00  0.00     0.049 A 
ATOM     46  H   UNL A   1      43.637  28.384  28.038  1.00  0.00     0.167 HD
ATOM     47  C   UNL A   1      40.413  30.414  30.208  1.00  0.00     0.037 A 
ATOM     48  C   UNL A   1      46.100  28.254  26.720  1.00  0.00     0.037 A 
ATOM     49  C   UNL A   1      41.481  31.378  30.120  1.00  0.00     0.049 A 
ATOM     50  C   UNL A   1      45.995  29.645  27.283  1.00  0.00     0.074 A 
ATOM     51  C   UNL A   1      41.544  32.649  30.664  1.00  0.00     0.029 A 
ATOM     52  N   UNL A   1      42.677  31.176  29.443  1.00  0.00    -0.354 N 
ATOM     53  N   UNL A   1      45.026  30.184  27.981  1.00  0.00    -0.248 NA
ATOM     54  C   UNL A   1      47.125  30.548  27.025  1.00  0.00     0.031 C 
ATOM     55  C   UNL A   1      42.751  33.236  30.269  1.00  0.00     0.029 A 
ATOM     56  C   UNL A   1      43.470  32.310  29.531  1.00  0.00     0.049 A 
ATOM     57  H   UNL A   1      42.925  30.349  28.970  1.00  0.00     0.167 HD
ATOM     58  C   UNL A   1      45.435  31.480  28.266  1.00  0.00     0.074 A 
ATOM     59  C   UNL A   1      46.752  31.637  27.682  1.00  0.00     0.031 C 
ATOM     60  C   UNL A   1      44.779  32.451  28.946  1.00  0.00     0.037 A 
BRANCH  47  61
ATOM     61  C   UNL A   1      39.154  30.813  30.922  1.00  0.00     0.064 A 
ATOM     62  C   UNL A   1      38.991  30.634  32.304  1.00  0.00     0.173 A 
ATOM     63  C   UNL A   1      38.102  31.417  30.214  1.00  0.00     0.173 A 
ATOM     64  F   UNL A   1      39.961  30.054  33.028  1.00  0.00    -0.203 F 
ATOM     65  C   UNL A   1      37.814  31.015  32.944  1.00  0.00     0.198 A 
ATOM     66  C   UNL A   1      36.939  31.826  30.862  1.00  0.00     0.198 A 
ATOM     67  F   UNL A   1      38.205  31.620  28.891  1.00  0.00    -0.203 F 
ATOM     68  F   UNL A   1      37.661  30.786  34.255  1.00  0.00    -0.200 F 
ATOM     69  C   UNL A   1      36.792  31.617  32.224  1.00  0.00     0.200 A 
ATOM     70  F   UNL A   1      35.961  32.423  30.166  1.00  0.00    -0.200 F 
ATOM     71  F   UNL A   1      35.664  31.990  32.842  1.00  0.00    -0.200 F 
ENDBRANCH  47  61
BRANCH  48  72
ATOM     72  C   UNL A   1      47.298  27.828  25.951  1.00  0.00     0.064 A 
ATOM     73  C   UNL A   1      47.291  27.816  24.550  1.00  0.00     0.173 A 
ATOM     74  C   UNL A   1      48.476  27.421  26.600  1.00  0.00     0.173 A 
ATOM     75  F   UNL A   1      46.182  28.173  23.884  1.00  0.00    -0.203 F 
ATOM     76  C   UNL A   1      48.406  27.396  23.827  1.00  0.00     0.198 A 
ATOM     77  C   UNL A   1      49.601  27.034  25.875  1.00  0.00     0.198 A 
ATOM     78  F   UNL A   1      48.538  27.414  27.939  1.00  0.00    -0.203 F 
ATOM     79  F   UNL A   1      48.354  27.347  22.489  1.00  0.00    -0.200 F 
ATOM     80  C   UNL A   1      49.562  27.014  24.490  1.00  0.00     0.200 A 
ATOM     81  F   UNL A   1      50.721  26.681  26.520  1.00  0.00    -0.200 F 
ATOM     82  F   UNL A   1      50.636  26.616  23.794  1.00  0.00    -0.200 F 
ENDBRANCH  48  72
BRANCH  60  83
ATOM     83  C   UNL A   1      45.492  33.762  29.126  1.00  0.00     0.064 A 
ATOM     84  C   UNL A   1      46.358  33.988  30.206  1.00  0.00     0.173 A 
ATOM     85  C   UNL A   1      45.331  34.793  28.187  1.00  0.00     0.173 A 
ATOM     86  F   UNL A   1      46.533  33.041  31.141  1.00  0.00    -0.203 F 
ATOM     87  C   UNL A   1      47.013  35.208  30.355  1.00  0.00     0.198 A 
ATOM     88  C   UNL A   1      46.013  35.998  28.321  1.00  0.00     0.198 A 
ATOM     89  F   UNL A   1      44.517  34.626  27.133  1.00  0.00    -0.203 F 
ATOM     90  F   UNL A   1      47.792  35.421  31.424  1.00  0.00    -0.200 F 
ATOM     91  C   UNL A   1      46.846  36.208  29.409  1.00  0.00     0.200 A 
ATOM     92  F   UNL A   1      45.862  36.957  27.397  1.00  0.00    -0.200 F 
ATOM     93  F   UNL A   1      47.484  37.378  29.550  1.00  0.00    -0.200 F 
ENDBRANCH  60  83
ENDBRANCH  34  35
ENDBRANCH  27  29
ENDBRANCH  26  27
ENDBRANCH  25  26
ENDBRANCH   1  25
TORSDOF 17
ENDMDL
MODEL 2
REMARK VINA RESULT:     -11.7      4.810     10.330
REMARK SMILES CC(C)(C)OC(=O)N[C@H](Cc1ccc(N=[N+]=[N-])cc1)C(=O)OCCOC(=O)c1ccc(-c2c3nc(c(-c4c(F)c(F)c(F)c(F)c4F)c4ccc([nH]4)c(-c4c(F)c(F)c(F)c(F)c4F)c4nc(c(-c5c(F)c(F)c(F)c(F)c5F)c5ccc2[nH]5)C=C4)C=C3)cc1
REMARK SMILES IDX 23 1 22 2 20 3 21 4 9 5 8 6 6 7 7 8 5 10 2 11 1 12 3 13 4 14
REMARK SMILES IDX 10 15 11 16 12 17 19 18 13 19 18 20 14 21 15 22 16 23 17 24
REMARK SMILES IDX 24 25 25 26 26 27 27 28 28 29 29 30 90 31 30 32 89 33 31 34
REMARK SMILES IDX 32 35 33 36 83 37 34 38 88 39 82 40 84 41 35 42 87 43 81 44
REMARK SMILES IDX 80 45 36 47 68 48 48 49 67 50 49 51 52 52 66 53 85 54 50 55
REMARK SMILES IDX 51 56 65 58 86 59 53 60 37 61 38 62 46 63 39 64 40 65 44 66
REMARK SMILES IDX 47 67 41 68 42 69 45 70 43 71 69 72 70 73 78 74 71 75 72 76
REMARK SMILES IDX 76 77 79 78 73 79 74 80 77 81 75 82 54 83 55 84 63 85 56 86
REMARK SMILES IDX 57 87 61 88 64 89 58 90 59 91 62 92 60 93
REMARK H PARENT 8 9 84 46 52 57
REMARK Flexibility Score: inf
ROOT
ATOM      1  C   UNL A   1      31.412  29.346  25.596  1.00  0.00     0.274 C 
ENDROOT
BRANCH   1   2
ATOM      2  O   UNL A   1      31.878  27.987  25.454  1.00  0.00    -0.461 OA
BRANCH   2   3
ATOM      3  C   UNL A   1      31.062  27.030  25.957  1.00  0.00     0.329 C 
ATOM      4  O   UNL A   1      31.051  26.685  27.138  1.00  0.00    -0.250 OA
BRANCH   3   5
ATOM      5  C   UNL A   1      30.137  26.357  24.932  1.00  0.00     0.199 C 
BRANCH   5   6
ATOM      6  N   UNL A   1      30.047  24.947  25.310  1.00  0.00    -0.308 N 
ATOM      7  C   UNL A   1      30.920  23.946  25.037  1.00  0.00     0.408 C 
ATOM      8  O   UNL A   1      30.788  22.842  25.542  1.00  0.00    -0.225 OA
ATOM      9  H   UNL A   1      29.251  24.691  25.830  1.00  0.00     0.168 HD
BRANCH   7  10
ATOM     10  O   UNL A   1      31.855  24.308  24.136  1.00  0.00    -0.444 OA
BRANCH  10  11
ATOM     11  C   UNL A   1      33.261  24.229  24.469  1.00  0.00     0.106 C 
ATOM     12  C   UNL A   1      33.887  25.461  23.799  1.00  0.00     0.056 C 
ATOM     13  C   UNL A   1      33.906  22.974  23.863  1.00  0.00     0.056 C 
ATOM     14  C   UNL A   1      33.465  24.318  25.981  1.00  0.00     0.056 C 
ENDBRANCH  10  11
ENDBRANCH   7  10
ENDBRANCH   5   6
BRANCH   5  15
ATOM     15  C   UNL A   1      30.333  26.677  23.432  1.00  0.00     0.072 C 
BRANCH  15  16
ATOM     16  C   UNL A   1      29.644  27.934  22.916  1.00  0.00    -0.045 A 
ATOM     17  C   UNL A   1      30.351  28.968  22.292  1.00  0.00     0.004 A 
ATOM     18  C   UNL A   1      28.282  28.136  23.175  1.00  0.00     0.004 A 
ATOM     19  C   UNL A   1      29.700  30.140  21.889  1.00  0.00     0.010 A 
ATOM     20  C   UNL A   1      27.636  29.318  22.785  1.00  0.00     0.010 A 
ATOM     21  C   UNL A   1      28.336  30.338  22.127  1.00  0.00     0.038 A 
BRANCH  21  22
ATOM     22  N   UNL A   1      27.788  31.556  21.682  1.00  0.00    -0.061 NA
ATOM     23  N   UNL A   1      28.212  32.591  22.232  1.00  0.00     0.005 N 
ATOM     24  N   UNL A   1      28.576  33.546  22.731  1.00  0.00    -0.003 NA
ENDBRANCH  21  22
ENDBRANCH  15  16
ENDBRANCH   5  15
ENDBRANCH   3   5
ENDBRANCH   2   3
ENDBRANCH   1   2
BRANCH   1  25
ATOM     25  C   UNL A   1      32.079  30.033  26.788  1.00  0.00     0.275 C 
BRANCH  25  26
ATOM     26  O   UNL A   1      33.259  30.753  26.381  1.00  0.00    -0.458 OA
BRANCH  26  27
ATOM     27  C   UNL A   1      33.664  31.704  27.254  1.00  0.00     0.338 C 
ATOM     28  O   UNL A   1      33.052  32.701  27.595  1.00  0.00    -0.246 OA
BRANCH  27  29
ATOM     29  C   UNL A   1      34.960  31.337  27.837  1.00  0.00     0.060 A 
ATOM     30  C   UNL A   1      35.137  30.040  28.316  1.00  0.00     0.016 A 
ATOM     31  C   UNL A   1      35.942  32.301  28.042  1.00  0.00     0.016 A 
ATOM     32  C   UNL A   1      36.258  29.712  29.068  1.00  0.00     0.010 A 
ATOM     33  C   UNL A   1      37.107  31.952  28.731  1.00  0.00     0.010 A 
ATOM     34  C   UNL A   1      37.264  30.662  29.272  1.00  0.00    -0.014 A 
BRANCH  34  35
ATOM     35  C   UNL A   1      38.471  30.301  30.058  1.00  0.00     0.031 A 
ATOM     36  C   UNL A   1      39.508  29.388  29.472  1.00  0.00     0.074 A 
ATOM     37  C   UNL A   1      38.631  30.798  31.300  1.00  0.00     0.049 A 
ATOM     38  N   UNL A   1      40.554  28.846  30.045  1.00  0.00    -0.248 NA
ATOM     39  C   UNL A   1      39.344  29.028  28.055  1.00  0.00     0.031 C 
ATOM     40  C   UNL A   1      37.716  31.730  31.962  1.00  0.00     0.029 A 
ATOM     41  N   UNL A   1      39.618  30.585  32.230  1.00  0.00    -0.354 N 
ATOM     42  C   UNL A   1      41.150  28.054  29.073  1.00  0.00     0.074 A 
ATOM     43  C   UNL A   1      40.338  28.169  27.879  1.00  0.00     0.031 C 
ATOM     44  C   UNL A   1      38.189  32.018  33.184  1.00  0.00     0.029 A 
ATOM     45  C   UNL A   1      39.397  31.235  33.420  1.00  0.00     0.049 A 
ATOM     46  H   UNL A   1      40.407  30.021  32.060  1.00  0.00     0.167 HD
ATOM     47  C   UNL A   1      42.275  27.304  29.171  1.00  0.00     0.037 A 
ATOM     48  C   UNL A   1      40.068  31.176  34.585  1.00  0.00     0.037 A 
ATOM     49  C   UNL A   1      43.090  27.221  30.357  1.00  0.00     0.049 A 
ATOM     50  C   UNL A   1      41.276  30.285  34.687  1.00  0.00     0.074 A 
ATOM     51  C   UNL A   1      44.264  26.512  30.549  1.00  0.00     0.029 A 
ATOM     52  N   UNL A   1      42.816  27.870  31.553  1.00  0.00    -0.354 N 
ATOM     53  N   UNL A   1      41.830  29.535  33.766  1.00  0.00    -0.248 NA
ATOM     54  C   UNL A   1      41.946  30.229  35.993  1.00  0.00     0.031 C 
ATOM     55  C   UNL A   1      44.668  26.687  31.877  1.00  0.00     0.029 A 
ATOM     56  C   UNL A   1      43.782  27.554  32.497  1.00  0.00     0.049 A 
ATOM     57  H   UNL A   1      42.049  28.467  31.709  1.00  0.00     0.167 HD
ATOM     58  C   UNL A   1      42.926  28.934  34.372  1.00  0.00     0.074 A 
ATOM     59  C   UNL A   1      42.968  29.425  35.734  1.00  0.00     0.031 C 
ATOM     60  C   UNL A   1      43.813  28.053  33.849  1.00  0.00     0.037 A 
BRANCH  47  61
ATOM     61  C   UNL A   1      42.673  26.485  27.977  1.00  0.00     0.064 A 
ATOM     62  C   UNL A   1      42.182  25.188  27.764  1.00  0.00     0.173 A 
ATOM     63  C   UNL A   1      43.537  27.022  27.009  1.00  0.00     0.173 A 
ATOM     64  F   UNL A   1      41.360  24.622  28.662  1.00  0.00    -0.203 F 
ATOM     65  C   UNL A   1      42.564  24.450  26.646  1.00  0.00     0.198 A 
ATOM     66  C   UNL A   1      43.891  26.294  25.876  1.00  0.00     0.198 A 
ATOM     67  F   UNL A   1      44.031  28.262  27.156  1.00  0.00    -0.203 F 
ATOM     68  F   UNL A   1      42.123  23.194  26.492  1.00  0.00    -0.200 F 
ATOM     69  C   UNL A   1      43.412  25.006  25.700  1.00  0.00     0.200 A 
ATOM     70  F   UNL A   1      44.697  26.841  24.955  1.00  0.00    -0.200 F 
ATOM     71  F   UNL A   1      43.772  24.298  24.622  1.00  0.00    -0.200 F 
ENDBRANCH  47  61
BRANCH  48  72
ATOM     72  C   UNL A   1      39.595  31.960  35.756  1.00  0.00     0.064 A 
ATOM     73  C   UNL A   1      40.150  33.209  36.060  1.00  0.00     0.173 A 
ATOM     74  C   UNL A   1      38.579  31.475  36.596  1.00  0.00     0.173 A 
ATOM     75  F   UNL A   1      41.139  33.705  35.301  1.00  0.00    -0.203 F 
ATOM     76  C   UNL A   1      39.722  33.936  37.170  1.00  0.00     0.198 A 
ATOM     77  C   UNL A   1      38.129  32.218  37.686  1.00  0.00     0.198 A 
ATOM     78  F   UNL A   1      38.013  30.285  36.350  1.00  0.00    -0.203 F 
ATOM     79  F   UNL A   1      40.306  35.106  37.467  1.00  0.00    -0.200 F 
ATOM     80  C   UNL A   1      38.707  33.444  37.976  1.00  0.00     0.200 A 
ATOM     81  F   UNL A   1      37.137  31.746  38.451  1.00  0.00    -0.200 F 
ATOM     82  F   UNL A   1      38.293  34.146  39.040  1.00  0.00    -0.200 F 
ENDBRANCH  48  72
BRANCH  60  83
ATOM     83  C   UNL A   1      44.928  27.590  34.743  1.00  0.00     0.064 A 
ATOM     84  C   UNL A   1      44.817  26.426  35.518  1.00  0.00     0.173 A 
ATOM     85  C   UNL A   1      46.134  28.305  34.801  1.00  0.00     0.173 A 
ATOM     86  F   UNL A   1      43.678  25.717  35.512  1.00  0.00    -0.203 F 
ATOM     87  C   UNL A   1      45.863  26.010  36.339  1.00  0.00     0.198 A 
ATOM     88  C   UNL A   1      47.189  27.868  35.597  1.00  0.00     0.198 A 
ATOM     89  F   UNL A   1      46.294  29.423  34.077  1.00  0.00    -0.203 F 
ATOM     90  F   UNL A   1      45.714  24.926  37.111  1.00  0.00    -0.200 F 
ATOM     91  C   UNL A   1      47.050  26.727  36.372  1.00  0.00     0.200 A 
ATOM     92  F   UNL A   1      48.341  28.553  35.615  1.00  0.00    -0.200 F 
ATOM     93  F   UNL A   1      48.057  26.321  37.156  1.00  0.00    -0.200 F 
ENDBRANCH  60  83
ENDBRANCH  34  35
ENDBRANCH  27  29
ENDBRANCH  26  27
ENDBRANCH  25  26
ENDBRANCH   1  25
TORSDOF 17
ENDMDL
MODEL 3
REMARK VINA RESULT:     -11.6      0.893      1.675
REMARK SMILES CC(C)(C)OC(=O)N[C@H](Cc1ccc(N=[N+]=[N-])cc1)C(=O)OCCOC(=O)c1ccc(-c2c3nc(c(-c4c(F)c(F)c(F)c(F)c4F)c4ccc([nH]4)c(-c4c(F)c(F)c(F)c(F)c4F)c4nc(c(-c5c(F)c(F)c(F)c(F)c5F)c5ccc2[nH]5)C=C4)C=C3)cc1
REMARK SMILES IDX 23 1 22 2 20 3 21 4 9 5 8 6 6 7 7 8 5 10 2 11 1 12 3 13 4 14
REMARK SMILES IDX 10 15 11 16 12 17 19 18 13 19 18 20 14 21 15 22 16 23 17 24
REMARK SMILES IDX 24 25 25 26 26 27 27 28 28 29 29 30 90 31 30 32 89 33 31 34
REMARK SMILES IDX 32 35 33 36 83 37 34 38 88 39 82 40 84 41 35 42 87 43 81 44
REMARK SMILES IDX 80 45 36 47 68 48 48 49 67 50 49 51 52 52 66 53 85 54 50 55
REMARK SMILES IDX 51 56 65 58 86 59 53 60 37 61 38 62 46 63 39 64 40 65 44 66
REMARK SMILES IDX 47 67 41 68 42 69 45 70 43 71 69 72 70 73 78 74 71 75 72 76
REMARK SMILES IDX 76 77 79 78 73 79 74 80 77 81 75 82 54 83 55 84 63 85 56 86
REMARK SMILES IDX 57 87 61 88 64 89 58 90 59 91 62 92 60 93
REMARK H PARENT 8 9 84 46 52 57
REMARK Flexibility Score: inf
ROOT
ATOM      1  C   UNL A   1      36.708  22.198  23.742  1.00  0.00     0.274 C 
ENDROOT
BRANCH   1   2
ATOM      2  O   UNL A   1      36.053  23.204  24.544  1.00  0.00    -0.461 OA
BRANCH   2   3
ATOM      3  C   UNL A   1      34.943  23.758  24.000  1.00  0.00     0.329 C 
ATOM      4  O   UNL A   1      34.856  24.115  22.825  1.00  0.00    -0.250 OA
BRANCH   3   5
ATOM      5  C   UNL A   1      33.767  23.946  24.970  1.00  0.00     0.199 C 
BRANCH   5   6
ATOM      6  N   UNL A   1      34.036  25.172  25.723  1.00  0.00    -0.308 N 
ATOM      7  C   UNL A   1      33.455  26.389  25.583  1.00  0.00     0.408 C 
ATOM      8  O   UNL A   1      33.676  27.286  26.381  1.00  0.00    -0.225 OA
ATOM      9  H   UNL A   1      34.727  25.104  26.422  1.00  0.00     0.168 HD
BRANCH   7  10
ATOM     10  O   UNL A   1      32.697  26.474  24.471  1.00  0.00    -0.444 OA
BRANCH  10  11
ATOM     11  C   UNL A   1      31.257  26.572  24.573  1.00  0.00     0.106 C 
ATOM     12  C   UNL A   1      30.729  25.593  23.515  1.00  0.00     0.056 C 
ATOM     13  C   UNL A   1      30.768  27.981  24.208  1.00  0.00     0.056 C 
ATOM     14  C   UNL A   1      30.781  26.129  25.955  1.00  0.00     0.056 C 
ENDBRANCH  10  11
ENDBRANCH   7  10
ENDBRANCH   5   6
BRANCH   5  15
ATOM     15  C   UNL A   1      33.257  22.724  25.767  1.00  0.00     0.072 C 
BRANCH  15  16
ATOM     16  C   UNL A   1      33.015  21.451  24.965  1.00  0.00    -0.045 A 
ATOM     17  C   UNL A   1      33.604  20.230  25.312  1.00  0.00     0.004 A 
ATOM     18  C   UNL A   1      32.282  21.509  23.772  1.00  0.00     0.004 A 
ATOM     19  C   UNL A   1      33.416  19.093  24.517  1.00  0.00     0.010 A 
ATOM     20  C   UNL A   1      32.110  20.373  22.970  1.00  0.00     0.010 A 
ATOM     21  C   UNL A   1      32.670  19.141  23.335  1.00  0.00     0.038 A 
BRANCH  21  22
ATOM     22  N   UNL A   1      32.551  17.938  22.614  1.00  0.00    -0.061 NA
ATOM     23  N   UNL A   1      33.426  17.076  22.822  1.00  0.00     0.005 N 
ATOM     24  N   UNL A   1      34.222  16.281  22.988  1.00  0.00    -0.003 NA
ENDBRANCH  21  22
ENDBRANCH  15  16
ENDBRANCH   5  15
ENDBRANCH   3   5
ENDBRANCH   2   3
ENDBRANCH   1   2
BRANCH   1  25
ATOM     25  C   UNL A   1      37.365  21.135  24.624  1.00  0.00     0.275 C 
BRANCH  25  26
ATOM     26  O   UNL A   1      37.757  21.684  25.898  1.00  0.00    -0.458 OA
BRANCH  26  27
ATOM     27  C   UNL A   1      39.049  21.461  26.229  1.00  0.00     0.338 C 
ATOM     28  O   UNL A   1      39.684  20.433  26.072  1.00  0.00    -0.246 OA
BRANCH  27  29
ATOM     29  C   UNL A   1      39.656  22.690  26.755  1.00  0.00     0.060 A 
ATOM     30  C   UNL A   1      39.243  23.916  26.238  1.00  0.00     0.016 A 
ATOM     31  C   UNL A   1      40.724  22.626  27.644  1.00  0.00     0.016 A 
ATOM     32  C   UNL A   1      39.936  25.080  26.544  1.00  0.00     0.010 A 
ATOM     33  C   UNL A   1      41.375  23.808  28.014  1.00  0.00     0.010 A 
ATOM     34  C   UNL A   1      41.003  25.041  27.447  1.00  0.00    -0.014 A 
BRANCH  34  35
ATOM     35  C   UNL A   1      41.728  26.291  27.787  1.00  0.00     0.031 A 
ATOM     36  C   UNL A   1      41.056  27.356  28.604  1.00  0.00     0.074 A 
ATOM     37  C   UNL A   1      42.994  26.466  27.359  1.00  0.00     0.049 A 
ATOM     38  N   UNL A   1      41.466  28.567  28.886  1.00  0.00    -0.248 NA
ATOM     39  C   UNL A   1      39.743  27.018  29.174  1.00  0.00     0.031 C 
ATOM     40  C   UNL A   1      43.771  25.487  26.596  1.00  0.00     0.029 A 
ATOM     41  N   UNL A   1      43.849  27.530  27.499  1.00  0.00    -0.354 N 
ATOM     42  C   UNL A   1      40.449  29.148  29.631  1.00  0.00     0.074 A 
ATOM     43  C   UNL A   1      39.392  28.163  29.742  1.00  0.00     0.031 C 
ATOM     44  C   UNL A   1      44.989  25.989  26.347  1.00  0.00     0.029 A 
ATOM     45  C   UNL A   1      45.054  27.351  26.865  1.00  0.00     0.049 A 
ATOM     46  H   UNL A   1      43.620  28.343  28.005  1.00  0.00     0.167 HD
ATOM     47  C   UNL A   1      40.407  30.389  30.175  1.00  0.00     0.037 A 
ATOM     48  C   UNL A   1      46.080  28.202  26.683  1.00  0.00     0.037 A 
ATOM     49  C   UNL A   1      41.477  31.349  30.083  1.00  0.00     0.049 A 
ATOM     50  C   UNL A   1      45.981  29.595  27.242  1.00  0.00     0.074 A 
ATOM     51  C   UNL A   1      41.544  32.622  30.624  1.00  0.00     0.029 A 
ATOM     52  N   UNL A   1      42.671  31.142  29.404  1.00  0.00    -0.354 N 
ATOM     53  N   UNL A   1      45.014  30.139  27.940  1.00  0.00    -0.248 NA
ATOM     54  C   UNL A   1      47.113  30.494  26.980  1.00  0.00     0.031 C 
ATOM     55  C   UNL A   1      42.752  33.204  30.225  1.00  0.00     0.029 A 
ATOM     56  C   UNL A   1      43.467  32.274  29.488  1.00  0.00     0.049 A 
ATOM     57  H   UNL A   1      42.916  30.313  28.933  1.00  0.00     0.167 HD
ATOM     58  C   UNL A   1      45.428  31.434  28.221  1.00  0.00     0.074 A 
ATOM     59  C   UNL A   1      46.744  31.586  27.634  1.00  0.00     0.031 C 
ATOM     60  C   UNL A   1      44.776  32.410  28.900  1.00  0.00     0.037 A 
BRANCH  47  61
ATOM     61  C   UNL A   1      39.149  30.793  30.891  1.00  0.00     0.064 A 
ATOM     62  C   UNL A   1      38.987  30.613  32.272  1.00  0.00     0.173 A 
ATOM     63  C   UNL A   1      38.100  31.404  30.184  1.00  0.00     0.173 A 
ATOM     64  F   UNL A   1      39.953  30.026  32.995  1.00  0.00    -0.203 F 
ATOM     65  C   UNL A   1      37.812  30.999  32.914  1.00  0.00     0.198 A 
ATOM     66  C   UNL A   1      36.941  31.818  30.833  1.00  0.00     0.198 A 
ATOM     67  F   UNL A   1      38.204  31.608  28.862  1.00  0.00    -0.203 F 
ATOM     68  F   UNL A   1      37.658  30.769  34.225  1.00  0.00    -0.200 F 
ATOM     69  C   UNL A   1      36.793  31.608  32.195  1.00  0.00     0.200 A 
ATOM     70  F   UNL A   1      35.965  32.422  30.140  1.00  0.00    -0.200 F 
ATOM     71  F   UNL A   1      35.667  31.986  32.814  1.00  0.00    -0.200 F 
ENDBRANCH  47  61
BRANCH  48  72
ATOM     72  C   UNL A   1      47.276  27.771  25.913  1.00  0.00     0.064 A 
ATOM     73  C   UNL A   1      48.446  27.359  26.565  1.00  0.00     0.173 A 
ATOM     74  C   UNL A   1      47.276  27.762  24.508  1.00  0.00     0.173 A 
ATOM     75  F   UNL A   1      48.503  27.372  27.906  1.00  0.00    -0.203 F 
ATOM     76  C   UNL A   1      49.575  26.975  25.845  1.00  0.00     0.198 A 
ATOM     77  C   UNL A   1      48.395  27.345  23.790  1.00  0.00     0.198 A 
ATOM     78  F   UNL A   1      46.183  28.145  23.833  1.00  0.00    -0.203 F 
ATOM     79  F   UNL A   1      50.697  26.634  26.495  1.00  0.00    -0.200 F 
ATOM     80  C   UNL A   1      49.546  26.960  24.459  1.00  0.00     0.200 A 
ATOM     81  F   UNL A   1      48.355  27.317  22.451  1.00  0.00    -0.200 F 
ATOM     82  F   UNL A   1      50.631  26.585  23.768  1.00  0.00    -0.200 F 
ENDBRANCH  48  72
BRANCH  60  83
ATOM     83  C   UNL A   1      45.493  33.718  29.075  1.00  0.00     0.064 A 
ATOM     84  C   UNL A   1      46.359  33.946  30.155  1.00  0.00     0.173 A 
ATOM     85  C   UNL A   1      45.336  34.746  28.132  1.00  0.00     0.173 A 
ATOM     86  F   UNL A   1      46.530  33.003  31.094  1.00  0.00    -0.203 F 
ATOM     87  C   UNL A   1      47.018  35.165  30.300  1.00  0.00     0.198 A 
ATOM     88  C   UNL A   1      46.022  35.949  28.261  1.00  0.00     0.198 A 
ATOM     89  F   UNL A   1      44.523  34.578  27.078  1.00  0.00    -0.203 F 
ATOM     90  F   UNL A   1      47.797  35.379  31.368  1.00  0.00    -0.200 F 
ATOM     91  C   UNL A   1      46.855  36.162  29.349  1.00  0.00     0.200 A 
ATOM     92  F   UNL A   1      45.876  36.906  27.334  1.00  0.00    -0.200 F 
ATOM     93  F   UNL A   1      47.496  37.330  29.486  1.00  0.00    -0.200 F 
ENDBRANCH  60  83
ENDBRANCH  34  35
ENDBRANCH  27  29
ENDBRANCH  26  27
ENDBRANCH  25  26
ENDBRANCH   1  25
TORSDOF 17
ENDMDL
