MODEL 1
REMARK VINA RESULT:     -12.8      0.000      0.000
REMARK SMILES C[N@@H+]1CCN(C(=O)c2cc(-n3cccn3)ccc2Cl)C[C@H]1C(=O)OCCOC(=O)c1ccc(-c2c3nc(c(-c4c(F)c(F)c(F)c(F)c4F)c4ccc([nH]4)c(-c4c(F)c(F)c(F)c(F)c4F)c4nc(c(-c5c(F)c(F)c(F)c(F)c5F)c5ccc2[nH]5)C=C4)C=C3)cc1
REMARK SMILES IDX 25 1 24 2 22 3 23 4 21 5 1 6 2 7 3 8 4 10 20 11 5 12 6 13
REMARK SMILES IDX 7 14 8 15 9 16 18 17 10 18 17 19 19 20 16 21 11 22 12 23
REMARK SMILES IDX 15 24 13 25 14 26 26 27 27 28 28 29 29 30 30 31 31 32 92 33
REMARK SMILES IDX 32 34 91 35 33 36 34 37 35 38 85 39 36 40 90 41 84 42 86 43
REMARK SMILES IDX 37 44 89 45 83 46 82 47 38 49 70 50 50 51 69 52 51 53 54 54
REMARK SMILES IDX 68 55 87 56 52 57 53 58 67 60 88 61 55 62 39 63 40 64 48 65
REMARK SMILES IDX 41 66 42 67 46 68 49 69 43 70 44 71 47 72 45 73 71 74 72 75
REMARK SMILES IDX 80 76 73 77 74 78 78 79 81 80 75 81 76 82 79 83 77 84 56 85
REMARK SMILES IDX 57 86 65 87 58 88 59 89 63 90 66 91 60 92 61 93 64 94 62 95
REMARK H PARENT 2 9 86 48 54 59
REMARK Flexibility Score: inf
ROOT
ATOM      1  C   UNL A   1      34.900  29.369  27.449  1.00  0.00     0.274 C 
ENDROOT
BRANCH   1   2
ATOM      2  O   UNL A   1      33.956  29.730  26.415  1.00  0.00    -0.458 OA
BRANCH   2   3
ATOM      3  C   UNL A   1      32.792  29.030  26.423  1.00  0.00     0.366 C 
ATOM      4  O   UNL A   1      32.140  28.805  27.444  1.00  0.00    -0.245 OA
BRANCH   3   5
ATOM      5  C   UNL A   1      32.397  28.380  25.108  1.00  0.00     0.314 C 
ATOM      6  C   UNL A   1      30.713  30.010  24.313  1.00  0.00     0.333 C 
ATOM      7  N   UNL A   1      31.903  29.232  23.976  1.00  0.00    -0.323 N 
ATOM      8  C   UNL A   1      31.566  28.321  22.848  1.00  0.00     0.284 C 
ATOM      9  H   UNL A   1      32.637  29.900  23.743  1.00  0.00     0.348 HD
ATOM     10  C   UNL A   1      32.773  27.484  22.386  1.00  0.00     0.181 C 
ATOM     11  C   UNL A   1      33.665  27.623  24.672  1.00  0.00     0.197 C 
ATOM     12  N   UNL A   1      33.401  26.783  23.504  1.00  0.00    -0.326 N 
BRANCH  12  13
ATOM     13  C   UNL A   1      33.759  25.453  23.367  1.00  0.00     0.255 C 
ATOM     14  O   UNL A   1      33.867  24.880  22.287  1.00  0.00    -0.269 OA
BRANCH  13  15
ATOM     15  C   UNL A   1      34.062  24.667  24.575  1.00  0.00     0.060 A 
ATOM     16  C   UNL A   1      35.398  24.300  24.783  1.00  0.00     0.043 A 
ATOM     17  C   UNL A   1      33.055  24.205  25.429  1.00  0.00     0.053 A 
ATOM     18  C   UNL A   1      35.719  23.421  25.826  1.00  0.00     0.065 A 
ATOM     19  C   UNL A   1      33.391  23.375  26.502  1.00  0.00     0.023 A 
ATOM     20  Cl  UNL A   1      31.390  24.607  25.210  1.00  0.00    -0.083 Cl
ATOM     21  C   UNL A   1      34.715  22.965  26.690  1.00  0.00     0.030 A 
BRANCH  18  22
ATOM     22  N   UNL A   1      37.057  22.974  25.971  1.00  0.00    -0.241 N 
ATOM     23  C   UNL A   1      37.593  21.781  25.537  1.00  0.00     0.115 A 
ATOM     24  N   UNL A   1      37.996  23.750  26.568  1.00  0.00    -0.177 NA
ATOM     25  C   UNL A   1      38.920  21.784  25.891  1.00  0.00     0.042 A 
ATOM     26  C   UNL A   1      39.104  23.008  26.550  1.00  0.00     0.135 A 
ENDBRANCH  18  22
ENDBRANCH  13  15
ENDBRANCH  12  13
ENDBRANCH   3   5
ENDBRANCH   2   3
ENDBRANCH   1   2
BRANCH   1  27
ATOM     27  C   UNL A   1      35.861  30.490  27.856  1.00  0.00     0.275 C 
BRANCH  27  28
ATOM     28  O   UNL A   1      36.615  30.153  29.025  1.00  0.00    -0.458 OA
BRANCH  28  29
ATOM     29  C   UNL A   1      37.940  30.323  28.834  1.00  0.00     0.338 C 
ATOM     30  O   UNL A   1      38.623  31.241  29.253  1.00  0.00    -0.246 OA
BRANCH  29  31
ATOM     31  C   UNL A   1      38.507  29.348  27.907  1.00  0.00     0.060 A 
ATOM     32  C   UNL A   1      38.437  28.013  28.332  1.00  0.00     0.016 A 
ATOM     33  C   UNL A   1      39.542  29.826  27.105  1.00  0.00     0.016 A 
ATOM     34  C   UNL A   1      39.562  27.229  28.215  1.00  0.00     0.010 A 
ATOM     35  C   UNL A   1      40.665  29.042  26.991  1.00  0.00     0.010 A 
ATOM     36  C   UNL A   1      40.694  27.800  27.640  1.00  0.00    -0.014 A 
BRANCH  36  37
ATOM     37  C   UNL A   1      41.960  27.104  27.785  1.00  0.00     0.031 A 
ATOM     38  C   UNL A   1      42.671  27.329  29.067  1.00  0.00     0.074 A 
ATOM     39  C   UNL A   1      42.308  26.157  26.890  1.00  0.00     0.049 A 
ATOM     40  N   UNL A   1      43.925  27.572  29.275  1.00  0.00    -0.248 NA
ATOM     41  C   UNL A   1      41.845  27.336  30.286  1.00  0.00     0.031 C 
ATOM     42  C   UNL A   1      41.501  25.633  25.781  1.00  0.00     0.029 A 
ATOM     43  N   UNL A   1      43.390  25.335  26.898  1.00  0.00    -0.354 N 
ATOM     44  C   UNL A   1      44.072  27.632  30.659  1.00  0.00     0.074 A 
ATOM     45  C   UNL A   1      42.749  27.604  31.223  1.00  0.00     0.031 C 
ATOM     46  C   UNL A   1      41.996  24.432  25.411  1.00  0.00     0.029 A 
ATOM     47  C   UNL A   1      43.197  24.163  26.186  1.00  0.00     0.049 A 
ATOM     48  H   UNL A   1      44.230  25.552  27.365  1.00  0.00     0.167 HD
ATOM     49  C   UNL A   1      45.275  27.514  31.277  1.00  0.00     0.037 A 
ATOM     50  C   UNL A   1      43.893  23.011  26.344  1.00  0.00     0.037 A 
ATOM     51  C   UNL A   1      46.370  27.795  30.396  1.00  0.00     0.049 A 
ATOM     52  C   UNL A   1      45.136  23.327  27.096  1.00  0.00     0.074 A 
ATOM     53  C   UNL A   1      46.761  28.905  29.672  1.00  0.00     0.029 A 
ATOM     54  N   UNL A   1      47.105  26.751  29.892  1.00  0.00    -0.354 N 
ATOM     55  N   UNL A   1      46.132  24.026  26.625  1.00  0.00    -0.248 NA
ATOM     56  C   UNL A   1      45.086  23.216  28.548  1.00  0.00     0.031 C 
ATOM     57  C   UNL A   1      47.325  28.387  28.471  1.00  0.00     0.029 A 
ATOM     58  C   UNL A   1      47.255  26.997  28.550  1.00  0.00     0.049 A 
ATOM     59  H   UNL A   1      47.455  25.980  30.393  1.00  0.00     0.167 HD
ATOM     60  C   UNL A   1      46.594  24.763  27.707  1.00  0.00     0.074 A 
ATOM     61  C   UNL A   1      45.974  24.156  28.879  1.00  0.00     0.031 C 
ATOM     62  C   UNL A   1      47.209  25.970  27.537  1.00  0.00     0.037 A 
BRANCH  49  63
ATOM     63  C   UNL A   1      45.451  26.880  32.629  1.00  0.00     0.064 A 
ATOM     64  C   UNL A   1      45.280  25.492  32.779  1.00  0.00     0.173 A 
ATOM     65  C   UNL A   1      45.531  27.620  33.830  1.00  0.00     0.173 A 
ATOM     66  F   UNL A   1      45.148  24.700  31.704  1.00  0.00    -0.203 F 
ATOM     67  C   UNL A   1      45.161  24.897  34.038  1.00  0.00     0.198 A 
ATOM     68  C   UNL A   1      45.476  27.017  35.083  1.00  0.00     0.198 A 
ATOM     69  F   UNL A   1      45.557  28.960  33.835  1.00  0.00    -0.203 F 
ATOM     70  F   UNL A   1      44.888  23.589  34.131  1.00  0.00    -0.200 F 
ATOM     71  C   UNL A   1      45.265  25.659  35.188  1.00  0.00     0.200 A 
ATOM     72  F   UNL A   1      45.559  27.776  36.185  1.00  0.00    -0.200 F 
ATOM     73  F   UNL A   1      45.108  25.097  36.393  1.00  0.00    -0.200 F 
ENDBRANCH  49  63
BRANCH  50  74
ATOM     74  C   UNL A   1      43.371  21.631  26.198  1.00  0.00     0.064 A 
ATOM     75  C   UNL A   1      43.965  20.718  25.316  1.00  0.00     0.173 A 
ATOM     76  C   UNL A   1      42.410  21.102  27.087  1.00  0.00     0.173 A 
ATOM     77  F   UNL A   1      44.936  21.121  24.483  1.00  0.00    -0.203 F 
ATOM     78  C   UNL A   1      43.614  19.363  25.315  1.00  0.00     0.198 A 
ATOM     79  C   UNL A   1      42.046  19.756  27.073  1.00  0.00     0.198 A 
ATOM     80  F   UNL A   1      41.867  21.862  28.050  1.00  0.00    -0.203 F 
ATOM     81  F   UNL A   1      44.241  18.510  24.492  1.00  0.00    -0.200 F 
ATOM     82  C   UNL A   1      42.654  18.884  26.192  1.00  0.00     0.200 A 
ATOM     83  F   UNL A   1      41.142  19.304  27.953  1.00  0.00    -0.200 F 
ATOM     84  F   UNL A   1      42.345  17.581  26.218  1.00  0.00    -0.200 F 
ENDBRANCH  50  74
BRANCH  62  85
ATOM     85  C   UNL A   1      47.587  26.385  26.145  1.00  0.00     0.064 A 
ATOM     86  C   UNL A   1      46.754  27.163  25.322  1.00  0.00     0.173 A 
ATOM     87  C   UNL A   1      48.894  26.147  25.699  1.00  0.00     0.173 A 
ATOM     88  F   UNL A   1      45.536  27.533  25.730  1.00  0.00    -0.203 F 
ATOM     89  C   UNL A   1      47.195  27.639  24.089  1.00  0.00     0.198 A 
ATOM     90  C   UNL A   1      49.345  26.657  24.483  1.00  0.00     0.198 A 
ATOM     91  F   UNL A   1      49.756  25.469  26.473  1.00  0.00    -0.203 F 
ATOM     92  F   UNL A   1      46.377  28.375  23.322  1.00  0.00    -0.200 F 
ATOM     93  C   UNL A   1      48.493  27.393  23.675  1.00  0.00     0.200 A 
ATOM     94  F   UNL A   1      50.617  26.464  24.111  1.00  0.00    -0.200 F 
ATOM     95  F   UNL A   1      48.933  27.893  22.512  1.00  0.00    -0.200 F 
ENDBRANCH  62  85
ENDBRANCH  36  37
ENDBRANCH  29  31
ENDBRANCH  28  29
ENDBRANCH  27  28
ENDBRANCH   1  27
TORSDOF 14
ENDMDL
MODEL 2
REMARK VINA RESULT:     -12.6      0.996      1.955
REMARK SMILES C[N@@H+]1CCN(C(=O)c2cc(-n3cccn3)ccc2Cl)C[C@H]1C(=O)OCCOC(=O)c1ccc(-c2c3nc(c(-c4c(F)c(F)c(F)c(F)c4F)c4ccc([nH]4)c(-c4c(F)c(F)c(F)c(F)c4F)c4nc(c(-c5c(F)c(F)c(F)c(F)c5F)c5ccc2[nH]5)C=C4)C=C3)cc1
REMARK SMILES IDX 25 1 24 2 22 3 23 4 21 5 1 6 2 7 3 8 4 10 20 11 5 12 6 13
REMARK SMILES IDX 7 14 8 15 9 16 18 17 10 18 17 19 19 20 16 21 11 22 12 23
REMARK SMILES IDX 15 24 13 25 14 26 26 27 27 28 28 29 29 30 30 31 31 32 92 33
REMARK SMILES IDX 32 34 91 35 33 36 34 37 35 38 85 39 36 40 90 41 84 42 86 43
REMARK SMILES IDX 37 44 89 45 83 46 82 47 38 49 70 50 50 51 69 52 51 53 54 54
REMARK SMILES IDX 68 55 87 56 52 57 53 58 67 60 88 61 55 62 39 63 40 64 48 65
REMARK SMILES IDX 41 66 42 67 46 68 49 69 43 70 44 71 47 72 45 73 71 74 72 75
REMARK SMILES IDX 80 76 73 77 74 78 78 79 81 80 75 81 76 82 79 83 77 84 56 85
REMARK SMILES IDX 57 86 65 87 58 88 59 89 63 90 66 91 60 92 61 93 64 94 62 95
REMARK H PARENT 2 9 86 48 54 59
REMARK Flexibility Score: inf
ROOT
ATOM      1  C   UNL A   1      34.343  30.443  27.624  1.00  0.00     0.274 C 
ENDROOT
BRANCH   1   2
ATOM      2  O   UNL A   1      34.591  29.309  26.759  1.00  0.00    -0.458 OA
BRANCH   2   3
ATOM      3  C   UNL A   1      33.656  29.101  25.797  1.00  0.00     0.366 C 
ATOM      4  O   UNL A   1      33.186  29.999  25.097  1.00  0.00    -0.245 OA
BRANCH   3   5
ATOM      5  C   UNL A   1      33.078  27.698  25.723  1.00  0.00     0.314 C 
ATOM      6  C   UNL A   1      31.516  27.775  27.641  1.00  0.00     0.333 C 
ATOM      7  N   UNL A   1      31.691  27.436  26.231  1.00  0.00    -0.323 N 
ATOM      8  C   UNL A   1      31.421  25.982  26.059  1.00  0.00     0.284 C 
ATOM      9  H   UNL A   1      31.048  28.026  25.703  1.00  0.00     0.348 HD
ATOM     10  C   UNL A   1      31.536  25.532  24.592  1.00  0.00     0.181 C 
ATOM     11  C   UNL A   1      33.160  27.340  24.227  1.00  0.00     0.197 C 
ATOM     12  N   UNL A   1      32.809  25.938  24.002  1.00  0.00    -0.326 N 
BRANCH  12  13
ATOM     13  C   UNL A   1      33.532  25.037  23.240  1.00  0.00     0.255 C 
ATOM     14  O   UNL A   1      33.809  25.207  22.055  1.00  0.00    -0.269 OA
BRANCH  13  15
ATOM     15  C   UNL A   1      34.036  23.807  23.874  1.00  0.00     0.060 A 
ATOM     16  C   UNL A   1      35.259  23.890  24.553  1.00  0.00     0.043 A 
ATOM     17  C   UNL A   1      33.389  22.576  23.720  1.00  0.00     0.053 A 
ATOM     18  C   UNL A   1      35.862  22.722  25.039  1.00  0.00     0.065 A 
ATOM     19  C   UNL A   1      33.968  21.424  24.257  1.00  0.00     0.023 A 
ATOM     20  Cl  UNL A   1      31.892  22.410  22.876  1.00  0.00    -0.083 Cl
ATOM     21  C   UNL A   1      35.211  21.489  24.896  1.00  0.00     0.030 A 
BRANCH  18  22
ATOM     22  N   UNL A   1      37.145  22.799  25.636  1.00  0.00    -0.241 N 
ATOM     23  C   UNL A   1      37.708  23.882  26.276  1.00  0.00     0.115 A 
ATOM     24  N   UNL A   1      37.978  21.729  25.650  1.00  0.00    -0.177 NA
ATOM     25  C   UNL A   1      38.957  23.496  26.697  1.00  0.00     0.042 A 
ATOM     26  C   UNL A   1      39.081  22.170  26.256  1.00  0.00     0.135 A 
ENDBRANCH  18  22
ENDBRANCH  13  15
ENDBRANCH  12  13
ENDBRANCH   3   5
ENDBRANCH   2   3
ENDBRANCH   1   2
BRANCH   1  27
ATOM     27  C   UNL A   1      35.480  30.764  28.598  1.00  0.00     0.275 C 
BRANCH  27  28
ATOM     28  O   UNL A   1      36.691  31.107  27.917  1.00  0.00    -0.458 OA
BRANCH  28  29
ATOM     29  C   UNL A   1      37.770  30.543  28.495  1.00  0.00     0.338 C 
ATOM     30  O   UNL A   1      38.351  30.935  29.492  1.00  0.00    -0.246 OA
BRANCH  29  31
ATOM     31  C   UNL A   1      38.323  29.443  27.709  1.00  0.00     0.060 A 
ATOM     32  C   UNL A   1      38.256  28.183  28.321  1.00  0.00     0.016 A 
ATOM     33  C   UNL A   1      39.346  29.798  26.832  1.00  0.00     0.016 A 
ATOM     34  C   UNL A   1      39.378  27.386  28.302  1.00  0.00     0.010 A 
ATOM     35  C   UNL A   1      40.466  29.001  26.815  1.00  0.00     0.010 A 
ATOM     36  C   UNL A   1      40.503  27.864  27.635  1.00  0.00    -0.014 A 
BRANCH  36  37
ATOM     37  C   UNL A   1      41.769  27.191  27.859  1.00  0.00     0.031 A 
ATOM     38  C   UNL A   1      42.383  27.411  29.191  1.00  0.00     0.074 A 
ATOM     39  C   UNL A   1      42.198  26.265  26.979  1.00  0.00     0.049 A 
ATOM     40  N   UNL A   1      43.614  27.676  29.491  1.00  0.00    -0.248 NA
ATOM     41  C   UNL A   1      41.473  27.383  30.349  1.00  0.00     0.031 C 
ATOM     42  C   UNL A   1      41.483  25.742  25.809  1.00  0.00     0.029 A 
ATOM     43  N   UNL A   1      43.294  25.465  27.052  1.00  0.00    -0.354 N 
ATOM     44  C   UNL A   1      43.661  27.718  30.883  1.00  0.00     0.074 A 
ATOM     45  C   UNL A   1      42.303  27.656  31.351  1.00  0.00     0.031 C 
ATOM     46  C   UNL A   1      42.028  24.556  25.458  1.00  0.00     0.029 A 
ATOM     47  C   UNL A   1      43.176  24.299  26.313  1.00  0.00     0.049 A 
ATOM     48  H   UNL A   1      44.095  25.690  27.580  1.00  0.00     0.167 HD
ATOM     49  C   UNL A   1      44.821  27.615  31.583  1.00  0.00     0.037 A 
ATOM     50  C   UNL A   1      43.883  23.159  26.504  1.00  0.00     0.037 A 
ATOM     51  C   UNL A   1      45.969  27.930  30.785  1.00  0.00     0.049 A 
ATOM     52  C   UNL A   1      45.064  23.488  27.347  1.00  0.00     0.074 A 
ATOM     53  C   UNL A   1      46.387  29.059  30.105  1.00  0.00     0.029 A 
ATOM     54  N   UNL A   1      46.759  26.909  30.320  1.00  0.00    -0.354 N 
ATOM     55  N   UNL A   1      46.076  24.213  26.957  1.00  0.00    -0.248 NA
ATOM     56  C   UNL A   1      44.913  23.355  28.790  1.00  0.00     0.031 C 
ATOM     57  C   UNL A   1      47.045  28.569  28.941  1.00  0.00     0.029 A 
ATOM     58  C   UNL A   1      46.998  27.177  28.996  1.00  0.00     0.049 A 
ATOM     59  H   UNL A   1      47.089  26.138  30.835  1.00  0.00     0.167 HD
ATOM     60  C   UNL A   1      46.445  24.943  28.079  1.00  0.00     0.074 A 
ATOM     61  C   UNL A   1      45.756  24.307  29.196  1.00  0.00     0.031 C 
ATOM     62  C   UNL A   1      47.045  26.165  27.969  1.00  0.00     0.037 A 
BRANCH  49  63
ATOM     63  C   UNL A   1      44.913  26.964  32.936  1.00  0.00     0.064 A 
ATOM     64  C   UNL A   1      45.428  27.686  34.027  1.00  0.00     0.173 A 
ATOM     65  C   UNL A   1      44.752  25.576  33.142  1.00  0.00     0.173 A 
ATOM     66  F   UNL A   1      45.662  29.003  33.925  1.00  0.00    -0.203 F 
ATOM     67  C   UNL A   1      45.788  27.057  35.221  1.00  0.00     0.198 A 
ATOM     68  C   UNL A   1      45.051  24.962  34.354  1.00  0.00     0.198 A 
ATOM     69  F   UNL A   1      44.402  24.748  32.147  1.00  0.00    -0.203 F 
ATOM     70  F   UNL A   1      46.377  27.765  36.193  1.00  0.00    -0.200 F 
ATOM     71  C   UNL A   1      45.595  25.697  35.386  1.00  0.00     0.200 A 
ATOM     72  F   UNL A   1      44.875  23.639  34.486  1.00  0.00    -0.200 F 
ATOM     73  F   UNL A   1      45.978  25.086  36.513  1.00  0.00    -0.200 F 
ENDBRANCH  49  63
BRANCH  50  74
ATOM     74  C   UNL A   1      43.401  21.771  26.303  1.00  0.00     0.064 A 
ATOM     75  C   UNL A   1      44.036  20.904  25.403  1.00  0.00     0.173 A 
ATOM     76  C   UNL A   1      42.439  21.188  27.156  1.00  0.00     0.173 A 
ATOM     77  F   UNL A   1      45.010  21.360  24.602  1.00  0.00    -0.203 F 
ATOM     78  C   UNL A   1      43.722  19.541  25.351  1.00  0.00     0.198 A 
ATOM     79  C   UNL A   1      42.111  19.834  27.090  1.00  0.00     0.198 A 
ATOM     80  F   UNL A   1      41.858  21.900  28.132  1.00  0.00    -0.203 F 
ATOM     81  F   UNL A   1      44.386  18.733  24.513  1.00  0.00    -0.200 F 
ATOM     82  C   UNL A   1      42.760  19.008  26.194  1.00  0.00     0.200 A 
ATOM     83  F   UNL A   1      41.204  19.330  27.938  1.00  0.00    -0.200 F 
ATOM     84  F   UNL A   1      42.485  17.697  26.170  1.00  0.00    -0.200 F 
ENDBRANCH  50  74
BRANCH  62  85
ATOM     85  C   UNL A   1      47.511  26.608  26.613  1.00  0.00     0.064 A 
ATOM     86  C   UNL A   1      48.769  26.268  26.083  1.00  0.00     0.173 A 
ATOM     87  C   UNL A   1      46.599  27.236  25.755  1.00  0.00     0.173 A 
ATOM     88  F   UNL A   1      49.649  25.563  26.801  1.00  0.00    -0.203 F 
ATOM     89  C   UNL A   1      49.111  26.586  24.771  1.00  0.00     0.198 A 
ATOM     90  C   UNL A   1      46.930  27.519  24.432  1.00  0.00     0.198 A 
ATOM     91  F   UNL A   1      45.360  27.523  26.184  1.00  0.00    -0.203 F 
ATOM     92  F   UNL A   1      50.320  26.254  24.294  1.00  0.00    -0.200 F 
ATOM     93  C   UNL A   1      48.188  27.203  23.944  1.00  0.00     0.200 A 
ATOM     94  F   UNL A   1      46.017  28.065  23.618  1.00  0.00    -0.200 F 
ATOM     95  F   UNL A   1      48.500  27.464  22.667  1.00  0.00    -0.200 F 
ENDBRANCH  62  85
ENDBRANCH  36  37
ENDBRANCH  29  31
ENDBRANCH  28  29
ENDBRANCH  27  28
ENDBRANCH   1  27
TORSDOF 14
ENDMDL
MODEL 3
REMARK VINA RESULT:     -12.5      6.077     11.314
REMARK SMILES C[N@@H+]1CCN(C(=O)c2cc(-n3cccn3)ccc2Cl)C[C@H]1C(=O)OCCOC(=O)c1ccc(-c2c3nc(c(-c4c(F)c(F)c(F)c(F)c4F)c4ccc([nH]4)c(-c4c(F)c(F)c(F)c(F)c4F)c4nc(c(-c5c(F)c(F)c(F)c(F)c5F)c5ccc2[nH]5)C=C4)C=C3)cc1
REMARK SMILES IDX 25 1 24 2 22 3 23 4 21 5 1 6 2 7 3 8 4 10 20 11 5 12 6 13
REMARK SMILES IDX 7 14 8 15 9 16 18 17 10 18 17 19 19 20 16 21 11 22 12 23
REMARK SMILES IDX 15 24 13 25 14 26 26 27 27 28 28 29 29 30 30 31 31 32 92 33
REMARK SMILES IDX 32 34 91 35 33 36 34 37 35 38 85 39 36 40 90 41 84 42 86 43
REMARK SMILES IDX 37 44 89 45 83 46 82 47 38 49 70 50 50 51 69 52 51 53 54 54
REMARK SMILES IDX 68 55 87 56 52 57 53 58 67 60 88 61 55 62 39 63 40 64 48 65
REMARK SMILES IDX 41 66 42 67 46 68 49 69 43 70 44 71 47 72 45 73 71 74 72 75
REMARK SMILES IDX 80 76 73 77 74 78 78 79 81 80 75 81 76 82 79 83 77 84 56 85
REMARK SMILES IDX 57 86 65 87 58 88 59 89 63 90 66 91 60 92 61 93 64 94 62 95
REMARK H PARENT 2 9 86 48 54 59
REMARK Flexibility Score: inf
ROOT
ATOM      1  C   UNL A   1      38.553  23.021  26.129  1.00  0.00     0.274 C 
ENDROOT
BRANCH   1   2
ATOM      2  O   UNL A   1      37.403  23.744  25.631  1.00  0.00    -0.458 OA
BRANCH   2   3
ATOM      3  C   UNL A   1      36.664  23.086  24.701  1.00  0.00     0.366 C 
ATOM      4  O   UNL A   1      37.027  22.919  23.536  1.00  0.00    -0.245 OA
BRANCH   3   5
ATOM      5  C   UNL A   1      35.260  22.691  25.125  1.00  0.00     0.314 C 
ATOM      6  C   UNL A   1      35.450  20.227  24.999  1.00  0.00     0.333 C 
ATOM      7  N   UNL A   1      35.030  21.372  25.803  1.00  0.00    -0.323 N 
ATOM      8  C   UNL A   1      33.569  21.254  26.064  1.00  0.00     0.284 C 
ATOM      9  H   UNL A   1      35.590  21.356  26.655  1.00  0.00     0.348 HD
ATOM     10  C   UNL A   1      33.035  22.397  26.947  1.00  0.00     0.181 C 
ATOM     11  C   UNL A   1      34.817  23.836  26.056  1.00  0.00     0.197 C 
ATOM     12  N   UNL A   1      33.405  23.707  26.414  1.00  0.00    -0.326 N 
BRANCH  12  13
ATOM     13  C   UNL A   1      32.461  24.717  26.357  1.00  0.00     0.255 C 
ATOM     14  O   UNL A   1      31.365  24.664  26.909  1.00  0.00    -0.269 OA
BRANCH  13  15
ATOM     15  C   UNL A   1      32.779  25.951  25.619  1.00  0.00     0.060 A 
ATOM     16  C   UNL A   1      33.257  27.038  26.364  1.00  0.00     0.043 A 
ATOM     17  C   UNL A   1      32.516  26.085  24.252  1.00  0.00     0.053 A 
ATOM     18  C   UNL A   1      33.426  28.282  25.742  1.00  0.00     0.065 A 
ATOM     19  C   UNL A   1      32.742  27.314  23.626  1.00  0.00     0.023 A 
ATOM     20  Cl  UNL A   1      31.907  24.789  23.289  1.00  0.00    -0.083 Cl
ATOM     21  C   UNL A   1      33.174  28.417  24.369  1.00  0.00     0.030 A 
BRANCH  18  22
ATOM     22  N   UNL A   1      33.814  29.401  26.521  1.00  0.00    -0.241 N 
ATOM     23  C   UNL A   1      35.077  29.705  26.980  1.00  0.00     0.115 A 
ATOM     24  N   UNL A   1      32.914  30.349  26.885  1.00  0.00    -0.177 NA
ATOM     25  C   UNL A   1      34.977  30.881  27.684  1.00  0.00     0.042 A 
ATOM     26  C   UNL A   1      33.616  31.214  27.617  1.00  0.00     0.135 A 
ENDBRANCH  18  22
ENDBRANCH  13  15
ENDBRANCH  12  13
ENDBRANCH   3   5
ENDBRANCH   2   3
ENDBRANCH   1   2
BRANCH   1  27
ATOM     27  C   UNL A   1      39.741  23.904  26.522  1.00  0.00     0.275 C 
BRANCH  27  28
ATOM     28  O   UNL A   1      39.893  23.999  27.941  1.00  0.00    -0.458 OA
BRANCH  28  29
ATOM     29  C   UNL A   1      40.302  25.227  28.322  1.00  0.00     0.338 C 
ATOM     30  O   UNL A   1      41.452  25.616  28.412  1.00  0.00    -0.246 OA
BRANCH  29  31
ATOM     31  C   UNL A   1      39.203  26.067  28.792  1.00  0.00     0.060 A 
ATOM     32  C   UNL A   1      38.895  27.158  27.966  1.00  0.00     0.016 A 
ATOM     33  C   UNL A   1      39.035  26.102  30.175  1.00  0.00     0.016 A 
ATOM     34  C   UNL A   1      38.711  28.390  28.551  1.00  0.00     0.010 A 
ATOM     35  C   UNL A   1      38.854  27.334  30.757  1.00  0.00     0.010 A 
ATOM     36  C   UNL A   1      38.803  28.471  29.938  1.00  0.00    -0.014 A 
BRANCH  36  37
ATOM     37  C   UNL A   1      38.918  29.786  30.541  1.00  0.00     0.031 A 
ATOM     38  C   UNL A   1      40.242  30.440  30.403  1.00  0.00     0.074 A 
ATOM     39  C   UNL A   1      37.811  30.419  30.980  1.00  0.00     0.049 A 
ATOM     40  N   UNL A   1      40.938  31.072  31.292  1.00  0.00    -0.248 NA
ATOM     41  C   UNL A   1      40.903  30.319  29.093  1.00  0.00     0.031 C 
ATOM     42  C   UNL A   1      36.416  29.982  30.842  1.00  0.00     0.029 A 
ATOM     43  N   UNL A   1      37.692  31.675  31.483  1.00  0.00    -0.354 N 
ATOM     44  C   UNL A   1      42.065  31.543  30.621  1.00  0.00     0.074 A 
ATOM     45  C   UNL A   1      42.053  30.949  29.311  1.00  0.00     0.031 C 
ATOM     46  C   UNL A   1      35.607  31.053  30.998  1.00  0.00     0.029 A 
ATOM     47  C   UNL A   1      36.421  32.208  31.339  1.00  0.00     0.049 A 
ATOM     48  H   UNL A   1      38.437  32.161  31.908  1.00  0.00     0.167 HD
ATOM     49  C   UNL A   1      42.849  32.540  31.108  1.00  0.00     0.037 A 
ATOM     50  C   UNL A   1      36.103  33.526  31.355  1.00  0.00     0.037 A 
ATOM     51  C   UNL A   1      42.693  32.713  32.523  1.00  0.00     0.049 A 
ATOM     52  C   UNL A   1      37.250  34.266  31.947  1.00  0.00     0.074 A 
ATOM     53  C   UNL A   1      42.906  31.901  33.620  1.00  0.00     0.029 A 
ATOM     54  N   UNL A   1      41.949  33.769  32.987  1.00  0.00    -0.354 N 
ATOM     55  N   UNL A   1      37.611  34.198  33.198  1.00  0.00    -0.248 NA
ATOM     56  C   UNL A   1      38.267  34.767  31.031  1.00  0.00     0.031 C 
ATOM     57  C   UNL A   1      41.882  32.250  34.546  1.00  0.00     0.029 A 
ATOM     58  C   UNL A   1      41.124  33.262  33.959  1.00  0.00     0.049 A 
ATOM     59  H   UNL A   1      41.999  34.704  32.684  1.00  0.00     0.167 HD
ATOM     60  C   UNL A   1      38.998  34.262  33.173  1.00  0.00     0.074 A 
ATOM     61  C   UNL A   1      39.339  34.703  31.825  1.00  0.00     0.031 C 
ATOM     62  C   UNL A   1      39.757  33.682  34.149  1.00  0.00     0.037 A 
BRANCH  49  63
ATOM     63  C   UNL A   1      43.563  33.532  30.232  1.00  0.00     0.064 A 
ATOM     64  C   UNL A   1      42.844  34.581  29.631  1.00  0.00     0.173 A 
ATOM     65  C   UNL A   1      44.880  33.343  29.759  1.00  0.00     0.173 A 
ATOM     66  F   UNL A   1      41.570  34.821  29.976  1.00  0.00    -0.203 F 
ATOM     67  C   UNL A   1      43.393  35.355  28.606  1.00  0.00     0.198 A 
ATOM     68  C   UNL A   1      45.446  34.157  28.782  1.00  0.00     0.198 A 
ATOM     69  F   UNL A   1      45.628  32.300  30.144  1.00  0.00    -0.203 F 
ATOM     70  F   UNL A   1      42.635  36.269  27.986  1.00  0.00    -0.200 F 
ATOM     71  C   UNL A   1      44.694  35.147  28.187  1.00  0.00     0.200 A 
ATOM     72  F   UNL A   1      46.702  33.925  28.376  1.00  0.00    -0.200 F 
ATOM     73  F   UNL A   1      45.206  35.860  27.176  1.00  0.00    -0.200 F 
ENDBRANCH  49  63
BRANCH  50  74
ATOM     74  C   UNL A   1      35.037  34.191  30.568  1.00  0.00     0.064 A 
ATOM     75  C   UNL A   1      33.998  34.890  31.198  1.00  0.00     0.173 A 
ATOM     76  C   UNL A   1      35.133  34.347  29.168  1.00  0.00     0.173 A 
ATOM     77  F   UNL A   1      33.873  34.852  32.533  1.00  0.00    -0.203 F 
ATOM     78  C   UNL A   1      33.104  35.687  30.472  1.00  0.00     0.198 A 
ATOM     79  C   UNL A   1      34.231  35.125  28.443  1.00  0.00     0.198 A 
ATOM     80  F   UNL A   1      36.158  33.820  28.483  1.00  0.00    -0.203 F 
ATOM     81  F   UNL A   1      32.154  36.381  31.115  1.00  0.00    -0.200 F 
ATOM     82  C   UNL A   1      33.221  35.802  29.097  1.00  0.00     0.200 A 
ATOM     83  F   UNL A   1      34.382  35.253  27.118  1.00  0.00    -0.200 F 
ATOM     84  F   UNL A   1      32.389  36.594  28.407  1.00  0.00    -0.200 F 
ENDBRANCH  50  74
BRANCH  62  85
ATOM     85  C   UNL A   1      39.064  33.171  35.378  1.00  0.00     0.064 A 
ATOM     86  C   UNL A   1      38.659  31.833  35.532  1.00  0.00     0.173 A 
ATOM     87  C   UNL A   1      38.969  34.006  36.499  1.00  0.00     0.173 A 
ATOM     88  F   UNL A   1      38.829  30.946  34.545  1.00  0.00    -0.203 F 
ATOM     89  C   UNL A   1      38.140  31.367  36.737  1.00  0.00     0.198 A 
ATOM     90  C   UNL A   1      38.485  33.528  37.715  1.00  0.00     0.198 A 
ATOM     91  F   UNL A   1      39.403  35.274  36.432  1.00  0.00    -0.203 F 
ATOM     92  F   UNL A   1      37.757  30.087  36.854  1.00  0.00    -0.200 F 
ATOM     93  C   UNL A   1      38.062  32.213  37.831  1.00  0.00     0.200 A 
ATOM     94  F   UNL A   1      38.462  34.333  38.786  1.00  0.00    -0.200 F 
ATOM     95  F   UNL A   1      37.609  31.753  39.005  1.00  0.00    -0.200 F 
ENDBRANCH  62  85
ENDBRANCH  36  37
ENDBRANCH  29  31
ENDBRANCH  28  29
ENDBRANCH  27  28
ENDBRANCH   1  27
TORSDOF 14
ENDMDL
