MODEL 1
REMARK VINA RESULT:     -10.3      0.000      0.000
REMARK SMILES O=C(OCCOC(=O)c1cnc(OCC2CC2)c(Cl)c1)c1ccc(-c2c3nc(c(-c4c(F)c(F)c(F)c(F)c4F)c4ccc([nH]4)c(-c4c(F)c(F)c(F)c(F)c4F)c4nc(c(-c5c(F)c(F)c(F)c(F)c5F)c5ccc2[nH]5)C=C4)C=C3)cc1
REMARK SMILES IDX 5 1 4 2 3 3 2 4 1 5 21 6 22 7 83 8 23 9 82 10 24 11 25 12
REMARK SMILES IDX 26 13 76 14 27 15 81 16 75 17 77 18 28 19 80 20 74 21 73 22
REMARK SMILES IDX 29 24 61 25 41 26 60 27 42 28 45 29 59 30 78 31 43 32 44 33
REMARK SMILES IDX 58 35 79 36 46 37 30 38 31 39 39 40 32 41 33 42 37 43 40 44
REMARK SMILES IDX 34 45 35 46 38 47 36 48 62 49 63 50 71 51 64 52 65 53 69 54
REMARK SMILES IDX 72 55 66 56 67 57 70 58 68 59 47 60 48 61 56 62 49 63 50 64
REMARK SMILES IDX 54 65 57 66 51 67 52 68 55 69 53 70 6 71 7 72 8 73 9 74
REMARK SMILES IDX 10 75 20 76 11 77 18 78 12 79 19 80 13 81 14 82 15 83 16 84
REMARK SMILES IDX 17 85
REMARK H PARENT 77 23 45 34
REMARK Flexibility Score: inf
ROOT
ATOM      1  C   UNL A   1      41.429  19.795  26.704  1.00  0.00     0.275 C 
ENDROOT
BRANCH   1   2
ATOM      2  C   UNL A   1      40.802  21.133  27.117  1.00  0.00     0.275 C 
BRANCH   2   3
ATOM      3  O   UNL A   1      39.851  21.676  26.187  1.00  0.00    -0.458 OA
BRANCH   3   4
ATOM      4  C   UNL A   1      39.081  22.786  26.266  1.00  0.00     0.338 C 
ATOM      5  O   UNL A   1      37.965  22.767  25.748  1.00  0.00    -0.246 OA
BRANCH   4   6
ATOM      6  C   UNL A   1      39.565  24.092  26.816  1.00  0.00     0.060 A 
ATOM      7  C   UNL A   1      40.314  25.046  26.129  1.00  0.00     0.016 A 
ATOM      8  C   UNL A   1      39.193  24.383  28.141  1.00  0.00     0.016 A 
ATOM      9  C   UNL A   1      40.596  26.289  26.693  1.00  0.00     0.010 A 
ATOM     10  C   UNL A   1      39.462  25.631  28.710  1.00  0.00     0.010 A 
ATOM     11  C   UNL A   1      40.160  26.596  27.980  1.00  0.00    -0.014 A 
BRANCH  11  12
ATOM     12  C   UNL A   1      40.555  27.888  28.575  1.00  0.00     0.031 A 
ATOM     13  C   UNL A   1      41.957  28.043  29.081  1.00  0.00     0.074 A 
ATOM     14  C   UNL A   1      39.677  28.909  28.630  1.00  0.00     0.049 A 
ATOM     15  N   UNL A   1      42.525  29.082  29.636  1.00  0.00    -0.248 NA
ATOM     16  C   UNL A   1      42.846  26.878  28.929  1.00  0.00     0.031 C 
ATOM     17  C   UNL A   1      38.296  28.863  28.152  1.00  0.00     0.029 A 
ATOM     18  N   UNL A   1      39.800  30.167  29.161  1.00  0.00    -0.354 N 
ATOM     19  C   UNL A   1      43.845  28.713  29.844  1.00  0.00     0.074 A 
ATOM     20  C   UNL A   1      43.975  27.328  29.453  1.00  0.00     0.031 C 
ATOM     21  C   UNL A   1      37.676  30.008  28.484  1.00  0.00     0.029 A 
ATOM     22  C   UNL A   1      38.615  30.862  29.198  1.00  0.00     0.049 A 
ATOM     23  H   UNL A   1      40.654  30.537  29.484  1.00  0.00     0.167 HD
ATOM     24  C   UNL A   1      44.871  29.485  30.269  1.00  0.00     0.037 A 
ATOM     25  C   UNL A   1      38.323  32.043  29.775  1.00  0.00     0.037 A 
ATOM     26  C   UNL A   1      44.717  30.851  30.686  1.00  0.00     0.049 A 
ATOM     27  C   UNL A   1      39.448  32.828  30.392  1.00  0.00     0.074 A 
ATOM     28  C   UNL A   1      45.681  31.736  31.129  1.00  0.00     0.029 A 
ATOM     29  N   UNL A   1      43.502  31.523  30.728  1.00  0.00    -0.354 N 
ATOM     30  N   UNL A   1      40.712  32.503  30.515  1.00  0.00    -0.248 NA
ATOM     31  C   UNL A   1      39.117  34.162  30.906  1.00  0.00     0.031 C 
ATOM     32  C   UNL A   1      45.043  32.929  31.486  1.00  0.00     0.029 A 
ATOM     33  C   UNL A   1      43.690  32.807  31.209  1.00  0.00     0.049 A 
ATOM     34  H   UNL A   1      42.637  31.142  30.455  1.00  0.00     0.167 HD
ATOM     35  C   UNL A   1      41.338  33.610  31.068  1.00  0.00     0.074 A 
ATOM     36  C   UNL A   1      40.312  34.615  31.255  1.00  0.00     0.031 C 
ATOM     37  C   UNL A   1      42.647  33.788  31.377  1.00  0.00     0.037 A 
BRANCH  24  38
ATOM     38  C   UNL A   1      46.236  28.865  30.275  1.00  0.00     0.064 A 
ATOM     39  C   UNL A   1      46.696  28.134  31.384  1.00  0.00     0.173 A 
ATOM     40  C   UNL A   1      47.091  28.988  29.172  1.00  0.00     0.173 A 
ATOM     41  F   UNL A   1      45.923  28.003  32.474  1.00  0.00    -0.203 F 
ATOM     42  C   UNL A   1      47.971  27.575  31.397  1.00  0.00     0.198 A 
ATOM     43  C   UNL A   1      48.355  28.403  29.177  1.00  0.00     0.198 A 
ATOM     44  F   UNL A   1      46.702  29.677  28.089  1.00  0.00    -0.203 F 
ATOM     45  F   UNL A   1      48.405  26.926  32.487  1.00  0.00    -0.200 F 
ATOM     46  C   UNL A   1      48.796  27.704  30.291  1.00  0.00     0.200 A 
ATOM     47  F   UNL A   1      49.150  28.521  28.105  1.00  0.00    -0.200 F 
ATOM     48  F   UNL A   1      50.021  27.162  30.302  1.00  0.00    -0.200 F 
ENDBRANCH  24  38
BRANCH  25  49
ATOM     49  C   UNL A   1      36.927  32.555  29.807  1.00  0.00     0.064 A 
ATOM     50  C   UNL A   1      36.387  33.275  28.732  1.00  0.00     0.173 A 
ATOM     51  C   UNL A   1      36.125  32.391  30.946  1.00  0.00     0.173 A 
ATOM     52  F   UNL A   1      37.123  33.482  27.630  1.00  0.00    -0.203 F 
ATOM     53  C   UNL A   1      35.115  33.842  28.809  1.00  0.00     0.198 A 
ATOM     54  C   UNL A   1      34.842  32.932  31.012  1.00  0.00     0.198 A 
ATOM     55  F   UNL A   1      36.598  31.726  32.010  1.00  0.00    -0.203 F 
ATOM     56  F   UNL A   1      34.652  34.583  27.794  1.00  0.00    -0.200 F 
ATOM     57  C   UNL A   1      34.343  33.668  29.948  1.00  0.00     0.200 A 
ATOM     58  F   UNL A   1      34.099  32.759  32.113  1.00  0.00    -0.200 F 
ATOM     59  F   UNL A   1      33.127  34.226  30.027  1.00  0.00    -0.200 F 
ENDBRANCH  25  49
BRANCH  37  60
ATOM     60  C   UNL A   1      43.041  35.142  31.890  1.00  0.00     0.064 A 
ATOM     61  C   UNL A   1      43.490  36.157  31.034  1.00  0.00     0.173 A 
ATOM     62  C   UNL A   1      42.952  35.427  33.262  1.00  0.00     0.173 A 
ATOM     63  F   UNL A   1      43.613  35.925  29.718  1.00  0.00    -0.203 F 
ATOM     64  C   UNL A   1      43.873  37.396  31.537  1.00  0.00     0.198 A 
ATOM     65  C   UNL A   1      43.296  36.681  33.755  1.00  0.00     0.198 A 
ATOM     66  F   UNL A   1      42.522  34.492  34.121  1.00  0.00    -0.203 F 
ATOM     67  F   UNL A   1      44.365  38.329  30.710  1.00  0.00    -0.200 F 
ATOM     68  C   UNL A   1      43.768  37.660  32.895  1.00  0.00     0.200 A 
ATOM     69  F   UNL A   1      43.177  36.938  35.065  1.00  0.00    -0.200 F 
ATOM     70  F   UNL A   1      44.133  38.856  33.376  1.00  0.00    -0.200 F 
ENDBRANCH  37  60
ENDBRANCH  11  12
ENDBRANCH   4   6
ENDBRANCH   3   4
ENDBRANCH   2   3
ENDBRANCH   1   2
BRANCH   1  71
ATOM     71  O   UNL A   1      42.057  19.801  25.409  1.00  0.00    -0.458 OA
BRANCH  71  72
ATOM     72  C   UNL A   1      43.379  19.490  25.407  1.00  0.00     0.339 C 
ATOM     73  O   UNL A   1      43.870  18.376  25.469  1.00  0.00    -0.246 OA
BRANCH  72  74
ATOM     74  C   UNL A   1      44.171  20.706  25.178  1.00  0.00     0.080 A 
ATOM     75  C   UNL A   1      45.531  20.584  25.000  1.00  0.00     0.131 A 
ATOM     76  C   UNL A   1      43.620  21.982  25.136  1.00  0.00     0.043 A 
ATOM     77  N   UNL A   1      46.328  21.624  24.657  1.00  0.00    -0.220 NA
ATOM     78  C   UNL A   1      44.446  23.091  24.865  1.00  0.00     0.104 A 
ATOM     79  C   UNL A   1      45.792  22.872  24.557  1.00  0.00     0.232 A 
ATOM     80  Cl  UNL A   1      43.676  24.626  25.001  1.00  0.00    -0.078 Cl
BRANCH  79  81
ATOM     81  O   UNL A   1      46.737  23.720  24.093  1.00  0.00    -0.476 OA
BRANCH  81  82
ATOM     82  C   UNL A   1      47.268  24.824  24.811  1.00  0.00     0.235 C 
BRANCH  82  83
ATOM     83  C   UNL A   1      47.186  24.645  26.301  1.00  0.00     0.027 C 
ATOM     84  C   UNL A   1      48.166  25.375  27.199  1.00  0.00     0.007 C 
ATOM     85  C   UNL A   1      46.716  25.734  27.235  1.00  0.00     0.007 C 
ENDBRANCH  82  83
ENDBRANCH  81  82
ENDBRANCH  79  81
ENDBRANCH  72  74
ENDBRANCH  71  72
ENDBRANCH   1  71
TORSDOF 14
ENDMDL
MODEL 2
REMARK VINA RESULT:     -10.3      3.569      6.631
REMARK SMILES O=C(OCCOC(=O)c1cnc(OCC2CC2)c(Cl)c1)c1ccc(-c2c3nc(c(-c4c(F)c(F)c(F)c(F)c4F)c4ccc([nH]4)c(-c4c(F)c(F)c(F)c(F)c4F)c4nc(c(-c5c(F)c(F)c(F)c(F)c5F)c5ccc2[nH]5)C=C4)C=C3)cc1
REMARK SMILES IDX 5 1 4 2 3 3 2 4 1 5 21 6 22 7 83 8 23 9 82 10 24 11 25 12
REMARK SMILES IDX 26 13 76 14 27 15 81 16 75 17 77 18 28 19 80 20 74 21 73 22
REMARK SMILES IDX 29 24 61 25 41 26 60 27 42 28 45 29 59 30 78 31 43 32 44 33
REMARK SMILES IDX 58 35 79 36 46 37 30 38 31 39 39 40 32 41 33 42 37 43 40 44
REMARK SMILES IDX 34 45 35 46 38 47 36 48 62 49 63 50 71 51 64 52 65 53 69 54
REMARK SMILES IDX 72 55 66 56 67 57 70 58 68 59 47 60 48 61 56 62 49 63 50 64
REMARK SMILES IDX 54 65 57 66 51 67 52 68 55 69 53 70 6 71 7 72 8 73 9 74
REMARK SMILES IDX 10 75 20 76 11 77 18 78 12 79 19 80 13 81 14 82 15 83 16 84
REMARK SMILES IDX 17 85
REMARK H PARENT 77 23 45 34
REMARK Flexibility Score: inf
ROOT
ATOM      1  C   UNL A   1      42.123  18.736  26.494  1.00  0.00     0.275 C 
ENDROOT
BRANCH   1   2
ATOM      2  C   UNL A   1      43.370  18.148  25.819  1.00  0.00     0.275 C 
BRANCH   2   3
ATOM      3  O   UNL A   1      43.727  18.750  24.564  1.00  0.00    -0.458 OA
BRANCH   3   4
ATOM      4  C   UNL A   1      44.806  19.492  24.222  1.00  0.00     0.338 C 
ATOM      5  O   UNL A   1      45.766  18.930  23.697  1.00  0.00    -0.246 OA
BRANCH   4   6
ATOM      6  C   UNL A   1      44.965  20.937  24.583  1.00  0.00     0.060 A 
ATOM      7  C   UNL A   1      44.663  22.026  23.767  1.00  0.00     0.016 A 
ATOM      8  C   UNL A   1      45.434  21.203  25.883  1.00  0.00     0.016 A 
ATOM      9  C   UNL A   1      44.719  23.332  24.253  1.00  0.00     0.010 A 
ATOM     10  C   UNL A   1      45.483  22.508  26.380  1.00  0.00     0.010 A 
ATOM     11  C   UNL A   1      45.114  23.582  25.565  1.00  0.00    -0.014 A 
BRANCH  11  12
ATOM     12  C   UNL A   1      45.247  24.982  26.012  1.00  0.00     0.031 A 
ATOM     13  C   UNL A   1      46.615  25.592  26.055  1.00  0.00     0.074 A 
ATOM     14  C   UNL A   1      44.154  25.696  26.344  1.00  0.00     0.049 A 
ATOM     15  N   UNL A   1      46.971  26.799  26.410  1.00  0.00    -0.248 NA
ATOM     16  C   UNL A   1      47.734  24.734  25.628  1.00  0.00     0.031 C 
ATOM     17  C   UNL A   1      42.780  25.199  26.322  1.00  0.00     0.029 A 
ATOM     18  N   UNL A   1      44.033  26.978  26.817  1.00  0.00    -0.354 N 
ATOM     19  C   UNL A   1      48.339  26.859  26.193  1.00  0.00     0.074 A 
ATOM     20  C   UNL A   1      48.770  25.545  25.775  1.00  0.00     0.031 C 
ATOM     21  C   UNL A   1      41.963  26.134  26.837  1.00  0.00     0.029 A 
ATOM     22  C   UNL A   1      42.758  27.291  27.226  1.00  0.00     0.049 A 
ATOM     23  H   UNL A   1      44.785  27.613  26.858  1.00  0.00     0.167 HD
ATOM     24  C   UNL A   1      49.152  27.937  26.280  1.00  0.00     0.037 A 
ATOM     25  C   UNL A   1      42.300  28.380  27.871  1.00  0.00     0.037 A 
ATOM     26  C   UNL A   1      48.713  29.228  26.731  1.00  0.00     0.049 A 
ATOM     27  C   UNL A   1      43.256  29.517  28.109  1.00  0.00     0.074 A 
ATOM     28  C   UNL A   1      49.440  30.397  26.855  1.00  0.00     0.029 A 
ATOM     29  N   UNL A   1      47.421  29.510  27.154  1.00  0.00    -0.354 N 
ATOM     30  N   UNL A   1      44.535  29.594  27.829  1.00  0.00    -0.248 NA
ATOM     31  C   UNL A   1      42.696  30.734  28.707  1.00  0.00     0.031 C 
ATOM     32  C   UNL A   1      48.600  31.374  27.399  1.00  0.00     0.029 A 
ATOM     33  C   UNL A   1      47.334  30.831  27.559  1.00  0.00     0.049 A 
ATOM     34  H   UNL A   1      46.676  28.867  27.164  1.00  0.00     0.167 HD
ATOM     35  C   UNL A   1      44.921  30.884  28.163  1.00  0.00     0.074 A 
ATOM     36  C   UNL A   1      43.738  31.552  28.668  1.00  0.00     0.031 C 
ATOM     37  C   UNL A   1      46.138  31.470  28.049  1.00  0.00     0.037 A 
BRANCH  24  38
ATOM     38  C   UNL A   1      50.578  27.753  25.856  1.00  0.00     0.064 A 
ATOM     39  C   UNL A   1      50.947  27.816  24.502  1.00  0.00     0.173 A 
ATOM     40  C   UNL A   1      51.588  27.520  26.799  1.00  0.00     0.173 A 
ATOM     41  F   UNL A   1      50.014  28.017  23.557  1.00  0.00    -0.203 F 
ATOM     42  C   UNL A   1      52.268  27.625  24.107  1.00  0.00     0.198 A 
ATOM     43  C   UNL A   1      52.913  27.359  26.403  1.00  0.00     0.198 A 
ATOM     44  F   UNL A   1      51.290  27.448  28.105  1.00  0.00    -0.203 F 
ATOM     45  F   UNL A   1      52.585  27.639  22.804  1.00  0.00    -0.200 F 
ATOM     46  C   UNL A   1      53.250  27.404  25.058  1.00  0.00     0.200 A 
ATOM     47  F   UNL A   1      53.866  27.152  27.323  1.00  0.00    -0.200 F 
ATOM     48  F   UNL A   1      54.523  27.225  24.678  1.00  0.00    -0.200 F 
ENDBRANCH  24  38
BRANCH  25  49
ATOM     49  C   UNL A   1      40.892  28.456  28.340  1.00  0.00     0.064 A 
ATOM     50  C   UNL A   1      39.874  28.965  27.521  1.00  0.00     0.173 A 
ATOM     51  C   UNL A   1      40.546  28.081  29.647  1.00  0.00     0.173 A 
ATOM     52  F   UNL A   1      40.158  29.362  26.272  1.00  0.00    -0.203 F 
ATOM     53  C   UNL A   1      38.576  29.130  28.002  1.00  0.00     0.198 A 
ATOM     54  C   UNL A   1      39.241  28.218  30.118  1.00  0.00     0.198 A 
ATOM     55  F   UNL A   1      41.483  27.604  30.478  1.00  0.00    -0.203 F 
ATOM     56  F   UNL A   1      37.640  29.684  27.219  1.00  0.00    -0.200 F 
ATOM     57  C   UNL A   1      38.259  28.755  29.299  1.00  0.00     0.200 A 
ATOM     58  F   UNL A   1      38.940  27.850  31.371  1.00  0.00    -0.200 F 
ATOM     59  F   UNL A   1      37.015  28.929  29.765  1.00  0.00    -0.200 F 
ENDBRANCH  25  49
BRANCH  37  60
ATOM     60  C   UNL A   1      46.227  32.921  28.420  1.00  0.00     0.064 A 
ATOM     61  C   UNL A   1      45.987  33.940  27.487  1.00  0.00     0.173 A 
ATOM     62  C   UNL A   1      46.543  33.292  29.736  1.00  0.00     0.173 A 
ATOM     63  F   UNL A   1      45.702  33.635  26.212  1.00  0.00    -0.203 F 
ATOM     64  C   UNL A   1      46.099  35.279  27.850  1.00  0.00     0.198 A 
ATOM     65  C   UNL A   1      46.612  34.631  30.104  1.00  0.00     0.198 A 
ATOM     66  F   UNL A   1      46.775  32.355  30.667  1.00  0.00    -0.203 F 
ATOM     67  F   UNL A   1      45.934  36.236  26.926  1.00  0.00    -0.200 F 
ATOM     68  C   UNL A   1      46.403  35.623  29.159  1.00  0.00     0.200 A 
ATOM     69  F   UNL A   1      46.890  34.961  31.374  1.00  0.00    -0.200 F 
ATOM     70  F   UNL A   1      46.506  36.913  29.506  1.00  0.00    -0.200 F 
ENDBRANCH  37  60
ENDBRANCH  11  12
ENDBRANCH   4   6
ENDBRANCH   3   4
ENDBRANCH   2   3
ENDBRANCH   1   2
BRANCH   1  71
ATOM     71  O   UNL A   1      41.706  20.013  25.976  1.00  0.00    -0.458 OA
BRANCH  71  72
ATOM     72  C   UNL A   1      41.633  21.012  26.893  1.00  0.00     0.339 C 
ATOM     73  O   UNL A   1      42.466  21.295  27.737  1.00  0.00    -0.246 OA
BRANCH  72  74
ATOM     74  C   UNL A   1      40.435  21.824  26.641  1.00  0.00     0.080 A 
ATOM     75  C   UNL A   1      39.493  21.352  25.753  1.00  0.00     0.131 A 
ATOM     76  C   UNL A   1      40.198  23.051  27.249  1.00  0.00     0.043 A 
ATOM     77  N   UNL A   1      38.300  21.960  25.549  1.00  0.00    -0.220 NA
ATOM     78  C   UNL A   1      39.000  23.744  26.985  1.00  0.00     0.104 A 
ATOM     79  C   UNL A   1      38.032  23.135  26.181  1.00  0.00     0.232 A 
ATOM     80  Cl  UNL A   1      38.901  25.321  27.670  1.00  0.00    -0.078 Cl
BRANCH  79  81
ATOM     81  O   UNL A   1      36.753  23.491  25.922  1.00  0.00    -0.476 OA
BRANCH  81  82
ATOM     82  C   UNL A   1      35.677  22.585  25.725  1.00  0.00     0.235 C 
BRANCH  82  83
ATOM     83  C   UNL A   1      34.429  22.994  26.457  1.00  0.00     0.027 C 
ATOM     84  C   UNL A   1      33.183  22.135  26.351  1.00  0.00     0.007 C 
ATOM     85  C   UNL A   1      33.899  22.247  27.657  1.00  0.00     0.007 C 
ENDBRANCH  82  83
ENDBRANCH  81  82
ENDBRANCH  79  81
ENDBRANCH  72  74
ENDBRANCH  71  72
ENDBRANCH   1  71
TORSDOF 14
ENDMDL
MODEL 3
REMARK VINA RESULT:     -10.2      3.753      5.839
REMARK SMILES O=C(OCCOC(=O)c1cnc(OCC2CC2)c(Cl)c1)c1ccc(-c2c3nc(c(-c4c(F)c(F)c(F)c(F)c4F)c4ccc([nH]4)c(-c4c(F)c(F)c(F)c(F)c4F)c4nc(c(-c5c(F)c(F)c(F)c(F)c5F)c5ccc2[nH]5)C=C4)C=C3)cc1
REMARK SMILES IDX 5 1 4 2 3 3 2 4 1 5 21 6 22 7 83 8 23 9 82 10 24 11 25 12
REMARK SMILES IDX 26 13 76 14 27 15 81 16 75 17 77 18 28 19 80 20 74 21 73 22
REMARK SMILES IDX 29 24 61 25 41 26 60 27 42 28 45 29 59 30 78 31 43 32 44 33
REMARK SMILES IDX 58 35 79 36 46 37 30 38 31 39 39 40 32 41 33 42 37 43 40 44
REMARK SMILES IDX 34 45 35 46 38 47 36 48 62 49 63 50 71 51 64 52 65 53 69 54
REMARK SMILES IDX 72 55 66 56 67 57 70 58 68 59 47 60 48 61 56 62 49 63 50 64
REMARK SMILES IDX 54 65 57 66 51 67 52 68 55 69 53 70 6 71 7 72 8 73 9 74
REMARK SMILES IDX 10 75 20 76 11 77 18 78 12 79 19 80 13 81 14 82 15 83 16 84
REMARK SMILES IDX 17 85
REMARK H PARENT 77 23 45 34
REMARK Flexibility Score: inf
ROOT
ATOM      1  C   UNL A   1      43.561  21.030  25.810  1.00  0.00     0.275 C 
ENDROOT
BRANCH   1   2
ATOM      2  C   UNL A   1      44.139  21.864  24.659  1.00  0.00     0.275 C 
BRANCH   2   3
ATOM      3  O   UNL A   1      43.622  23.201  24.552  1.00  0.00    -0.458 OA
BRANCH   3   4
ATOM      4  C   UNL A   1      44.116  24.372  25.015  1.00  0.00     0.338 C 
ATOM      5  O   UNL A   1      45.208  24.756  24.601  1.00  0.00    -0.246 OA
BRANCH   4   6
ATOM      6  C   UNL A   1      43.481  25.158  26.120  1.00  0.00     0.060 A 
ATOM      7  C   UNL A   1      42.456  24.719  26.958  1.00  0.00     0.016 A 
ATOM      8  C   UNL A   1      44.000  26.447  26.343  1.00  0.00     0.016 A 
ATOM      9  C   UNL A   1      42.031  25.483  28.044  1.00  0.00     0.010 A 
ATOM     10  C   UNL A   1      43.587  27.214  27.436  1.00  0.00     0.010 A 
ATOM     11  C   UNL A   1      42.604  26.727  28.300  1.00  0.00    -0.014 A 
BRANCH  11  12
ATOM     12  C   UNL A   1      42.065  27.543  29.406  1.00  0.00     0.031 A 
ATOM     13  C   UNL A   1      42.667  27.386  30.769  1.00  0.00     0.074 A 
ATOM     14  C   UNL A   1      41.074  28.427  29.179  1.00  0.00     0.049 A 
ATOM     15  N   UNL A   1      42.359  27.996  31.883  1.00  0.00    -0.248 NA
ATOM     16  C   UNL A   1      43.776  26.424  30.894  1.00  0.00     0.031 C 
ATOM     17  C   UNL A   1      40.431  28.664  27.888  1.00  0.00     0.029 A 
ATOM     18  N   UNL A   1      40.397  29.253  30.040  1.00  0.00    -0.354 N 
ATOM     19  C   UNL A   1      43.271  27.534  32.821  1.00  0.00     0.074 A 
ATOM     20  C   UNL A   1      44.077  26.522  32.179  1.00  0.00     0.031 C 
ATOM     21  C   UNL A   1      39.402  29.511  28.055  1.00  0.00     0.029 A 
ATOM     22  C   UNL A   1      39.314  29.872  29.463  1.00  0.00     0.049 A 
ATOM     23  H   UNL A   1      40.661  29.389  30.978  1.00  0.00     0.167 HD
ATOM     24  C   UNL A   1      43.454  27.965  34.091  1.00  0.00     0.037 A 
ATOM     25  C   UNL A   1      38.346  30.620  30.025  1.00  0.00     0.037 A 
ATOM     26  C   UNL A   1      42.620  28.948  34.724  1.00  0.00     0.049 A 
ATOM     27  C   UNL A   1      38.472  30.963  31.484  1.00  0.00     0.074 A 
ATOM     28  C   UNL A   1      42.711  29.470  36.000  1.00  0.00     0.029 A 
ATOM     29  N   UNL A   1      41.522  29.546  34.120  1.00  0.00    -0.354 N 
ATOM     30  N   UNL A   1      39.384  30.583  32.347  1.00  0.00    -0.248 NA
ATOM     31  C   UNL A   1      37.465  31.876  32.037  1.00  0.00     0.031 C 
ATOM     32  C   UNL A   1      41.637  30.347  36.186  1.00  0.00     0.029 A 
ATOM     33  C   UNL A   1      40.912  30.418  35.007  1.00  0.00     0.049 A 
ATOM     34  H   UNL A   1      41.221  29.376  33.199  1.00  0.00     0.167 HD
ATOM     35  C   UNL A   1      39.095  31.253  33.527  1.00  0.00     0.074 A 
ATOM     36  C   UNL A   1      37.921  32.063  33.266  1.00  0.00     0.031 C 
ATOM     37  C   UNL A   1      39.749  31.216  34.714  1.00  0.00     0.037 A 
BRANCH  24  38
ATOM     38  C   UNL A   1      44.610  27.384  34.849  1.00  0.00     0.064 A 
ATOM     39  C   UNL A   1      44.459  26.220  35.621  1.00  0.00     0.173 A 
ATOM     40  C   UNL A   1      45.877  27.980  34.803  1.00  0.00     0.173 A 
ATOM     41  F   UNL A   1      43.260  25.621  35.714  1.00  0.00    -0.203 F 
ATOM     42  C   UNL A   1      45.527  25.691  36.340  1.00  0.00     0.198 A 
ATOM     43  C   UNL A   1      46.951  27.432  35.500  1.00  0.00     0.198 A 
ATOM     44  F   UNL A   1      46.075  29.093  34.082  1.00  0.00    -0.203 F 
ATOM     45  F   UNL A   1      45.344  24.609  37.111  1.00  0.00    -0.200 F 
ATOM     46  C   UNL A   1      46.773  26.294  36.274  1.00  0.00     0.200 A 
ATOM     47  F   UNL A   1      48.158  28.009  35.430  1.00  0.00    -0.200 F 
ATOM     48  F   UNL A   1      47.803  25.783  36.963  1.00  0.00    -0.200 F 
ENDBRANCH  24  38
BRANCH  25  49
ATOM     49  C   UNL A   1      37.181  31.089  29.229  1.00  0.00     0.064 A 
ATOM     50  C   UNL A   1      37.079  32.419  28.796  1.00  0.00     0.173 A 
ATOM     51  C   UNL A   1      36.111  30.229  28.940  1.00  0.00     0.173 A 
ATOM     52  F   UNL A   1      38.063  33.288  29.069  1.00  0.00    -0.203 F 
ATOM     53  C   UNL A   1      35.937  32.878  28.140  1.00  0.00     0.198 A 
ATOM     54  C   UNL A   1      34.983  30.681  28.257  1.00  0.00     0.198 A 
ATOM     55  F   UNL A   1      36.150  28.952  29.346  1.00  0.00    -0.203 F 
ATOM     56  F   UNL A   1      35.838  34.170  27.800  1.00  0.00    -0.200 F 
ATOM     57  C   UNL A   1      34.891  32.009  27.869  1.00  0.00     0.200 A 
ATOM     58  F   UNL A   1      33.977  29.836  27.995  1.00  0.00    -0.200 F 
ATOM     59  F   UNL A   1      33.789  32.455  27.252  1.00  0.00    -0.200 F 
ENDBRANCH  25  49
BRANCH  37  60
ATOM     60  C   UNL A   1      39.240  32.126  35.793  1.00  0.00     0.064 A 
ATOM     61  C   UNL A   1      39.684  33.450  35.917  1.00  0.00     0.173 A 
ATOM     62  C   UNL A   1      38.280  31.664  36.708  1.00  0.00     0.173 A 
ATOM     63  F   UNL A   1      40.616  33.931  35.080  1.00  0.00    -0.203 F 
ATOM     64  C   UNL A   1      39.215  34.267  36.941  1.00  0.00     0.198 A 
ATOM     65  C   UNL A   1      37.783  32.497  37.704  1.00  0.00     0.198 A 
ATOM     66  F   UNL A   1      37.819  30.407  36.628  1.00  0.00    -0.203 F 
ATOM     67  F   UNL A   1      39.704  35.506  37.084  1.00  0.00    -0.200 F 
ATOM     68  C   UNL A   1      38.260  33.792  37.828  1.00  0.00     0.200 A 
ATOM     69  F   UNL A   1      36.848  32.041  38.550  1.00  0.00    -0.200 F 
ATOM     70  F   UNL A   1      37.806  34.582  38.811  1.00  0.00    -0.200 F 
ENDBRANCH  37  60
ENDBRANCH  11  12
ENDBRANCH   4   6
ENDBRANCH   3   4
ENDBRANCH   2   3
ENDBRANCH   1   2
BRANCH   1  71
ATOM     71  O   UNL A   1      42.365  20.301  25.482  1.00  0.00    -0.458 OA
BRANCH  71  72
ATOM     72  C   UNL A   1      41.488  20.139  26.507  1.00  0.00     0.339 C 
ATOM     73  O   UNL A   1      41.692  19.566  27.563  1.00  0.00    -0.246 OA
BRANCH  72  74
ATOM     74  C   UNL A   1      40.257  20.889  26.223  1.00  0.00     0.080 A 
ATOM     75  C   UNL A   1      39.271  20.280  25.478  1.00  0.00     0.131 A 
ATOM     76  C   UNL A   1      40.032  22.188  26.662  1.00  0.00     0.043 A 
ATOM     77  N   UNL A   1      38.053  20.835  25.271  1.00  0.00    -0.220 NA
ATOM     78  C   UNL A   1      38.803  22.819  26.384  1.00  0.00     0.104 A 
ATOM     79  C   UNL A   1      37.799  22.086  25.744  1.00  0.00     0.232 A 
ATOM     80  Cl  UNL A   1      38.711  24.477  26.839  1.00  0.00    -0.078 Cl
BRANCH  79  81
ATOM     81  O   UNL A   1      36.498  22.382  25.524  1.00  0.00    -0.476 OA
BRANCH  81  82
ATOM     82  C   UNL A   1      35.661  21.735  24.577  1.00  0.00     0.235 C 
BRANCH  82  83
ATOM     83  C   UNL A   1      34.622  20.859  25.219  1.00  0.00     0.027 C 
ATOM     84  C   UNL A   1      33.259  20.713  24.569  1.00  0.00     0.007 C 
ATOM     85  C   UNL A   1      34.182  19.540  24.630  1.00  0.00     0.007 C 
ENDBRANCH  82  83
ENDBRANCH  81  82
ENDBRANCH  79  81
ENDBRANCH  72  74
ENDBRANCH  71  72
ENDBRANCH   1  71
TORSDOF 14
ENDMDL
