MODEL 1
REMARK VINA RESULT:     -11.0      0.000      0.000
REMARK SMILES CC(C)CC1(CNc2ccnc(C(=O)OCCOC(=O)c3ccc(-c4c5nc(c(-c6c(F)c(F)c(F)c(F)c6F)c6ccc([nH]6)c(-c6c(F)c(F)c(F)c(F)c6F)c6nc(c(-c7c(F)c(F)c(F)c(F)c7F)c7ccc4[nH]7)C=C6)C=C5)cc3)c2)CCCC1
REMARK SMILES IDX 15 1 13 2 14 3 12 4 8 5 9 6 84 7 10 8 11 9 7 10 6 12 5 13
REMARK SMILES IDX 85 14 88 15 86 16 87 17 4 18 2 19 1 20 3 21 16 22 17 23
REMARK SMILES IDX 18 24 19 25 20 26 21 27 22 28 83 29 23 30 82 31 24 32 25 33
REMARK SMILES IDX 26 34 76 35 27 36 81 37 75 38 77 39 28 40 80 41 74 42 73 43
REMARK SMILES IDX 29 45 61 46 41 47 60 48 42 49 45 50 59 51 78 52 43 53 44 54
REMARK SMILES IDX 58 56 79 57 46 58 30 59 31 60 39 61 32 62 33 63 37 64 40 65
REMARK SMILES IDX 34 66 35 67 38 68 36 69 62 70 63 71 71 72 64 73 65 74 69 75
REMARK SMILES IDX 72 76 66 77 67 78 70 79 68 80 47 81 48 82 56 83 49 84 50 85
REMARK SMILES IDX 54 86 57 87 51 88 52 89 55 90 53 91
REMARK H PARENT 7 11 77 44 45 55
REMARK Flexibility Score: inf
ROOT
ATOM      1  O   UNL A   1      33.746  33.907  28.833  1.00  0.00    -0.457 OA
ENDROOT
BRANCH   1   2
ATOM      2  C   UNL A   1      34.977  33.353  28.649  1.00  0.00     0.357 C 
ATOM      3  O   UNL A   1      36.038  33.852  28.994  1.00  0.00    -0.244 OA
BRANCH   2   4
ATOM      4  C   UNL A   1      34.848  31.985  28.054  1.00  0.00     0.150 A 
ATOM      5  C   UNL A   1      33.545  30.145  27.225  1.00  0.00     0.038 A 
ATOM      6  C   UNL A   1      34.713  29.388  27.217  1.00  0.00     0.046 A 
ATOM      7  C   UNL A   1      33.619  31.469  27.668  1.00  0.00     0.061 A 
ATOM      8  C   UNL A   1      35.906  29.992  27.572  1.00  0.00     0.114 A 
ATOM      9  N   UNL A   1      36.004  31.276  27.966  1.00  0.00    -0.249 NA
BRANCH   5  10
ATOM     10  N   UNL A   1      32.309  29.623  26.896  1.00  0.00    -0.384 N 
ATOM     11  H   UNL A   1      31.625  30.235  26.540  1.00  0.00     0.160 HD
BRANCH  10  12
ATOM     12  C   UNL A   1      31.962  28.216  27.049  1.00  0.00     0.119 C 
BRANCH  12  13
ATOM     13  C   UNL A   1      31.792  27.529  25.650  1.00  0.00    -0.012 C 
ATOM     14  C   UNL A   1      30.818  26.342  25.820  1.00  0.00     0.009 C 
ATOM     15  C   UNL A   1      33.078  26.801  25.215  1.00  0.00     0.009 C 
ATOM     16  C   UNL A   1      31.657  25.193  26.375  1.00  0.00     0.001 C 
ATOM     17  C   UNL A   1      33.111  25.519  26.045  1.00  0.00     0.001 C 
BRANCH  13  18
ATOM     18  C   UNL A   1      31.242  28.586  24.642  1.00  0.00     0.012 C 
BRANCH  18  19
ATOM     19  C   UNL A   1      30.150  28.195  23.622  1.00  0.00    -0.017 C 
ATOM     20  C   UNL A   1      29.274  29.358  23.164  1.00  0.00     0.007 C 
ATOM     21  C   UNL A   1      30.819  27.565  22.391  1.00  0.00     0.007 C 
ENDBRANCH  18  19
ENDBRANCH  13  18
ENDBRANCH  12  13
ENDBRANCH  10  12
ENDBRANCH   5  10
ENDBRANCH   2   4
ENDBRANCH   1   2
BRANCH   1  22
ATOM     22  C   UNL A   1      33.613  35.294  28.462  1.00  0.00     0.275 C 
BRANCH  22  23
ATOM     23  C   UNL A   1      32.872  36.103  29.532  1.00  0.00     0.275 C 
BRANCH  23  24
ATOM     24  O   UNL A   1      32.406  35.262  30.605  1.00  0.00    -0.458 OA
BRANCH  24  25
ATOM     25  C   UNL A   1      32.684  35.712  31.849  1.00  0.00     0.338 C 
ATOM     26  O   UNL A   1      32.054  36.526  32.502  1.00  0.00    -0.246 OA
BRANCH  25  27
ATOM     27  C   UNL A   1      33.831  34.973  32.399  1.00  0.00     0.060 A 
ATOM     28  C   UNL A   1      35.089  35.553  32.255  1.00  0.00     0.016 A 
ATOM     29  C   UNL A   1      33.703  33.697  32.948  1.00  0.00     0.016 A 
ATOM     30  C   UNL A   1      36.234  34.868  32.643  1.00  0.00     0.010 A 
ATOM     31  C   UNL A   1      34.856  33.009  33.352  1.00  0.00     0.010 A 
ATOM     32  C   UNL A   1      36.131  33.585  33.188  1.00  0.00    -0.014 A 
BRANCH  32  33
ATOM     33  C   UNL A   1      37.371  32.843  33.525  1.00  0.00     0.031 A 
ATOM     34  C   UNL A   1      38.077  33.108  34.824  1.00  0.00     0.074 A 
ATOM     35  C   UNL A   1      37.836  31.896  32.691  1.00  0.00     0.049 A 
ATOM     36  N   UNL A   1      39.201  32.610  35.274  1.00  0.00    -0.248 NA
ATOM     37  C   UNL A   1      37.431  34.062  35.736  1.00  0.00     0.031 C 
ATOM     38  C   UNL A   1      37.213  31.512  31.424  1.00  0.00     0.029 A 
ATOM     39  N   UNL A   1      38.938  31.082  32.785  1.00  0.00    -0.354 N 
ATOM     40  C   UNL A   1      39.416  33.216  36.504  1.00  0.00     0.074 A 
ATOM     41  C   UNL A   1      38.311  34.125  36.726  1.00  0.00     0.031 C 
ATOM     42  C   UNL A   1      37.936  30.532  30.862  1.00  0.00     0.029 A 
ATOM     43  C   UNL A   1      39.099  30.255  31.702  1.00  0.00     0.049 A 
ATOM     44  H   UNL A   1      39.551  31.090  33.555  1.00  0.00     0.167 HD
ATOM     45  C   UNL A   1      40.443  33.030  37.368  1.00  0.00     0.037 A 
ATOM     46  C   UNL A   1      40.090  29.393  31.403  1.00  0.00     0.037 A 
ATOM     47  C   UNL A   1      41.524  32.100  37.159  1.00  0.00     0.049 A 
ATOM     48  C   UNL A   1      41.233  29.223  32.362  1.00  0.00     0.074 A 
ATOM     49  C   UNL A   1      42.592  31.815  37.992  1.00  0.00     0.029 A 
ATOM     50  N   UNL A   1      41.671  31.303  36.033  1.00  0.00    -0.354 N 
ATOM     51  N   UNL A   1      41.436  29.807  33.518  1.00  0.00    -0.248 NA
ATOM     52  C   UNL A   1      42.292  28.280  31.972  1.00  0.00     0.031 C 
ATOM     53  C   UNL A   1      43.409  30.876  37.351  1.00  0.00     0.029 A 
ATOM     54  C   UNL A   1      42.827  30.543  36.138  1.00  0.00     0.049 A 
ATOM     55  H   UNL A   1      41.048  31.280  35.271  1.00  0.00     0.167 HD
ATOM     56  C   UNL A   1      42.636  29.301  33.997  1.00  0.00     0.074 A 
ATOM     57  C   UNL A   1      43.108  28.346  33.015  1.00  0.00     0.031 C 
ATOM     58  C   UNL A   1      43.290  29.605  35.146  1.00  0.00     0.037 A 
BRANCH  45  59
ATOM     59  C   UNL A   1      40.468  33.887  38.599  1.00  0.00     0.064 A 
ATOM     60  C   UNL A   1      41.197  35.083  38.659  1.00  0.00     0.173 A 
ATOM     61  C   UNL A   1      39.748  33.499  39.740  1.00  0.00     0.173 A 
ATOM     62  F   UNL A   1      41.913  35.491  37.600  1.00  0.00    -0.203 F 
ATOM     63  C   UNL A   1      41.230  35.843  39.826  1.00  0.00     0.198 A 
ATOM     64  C   UNL A   1      39.763  34.274  40.896  1.00  0.00     0.198 A 
ATOM     65  F   UNL A   1      39.031  32.366  39.734  1.00  0.00    -0.203 F 
ATOM     66  F   UNL A   1      41.977  36.955  39.878  1.00  0.00    -0.200 F 
ATOM     67  C   UNL A   1      40.512  35.440  40.942  1.00  0.00     0.200 A 
ATOM     68  F   UNL A   1      39.059  33.889  41.970  1.00  0.00    -0.200 F 
ATOM     69  F   UNL A   1      40.549  36.170  42.065  1.00  0.00    -0.200 F 
ENDBRANCH  45  59
BRANCH  46  70
ATOM     70  C   UNL A   1      40.041  28.651  30.119  1.00  0.00     0.064 A 
ATOM     71  C   UNL A   1      40.620  29.175  28.956  1.00  0.00     0.173 A 
ATOM     72  C   UNL A   1      39.448  27.382  30.040  1.00  0.00     0.173 A 
ATOM     73  F   UNL A   1      41.175  30.395  28.975  1.00  0.00    -0.203 F 
ATOM     74  C   UNL A   1      40.607  28.456  27.762  1.00  0.00     0.198 A 
ATOM     75  C   UNL A   1      39.459  26.654  28.854  1.00  0.00     0.198 A 
ATOM     76  F   UNL A   1      38.877  26.840  31.127  1.00  0.00    -0.203 F 
ATOM     77  F   UNL A   1      41.145  28.989  26.656  1.00  0.00    -0.200 F 
ATOM     78  C   UNL A   1      40.038  27.192  27.714  1.00  0.00     0.200 A 
ATOM     79  F   UNL A   1      38.916  25.430  28.816  1.00  0.00    -0.200 F 
ATOM     80  F   UNL A   1      40.041  26.495  26.570  1.00  0.00    -0.200 F 
ENDBRANCH  46  70
BRANCH  58  81
ATOM     81  C   UNL A   1      44.583  28.892  35.405  1.00  0.00     0.064 A 
ATOM     82  C   UNL A   1      45.812  29.435  35.002  1.00  0.00     0.173 A 
ATOM     83  C   UNL A   1      44.598  27.672  36.098  1.00  0.00     0.173 A 
ATOM     84  F   UNL A   1      45.848  30.591  34.323  1.00  0.00    -0.203 F 
ATOM     85  C   UNL A   1      47.007  28.772  35.266  1.00  0.00     0.198 A 
ATOM     86  C   UNL A   1      45.797  27.024  36.381  1.00  0.00     0.198 A 
ATOM     87  F   UNL A   1      43.450  27.113  36.508  1.00  0.00    -0.203 F 
ATOM     88  F   UNL A   1      48.167  29.290  34.837  1.00  0.00    -0.200 F 
ATOM     89  C   UNL A   1      46.999  27.571  35.960  1.00  0.00     0.200 A 
ATOM     90  F   UNL A   1      45.788  25.868  37.060  1.00  0.00    -0.200 F 
ATOM     91  F   UNL A   1      48.152  26.936  36.218  1.00  0.00    -0.200 F 
ENDBRANCH  58  81
ENDBRANCH  32  33
ENDBRANCH  25  27
ENDBRANCH  24  25
ENDBRANCH  23  24
ENDBRANCH  22  23
ENDBRANCH   1  22
TORSDOF 16
ENDMDL
MODEL 2
REMARK VINA RESULT:     -10.9      4.737      9.538
REMARK SMILES CC(C)CC1(CNc2ccnc(C(=O)OCCOC(=O)c3ccc(-c4c5nc(c(-c6c(F)c(F)c(F)c(F)c6F)c6ccc([nH]6)c(-c6c(F)c(F)c(F)c(F)c6F)c6nc(c(-c7c(F)c(F)c(F)c(F)c7F)c7ccc4[nH]7)C=C6)C=C5)cc3)c2)CCCC1
REMARK SMILES IDX 15 1 13 2 14 3 12 4 8 5 9 6 84 7 10 8 11 9 7 10 6 12 5 13
REMARK SMILES IDX 85 14 88 15 86 16 87 17 4 18 2 19 1 20 3 21 16 22 17 23
REMARK SMILES IDX 18 24 19 25 20 26 21 27 22 28 83 29 23 30 82 31 24 32 25 33
REMARK SMILES IDX 26 34 76 35 27 36 81 37 75 38 77 39 28 40 80 41 74 42 73 43
REMARK SMILES IDX 29 45 61 46 41 47 60 48 42 49 45 50 59 51 78 52 43 53 44 54
REMARK SMILES IDX 58 56 79 57 46 58 30 59 31 60 39 61 32 62 33 63 37 64 40 65
REMARK SMILES IDX 34 66 35 67 38 68 36 69 62 70 63 71 71 72 64 73 65 74 69 75
REMARK SMILES IDX 72 76 66 77 67 78 70 79 68 80 47 81 48 82 56 83 49 84 50 85
REMARK SMILES IDX 54 86 57 87 51 88 52 89 55 90 53 91
REMARK H PARENT 7 11 77 44 45 55
REMARK Flexibility Score: inf
ROOT
ATOM      1  O   UNL A   1      41.501  21.423  25.600  1.00  0.00    -0.457 OA
ENDROOT
BRANCH   1   2
ATOM      2  C   UNL A   1      40.639  21.303  26.648  1.00  0.00     0.357 C 
ATOM      3  O   UNL A   1      40.910  20.818  27.737  1.00  0.00    -0.244 OA
BRANCH   2   4
ATOM      4  C   UNL A   1      39.327  21.946  26.320  1.00  0.00     0.150 A 
ATOM      5  C   UNL A   1      37.138  21.918  25.329  1.00  0.00     0.038 A 
ATOM      6  C   UNL A   1      37.080  23.292  25.545  1.00  0.00     0.046 A 
ATOM      7  C   UNL A   1      38.297  21.238  25.716  1.00  0.00     0.061 A 
ATOM      8  C   UNL A   1      38.130  23.914  26.196  1.00  0.00     0.114 A 
ATOM      9  N   UNL A   1      39.238  23.271  26.609  1.00  0.00    -0.249 NA
BRANCH   5  10
ATOM     10  N   UNL A   1      36.142  21.217  24.678  1.00  0.00    -0.384 N 
ATOM     11  H   UNL A   1      36.306  20.271  24.461  1.00  0.00     0.160 HD
BRANCH  10  12
ATOM     12  C   UNL A   1      34.864  21.800  24.294  1.00  0.00     0.119 C 
BRANCH  12  13
ATOM     13  C   UNL A   1      33.676  20.869  24.716  1.00  0.00    -0.012 C 
ATOM     14  C   UNL A   1      32.493  21.147  23.763  1.00  0.00     0.009 C 
ATOM     15  C   UNL A   1      33.076  21.292  26.071  1.00  0.00     0.009 C 
ATOM     16  C   UNL A   1      31.810  22.401  24.306  1.00  0.00     0.001 C 
ATOM     17  C   UNL A   1      32.236  22.530  25.765  1.00  0.00     0.001 C 
BRANCH  13  18
ATOM     18  C   UNL A   1      34.153  19.385  24.625  1.00  0.00     0.012 C 
BRANCH  18  19
ATOM     19  C   UNL A   1      33.212  18.297  24.062  1.00  0.00    -0.017 C 
ATOM     20  C   UNL A   1      33.919  17.212  23.256  1.00  0.00     0.007 C 
ATOM     21  C   UNL A   1      32.460  17.637  25.228  1.00  0.00     0.007 C 
ENDBRANCH  18  19
ENDBRANCH  13  18
ENDBRANCH  12  13
ENDBRANCH  10  12
ENDBRANCH   5  10
ENDBRANCH   2   4
ENDBRANCH   1   2
BRANCH   1  22
ATOM     22  C   UNL A   1      42.846  20.959  25.828  1.00  0.00     0.275 C 
BRANCH  22  23
ATOM     23  C   UNL A   1      43.885  21.867  25.160  1.00  0.00     0.275 C 
BRANCH  23  24
ATOM     24  O   UNL A   1      43.324  23.147  24.811  1.00  0.00    -0.458 OA
BRANCH  24  25
ATOM     25  C   UNL A   1      44.098  24.214  25.114  1.00  0.00     0.338 C 
ATOM     26  O   UNL A   1      45.135  24.556  24.572  1.00  0.00    -0.246 OA
BRANCH  25  27
ATOM     27  C   UNL A   1      43.440  25.025  26.150  1.00  0.00     0.060 A 
ATOM     28  C   UNL A   1      43.812  26.363  26.242  1.00  0.00     0.016 A 
ATOM     29  C   UNL A   1      42.559  24.474  27.081  1.00  0.00     0.016 A 
ATOM     30  C   UNL A   1      43.324  27.166  27.264  1.00  0.00     0.010 A 
ATOM     31  C   UNL A   1      42.054  25.286  28.107  1.00  0.00     0.010 A 
ATOM     32  C   UNL A   1      42.445  26.634  28.213  1.00  0.00    -0.014 A 
BRANCH  32  33
ATOM     33  C   UNL A   1      41.996  27.491  29.340  1.00  0.00     0.031 A 
ATOM     34  C   UNL A   1      42.780  27.522  30.620  1.00  0.00     0.074 A 
ATOM     35  C   UNL A   1      40.916  28.279  29.195  1.00  0.00     0.049 A 
ATOM     36  N   UNL A   1      42.522  28.155  31.736  1.00  0.00    -0.248 NA
ATOM     37  C   UNL A   1      44.019  26.732  30.648  1.00  0.00     0.031 C 
ATOM     38  C   UNL A   1      40.102  28.376  27.984  1.00  0.00     0.029 A 
ATOM     39  N   UNL A   1      40.321  29.152  30.072  1.00  0.00    -0.354 N 
ATOM     40  C   UNL A   1      43.544  27.814  32.609  1.00  0.00     0.074 A 
ATOM     41  C   UNL A   1      44.423  26.910  31.898  1.00  0.00     0.031 C 
ATOM     42  C   UNL A   1      39.117  29.264  28.191  1.00  0.00     0.029 A 
ATOM     43  C   UNL A   1      39.201  29.759  29.563  1.00  0.00     0.049 A 
ATOM     44  H   UNL A   1      40.666  29.327  30.978  1.00  0.00     0.167 HD
ATOM     45  C   UNL A   1      43.730  28.218  33.889  1.00  0.00     0.037 A 
ATOM     46  C   UNL A   1      38.322  30.596  30.145  1.00  0.00     0.037 A 
ATOM     47  C   UNL A   1      42.872  29.143  34.584  1.00  0.00     0.049 A 
ATOM     48  C   UNL A   1      38.532  31.009  31.574  1.00  0.00     0.074 A 
ATOM     49  C   UNL A   1      42.997  29.641  35.869  1.00  0.00     0.029 A 
ATOM     50  N   UNL A   1      41.726  29.712  34.045  1.00  0.00    -0.354 N 
ATOM     51  N   UNL A   1      39.495  30.674  32.397  1.00  0.00    -0.248 NA
ATOM     52  C   UNL A   1      37.529  31.912  32.158  1.00  0.00     0.031 C 
ATOM     53  C   UNL A   1      41.904  30.478  36.124  1.00  0.00     0.029 A 
ATOM     54  C   UNL A   1      41.121  30.536  34.982  1.00  0.00     0.049 A 
ATOM     55  H   UNL A   1      41.392  29.554  33.133  1.00  0.00     0.167 HD
ATOM     56  C   UNL A   1      39.221  31.325  33.592  1.00  0.00     0.074 A 
ATOM     57  C   UNL A   1      38.011  32.093  33.380  1.00  0.00     0.031 C 
ATOM     58  C   UNL A   1      39.909  31.285  34.760  1.00  0.00     0.037 A 
BRANCH  45  59
ATOM     59  C   UNL A   1      44.886  27.621  34.636  1.00  0.00     0.064 A 
ATOM     60  C   UNL A   1      44.766  26.428  35.364  1.00  0.00     0.173 A 
ATOM     61  C   UNL A   1      46.137  28.258  34.622  1.00  0.00     0.173 A 
ATOM     62  F   UNL A   1      43.588  25.787  35.421  1.00  0.00    -0.203 F 
ATOM     63  C   UNL A   1      45.846  25.912  36.076  1.00  0.00     0.198 A 
ATOM     64  C   UNL A   1      47.222  27.725  35.313  1.00  0.00     0.198 A 
ATOM     65  F   UNL A   1      46.307  29.398  33.937  1.00  0.00    -0.203 F 
ATOM     66  F   UNL A   1      45.694  24.800  36.809  1.00  0.00    -0.200 F 
ATOM     67  C   UNL A   1      47.073  26.559  36.048  1.00  0.00     0.200 A 
ATOM     68  F   UNL A   1      48.409  28.346  35.276  1.00  0.00    -0.200 F 
ATOM     69  F   UNL A   1      48.110  26.064  36.738  1.00  0.00    -0.200 F 
ENDBRANCH  45  59
BRANCH  46  70
ATOM     70  C   UNL A   1      37.149  31.070  29.368  1.00  0.00     0.064 A 
ATOM     71  C   UNL A   1      37.106  32.366  28.838  1.00  0.00     0.173 A 
ATOM     72  C   UNL A   1      36.064  30.220  29.110  1.00  0.00     0.173 A 
ATOM     73  F   UNL A   1      38.107  33.223  29.081  1.00  0.00    -0.203 F 
ATOM     74  C   UNL A   1      36.020  32.792  28.075  1.00  0.00     0.198 A 
ATOM     75  C   UNL A   1      34.992  30.638  28.325  1.00  0.00     0.198 A 
ATOM     76  F   UNL A   1      36.058  28.971  29.601  1.00  0.00    -0.203 F 
ATOM     77  F   UNL A   1      35.989  34.044  27.598  1.00  0.00    -0.200 F 
ATOM     78  C   UNL A   1      34.970  31.925  27.810  1.00  0.00     0.200 A 
ATOM     79  F   UNL A   1      33.985  29.793  28.065  1.00  0.00    -0.200 F 
ATOM     80  F   UNL A   1      33.934  32.330  27.063  1.00  0.00    -0.200 F 
ENDBRANCH  46  70
BRANCH  58  81
ATOM     81  C   UNL A   1      39.372  32.102  35.898  1.00  0.00     0.064 A 
ATOM     82  C   UNL A   1      39.777  33.429  36.101  1.00  0.00     0.173 A 
ATOM     83  C   UNL A   1      38.413  31.565  36.770  1.00  0.00     0.173 A 
ATOM     84  F   UNL A   1      40.703  33.981  35.302  1.00  0.00    -0.203 F 
ATOM     85  C   UNL A   1      39.256  34.183  37.149  1.00  0.00     0.198 A 
ATOM     86  C   UNL A   1      37.878  32.329  37.802  1.00  0.00     0.198 A 
ATOM     87  F   UNL A   1      37.990  30.302  36.615  1.00  0.00    -0.203 F 
ATOM     88  F   UNL A   1      39.688  35.436  37.349  1.00  0.00    -0.200 F 
ATOM     89  C   UNL A   1      38.303  33.635  37.995  1.00  0.00     0.200 A 
ATOM     90  F   UNL A   1      36.949  31.802  38.613  1.00  0.00    -0.200 F 
ATOM     91  F   UNL A   1      37.800  34.364  39.001  1.00  0.00    -0.200 F 
ENDBRANCH  58  81
ENDBRANCH  32  33
ENDBRANCH  25  27
ENDBRANCH  24  25
ENDBRANCH  23  24
ENDBRANCH  22  23
ENDBRANCH   1  22
TORSDOF 16
ENDMDL
MODEL 3
REMARK VINA RESULT:     -10.8      3.894      7.181
REMARK SMILES CC(C)CC1(CNc2ccnc(C(=O)OCCOC(=O)c3ccc(-c4c5nc(c(-c6c(F)c(F)c(F)c(F)c6F)c6ccc([nH]6)c(-c6c(F)c(F)c(F)c(F)c6F)c6nc(c(-c7c(F)c(F)c(F)c(F)c7F)c7ccc4[nH]7)C=C6)C=C5)cc3)c2)CCCC1
REMARK SMILES IDX 15 1 13 2 14 3 12 4 8 5 9 6 84 7 10 8 11 9 7 10 6 12 5 13
REMARK SMILES IDX 85 14 88 15 86 16 87 17 4 18 2 19 1 20 3 21 16 22 17 23
REMARK SMILES IDX 18 24 19 25 20 26 21 27 22 28 83 29 23 30 82 31 24 32 25 33
REMARK SMILES IDX 26 34 76 35 27 36 81 37 75 38 77 39 28 40 80 41 74 42 73 43
REMARK SMILES IDX 29 45 61 46 41 47 60 48 42 49 45 50 59 51 78 52 43 53 44 54
REMARK SMILES IDX 58 56 79 57 46 58 30 59 31 60 39 61 32 62 33 63 37 64 40 65
REMARK SMILES IDX 34 66 35 67 38 68 36 69 62 70 63 71 71 72 64 73 65 74 69 75
REMARK SMILES IDX 72 76 66 77 67 78 70 79 68 80 47 81 48 82 56 83 49 84 50 85
REMARK SMILES IDX 54 86 57 87 51 88 52 89 55 90 53 91
REMARK H PARENT 7 11 77 44 45 55
REMARK Flexibility Score: inf
ROOT
ATOM      1  O   UNL A   1      33.139  34.418  29.315  1.00  0.00    -0.457 OA
ENDROOT
BRANCH   1   2
ATOM      2  C   UNL A   1      32.846  35.729  29.543  1.00  0.00     0.357 C 
ATOM      3  O   UNL A   1      32.185  36.447  28.807  1.00  0.00    -0.244 OA
BRANCH   2   4
ATOM      4  C   UNL A   1      33.359  36.151  30.886  1.00  0.00     0.150 A 
ATOM      5  C   UNL A   1      34.365  35.682  33.016  1.00  0.00     0.038 A 
ATOM      6  C   UNL A   1      34.024  36.975  33.403  1.00  0.00     0.046 A 
ATOM      7  C   UNL A   1      34.009  35.262  31.731  1.00  0.00     0.061 A 
ATOM      8  C   UNL A   1      33.419  37.813  32.485  1.00  0.00     0.114 A 
ATOM      9  N   UNL A   1      33.101  37.440  31.230  1.00  0.00    -0.249 NA
BRANCH   5  10
ATOM     10  N   UNL A   1      34.960  34.774  33.870  1.00  0.00    -0.384 N 
ATOM     11  H   UNL A   1      35.130  35.053  34.799  1.00  0.00     0.160 HD
BRANCH  10  12
ATOM     12  C   UNL A   1      35.350  33.428  33.472  1.00  0.00     0.119 C 
BRANCH  12  13
ATOM     13  C   UNL A   1      36.848  33.395  33.010  1.00  0.00    -0.012 C 
ATOM     14  C   UNL A   1      37.304  31.920  32.985  1.00  0.00     0.009 C 
ATOM     15  C   UNL A   1      37.786  33.981  34.082  1.00  0.00     0.009 C 
ATOM     16  C   UNL A   1      37.657  31.570  34.429  1.00  0.00     0.001 C 
ATOM     17  C   UNL A   1      37.902  32.894  35.148  1.00  0.00     0.001 C 
BRANCH  13  18
ATOM     18  C   UNL A   1      36.945  34.053  31.597  1.00  0.00     0.012 C 
BRANCH  18  19
ATOM     19  C   UNL A   1      38.049  33.617  30.609  1.00  0.00    -0.017 C 
ATOM     20  C   UNL A   1      37.533  33.194  29.236  1.00  0.00     0.007 C 
ATOM     21  C   UNL A   1      39.043  34.775  30.429  1.00  0.00     0.007 C 
ENDBRANCH  18  19
ENDBRANCH  13  18
ENDBRANCH  12  13
ENDBRANCH  10  12
ENDBRANCH   5  10
ENDBRANCH   2   4
ENDBRANCH   1   2
BRANCH   1  22
ATOM     22  C   UNL A   1      33.968  34.145  28.167  1.00  0.00     0.275 C 
BRANCH  22  23
ATOM     23  C   UNL A   1      33.830  32.693  27.696  1.00  0.00     0.275 C 
BRANCH  23  24
ATOM     24  O   UNL A   1      34.465  31.777  28.607  1.00  0.00    -0.458 OA
BRANCH  24  25
ATOM     25  C   UNL A   1      34.522  30.494  28.183  1.00  0.00     0.338 C 
ATOM     26  O   UNL A   1      33.644  29.856  27.628  1.00  0.00    -0.246 OA
BRANCH  25  27
ATOM     27  C   UNL A   1      35.884  29.969  28.374  1.00  0.00     0.060 A 
ATOM     28  C   UNL A   1      36.215  29.509  29.646  1.00  0.00     0.016 A 
ATOM     29  C   UNL A   1      36.851  30.019  27.370  1.00  0.00     0.016 A 
ATOM     30  C   UNL A   1      37.511  29.106  29.939  1.00  0.00     0.010 A 
ATOM     31  C   UNL A   1      38.157  29.600  27.659  1.00  0.00     0.010 A 
ATOM     32  C   UNL A   1      38.499  29.154  28.950  1.00  0.00    -0.014 A 
BRANCH  32  33
ATOM     33  C   UNL A   1      39.893  28.790  29.307  1.00  0.00     0.031 A 
ATOM     34  C   UNL A   1      40.696  29.680  30.210  1.00  0.00     0.074 A 
ATOM     35  C   UNL A   1      40.420  27.635  28.862  1.00  0.00     0.049 A 
ATOM     36  N   UNL A   1      41.944  29.569  30.590  1.00  0.00    -0.248 NA
ATOM     37  C   UNL A   1      40.002  30.854  30.756  1.00  0.00     0.031 C 
ATOM     38  C   UNL A   1      39.724  26.661  28.021  1.00  0.00     0.029 A 
ATOM     39  N   UNL A   1      41.661  27.082  29.060  1.00  0.00    -0.354 N 
ATOM     40  C   UNL A   1      42.195  30.674  31.389  1.00  0.00     0.074 A 
ATOM     41  C   UNL A   1      40.974  31.450  31.434  1.00  0.00     0.031 C 
ATOM     42  C   UNL A   1      40.544  25.627  27.780  1.00  0.00     0.029 A 
ATOM     43  C   UNL A   1      41.838  25.888  28.407  1.00  0.00     0.049 A 
ATOM     44  H   UNL A   1      42.356  27.500  29.618  1.00  0.00     0.167 HD
ATOM     45  C   UNL A   1      43.343  31.010  32.027  1.00  0.00     0.037 A 
ATOM     46  C   UNL A   1      42.929  25.107  28.298  1.00  0.00     0.037 A 
ATOM     47  C   UNL A   1      44.547  30.219  32.008  1.00  0.00     0.049 A 
ATOM     48  C   UNL A   1      44.199  25.513  28.990  1.00  0.00     0.074 A 
ATOM     49  C   UNL A   1      45.748  30.458  32.651  1.00  0.00     0.029 A 
ATOM     50  N   UNL A   1      44.698  29.031  31.306  1.00  0.00    -0.354 N 
ATOM     51  N   UNL A   1      44.433  26.565  29.737  1.00  0.00    -0.248 NA
ATOM     52  C   UNL A   1      45.360  24.628  28.821  1.00  0.00     0.031 C 
ATOM     53  C   UNL A   1      46.642  29.437  32.305  1.00  0.00     0.029 A 
ATOM     54  C   UNL A   1      45.983  28.539  31.481  1.00  0.00     0.049 A 
ATOM     55  H   UNL A   1      43.998  28.602  30.765  1.00  0.00     0.167 HD
ATOM     56  C   UNL A   1      45.760  26.469  30.130  1.00  0.00     0.074 A 
ATOM     57  C   UNL A   1      46.276  25.242  29.556  1.00  0.00     0.031 C 
ATOM     58  C   UNL A   1      46.486  27.322  30.894  1.00  0.00     0.037 A 
BRANCH  45  59
ATOM     59  C   UNL A   1      43.361  32.318  32.763  1.00  0.00     0.064 A 
ATOM     60  C   UNL A   1      43.756  33.514  32.147  1.00  0.00     0.173 A 
ATOM     61  C   UNL A   1      42.975  32.371  34.111  1.00  0.00     0.173 A 
ATOM     62  F   UNL A   1      44.149  33.514  30.863  1.00  0.00    -0.203 F 
ATOM     63  C   UNL A   1      43.797  34.708  32.862  1.00  0.00     0.198 A 
ATOM     64  C   UNL A   1      42.991  33.572  34.816  1.00  0.00     0.198 A 
ATOM     65  F   UNL A   1      42.583  31.257  34.747  1.00  0.00    -0.203 F 
ATOM     66  F   UNL A   1      44.230  35.829  32.267  1.00  0.00    -0.200 F 
ATOM     67  C   UNL A   1      43.412  34.737  34.194  1.00  0.00     0.200 A 
ATOM     68  F   UNL A   1      42.608  33.599  36.100  1.00  0.00    -0.200 F 
ATOM     69  F   UNL A   1      43.455  35.887  34.881  1.00  0.00    -0.200 F 
ENDBRANCH  45  59
BRANCH  46  70
ATOM     70  C   UNL A   1      42.859  23.875  27.473  1.00  0.00     0.064 A 
ATOM     71  C   UNL A   1      43.212  23.890  26.117  1.00  0.00     0.173 A 
ATOM     72  C   UNL A   1      42.475  22.650  28.036  1.00  0.00     0.173 A 
ATOM     73  F   UNL A   1      43.560  25.042  25.527  1.00  0.00    -0.203 F 
ATOM     74  C   UNL A   1      43.183  22.723  25.356  1.00  0.00     0.198 A 
ATOM     75  C   UNL A   1      42.473  21.479  27.282  1.00  0.00     0.198 A 
ATOM     76  F   UNL A   1      42.125  22.587  29.330  1.00  0.00    -0.203 F 
ATOM     77  F   UNL A   1      43.500  22.765  24.055  1.00  0.00    -0.200 F 
ATOM     78  C   UNL A   1      42.825  21.517  25.942  1.00  0.00     0.200 A 
ATOM     79  F   UNL A   1      42.135  20.316  27.854  1.00  0.00    -0.200 F 
ATOM     80  F   UNL A   1      42.814  20.392  25.213  1.00  0.00    -0.200 F 
ENDBRANCH  46  70
BRANCH  58  81
ATOM     81  C   UNL A   1      47.916  26.955  31.159  1.00  0.00     0.064 A 
ATOM     82  C   UNL A   1      48.959  27.457  30.368  1.00  0.00     0.173 A 
ATOM     83  C   UNL A   1      48.249  26.123  32.238  1.00  0.00     0.173 A 
ATOM     84  F   UNL A   1      48.689  28.243  29.315  1.00  0.00    -0.203 F 
ATOM     85  C   UNL A   1      50.284  27.124  30.636  1.00  0.00     0.198 A 
ATOM     86  C   UNL A   1      49.577  25.812  32.518  1.00  0.00     0.198 A 
ATOM     87  F   UNL A   1      47.288  25.620  33.027  1.00  0.00    -0.203 F 
ATOM     88  F   UNL A   1      51.262  27.583  29.842  1.00  0.00    -0.200 F 
ATOM     89  C   UNL A   1      50.592  26.306  31.714  1.00  0.00     0.200 A 
ATOM     90  F   UNL A   1      49.874  25.030  33.565  1.00  0.00    -0.200 F 
ATOM     91  F   UNL A   1      51.869  25.991  31.973  1.00  0.00    -0.200 F 
ENDBRANCH  58  81
ENDBRANCH  32  33
ENDBRANCH  25  27
ENDBRANCH  24  25
ENDBRANCH  23  24
ENDBRANCH  22  23
ENDBRANCH   1  22
TORSDOF 16
ENDMDL
