MODEL 1
REMARK VINA RESULT:     -12.5      0.000      0.000
REMARK SMILES NS(=O)(=O)c1ccc(N2N=C(C(=O)OCCOC(=O)c3ccc(-c4c5nc(c(-c6c(F)c(F)c(F)c(F)c6F)c6ccc([nH]6)c(-c6c(F)c(F)c(F)c(F)c6F)c6nc(c(-c7c(F)c(F)c(F)c(F)c7F)c7ccc4[nH]7)C=C6)C=C5)cc3)C[C@H]2c2cccs2)cc1
REMARK SMILES IDX 15 1 14 2 12 3 13 4 11 5 9 6 10 7 84 8 83 9 8 10 5 11 6 12
REMARK SMILES IDX 91 13 7 14 90 15 2 16 3 17 4 18 1 19 85 22 86 23 89 24 87 25
REMARK SMILES IDX 88 26 16 27 17 28 18 29 19 30 20 31 21 32 82 33 22 34 81 35
REMARK SMILES IDX 23 36 24 37 25 38 75 39 26 40 80 41 74 42 76 43 27 44 79 45
REMARK SMILES IDX 73 46 72 47 28 49 60 50 40 51 59 52 41 53 44 54 58 55 77 56
REMARK SMILES IDX 42 57 43 58 57 60 78 61 45 62 29 63 30 64 38 65 31 66 32 67
REMARK SMILES IDX 36 68 39 69 33 70 34 71 37 72 35 73 61 74 62 75 70 76 63 77
REMARK SMILES IDX 64 78 68 79 71 80 65 81 66 82 69 83 67 84 46 85 47 86 55 87
REMARK SMILES IDX 48 88 49 89 53 90 56 91 50 92 51 93 54 94 52 95
REMARK H PARENT 1 20 1 21 76 48 44 59
REMARK Flexibility Score: inf
ROOT
ATOM      1  C   UNL A   1      32.615  28.180  24.006  1.00  0.00     0.275 C 
ENDROOT
BRANCH   1   2
ATOM      2  O   UNL A   1      33.828  27.587  23.505  1.00  0.00    -0.458 OA
BRANCH   2   3
ATOM      3  C   UNL A   1      33.677  26.429  22.832  1.00  0.00     0.354 C 
ATOM      4  O   UNL A   1      33.665  26.269  21.626  1.00  0.00    -0.245 OA
BRANCH   3   5
ATOM      5  C   UNL A   1      33.645  25.264  23.792  1.00  0.00     0.148 C 
ATOM      6  N   UNL A   1      33.579  23.274  24.489  1.00  0.00    -0.256 N 
ATOM      7  N   UNL A   1      33.506  24.040  23.376  1.00  0.00    -0.169 NA
ATOM      8  C   UNL A   1      33.365  24.046  25.718  1.00  0.00     0.154 C 
ATOM      9  C   UNL A   1      33.865  25.432  25.263  1.00  0.00     0.099 C 
BRANCH   6  10
ATOM     10  C   UNL A   1      33.582  21.896  24.381  1.00  0.00     0.060 A 
ATOM     11  C   UNL A   1      33.608  19.092  24.196  1.00  0.00     0.082 A 
ATOM     12  C   UNL A   1      34.644  19.751  24.861  1.00  0.00     0.024 A 
ATOM     13  C   UNL A   1      32.583  19.818  23.591  1.00  0.00     0.024 A 
ATOM     14  C   UNL A   1      34.622  21.146  24.954  1.00  0.00     0.029 A 
ATOM     15  C   UNL A   1      32.583  21.213  23.679  1.00  0.00     0.029 A 
BRANCH  11  16
ATOM     16  S   UNL A   1      33.624  17.327  24.117  1.00  0.00     0.238 S 
ATOM     17  O   UNL A   1      33.807  16.941  22.734  1.00  0.00    -0.207 OA
ATOM     18  O   UNL A   1      32.560  16.809  24.938  1.00  0.00    -0.207 OA
BRANCH  16  19
ATOM     19  N   UNL A   1      35.044  16.891  24.908  1.00  0.00    -0.225 NA
ATOM     20  H   UNL A   1      34.816  16.446  25.796  1.00  0.00     0.137 HD
ATOM     21  H   UNL A   1      35.606  17.724  25.079  1.00  0.00     0.137 HD
ENDBRANCH  16  19
ENDBRANCH  11  16
ENDBRANCH   6  10
BRANCH   8  22
ATOM     22  C   UNL A   1      31.926  24.020  26.218  1.00  0.00     0.030 A 
ATOM     23  C   UNL A   1      31.271  22.941  26.787  1.00  0.00     0.017 A 
ATOM     24  S   UNL A   1      30.849  25.347  26.024  1.00  0.00    -0.147 S 
ATOM     25  C   UNL A   1      29.890  23.195  27.026  1.00  0.00     0.012 A 
ATOM     26  C   UNL A   1      29.535  24.475  26.671  1.00  0.00     0.065 A 
ENDBRANCH   8  22
ENDBRANCH   3   5
ENDBRANCH   2   3
ENDBRANCH   1   2
BRANCH   1  27
ATOM     27  C   UNL A   1      32.898  29.544  24.643  1.00  0.00     0.275 C 
BRANCH  27  28
ATOM     28  O   UNL A   1      32.712  29.519  26.072  1.00  0.00    -0.458 OA
BRANCH  28  29
ATOM     29  C   UNL A   1      33.068  30.659  26.710  1.00  0.00     0.338 C 
ATOM     30  O   UNL A   1      32.376  31.648  26.892  1.00  0.00    -0.246 OA
BRANCH  29  31
ATOM     31  C   UNL A   1      34.403  30.511  27.310  1.00  0.00     0.060 A 
ATOM     32  C   UNL A   1      34.798  29.222  27.653  1.00  0.00     0.016 A 
ATOM     33  C   UNL A   1      35.202  31.600  27.648  1.00  0.00     0.016 A 
ATOM     34  C   UNL A   1      35.966  28.997  28.368  1.00  0.00     0.010 A 
ATOM     35  C   UNL A   1      36.401  31.375  28.344  1.00  0.00     0.010 A 
ATOM     36  C   UNL A   1      36.781  30.073  28.723  1.00  0.00    -0.014 A 
BRANCH  36  37
ATOM     37  C   UNL A   1      37.995  29.815  29.535  1.00  0.00     0.031 A 
ATOM     38  C   UNL A   1      39.086  28.936  28.999  1.00  0.00     0.074 A 
ATOM     39  C   UNL A   1      38.142  30.417  30.731  1.00  0.00     0.049 A 
ATOM     40  N   UNL A   1      40.180  28.518  29.585  1.00  0.00    -0.248 NA
ATOM     41  C   UNL A   1      38.922  28.455  27.619  1.00  0.00     0.031 C 
ATOM     42  C   UNL A   1      37.183  31.346  31.330  1.00  0.00     0.029 A 
ATOM     43  N   UNL A   1      39.157  30.345  31.651  1.00  0.00    -0.354 N 
ATOM     44  C   UNL A   1      40.817  27.702  28.659  1.00  0.00     0.074 A 
ATOM     45  C   UNL A   1      39.979  27.668  27.479  1.00  0.00     0.031 C 
ATOM     46  C   UNL A   1      37.659  31.766  32.511  1.00  0.00     0.029 A 
ATOM     47  C   UNL A   1      38.926  31.091  32.780  1.00  0.00     0.049 A 
ATOM     48  H   UNL A   1      39.973  29.810  31.515  1.00  0.00     0.167 HD
ATOM     49  C   UNL A   1      41.993  27.043  28.787  1.00  0.00     0.037 A 
ATOM     50  C   UNL A   1      39.637  31.194  33.918  1.00  0.00     0.037 A 
ATOM     51  C   UNL A   1      42.838  27.111  29.952  1.00  0.00     0.049 A 
ATOM     52  C   UNL A   1      40.916  30.417  34.055  1.00  0.00     0.074 A 
ATOM     53  C   UNL A   1      44.056  26.493  30.175  1.00  0.00     0.029 A 
ATOM     54  N   UNL A   1      42.553  27.852  31.092  1.00  0.00    -0.354 N 
ATOM     55  N   UNL A   1      41.497  29.623  33.189  1.00  0.00    -0.248 NA
ATOM     56  C   UNL A   1      41.634  30.542  35.330  1.00  0.00     0.031 C 
ATOM     57  C   UNL A   1      44.484  26.821  31.466  1.00  0.00     0.029 A 
ATOM     58  C   UNL A   1      43.559  27.683  32.030  1.00  0.00     0.049 A 
ATOM     59  H   UNL A   1      41.753  28.414  31.213  1.00  0.00     0.167 HD
ATOM     60  C   UNL A   1      42.653  29.167  33.804  1.00  0.00     0.074 A 
ATOM     61  C   UNL A   1      42.701  29.786  35.113  1.00  0.00     0.031 C 
ATOM     62  C   UNL A   1      43.590  28.309  33.329  1.00  0.00     0.037 A 
BRANCH  49  63
ATOM     63  C   UNL A   1      42.413  26.152  27.654  1.00  0.00     0.064 A 
ATOM     64  C   UNL A   1      43.341  26.563  26.685  1.00  0.00     0.173 A 
ATOM     65  C   UNL A   1      41.885  24.855  27.547  1.00  0.00     0.173 A 
ATOM     66  F   UNL A   1      43.863  27.797  26.731  1.00  0.00    -0.203 F 
ATOM     67  C   UNL A   1      43.699  25.722  25.634  1.00  0.00     0.198 A 
ATOM     68  C   UNL A   1      42.268  24.007  26.512  1.00  0.00     0.198 A 
ATOM     69  F   UNL A   1      40.997  24.410  28.448  1.00  0.00    -0.203 F 
ATOM     70  F   UNL A   1      44.544  26.154  24.689  1.00  0.00    -0.200 F 
ATOM     71  C   UNL A   1      43.167  24.443  25.551  1.00  0.00     0.200 A 
ATOM     72  F   UNL A   1      41.760  22.768  26.440  1.00  0.00    -0.200 F 
ATOM     73  F   UNL A   1      43.512  23.635  24.539  1.00  0.00    -0.200 F 
ENDBRANCH  49  63
BRANCH  50  74
ATOM     74  C   UNL A   1      39.133  32.051  35.022  1.00  0.00     0.064 A 
ATOM     75  C   UNL A   1      38.417  31.503  36.094  1.00  0.00     0.173 A 
ATOM     76  C   UNL A   1      39.378  33.433  35.036  1.00  0.00     0.173 A 
ATOM     77  F   UNL A   1      38.136  30.192  36.113  1.00  0.00    -0.203 F 
ATOM     78  C   UNL A   1      37.958  32.307  37.136  1.00  0.00     0.198 A 
ATOM     79  C   UNL A   1      38.945  34.230  36.092  1.00  0.00     0.198 A 
ATOM     80  F   UNL A   1      40.057  34.004  34.031  1.00  0.00    -0.203 F 
ATOM     81  F   UNL A   1      37.245  31.766  38.133  1.00  0.00    -0.200 F 
ATOM     82  C   UNL A   1      38.231  33.668  37.139  1.00  0.00     0.200 A 
ATOM     83  F   UNL A   1      39.221  35.541  36.097  1.00  0.00    -0.200 F 
ATOM     84  F   UNL A   1      37.800  34.438  38.147  1.00  0.00    -0.200 F 
ENDBRANCH  50  74
BRANCH  62  85
ATOM     85  C   UNL A   1      44.761  28.012  34.219  1.00  0.00     0.064 A 
ATOM     86  C   UNL A   1      44.751  26.926  35.106  1.00  0.00     0.173 A 
ATOM     87  C   UNL A   1      45.919  28.802  34.157  1.00  0.00     0.173 A 
ATOM     88  F   UNL A   1      43.661  26.152  35.215  1.00  0.00    -0.203 F 
ATOM     89  C   UNL A   1      45.851  26.655  35.916  1.00  0.00     0.198 A 
ATOM     90  C   UNL A   1      47.027  28.511  34.947  1.00  0.00     0.198 A 
ATOM     91  F   UNL A   1      45.979  29.849  33.321  1.00  0.00    -0.203 F 
ATOM     92  F   UNL A   1      45.804  25.640  36.789  1.00  0.00    -0.200 F 
ATOM     93  C   UNL A   1      46.991  27.443  35.830  1.00  0.00     0.200 A 
ATOM     94  F   UNL A   1      48.131  29.265  34.855  1.00  0.00    -0.200 F 
ATOM     95  F   UNL A   1      48.050  27.176  36.606  1.00  0.00    -0.200 F 
ENDBRANCH  62  85
ENDBRANCH  36  37
ENDBRANCH  29  31
ENDBRANCH  28  29
ENDBRANCH  27  28
ENDBRANCH   1  27
TORSDOF 15
ENDMDL
MODEL 2
REMARK VINA RESULT:     -12.4      2.350      3.729
REMARK SMILES NS(=O)(=O)c1ccc(N2N=C(C(=O)OCCOC(=O)c3ccc(-c4c5nc(c(-c6c(F)c(F)c(F)c(F)c6F)c6ccc([nH]6)c(-c6c(F)c(F)c(F)c(F)c6F)c6nc(c(-c7c(F)c(F)c(F)c(F)c7F)c7ccc4[nH]7)C=C6)C=C5)cc3)C[C@H]2c2cccs2)cc1
REMARK SMILES IDX 15 1 14 2 12 3 13 4 11 5 9 6 10 7 84 8 83 9 8 10 5 11 6 12
REMARK SMILES IDX 91 13 7 14 90 15 2 16 3 17 4 18 1 19 85 22 86 23 89 24 87 25
REMARK SMILES IDX 88 26 16 27 17 28 18 29 19 30 20 31 21 32 82 33 22 34 81 35
REMARK SMILES IDX 23 36 24 37 25 38 75 39 26 40 80 41 74 42 76 43 27 44 79 45
REMARK SMILES IDX 73 46 72 47 28 49 60 50 40 51 59 52 41 53 44 54 58 55 77 56
REMARK SMILES IDX 42 57 43 58 57 60 78 61 45 62 29 63 30 64 38 65 31 66 32 67
REMARK SMILES IDX 36 68 39 69 33 70 34 71 37 72 35 73 61 74 62 75 70 76 63 77
REMARK SMILES IDX 64 78 68 79 71 80 65 81 66 82 69 83 67 84 46 85 47 86 55 87
REMARK SMILES IDX 48 88 49 89 53 90 56 91 50 92 51 93 54 94 52 95
REMARK H PARENT 1 20 1 21 76 48 44 59
REMARK Flexibility Score: inf
ROOT
ATOM      1  C   UNL A   1      33.688  31.970  27.767  1.00  0.00     0.275 C 
ENDROOT
BRANCH   1   2
ATOM      2  O   UNL A   1      33.392  30.865  26.891  1.00  0.00    -0.458 OA
BRANCH   2   3
ATOM      3  C   UNL A   1      34.110  29.745  27.102  1.00  0.00     0.354 C 
ATOM      4  O   UNL A   1      35.254  29.663  27.508  1.00  0.00    -0.245 OA
BRANCH   3   5
ATOM      5  C   UNL A   1      33.251  28.522  26.887  1.00  0.00     0.148 C 
ATOM      6  N   UNL A   1      32.717  26.531  26.435  1.00  0.00    -0.256 N 
ATOM      7  N   UNL A   1      33.751  27.405  26.449  1.00  0.00    -0.169 NA
ATOM      8  C   UNL A   1      31.414  27.203  26.492  1.00  0.00     0.154 C 
ATOM      9  C   UNL A   1      31.799  28.489  27.250  1.00  0.00     0.099 C 
BRANCH   6  10
ATOM     10  C   UNL A   1      32.938  25.203  26.126  1.00  0.00     0.060 A 
ATOM     11  C   UNL A   1      33.349  22.495  25.496  1.00  0.00     0.082 A 
ATOM     12  C   UNL A   1      32.241  22.867  26.261  1.00  0.00     0.024 A 
ATOM     13  C   UNL A   1      34.271  23.453  25.076  1.00  0.00     0.024 A 
ATOM     14  C   UNL A   1      32.041  24.217  26.566  1.00  0.00     0.029 A 
ATOM     15  C   UNL A   1      34.065  24.796  25.403  1.00  0.00     0.029 A 
BRANCH  11  16
ATOM     16  S   UNL A   1      33.574  20.792  25.083  1.00  0.00     0.238 S 
ATOM     17  O   UNL A   1      34.976  20.582  24.791  1.00  0.00    -0.207 OA
ATOM     18  O   UNL A   1      32.521  20.381  24.191  1.00  0.00    -0.207 OA
BRANCH  16  19
ATOM     19  N   UNL A   1      33.277  19.975  26.524  1.00  0.00    -0.225 NA
ATOM     20  H   UNL A   1      32.444  19.396  26.421  1.00  0.00     0.137 HD
ATOM     21  H   UNL A   1      33.132  20.651  27.274  1.00  0.00     0.137 HD
ENDBRANCH  16  19
ENDBRANCH  11  16
ENDBRANCH   6  10
BRANCH   8  22
ATOM     22  C   UNL A   1      30.782  27.433  25.125  1.00  0.00     0.030 A 
ATOM     23  C   UNL A   1      29.963  26.554  24.437  1.00  0.00     0.017 A 
ATOM     24  S   UNL A   1      31.112  28.825  24.170  1.00  0.00    -0.147 S 
ATOM     25  C   UNL A   1      29.643  27.007  23.125  1.00  0.00     0.012 A 
ATOM     26  C   UNL A   1      30.192  28.239  22.860  1.00  0.00     0.065 A 
ENDBRANCH   8  22
ENDBRANCH   3   5
ENDBRANCH   2   3
ENDBRANCH   1   2
BRANCH   1  27
ATOM     27  C   UNL A   1      32.637  33.075  27.625  1.00  0.00     0.275 C 
BRANCH  27  28
ATOM     28  O   UNL A   1      33.238  34.384  27.567  1.00  0.00    -0.458 OA
BRANCH  28  29
ATOM     29  C   UNL A   1      33.259  35.050  28.746  1.00  0.00     0.338 C 
ATOM     30  O   UNL A   1      32.453  35.880  29.138  1.00  0.00    -0.246 OA
BRANCH  29  31
ATOM     31  C   UNL A   1      34.338  34.536  29.602  1.00  0.00     0.060 A 
ATOM     32  C   UNL A   1      35.628  34.584  29.083  1.00  0.00     0.016 A 
ATOM     33  C   UNL A   1      34.099  33.908  30.821  1.00  0.00     0.016 A 
ATOM     34  C   UNL A   1      36.689  33.980  29.743  1.00  0.00     0.010 A 
ATOM     35  C   UNL A   1      35.174  33.321  31.508  1.00  0.00     0.010 A 
ATOM     36  C   UNL A   1      36.473  33.339  30.964  1.00  0.00    -0.014 A 
BRANCH  36  37
ATOM     37  C   UNL A   1      37.610  32.650  31.623  1.00  0.00     0.031 A 
ATOM     38  C   UNL A   1      38.307  31.517  30.930  1.00  0.00     0.074 A 
ATOM     39  C   UNL A   1      38.050  33.081  32.821  1.00  0.00     0.049 A 
ATOM     40  N   UNL A   1      39.257  30.732  31.371  1.00  0.00    -0.248 NA
ATOM     41  C   UNL A   1      37.872  31.222  29.556  1.00  0.00     0.031 C 
ATOM     42  C   UNL A   1      37.498  34.213  33.564  1.00  0.00     0.029 A 
ATOM     43  N   UNL A   1      39.068  32.621  33.618  1.00  0.00    -0.354 N 
ATOM     44  C   UNL A   1      39.512  29.832  30.344  1.00  0.00     0.074 A 
ATOM     45  C   UNL A   1      38.604  30.156  29.264  1.00  0.00     0.031 C 
ATOM     46  C   UNL A   1      38.190  34.369  34.702  1.00  0.00     0.029 A 
ATOM     47  C   UNL A   1      39.193  33.312  34.797  1.00  0.00     0.049 A 
ATOM     48  H   UNL A   1      39.653  31.869  33.368  1.00  0.00     0.167 HD
ATOM     49  C   UNL A   1      40.421  28.829  30.310  1.00  0.00     0.037 A 
ATOM     50  C   UNL A   1      40.000  33.097  35.853  1.00  0.00     0.037 A 
ATOM     51  C   UNL A   1      41.346  28.537  31.376  1.00  0.00     0.049 A 
ATOM     52  C   UNL A   1      40.969  31.949  35.812  1.00  0.00     0.074 A 
ATOM     53  C   UNL A   1      42.317  27.552  31.434  1.00  0.00     0.029 A 
ATOM     54  N   UNL A   1      41.419  29.239  32.572  1.00  0.00    -0.354 N 
ATOM     55  N   UNL A   1      41.183  31.082  34.851  1.00  0.00    -0.248 NA
ATOM     56  C   UNL A   1      41.802  31.742  37.003  1.00  0.00     0.031 C 
ATOM     57  C   UNL A   1      42.943  27.627  32.682  1.00  0.00     0.029 A 
ATOM     58  C   UNL A   1      42.399  28.690  33.384  1.00  0.00     0.049 A 
ATOM     59  H   UNL A   1      40.857  30.012  32.807  1.00  0.00     0.167 HD
ATOM     60  C   UNL A   1      42.183  30.239  35.313  1.00  0.00     0.074 A 
ATOM     61  C   UNL A   1      42.547  30.708  36.635  1.00  0.00     0.031 C 
ATOM     62  C   UNL A   1      42.748  29.171  34.698  1.00  0.00     0.037 A 
BRANCH  49  63
ATOM     63  C   UNL A   1      40.428  27.942  29.099  1.00  0.00     0.064 A 
ATOM     64  C   UNL A   1      41.199  28.234  27.964  1.00  0.00     0.173 A 
ATOM     65  C   UNL A   1      39.656  26.770  29.082  1.00  0.00     0.173 A 
ATOM     66  F   UNL A   1      41.942  29.351  27.921  1.00  0.00    -0.203 F 
ATOM     67  C   UNL A   1      41.173  27.403  26.847  1.00  0.00     0.198 A 
ATOM     68  C   UNL A   1      39.655  25.926  27.975  1.00  0.00     0.198 A 
ATOM     69  F   UNL A   1      38.902  26.441  30.142  1.00  0.00    -0.203 F 
ATOM     70  F   UNL A   1      41.874  27.730  25.753  1.00  0.00    -0.200 F 
ATOM     71  C   UNL A   1      40.405  26.247  26.855  1.00  0.00     0.200 A 
ATOM     72  F   UNL A   1      38.921  24.804  27.990  1.00  0.00    -0.200 F 
ATOM     73  F   UNL A   1      40.380  25.449  25.778  1.00  0.00    -0.200 F 
ENDBRANCH  49  63
BRANCH  50  74
ATOM     74  C   UNL A   1      39.901  33.979  37.044  1.00  0.00     0.064 A 
ATOM     75  C   UNL A   1      40.649  35.160  37.135  1.00  0.00     0.173 A 
ATOM     76  C   UNL A   1      39.038  33.668  38.106  1.00  0.00     0.173 A 
ATOM     77  F   UNL A   1      41.506  35.488  36.157  1.00  0.00    -0.203 F 
ATOM     78  C   UNL A   1      40.543  35.993  38.247  1.00  0.00     0.198 A 
ATOM     79  C   UNL A   1      38.912  34.515  39.203  1.00  0.00     0.198 A 
ATOM     80  F   UNL A   1      38.303  32.547  38.067  1.00  0.00    -0.203 F 
ATOM     81  F   UNL A   1      41.295  37.100  38.327  1.00  0.00    -0.200 F 
ATOM     82  C   UNL A   1      39.667  35.675  39.275  1.00  0.00     0.200 A 
ATOM     83  F   UNL A   1      38.055  34.210  40.187  1.00  0.00    -0.200 F 
ATOM     84  F   UNL A   1      39.557  36.483  40.339  1.00  0.00    -0.200 F 
ENDBRANCH  50  74
BRANCH  62  85
ATOM     85  C   UNL A   1      43.838  28.453  35.438  1.00  0.00     0.064 A 
ATOM     86  C   UNL A   1      43.553  27.419  36.341  1.00  0.00     0.173 A 
ATOM     87  C   UNL A   1      45.183  28.778  35.213  1.00  0.00     0.173 A 
ATOM     88  F   UNL A   1      42.281  27.082  36.605  1.00  0.00    -0.203 F 
ATOM     89  C   UNL A   1      44.576  26.752  37.010  1.00  0.00     0.198 A 
ATOM     90  C   UNL A   1      46.204  28.091  35.861  1.00  0.00     0.198 A 
ATOM     91  F   UNL A   1      45.508  29.757  34.355  1.00  0.00    -0.203 F 
ATOM     92  F   UNL A   1      44.280  25.797  37.903  1.00  0.00    -0.200 F 
ATOM     93  C   UNL A   1      45.901  27.083  36.764  1.00  0.00     0.200 A 
ATOM     94  F   UNL A   1      47.484  28.404  35.615  1.00  0.00    -0.200 F 
ATOM     95  F   UNL A   1      46.884  26.436  37.404  1.00  0.00    -0.200 F 
ENDBRANCH  62  85
ENDBRANCH  36  37
ENDBRANCH  29  31
ENDBRANCH  28  29
ENDBRANCH  27  28
ENDBRANCH   1  27
TORSDOF 15
ENDMDL
MODEL 3
REMARK VINA RESULT:     -12.4      4.901     10.182
REMARK SMILES NS(=O)(=O)c1ccc(N2N=C(C(=O)OCCOC(=O)c3ccc(-c4c5nc(c(-c6c(F)c(F)c(F)c(F)c6F)c6ccc([nH]6)c(-c6c(F)c(F)c(F)c(F)c6F)c6nc(c(-c7c(F)c(F)c(F)c(F)c7F)c7ccc4[nH]7)C=C6)C=C5)cc3)C[C@H]2c2cccs2)cc1
REMARK SMILES IDX 15 1 14 2 12 3 13 4 11 5 9 6 10 7 84 8 83 9 8 10 5 11 6 12
REMARK SMILES IDX 91 13 7 14 90 15 2 16 3 17 4 18 1 19 85 22 86 23 89 24 87 25
REMARK SMILES IDX 88 26 16 27 17 28 18 29 19 30 20 31 21 32 82 33 22 34 81 35
REMARK SMILES IDX 23 36 24 37 25 38 75 39 26 40 80 41 74 42 76 43 27 44 79 45
REMARK SMILES IDX 73 46 72 47 28 49 60 50 40 51 59 52 41 53 44 54 58 55 77 56
REMARK SMILES IDX 42 57 43 58 57 60 78 61 45 62 29 63 30 64 38 65 31 66 32 67
REMARK SMILES IDX 36 68 39 69 33 70 34 71 37 72 35 73 61 74 62 75 70 76 63 77
REMARK SMILES IDX 64 78 68 79 71 80 65 81 66 82 69 83 67 84 46 85 47 86 55 87
REMARK SMILES IDX 48 88 49 89 53 90 56 91 50 92 51 93 54 94 52 95
REMARK H PARENT 1 20 1 21 76 48 44 59
REMARK Flexibility Score: inf
ROOT
ATOM      1  C   UNL A   1      39.491  21.453  25.761  1.00  0.00     0.275 C 
ENDROOT
BRANCH   1   2
ATOM      2  O   UNL A   1      38.143  21.830  26.103  1.00  0.00    -0.458 OA
BRANCH   2   3
ATOM      3  C   UNL A   1      37.852  23.139  25.967  1.00  0.00     0.354 C 
ATOM      4  O   UNL A   1      38.463  24.086  26.429  1.00  0.00    -0.245 OA
BRANCH   3   5
ATOM      5  C   UNL A   1      36.690  23.323  25.023  1.00  0.00     0.148 C 
ATOM      6  N   UNL A   1      35.011  24.205  24.096  1.00  0.00    -0.256 N 
ATOM      7  N   UNL A   1      35.879  24.334  25.127  1.00  0.00    -0.169 NA
ATOM      8  C   UNL A   1      35.011  22.851  23.530  1.00  0.00     0.154 C 
ATOM      9  C   UNL A   1      36.453  22.415  23.857  1.00  0.00     0.099 C 
BRANCH   6  10
ATOM     10  C   UNL A   1      34.078  25.193  23.849  1.00  0.00     0.060 A 
ATOM     11  C   UNL A   1      32.195  27.225  23.377  1.00  0.00     0.082 A 
ATOM     12  C   UNL A   1      32.667  27.007  24.673  1.00  0.00     0.024 A 
ATOM     13  C   UNL A   1      32.623  26.418  22.324  1.00  0.00     0.024 A 
ATOM     14  C   UNL A   1      33.608  25.998  24.899  1.00  0.00     0.029 A 
ATOM     15  C   UNL A   1      33.551  25.402  22.569  1.00  0.00     0.029 A 
BRANCH  11  16
ATOM     16  S   UNL A   1      31.035  28.528  23.092  1.00  0.00     0.238 S 
ATOM     17  O   UNL A   1      30.905  29.289  24.316  1.00  0.00    -0.207 OA
ATOM     18  O   UNL A   1      29.902  28.002  22.376  1.00  0.00    -0.207 OA
BRANCH  16  19
ATOM     19  N   UNL A   1      31.816  29.543  22.001  1.00  0.00    -0.225 NA
ATOM     20  H   UNL A   1      32.347  30.248  22.512  1.00  0.00     0.137 HD
ATOM     21  H   UNL A   1      31.124  30.002  21.409  1.00  0.00     0.137 HD
ENDBRANCH  16  19
ENDBRANCH  11  16
ENDBRANCH   6  10
BRANCH   8  22
ATOM     22  C   UNL A   1      33.926  21.947  24.100  1.00  0.00     0.030 A 
ATOM     23  C   UNL A   1      32.560  22.175  24.065  1.00  0.00     0.017 A 
ATOM     24  S   UNL A   1      34.278  20.524  25.001  1.00  0.00    -0.147 S 
ATOM     25  C   UNL A   1      31.819  21.208  24.803  1.00  0.00     0.012 A 
ATOM     26  C   UNL A   1      32.634  20.244  25.349  1.00  0.00     0.065 A 
ENDBRANCH   8  22
ENDBRANCH   3   5
ENDBRANCH   2   3
ENDBRANCH   1   2
BRANCH   1  27
ATOM     27  C   UNL A   1      39.755  19.989  26.126  1.00  0.00     0.275 C 
BRANCH  27  28
ATOM     28  O   UNL A   1      40.883  19.451  25.407  1.00  0.00    -0.458 OA
BRANCH  28  29
ATOM     29  C   UNL A   1      42.012  19.314  26.144  1.00  0.00     0.338 C 
ATOM     30  O   UNL A   1      42.526  18.271  26.517  1.00  0.00    -0.246 OA
BRANCH  29  31
ATOM     31  C   UNL A   1      42.656  20.622  26.335  1.00  0.00     0.060 A 
ATOM     32  C   UNL A   1      42.653  21.141  27.626  1.00  0.00     0.016 A 
ATOM     33  C   UNL A   1      43.139  21.387  25.277  1.00  0.00     0.016 A 
ATOM     34  C   UNL A   1      43.090  22.433  27.880  1.00  0.00     0.010 A 
ATOM     35  C   UNL A   1      43.612  22.684  25.532  1.00  0.00     0.010 A 
ATOM     36  C   UNL A   1      43.573  23.221  26.834  1.00  0.00    -0.014 A 
BRANCH  36  37
ATOM     37  C   UNL A   1      43.982  24.619  27.119  1.00  0.00     0.031 A 
ATOM     38  C   UNL A   1      42.981  25.601  27.650  1.00  0.00     0.074 A 
ATOM     39  C   UNL A   1      45.266  24.988  26.952  1.00  0.00     0.049 A 
ATOM     40  N   UNL A   1      43.115  26.883  27.878  1.00  0.00    -0.248 NA
ATOM     41  C   UNL A   1      41.645  25.072  27.962  1.00  0.00     0.031 C 
ATOM     42  C   UNL A   1      46.345  24.107  26.505  1.00  0.00     0.029 A 
ATOM     43  N   UNL A   1      45.882  26.199  27.147  1.00  0.00    -0.354 N 
ATOM     44  C   UNL A   1      41.877  27.320  28.328  1.00  0.00     0.074 A 
ATOM     45  C   UNL A   1      40.997  26.170  28.325  1.00  0.00     0.031 C 
ATOM     46  C   UNL A   1      47.492  24.802  26.471  1.00  0.00     0.029 A 
ATOM     47  C   UNL A   1      47.218  26.189  26.835  1.00  0.00     0.049 A 
ATOM     48  H   UNL A   1      45.410  26.997  27.480  1.00  0.00     0.167 HD
ATOM     49  C   UNL A   1      41.510  28.568  28.708  1.00  0.00     0.037 A 
ATOM     50  C   UNL A   1      48.115  27.193  26.811  1.00  0.00     0.037 A 
ATOM     51  C   UNL A   1      42.403  29.698  28.743  1.00  0.00     0.049 A 
ATOM     52  C   UNL A   1      47.675  28.578  27.191  1.00  0.00     0.074 A 
ATOM     53  C   UNL A   1      42.134  31.001  29.126  1.00  0.00     0.029 A 
ATOM     54  N   UNL A   1      43.744  29.657  28.385  1.00  0.00    -0.354 N 
ATOM     55  N   UNL A   1      46.495  28.991  27.587  1.00  0.00    -0.248 NA
ATOM     56  C   UNL A   1      48.687  29.640  27.116  1.00  0.00     0.031 C 
ATOM     57  C   UNL A   1      43.298  31.757  28.956  1.00  0.00     0.029 A 
ATOM     58  C   UNL A   1      44.307  30.917  28.513  1.00  0.00     0.049 A 
ATOM     59  H   UNL A   1      44.223  28.851  28.085  1.00  0.00     0.167 HD
ATOM     60  C   UNL A   1      46.624  30.352  27.821  1.00  0.00     0.074 A 
ATOM     61  C   UNL A   1      48.004  30.693  27.541  1.00  0.00     0.031 C 
ATOM     62  C   UNL A   1      45.684  31.238  28.230  1.00  0.00     0.037 A 
BRANCH  49  63
ATOM     63  C   UNL A   1      40.070  28.785  29.073  1.00  0.00     0.064 A 
ATOM     64  C   UNL A   1      39.602  28.634  30.387  1.00  0.00     0.173 A 
ATOM     65  C   UNL A   1      39.146  29.166  28.088  1.00  0.00     0.173 A 
ATOM     66  F   UNL A   1      40.440  28.254  31.363  1.00  0.00    -0.203 F 
ATOM     67  C   UNL A   1      38.257  28.824  30.693  1.00  0.00     0.198 A 
ATOM     68  C   UNL A   1      37.808  29.385  28.404  1.00  0.00     0.198 A 
ATOM     69  F   UNL A   1      39.541  29.328  26.816  1.00  0.00    -0.203 F 
ATOM     70  F   UNL A   1      37.820  28.620  31.944  1.00  0.00    -0.200 F 
ATOM     71  C   UNL A   1      37.362  29.205  29.703  1.00  0.00     0.200 A 
ATOM     72  F   UNL A   1      36.948  29.762  27.447  1.00  0.00    -0.200 F 
ATOM     73  F   UNL A   1      36.068  29.387  30.001  1.00  0.00    -0.200 F 
ENDBRANCH  49  63
BRANCH  50  74
ATOM     74  C   UNL A   1      49.511  26.918  26.384  1.00  0.00     0.064 A 
ATOM     75  C   UNL A   1      50.492  26.545  27.313  1.00  0.00     0.173 A 
ATOM     76  C   UNL A   1      49.887  27.002  25.035  1.00  0.00     0.173 A 
ATOM     77  F   UNL A   1      50.188  26.475  28.617  1.00  0.00    -0.203 F 
ATOM     78  C   UNL A   1      51.798  26.274  26.907  1.00  0.00     0.198 A 
ATOM     79  C   UNL A   1      51.183  26.703  24.628  1.00  0.00     0.198 A 
ATOM     80  F   UNL A   1      48.984  27.358  24.108  1.00  0.00    -0.203 F 
ATOM     81  F   UNL A   1      52.727  25.953  27.819  1.00  0.00    -0.200 F 
ATOM     82  C   UNL A   1      52.140  26.343  25.564  1.00  0.00     0.200 A 
ATOM     83  F   UNL A   1      51.506  26.759  23.328  1.00  0.00    -0.200 F 
ATOM     84  F   UNL A   1      53.392  26.070  25.175  1.00  0.00    -0.200 F 
ENDBRANCH  50  74
BRANCH  62  85
ATOM     85  C   UNL A   1      46.123  32.660  28.425  1.00  0.00     0.064 A 
ATOM     86  C   UNL A   1      46.016  33.608  27.397  1.00  0.00     0.173 A 
ATOM     87  C   UNL A   1      46.622  33.086  29.665  1.00  0.00     0.173 A 
ATOM     88  F   UNL A   1      45.562  33.246  26.187  1.00  0.00    -0.203 F 
ATOM     89  C   UNL A   1      46.415  34.927  27.597  1.00  0.00     0.198 A 
ATOM     90  C   UNL A   1      46.992  34.411  29.870  1.00  0.00     0.198 A 
ATOM     91  F   UNL A   1      46.739  32.219  30.681  1.00  0.00    -0.203 F 
ATOM     92  F   UNL A   1      46.347  35.807  26.588  1.00  0.00    -0.200 F 
ATOM     93  C   UNL A   1      46.895  35.330  28.835  1.00  0.00     0.200 A 
ATOM     94  F   UNL A   1      47.446  34.802  31.069  1.00  0.00    -0.200 F 
ATOM     95  F   UNL A   1      47.272  36.601  29.028  1.00  0.00    -0.200 F 
ENDBRANCH  62  85
ENDBRANCH  36  37
ENDBRANCH  29  31
ENDBRANCH  28  29
ENDBRANCH  27  28
ENDBRANCH   1  27
TORSDOF 15
ENDMDL
