MODEL 1
REMARK VINA RESULT:     -14.8      0.000      0.000
REMARK SMILES Cc1ccc(NC(=O)c2cnn3c2NC2=C(C(=O)CCC2)[C@H]3c2ccc(C(=O)OCCOC(=O)c3ccc(-c4c5nc(c(-c6c(F)c(F)c(F)c(F)c6F)c6ccc([nH]6)c(-c6c(F)c(F)c(F)c(F)c6F)c6nc(c(-c7c(F)c(F)c(F)c(F)c7F)c7ccc4[nH]7)C=C6)C=C5)cc3)cc2)cc1
REMARK SMILES IDX 30 1 29 2 27 3 28 4 26 5 23 6 24 7 99 8 25 9 98 10 22 11
REMARK SMILES IDX 9 12 10 13 13 14 11 15 12 16 14 17 15 18 16 20 21 21 17 22
REMARK SMILES IDX 20 23 18 24 19 25 7 26 6 27 8 29 5 30 1 31 2 32 3 33 101 34
REMARK SMILES IDX 4 35 100 36 31 37 32 38 33 39 34 40 35 41 36 42 97 43 37 44
REMARK SMILES IDX 96 45 38 46 39 47 40 48 90 49 41 50 95 51 89 52 91 53 42 54
REMARK SMILES IDX 94 55 88 56 87 57 43 59 75 60 55 61 74 62 56 63 59 64 73 65
REMARK SMILES IDX 92 66 57 67 58 68 72 70 93 71 60 72 44 73 45 74 53 75 46 76
REMARK SMILES IDX 47 77 51 78 54 79 48 80 49 81 52 82 50 83 76 84 77 85 85 86
REMARK SMILES IDX 78 87 79 88 83 89 86 90 80 91 81 92 84 93 82 94 61 95 62 96
REMARK SMILES IDX 70 97 63 98 64 99 68 100 71 101 65 102 66 103 69 104 67 105
REMARK H PARENT 14 19 6 28 91 58 59 69
REMARK Flexibility Score: inf
ROOT
ATOM      1  C   UNL A   1      39.750  21.429  26.339  1.00  0.00     0.275 C 
ENDROOT
BRANCH   1   2
ATOM      2  O   UNL A   1      38.533  22.127  26.037  1.00  0.00    -0.458 OA
BRANCH   2   3
ATOM      3  C   UNL A   1      37.669  21.586  25.144  1.00  0.00     0.338 C 
ATOM      4  O   UNL A   1      37.703  20.477  24.677  1.00  0.00    -0.246 OA
BRANCH   3   5
ATOM      5  C   UNL A   1      36.617  22.581  24.841  1.00  0.00     0.060 A 
ATOM      6  C   UNL A   1      34.818  24.644  24.067  1.00  0.00    -0.019 A 
ATOM      7  C   UNL A   1      35.432  24.657  25.332  1.00  0.00     0.007 A 
ATOM      8  C   UNL A   1      35.103  23.526  23.248  1.00  0.00     0.007 A 
ATOM      9  C   UNL A   1      36.333  23.640  25.712  1.00  0.00     0.016 A 
ATOM     10  C   UNL A   1      35.981  22.511  23.615  1.00  0.00     0.016 A 
BRANCH   6  11
ATOM     11  C   UNL A   1      33.827  25.780  23.631  1.00  0.00     0.175 C 
ATOM     12  C   UNL A   1      30.904  24.610  25.232  1.00  0.00     0.102 A 
ATOM     13  C   UNL A   1      30.516  24.654  23.860  1.00  0.00     0.151 A 
ATOM     14  C   UNL A   1      32.005  25.444  25.278  1.00  0.00     0.142 A 
ATOM     15  N   UNL A   1      31.481  25.135  23.070  1.00  0.00    -0.178 NA
ATOM     16  N   UNL A   1      32.440  25.430  23.960  1.00  0.00    -0.237 N 
ATOM     17  N   UNL A   1      32.804  26.086  26.195  1.00  0.00    -0.343 N 
ATOM     18  C   UNL A   1      33.752  27.031  25.743  1.00  0.00     0.026 C 
ATOM     19  H   UNL A   1      32.717  25.889  27.155  1.00  0.00     0.168 HD
ATOM     20  C   UNL A   1      34.048  27.048  24.419  1.00  0.00     0.044 C 
ATOM     21  C   UNL A   1      34.070  28.262  26.548  1.00  0.00     0.055 C 
ATOM     22  C   UNL A   1      33.510  28.304  23.784  1.00  0.00     0.163 C 
ATOM     23  C   UNL A   1      33.375  29.500  25.971  1.00  0.00     0.014 C 
ATOM     24  O   UNL A   1      33.629  28.494  22.577  1.00  0.00    -0.294 OA
ATOM     25  C   UNL A   1      32.641  29.197  24.669  1.00  0.00     0.081 C 
BRANCH  12  26
ATOM     26  C   UNL A   1      30.297  23.859  26.301  1.00  0.00     0.261 C 
ATOM     27  N   UNL A   1      30.646  22.528  26.476  1.00  0.00    -0.322 N 
ATOM     28  H   UNL A   1      29.999  22.026  27.022  1.00  0.00     0.170 HD
ATOM     29  O   UNL A   1      29.474  24.368  27.061  1.00  0.00    -0.269 OA
BRANCH  27  30
ATOM     30  C   UNL A   1      31.739  21.737  26.032  1.00  0.00     0.041 A 
ATOM     31  C   UNL A   1      34.937  19.228  24.498  1.00  0.00     0.044 C 
ATOM     32  C   UNL A   1      33.815  20.077  25.015  1.00  0.00    -0.051 A 
ATOM     33  C   UNL A   1      33.973  20.758  26.218  1.00  0.00     0.005 A 
ATOM     34  C   UNL A   1      32.609  20.221  24.324  1.00  0.00     0.005 A 
ATOM     35  C   UNL A   1      32.940  21.560  26.718  1.00  0.00     0.026 A 
ATOM     36  C   UNL A   1      31.582  21.034  24.833  1.00  0.00     0.026 A 
ENDBRANCH  27  30
ENDBRANCH  12  26
ENDBRANCH   6  11
ENDBRANCH   3   5
ENDBRANCH   2   3
ENDBRANCH   1   2
BRANCH   1  37
ATOM     37  C   UNL A   1      40.570  21.796  27.596  1.00  0.00     0.275 C 
BRANCH  37  38
ATOM     38  O   UNL A   1      41.388  22.995  27.747  1.00  0.00    -0.458 OA
BRANCH  38  39
ATOM     39  C   UNL A   1      41.661  23.944  26.821  1.00  0.00     0.338 C 
ATOM     40  O   UNL A   1      42.201  23.727  25.754  1.00  0.00    -0.246 OA
BRANCH  39  41
ATOM     41  C   UNL A   1      41.402  25.314  27.274  1.00  0.00     0.060 A 
ATOM     42  C   UNL A   1      41.026  26.301  26.347  1.00  0.00     0.016 A 
ATOM     43  C   UNL A   1      41.456  25.571  28.640  1.00  0.00     0.016 A 
ATOM     44  C   UNL A   1      40.609  27.544  26.809  1.00  0.00     0.010 A 
ATOM     45  C   UNL A   1      40.920  26.741  29.103  1.00  0.00     0.010 A 
ATOM     46  C   UNL A   1      40.553  27.742  28.188  1.00  0.00    -0.014 A 
BRANCH  46  47
ATOM     47  C   UNL A   1      40.532  29.051  28.808  1.00  0.00     0.031 A 
ATOM     48  C   UNL A   1      39.339  29.895  28.911  1.00  0.00     0.074 A 
ATOM     49  C   UNL A   1      41.650  29.249  29.541  1.00  0.00     0.049 A 
ATOM     50  N   UNL A   1      39.397  31.155  29.165  1.00  0.00    -0.248 NA
ATOM     51  C   UNL A   1      37.975  29.409  28.731  1.00  0.00     0.031 C 
ATOM     52  C   UNL A   1      41.875  30.114  30.680  1.00  0.00     0.029 A 
ATOM     53  N   UNL A   1      42.890  28.625  29.328  1.00  0.00    -0.354 N 
ATOM     54  C   UNL A   1      38.127  31.570  29.499  1.00  0.00     0.074 A 
ATOM     55  C   UNL A   1      37.260  30.486  29.094  1.00  0.00     0.031 C 
ATOM     56  C   UNL A   1      43.200  30.178  30.912  1.00  0.00     0.029 A 
ATOM     57  C   UNL A   1      43.870  29.489  29.813  1.00  0.00     0.049 A 
ATOM     58  H   UNL A   1      43.038  27.744  28.914  1.00  0.00     0.167 HD
ATOM     59  C   UNL A   1      37.985  32.702  30.251  1.00  0.00     0.037 A 
ATOM     60  C   UNL A   1      44.717  30.070  28.913  1.00  0.00     0.037 A 
ATOM     61  C   UNL A   1      39.301  33.214  30.632  1.00  0.00     0.049 A 
ATOM     62  C   UNL A   1      44.511  31.560  28.867  1.00  0.00     0.074 A 
ATOM     63  C   UNL A   1      40.049  33.014  31.782  1.00  0.00     0.029 A 
ATOM     64  N   UNL A   1      40.169  33.726  29.675  1.00  0.00    -0.354 N 
ATOM     65  N   UNL A   1      43.365  32.142  29.090  1.00  0.00    -0.248 NA
ATOM     66  C   UNL A   1      45.592  32.504  28.621  1.00  0.00     0.031 C 
ATOM     67  C   UNL A   1      41.387  33.371  31.501  1.00  0.00     0.029 A 
ATOM     68  C   UNL A   1      41.450  33.802  30.187  1.00  0.00     0.049 A 
ATOM     69  H   UNL A   1      39.909  33.994  28.765  1.00  0.00     0.167 HD
ATOM     70  C   UNL A   1      43.549  33.497  29.103  1.00  0.00     0.074 A 
ATOM     71  C   UNL A   1      44.953  33.675  28.777  1.00  0.00     0.031 C 
ATOM     72  C   UNL A   1      42.544  34.367  29.417  1.00  0.00     0.037 A 
BRANCH  59  73
ATOM     73  C   UNL A   1      36.713  33.163  30.935  1.00  0.00     0.064 A 
ATOM     74  C   UNL A   1      35.729  33.889  30.222  1.00  0.00     0.173 A 
ATOM     75  C   UNL A   1      36.400  32.924  32.285  1.00  0.00     0.173 A 
ATOM     76  F   UNL A   1      35.833  34.111  28.905  1.00  0.00    -0.203 F 
ATOM     77  C   UNL A   1      34.588  34.417  30.828  1.00  0.00     0.198 A 
ATOM     78  C   UNL A   1      35.268  33.478  32.901  1.00  0.00     0.198 A 
ATOM     79  F   UNL A   1      37.153  32.111  33.038  1.00  0.00    -0.203 F 
ATOM     80  F   UNL A   1      33.708  35.113  30.093  1.00  0.00    -0.200 F 
ATOM     81  C   UNL A   1      34.369  34.235  32.175  1.00  0.00     0.200 A 
ATOM     82  F   UNL A   1      35.052  33.271  34.208  1.00  0.00    -0.200 F 
ATOM     83  F   UNL A   1      33.288  34.764  32.763  1.00  0.00    -0.200 F 
ENDBRANCH  59  73
BRANCH  60  84
ATOM     84  C   UNL A   1      45.011  29.206  27.726  1.00  0.00     0.064 A 
ATOM     85  C   UNL A   1      46.039  28.244  27.833  1.00  0.00     0.173 A 
ATOM     86  C   UNL A   1      44.119  29.065  26.655  1.00  0.00     0.173 A 
ATOM     87  F   UNL A   1      46.918  28.315  28.847  1.00  0.00    -0.203 F 
ATOM     88  C   UNL A   1      46.114  27.150  26.971  1.00  0.00     0.198 A 
ATOM     89  C   UNL A   1      44.203  27.970  25.787  1.00  0.00     0.198 A 
ATOM     90  F   UNL A   1      43.110  29.931  26.491  1.00  0.00    -0.203 F 
ATOM     91  F   UNL A   1      47.051  26.209  27.164  1.00  0.00    -0.200 F 
ATOM     92  C   UNL A   1      45.183  27.003  25.960  1.00  0.00     0.200 A 
ATOM     93  F   UNL A   1      43.286  27.814  24.819  1.00  0.00    -0.200 F 
ATOM     94  F   UNL A   1      45.206  25.920  25.170  1.00  0.00    -0.200 F 
ENDBRANCH  60  84
BRANCH  72  95
ATOM     95  C   UNL A   1      42.550  35.853  29.169  1.00  0.00     0.064 A 
ATOM     96  C   UNL A   1      43.295  36.761  29.936  1.00  0.00     0.173 A 
ATOM     97  C   UNL A   1      41.924  36.393  28.018  1.00  0.00     0.173 A 
ATOM     98  F   UNL A   1      44.037  36.356  30.975  1.00  0.00    -0.203 F 
ATOM     99  C   UNL A   1      43.355  38.118  29.615  1.00  0.00     0.198 A 
ATOM    100  C   UNL A   1      42.044  37.734  27.664  1.00  0.00     0.198 A 
ATOM    101  F   UNL A   1      41.205  35.634  27.177  1.00  0.00    -0.203 F 
ATOM    102  F   UNL A   1      44.044  38.951  30.407  1.00  0.00    -0.200 F 
ATOM    103  C   UNL A   1      42.744  38.601  28.474  1.00  0.00     0.200 A 
ATOM    104  F   UNL A   1      41.499  38.171  26.521  1.00  0.00    -0.200 F 
ATOM    105  F   UNL A   1      42.853  39.893  28.142  1.00  0.00    -0.200 F 
ENDBRANCH  72  95
ENDBRANCH  46  47
ENDBRANCH  39  41
ENDBRANCH  38  39
ENDBRANCH  37  38
ENDBRANCH   1  37
TORSDOF 14
ENDMDL
MODEL 2
REMARK VINA RESULT:     -14.5      3.977     10.109
REMARK SMILES Cc1ccc(NC(=O)c2cnn3c2NC2=C(C(=O)CCC2)[C@H]3c2ccc(C(=O)OCCOC(=O)c3ccc(-c4c5nc(c(-c6c(F)c(F)c(F)c(F)c6F)c6ccc([nH]6)c(-c6c(F)c(F)c(F)c(F)c6F)c6nc(c(-c7c(F)c(F)c(F)c(F)c7F)c7ccc4[nH]7)C=C6)C=C5)cc3)cc2)cc1
REMARK SMILES IDX 30 1 29 2 27 3 28 4 26 5 23 6 24 7 99 8 25 9 98 10 22 11
REMARK SMILES IDX 9 12 10 13 13 14 11 15 12 16 14 17 15 18 16 20 21 21 17 22
REMARK SMILES IDX 20 23 18 24 19 25 7 26 6 27 8 29 5 30 1 31 2 32 3 33 101 34
REMARK SMILES IDX 4 35 100 36 31 37 32 38 33 39 34 40 35 41 36 42 97 43 37 44
REMARK SMILES IDX 96 45 38 46 39 47 40 48 90 49 41 50 95 51 89 52 91 53 42 54
REMARK SMILES IDX 94 55 88 56 87 57 43 59 75 60 55 61 74 62 56 63 59 64 73 65
REMARK SMILES IDX 92 66 57 67 58 68 72 70 93 71 60 72 44 73 45 74 53 75 46 76
REMARK SMILES IDX 47 77 51 78 54 79 48 80 49 81 52 82 50 83 76 84 77 85 85 86
REMARK SMILES IDX 78 87 79 88 83 89 86 90 80 91 81 92 84 93 82 94 61 95 62 96
REMARK SMILES IDX 70 97 63 98 64 99 68 100 71 101 65 102 66 103 69 104 67 105
REMARK H PARENT 14 19 6 28 91 58 59 69
REMARK Flexibility Score: inf
ROOT
ATOM      1  C   UNL A   1      33.912  32.131  27.741  1.00  0.00     0.275 C 
ENDROOT
BRANCH   1   2
ATOM      2  O   UNL A   1      33.795  30.778  27.273  1.00  0.00    -0.458 OA
BRANCH   2   3
ATOM      3  C   UNL A   1      32.633  30.380  26.698  1.00  0.00     0.338 C 
ATOM      4  O   UNL A   1      31.697  31.072  26.390  1.00  0.00    -0.246 OA
BRANCH   3   5
ATOM      5  C   UNL A   1      32.700  28.921  26.461  1.00  0.00     0.060 A 
ATOM      6  C   UNL A   1      32.824  26.083  26.336  1.00  0.00    -0.019 A 
ATOM      7  C   UNL A   1      33.969  26.867  26.110  1.00  0.00     0.007 A 
ATOM      8  C   UNL A   1      31.620  26.789  26.562  1.00  0.00     0.007 A 
ATOM      9  C   UNL A   1      33.910  28.275  26.184  1.00  0.00     0.016 A 
ATOM     10  C   UNL A   1      31.546  28.176  26.627  1.00  0.00     0.016 A 
BRANCH   6  11
ATOM     11  C   UNL A   1      32.886  24.515  26.271  1.00  0.00     0.175 C 
ATOM     12  C   UNL A   1      32.496  24.088  22.786  1.00  0.00     0.102 A 
ATOM     13  C   UNL A   1      31.388  23.364  23.318  1.00  0.00     0.151 A 
ATOM     14  C   UNL A   1      33.360  24.182  23.860  1.00  0.00     0.142 A 
ATOM     15  N   UNL A   1      31.380  23.351  24.656  1.00  0.00    -0.178 NA
ATOM     16  N   UNL A   1      32.504  24.024  24.942  1.00  0.00    -0.237 N 
ATOM     17  N   UNL A   1      34.665  24.517  24.139  1.00  0.00    -0.343 N 
ATOM     18  C   UNL A   1      35.181  24.272  25.431  1.00  0.00     0.026 C 
ATOM     19  H   UNL A   1      35.234  24.922  23.445  1.00  0.00     0.168 HD
ATOM     20  C   UNL A   1      34.297  24.004  26.424  1.00  0.00     0.044 C 
ATOM     21  C   UNL A   1      36.612  23.853  25.633  1.00  0.00     0.055 C 
ATOM     22  C   UNL A   1      34.418  22.564  26.851  1.00  0.00     0.163 C 
ATOM     23  C   UNL A   1      36.718  22.348  25.903  1.00  0.00     0.014 C 
ATOM     24  O   UNL A   1      33.672  22.101  27.708  1.00  0.00    -0.294 OA
ATOM     25  C   UNL A   1      35.351  21.683  26.018  1.00  0.00     0.081 C 
BRANCH  12  26
ATOM     26  C   UNL A   1      32.657  24.608  21.453  1.00  0.00     0.261 C 
ATOM     27  N   UNL A   1      32.088  25.831  21.129  1.00  0.00    -0.322 N 
ATOM     28  H   UNL A   1      32.000  25.973  20.158  1.00  0.00     0.170 HD
ATOM     29  O   UNL A   1      33.285  23.991  20.592  1.00  0.00    -0.269 OA
BRANCH  27  30
ATOM     30  C   UNL A   1      31.606  26.919  21.902  1.00  0.00     0.041 A 
ATOM     31  C   UNL A   1      29.903  30.156  24.248  1.00  0.00     0.044 C 
ATOM     32  C   UNL A   1      30.465  29.035  23.428  1.00  0.00    -0.051 A 
ATOM     33  C   UNL A   1      31.789  29.095  23.004  1.00  0.00     0.005 A 
ATOM     34  C   UNL A   1      29.708  27.913  23.078  1.00  0.00     0.005 A 
ATOM     35  C   UNL A   1      32.337  28.058  22.241  1.00  0.00     0.026 A 
ATOM     36  C   UNL A   1      30.270  26.874  22.316  1.00  0.00     0.026 A 
ENDBRANCH  27  30
ENDBRANCH  12  26
ENDBRANCH   6  11
ENDBRANCH   3   5
ENDBRANCH   2   3
ENDBRANCH   1   2
BRANCH   1  37
ATOM     37  C   UNL A   1      35.295  32.816  27.812  1.00  0.00     0.275 C 
BRANCH  37  38
ATOM     38  O   UNL A   1      36.420  32.358  28.621  1.00  0.00    -0.458 OA
BRANCH  38  39
ATOM     39  C   UNL A   1      36.397  31.551  29.707  1.00  0.00     0.338 C 
ATOM     40  O   UNL A   1      35.657  31.702  30.660  1.00  0.00    -0.246 OA
BRANCH  39  41
ATOM     41  C   UNL A   1      37.466  30.547  29.731  1.00  0.00     0.060 A 
ATOM     42  C   UNL A   1      37.207  29.256  30.219  1.00  0.00     0.016 A 
ATOM     43  C   UNL A   1      38.695  30.892  29.180  1.00  0.00     0.016 A 
ATOM     44  C   UNL A   1      38.172  28.266  30.070  1.00  0.00     0.010 A 
ATOM     45  C   UNL A   1      39.590  29.893  28.910  1.00  0.00     0.010 A 
ATOM     46  C   UNL A   1      39.350  28.600  29.405  1.00  0.00    -0.014 A 
BRANCH  46  47
ATOM     47  C   UNL A   1      40.576  27.835  29.516  1.00  0.00     0.031 A 
ATOM     48  C   UNL A   1      40.811  26.555  28.842  1.00  0.00     0.074 A 
ATOM     49  C   UNL A   1      41.562  28.590  30.047  1.00  0.00     0.049 A 
ATOM     50  N   UNL A   1      41.749  25.746  29.194  1.00  0.00    -0.248 NA
ATOM     51  C   UNL A   1      40.016  26.060  27.724  1.00  0.00     0.031 C 
ATOM     52  C   UNL A   1      43.000  28.474  29.911  1.00  0.00     0.029 A 
ATOM     53  N   UNL A   1      41.381  29.697  30.892  1.00  0.00    -0.354 N 
ATOM     54  C   UNL A   1      41.894  24.818  28.188  1.00  0.00     0.074 A 
ATOM     55  C   UNL A   1      40.719  24.975  27.360  1.00  0.00     0.031 C 
ATOM     56  C   UNL A   1      43.580  29.277  30.824  1.00  0.00     0.029 A 
ATOM     57  C   UNL A   1      42.523  29.796  31.686  1.00  0.00     0.049 A 
ATOM     58  H   UNL A   1      40.596  30.291  30.918  1.00  0.00     0.167 HD
ATOM     59  C   UNL A   1      43.086  24.159  28.072  1.00  0.00     0.037 A 
ATOM     60  C   UNL A   1      42.399  29.549  33.023  1.00  0.00     0.037 A 
ATOM     61  C   UNL A   1      44.037  24.675  29.055  1.00  0.00     0.049 A 
ATOM     62  C   UNL A   1      43.165  28.313  33.414  1.00  0.00     0.074 A 
ATOM     63  C   UNL A   1      45.012  25.653  28.939  1.00  0.00     0.029 A 
ATOM     64  N   UNL A   1      43.834  24.473  30.415  1.00  0.00    -0.354 N 
ATOM     65  N   UNL A   1      43.355  27.296  32.621  1.00  0.00    -0.248 NA
ATOM     66  C   UNL A   1      43.817  28.160  34.706  1.00  0.00     0.031 C 
ATOM     67  C   UNL A   1      45.372  26.069  30.241  1.00  0.00     0.029 A 
ATOM     68  C   UNL A   1      44.626  25.337  31.148  1.00  0.00     0.049 A 
ATOM     69  H   UNL A   1      43.217  23.810  30.800  1.00  0.00     0.167 HD
ATOM     70  C   UNL A   1      44.196  26.406  33.232  1.00  0.00     0.074 A 
ATOM     71  C   UNL A   1      44.435  26.978  34.545  1.00  0.00     0.031 C 
ATOM     72  C   UNL A   1      44.661  25.290  32.599  1.00  0.00     0.037 A 
BRANCH  59  73
ATOM     73  C   UNL A   1      43.526  23.316  26.892  1.00  0.00     0.064 A 
ATOM     74  C   UNL A   1      43.132  21.960  26.783  1.00  0.00     0.173 A 
ATOM     75  C   UNL A   1      44.332  23.778  25.836  1.00  0.00     0.173 A 
ATOM     76  F   UNL A   1      42.284  21.400  27.654  1.00  0.00    -0.203 F 
ATOM     77  C   UNL A   1      43.589  21.116  25.768  1.00  0.00     0.198 A 
ATOM     78  C   UNL A   1      44.814  22.924  24.833  1.00  0.00     0.198 A 
ATOM     79  F   UNL A   1      44.642  25.075  25.717  1.00  0.00    -0.203 F 
ATOM     80  F   UNL A   1      43.190  19.837  25.739  1.00  0.00    -0.200 F 
ATOM     81  C   UNL A   1      44.452  21.591  24.806  1.00  0.00     0.200 A 
ATOM     82  F   UNL A   1      45.633  23.405  23.885  1.00  0.00    -0.200 F 
ATOM     83  F   UNL A   1      44.912  20.776  23.847  1.00  0.00    -0.200 F 
ENDBRANCH  59  73
BRANCH  60  84
ATOM     84  C   UNL A   1      41.069  29.949  33.583  1.00  0.00     0.064 A 
ATOM     85  C   UNL A   1      40.888  31.288  33.994  1.00  0.00     0.173 A 
ATOM     86  C   UNL A   1      39.913  29.177  33.410  1.00  0.00     0.173 A 
ATOM     87  F   UNL A   1      41.956  32.085  34.164  1.00  0.00    -0.203 F 
ATOM     88  C   UNL A   1      39.618  31.848  34.133  1.00  0.00     0.198 A 
ATOM     89  C   UNL A   1      38.640  29.740  33.559  1.00  0.00     0.198 A 
ATOM     90  F   UNL A   1      40.001  27.900  33.011  1.00  0.00    -0.203 F 
ATOM     91  F   UNL A   1      39.490  33.148  34.435  1.00  0.00    -0.200 F 
ATOM     92  C   UNL A   1      38.494  31.078  33.895  1.00  0.00     0.200 A 
ATOM     93  F   UNL A   1      37.549  29.001  33.306  1.00  0.00    -0.200 F 
ATOM     94  F   UNL A   1      37.272  31.627  33.959  1.00  0.00    -0.200 F 
ENDBRANCH  60  84
BRANCH  72  95
ATOM     95  C   UNL A   1      45.327  24.111  33.260  1.00  0.00     0.064 A 
ATOM     96  C   UNL A   1      46.648  24.135  33.731  1.00  0.00     0.173 A 
ATOM     97  C   UNL A   1      44.579  22.956  33.595  1.00  0.00     0.173 A 
ATOM     98  F   UNL A   1      47.421  25.220  33.592  1.00  0.00    -0.203 F 
ATOM     99  C   UNL A   1      47.200  23.059  34.427  1.00  0.00     0.198 A 
ATOM    100  C   UNL A   1      45.112  21.915  34.349  1.00  0.00     0.198 A 
ATOM    101  F   UNL A   1      43.294  22.812  33.235  1.00  0.00    -0.203 F 
ATOM    102  F   UNL A   1      48.481  23.114  34.816  1.00  0.00    -0.200 F 
ATOM    103  C   UNL A   1      46.430  21.957  34.749  1.00  0.00     0.200 A 
ATOM    104  F   UNL A   1      44.333  20.884  34.706  1.00  0.00    -0.200 F 
ATOM    105  F   UNL A   1      46.950  20.954  35.466  1.00  0.00    -0.200 F 
ENDBRANCH  72  95
ENDBRANCH  46  47
ENDBRANCH  39  41
ENDBRANCH  38  39
ENDBRANCH  37  38
ENDBRANCH   1  37
TORSDOF 14
ENDMDL
MODEL 3
REMARK VINA RESULT:     -14.2      3.812      9.640
REMARK SMILES Cc1ccc(NC(=O)c2cnn3c2NC2=C(C(=O)CCC2)[C@H]3c2ccc(C(=O)OCCOC(=O)c3ccc(-c4c5nc(c(-c6c(F)c(F)c(F)c(F)c6F)c6ccc([nH]6)c(-c6c(F)c(F)c(F)c(F)c6F)c6nc(c(-c7c(F)c(F)c(F)c(F)c7F)c7ccc4[nH]7)C=C6)C=C5)cc3)cc2)cc1
REMARK SMILES IDX 30 1 29 2 27 3 28 4 26 5 23 6 24 7 99 8 25 9 98 10 22 11
REMARK SMILES IDX 9 12 10 13 13 14 11 15 12 16 14 17 15 18 16 20 21 21 17 22
REMARK SMILES IDX 20 23 18 24 19 25 7 26 6 27 8 29 5 30 1 31 2 32 3 33 101 34
REMARK SMILES IDX 4 35 100 36 31 37 32 38 33 39 34 40 35 41 36 42 97 43 37 44
REMARK SMILES IDX 96 45 38 46 39 47 40 48 90 49 41 50 95 51 89 52 91 53 42 54
REMARK SMILES IDX 94 55 88 56 87 57 43 59 75 60 55 61 74 62 56 63 59 64 73 65
REMARK SMILES IDX 92 66 57 67 58 68 72 70 93 71 60 72 44 73 45 74 53 75 46 76
REMARK SMILES IDX 47 77 51 78 54 79 48 80 49 81 52 82 50 83 76 84 77 85 85 86
REMARK SMILES IDX 78 87 79 88 83 89 86 90 80 91 81 92 84 93 82 94 61 95 62 96
REMARK SMILES IDX 70 97 63 98 64 99 68 100 71 101 65 102 66 103 69 104 67 105
REMARK H PARENT 14 19 6 28 91 58 59 69
REMARK Flexibility Score: inf
ROOT
ATOM      1  C   UNL A   1      34.465  30.988  27.711  1.00  0.00     0.275 C 
ENDROOT
BRANCH   1   2
ATOM      2  O   UNL A   1      33.829  30.357  26.590  1.00  0.00    -0.458 OA
BRANCH   2   3
ATOM      3  C   UNL A   1      32.605  29.798  26.758  1.00  0.00     0.338 C 
ATOM      4  O   UNL A   1      31.582  30.359  27.055  1.00  0.00    -0.246 OA
BRANCH   3   5
ATOM      5  C   UNL A   1      32.705  28.349  26.476  1.00  0.00     0.060 A 
ATOM      6  C   UNL A   1      32.930  25.522  26.261  1.00  0.00    -0.019 A 
ATOM      7  C   UNL A   1      34.011  26.360  25.936  1.00  0.00     0.007 A 
ATOM      8  C   UNL A   1      31.730  26.170  26.634  1.00  0.00     0.007 A 
ATOM      9  C   UNL A   1      33.903  27.762  26.053  1.00  0.00     0.016 A 
ATOM     10  C   UNL A   1      31.606  27.551  26.744  1.00  0.00     0.016 A 
BRANCH   6  11
ATOM     11  C   UNL A   1      33.048  23.961  26.148  1.00  0.00     0.175 C 
ATOM     12  C   UNL A   1      32.692  23.630  22.649  1.00  0.00     0.102 A 
ATOM     13  C   UNL A   1      31.607  22.850  23.151  1.00  0.00     0.151 A 
ATOM     14  C   UNL A   1      33.546  23.720  23.731  1.00  0.00     0.142 A 
ATOM     15  N   UNL A   1      31.593  22.795  24.487  1.00  0.00    -0.178 NA
ATOM     16  N   UNL A   1      32.691  23.498  24.801  1.00  0.00    -0.237 N 
ATOM     17  N   UNL A   1      34.837  24.092  24.028  1.00  0.00    -0.343 N 
ATOM     18  C   UNL A   1      35.354  23.826  25.315  1.00  0.00     0.026 C 
ATOM     19  H   UNL A   1      35.394  24.540  23.351  1.00  0.00     0.168 HD
ATOM     20  C   UNL A   1      34.476  23.495  26.294  1.00  0.00     0.044 C 
ATOM     21  C   UNL A   1      36.798  23.451  25.513  1.00  0.00     0.055 C 
ATOM     22  C   UNL A   1      34.645  22.047  26.676  1.00  0.00     0.163 C 
ATOM     23  C   UNL A   1      36.956  21.943  25.737  1.00  0.00     0.014 C 
ATOM     24  O   UNL A   1      33.912  21.532  27.513  1.00  0.00    -0.294 OA
ATOM     25  C   UNL A   1      35.613  21.227  25.822  1.00  0.00     0.081 C 
BRANCH  12  26
ATOM     26  C   UNL A   1      32.841  24.196  21.333  1.00  0.00     0.261 C 
ATOM     27  N   UNL A   1      32.215  25.399  21.038  1.00  0.00    -0.322 N 
ATOM     28  H   UNL A   1      32.131  25.565  20.072  1.00  0.00     0.170 HD
ATOM     29  O   UNL A   1      33.508  23.638  20.462  1.00  0.00    -0.269 OA
BRANCH  27  30
ATOM     30  C   UNL A   1      31.671  26.439  21.837  1.00  0.00     0.041 A 
ATOM     31  C   UNL A   1      30.223  29.733  24.272  1.00  0.00     0.044 C 
ATOM     32  C   UNL A   1      30.748  28.603  23.439  1.00  0.00    -0.051 A 
ATOM     33  C   UNL A   1      29.975  27.458  23.275  1.00  0.00     0.005 A 
ATOM     34  C   UNL A   1      31.993  28.659  22.805  1.00  0.00     0.005 A 
ATOM     35  C   UNL A   1      30.443  26.393  22.498  1.00  0.00     0.026 A 
ATOM     36  C   UNL A   1      32.450  27.585  22.022  1.00  0.00     0.026 A 
ENDBRANCH  27  30
ENDBRANCH  12  26
ENDBRANCH   6  11
ENDBRANCH   3   5
ENDBRANCH   2   3
ENDBRANCH   1   2
BRANCH   1  37
ATOM     37  C   UNL A   1      34.111  32.442  28.094  1.00  0.00     0.275 C 
BRANCH  37  38
ATOM     38  O   UNL A   1      34.526  33.114  29.321  1.00  0.00    -0.458 OA
BRANCH  38  39
ATOM     39  C   UNL A   1      34.896  32.556  30.497  1.00  0.00     0.338 C 
ATOM     40  O   UNL A   1      34.260  32.642  31.530  1.00  0.00    -0.246 OA
BRANCH  39  41
ATOM     41  C   UNL A   1      36.236  31.959  30.482  1.00  0.00     0.060 A 
ATOM     42  C   UNL A   1      37.252  32.532  29.699  1.00  0.00     0.016 A 
ATOM     43  C   UNL A   1      36.478  30.879  31.323  1.00  0.00     0.016 A 
ATOM     44  C   UNL A   1      38.556  32.070  29.832  1.00  0.00     0.010 A 
ATOM     45  C   UNL A   1      37.775  30.514  31.556  1.00  0.00     0.010 A 
ATOM     46  C   UNL A   1      38.799  31.069  30.770  1.00  0.00    -0.014 A 
BRANCH  46  47
ATOM     47  C   UNL A   1      39.976  30.223  30.751  1.00  0.00     0.031 A 
ATOM     48  C   UNL A   1      40.085  28.982  29.980  1.00  0.00     0.074 A 
ATOM     49  C   UNL A   1      41.040  30.874  31.268  1.00  0.00     0.049 A 
ATOM     50  N   UNL A   1      40.985  28.092  30.216  1.00  0.00    -0.248 NA
ATOM     51  C   UNL A   1      39.194  28.618  28.883  1.00  0.00     0.031 C 
ATOM     52  C   UNL A   1      42.456  30.679  31.034  1.00  0.00     0.029 A 
ATOM     53  N   UNL A   1      40.984  31.927  32.196  1.00  0.00    -0.354 N 
ATOM     54  C   UNL A   1      41.008  27.231  29.142  1.00  0.00     0.074 A 
ATOM     55  C   UNL A   1      39.799  27.520  28.404  1.00  0.00     0.031 C 
ATOM     56  C   UNL A   1      43.142  31.376  31.960  1.00  0.00     0.029 A 
ATOM     57  C   UNL A   1      42.174  31.898  32.920  1.00  0.00     0.049 A 
ATOM     58  H   UNL A   1      40.243  32.566  32.312  1.00  0.00     0.167 HD
ATOM     59  C   UNL A   1      42.144  26.508  28.907  1.00  0.00     0.037 A 
ATOM     60  C   UNL A   1      42.113  31.564  34.243  1.00  0.00     0.037 A 
ATOM     61  C   UNL A   1      43.184  26.893  29.861  1.00  0.00     0.049 A 
ATOM     62  C   UNL A   1      42.816  30.259  34.501  1.00  0.00     0.074 A 
ATOM     63  C   UNL A   1      44.214  27.813  29.748  1.00  0.00     0.029 A 
ATOM     64  N   UNL A   1      43.049  26.607  31.214  1.00  0.00    -0.354 N 
ATOM     65  N   UNL A   1      42.891  29.290  33.630  1.00  0.00    -0.248 NA
ATOM     66  C   UNL A   1      43.532  29.973  35.736  1.00  0.00     0.031 C 
ATOM     67  C   UNL A   1      44.677  28.112  31.050  1.00  0.00     0.029 A 
ATOM     68  C   UNL A   1      43.939  27.365  31.951  1.00  0.00     0.049 A 
ATOM     69  H   UNL A   1      42.413  25.959  31.592  1.00  0.00     0.167 HD
ATOM     70  C   UNL A   1      43.705  28.308  34.125  1.00  0.00     0.074 A 
ATOM     71  C   UNL A   1      44.059  28.769  35.456  1.00  0.00     0.031 C 
ATOM     72  C   UNL A   1      44.056  27.213  33.390  1.00  0.00     0.037 A 
BRANCH  59  73
ATOM     73  C   UNL A   1      42.457  25.726  27.647  1.00  0.00     0.064 A 
ATOM     74  C   UNL A   1      41.834  24.479  27.396  1.00  0.00     0.173 A 
ATOM     75  C   UNL A   1      43.355  26.143  26.649  1.00  0.00     0.173 A 
ATOM     76  F   UNL A   1      40.881  23.991  28.201  1.00  0.00    -0.203 F 
ATOM     77  C   UNL A   1      42.159  23.675  26.301  1.00  0.00     0.198 A 
ATOM     78  C   UNL A   1      43.702  25.324  25.564  1.00  0.00     0.198 A 
ATOM     79  F   UNL A   1      43.889  27.371  26.667  1.00  0.00    -0.203 F 
ATOM     80  F   UNL A   1      41.543  22.496  26.137  1.00  0.00    -0.200 F 
ATOM     81  C   UNL A   1      43.113  24.086  25.397  1.00  0.00     0.200 A 
ATOM     82  F   UNL A   1      44.613  25.747  24.675  1.00  0.00    -0.200 F 
ATOM     83  F   UNL A   1      43.445  23.305  24.360  1.00  0.00    -0.200 F 
ENDBRANCH  59  73
BRANCH  60  84
ATOM     84  C   UNL A   1      40.849  32.006  34.912  1.00  0.00     0.064 A 
ATOM     85  C   UNL A   1      39.832  31.049  35.128  1.00  0.00     0.173 A 
ATOM     86  C   UNL A   1      40.752  33.207  35.628  1.00  0.00     0.173 A 
ATOM     87  F   UNL A   1      39.876  29.871  34.483  1.00  0.00    -0.203 F 
ATOM     88  C   UNL A   1      38.828  31.245  36.076  1.00  0.00     0.198 A 
ATOM     89  C   UNL A   1      39.737  33.403  36.572  1.00  0.00     0.198 A 
ATOM     90  F   UNL A   1      41.683  34.160  35.486  1.00  0.00    -0.203 F 
ATOM     91  F   UNL A   1      37.936  30.273  36.317  1.00  0.00    -0.200 F 
ATOM     92  C   UNL A   1      38.793  32.415  36.812  1.00  0.00     0.200 A 
ATOM     93  F   UNL A   1      39.715  34.528  37.304  1.00  0.00    -0.200 F 
ATOM     94  F   UNL A   1      37.873  32.583  37.773  1.00  0.00    -0.200 F 
ENDBRANCH  60  84
BRANCH  72  95
ATOM     95  C   UNL A   1      44.680  25.951  33.927  1.00  0.00     0.064 A 
ATOM     96  C   UNL A   1      43.941  24.909  34.506  1.00  0.00     0.173 A 
ATOM     97  C   UNL A   1      46.054  25.679  33.711  1.00  0.00     0.173 A 
ATOM     98  F   UNL A   1      42.611  24.989  34.648  1.00  0.00    -0.203 F 
ATOM     99  C   UNL A   1      44.541  23.713  34.902  1.00  0.00     0.198 A 
ATOM    100  C   UNL A   1      46.634  24.459  34.044  1.00  0.00     0.198 A 
ATOM    101  F   UNL A   1      46.874  26.573  33.138  1.00  0.00    -0.203 F 
ATOM    102  F   UNL A   1      43.797  22.767  35.493  1.00  0.00    -0.200 F 
ATOM    103  C   UNL A   1      45.881  23.481  34.657  1.00  0.00     0.200 A 
ATOM    104  F   UNL A   1      47.919  24.229  33.742  1.00  0.00    -0.200 F 
ATOM    105  F   UNL A   1      46.437  22.310  34.988  1.00  0.00    -0.200 F 
ENDBRANCH  72  95
ENDBRANCH  46  47
ENDBRANCH  39  41
ENDBRANCH  38  39
ENDBRANCH  37  38
ENDBRANCH   1  37
TORSDOF 14
ENDMDL
