MODEL 1
REMARK VINA RESULT:     -11.5      0.000      0.000
REMARK SMILES C#CC[N@@H+](CC(=O)OCCOC(=O)c1ccc(-c2c3nc(c(-c4c(F)c(F)c(F)c(F)c4F)c4ccc([nH]4)c(-c4c(F)c(F)c(F)c(F)c4F)c4nc(c(-c5c(F)c(F)c(F)c(F)c5F)c5ccc2[nH]5)C=C4)C=C3)cc1)Cc1cn(CC)c2ccccc12
REMARK SMILES IDX 9 1 8 2 6 3 7 4 5 5 4 6 3 8 2 9 1 10 77 11 78 12 79 13 88 14
REMARK SMILES IDX 80 15 83 16 87 17 84 18 86 19 85 20 81 21 82 22 10 23 11 24
REMARK SMILES IDX 12 25 13 26 14 27 15 28 76 29 16 30 75 31 17 32 18 33 19 34
REMARK SMILES IDX 69 35 20 36 74 37 68 38 70 39 21 40 73 41 67 42 66 43 22 45
REMARK SMILES IDX 54 46 34 47 53 48 35 49 38 50 52 51 71 52 36 53 37 54 51 56
REMARK SMILES IDX 72 57 39 58 23 59 24 60 32 61 25 62 26 63 30 64 33 65 27 66
REMARK SMILES IDX 28 67 31 68 29 69 55 70 56 71 64 72 57 73 58 74 62 75 65 76
REMARK SMILES IDX 59 77 60 78 63 79 61 80 40 81 41 82 49 83 42 84 43 85 47 86
REMARK SMILES IDX 50 87 44 88 45 89 48 90 46 91
REMARK H PARENT 4 7 70 44 38 55
REMARK Flexibility Score: inf
ROOT
ATOM      1  C   UNL A   1      31.814  27.894  27.061  1.00  0.00     0.274 C 
ENDROOT
BRANCH   1   2
ATOM      2  O   UNL A   1      30.711  26.970  26.871  1.00  0.00    -0.458 OA
BRANCH   2   3
ATOM      3  C   UNL A   1      30.854  25.939  25.987  1.00  0.00     0.361 C 
ATOM      4  O   UNL A   1      30.194  25.859  24.955  1.00  0.00    -0.245 OA
BRANCH   3   5
ATOM      5  C   UNL A   1      31.934  24.869  26.365  1.00  0.00     0.387 C 
BRANCH   5   6
ATOM      6  N   UNL A   1      32.996  24.494  25.362  1.00  0.00    -0.312 N 
ATOM      7  H   UNL A   1      33.582  23.799  25.825  1.00  0.00     0.349 HD
BRANCH   6   8
ATOM      8  C   UNL A   1      33.623  25.725  25.012  1.00  0.00     0.354 C 
BRANCH   8   9
ATOM      9  C   UNL A   1      33.582  26.276  23.596  1.00  0.00    -0.047 C 
ATOM     10  C   UNL A   1      33.546  26.748  22.381  1.00  0.00     0.010 C 
ENDBRANCH   8   9
ENDBRANCH   6   8
BRANCH   6  11
ATOM     11  C   UNL A   1      32.619  23.755  24.136  1.00  0.00     0.302 C 
BRANCH  11  12
ATOM     12  C   UNL A   1      33.325  22.457  24.094  1.00  0.00     0.032 A 
ATOM     13  C   UNL A   1      32.672  21.255  24.176  1.00  0.00     0.096 A 
ATOM     14  C   UNL A   1      34.705  22.163  24.179  1.00  0.00     0.008 A 
ATOM     15  N   UNL A   1      33.521  20.353  24.746  1.00  0.00    -0.347 N 
ATOM     16  C   UNL A   1      34.806  20.835  24.630  1.00  0.00     0.048 A 
ATOM     17  C   UNL A   1      35.867  22.939  24.039  1.00  0.00     0.011 A 
ATOM     18  C   UNL A   1      36.037  20.265  24.961  1.00  0.00     0.027 A 
ATOM     19  C   UNL A   1      37.102  22.365  24.333  1.00  0.00     0.001 A 
ATOM     20  C   UNL A   1      37.181  21.052  24.795  1.00  0.00     0.002 A 
BRANCH  15  21
ATOM     21  C   UNL A   1      33.045  19.292  25.620  1.00  0.00     0.119 C 
ATOM     22  C   UNL A   1      32.503  18.064  24.927  1.00  0.00     0.027 C 
ENDBRANCH  15  21
ENDBRANCH  11  12
ENDBRANCH   6  11
ENDBRANCH   5   6
ENDBRANCH   3   5
ENDBRANCH   2   3
ENDBRANCH   1   2
BRANCH   1  23
ATOM     23  C   UNL A   1      31.873  28.905  25.888  1.00  0.00     0.275 C 
BRANCH  23  24
ATOM     24  O   UNL A   1      33.111  29.642  25.969  1.00  0.00    -0.458 OA
BRANCH  24  25
ATOM     25  C   UNL A   1      33.211  30.697  26.831  1.00  0.00     0.338 C 
ATOM     26  O   UNL A   1      32.326  31.481  27.111  1.00  0.00    -0.246 OA
BRANCH  25  27
ATOM     27  C   UNL A   1      34.572  30.673  27.470  1.00  0.00     0.060 A 
ATOM     28  C   UNL A   1      35.067  29.454  27.897  1.00  0.00     0.016 A 
ATOM     29  C   UNL A   1      35.334  31.806  27.760  1.00  0.00     0.016 A 
ATOM     30  C   UNL A   1      36.138  29.349  28.767  1.00  0.00     0.010 A 
ATOM     31  C   UNL A   1      36.557  31.675  28.467  1.00  0.00     0.010 A 
ATOM     32  C   UNL A   1      36.967  30.435  28.995  1.00  0.00    -0.014 A 
BRANCH  32  33
ATOM     33  C   UNL A   1      38.220  30.208  29.776  1.00  0.00     0.031 A 
ATOM     34  C   UNL A   1      39.342  29.422  29.172  1.00  0.00     0.074 A 
ATOM     35  C   UNL A   1      38.418  30.785  30.985  1.00  0.00     0.049 A 
ATOM     36  N   UNL A   1      40.356  28.844  29.759  1.00  0.00    -0.248 NA
ATOM     37  C   UNL A   1      39.323  29.275  27.710  1.00  0.00     0.031 C 
ATOM     38  C   UNL A   1      37.511  31.732  31.639  1.00  0.00     0.029 A 
ATOM     39  N   UNL A   1      39.463  30.687  31.876  1.00  0.00    -0.354 N 
ATOM     40  C   UNL A   1      41.045  28.183  28.752  1.00  0.00     0.074 A 
ATOM     41  C   UNL A   1      40.364  28.478  27.508  1.00  0.00     0.031 C 
ATOM     42  C   UNL A   1      38.063  32.179  32.775  1.00  0.00     0.029 A 
ATOM     43  C   UNL A   1      39.269  31.410  33.033  1.00  0.00     0.049 A 
ATOM     44  H   UNL A   1      40.270  30.152  31.703  1.00  0.00     0.167 HD
ATOM     45  C   UNL A   1      42.121  27.373  28.881  1.00  0.00     0.037 A 
ATOM     46  C   UNL A   1      39.917  31.379  34.214  1.00  0.00     0.037 A 
ATOM     47  C   UNL A   1      42.801  27.145  30.130  1.00  0.00     0.049 A 
ATOM     48  C   UNL A   1      41.034  30.387  34.376  1.00  0.00     0.074 A 
ATOM     49  C   UNL A   1      43.839  26.274  30.410  1.00  0.00     0.029 A 
ATOM     50  N   UNL A   1      42.517  27.821  31.308  1.00  0.00    -0.354 N 
ATOM     51  N   UNL A   1      41.567  29.590  33.481  1.00  0.00    -0.248 NA
ATOM     52  C   UNL A   1      41.604  30.244  35.723  1.00  0.00     0.031 C 
ATOM     53  C   UNL A   1      44.156  26.398  31.769  1.00  0.00     0.029 A 
ATOM     54  C   UNL A   1      43.350  27.380  32.323  1.00  0.00     0.049 A 
ATOM     55  H   UNL A   1      41.824  28.514  31.408  1.00  0.00     0.167 HD
ATOM     56  C   UNL A   1      42.532  28.856  34.151  1.00  0.00     0.074 A 
ATOM     57  C   UNL A   1      42.533  29.321  35.524  1.00  0.00     0.031 C 
ATOM     58  C   UNL A   1      43.338  27.874  33.677  1.00  0.00     0.037 A 
BRANCH  45  59
ATOM     59  C   UNL A   1      42.537  26.591  27.670  1.00  0.00     0.064 A 
ATOM     60  C   UNL A   1      41.985  25.344  27.348  1.00  0.00     0.173 A 
ATOM     61  C   UNL A   1      43.537  27.104  26.829  1.00  0.00     0.173 A 
ATOM     62  F   UNL A   1      41.043  24.799  28.131  1.00  0.00    -0.203 F 
ATOM     63  C   UNL A   1      42.444  24.624  26.246  1.00  0.00     0.198 A 
ATOM     64  C   UNL A   1      43.974  26.395  25.714  1.00  0.00     0.198 A 
ATOM     65  F   UNL A   1      44.099  28.293  27.093  1.00  0.00    -0.203 F 
ATOM     66  F   UNL A   1      41.946  23.407  25.989  1.00  0.00    -0.200 F 
ATOM     67  C   UNL A   1      43.435  25.150  25.430  1.00  0.00     0.200 A 
ATOM     68  F   UNL A   1      44.926  26.910  24.925  1.00  0.00    -0.200 F 
ATOM     69  F   UNL A   1      43.881  24.452  24.376  1.00  0.00    -0.200 F 
ENDBRANCH  45  59
BRANCH  46  70
ATOM     70  C   UNL A   1      39.439  32.196  35.367  1.00  0.00     0.064 A 
ATOM     71  C   UNL A   1      39.874  33.514  35.558  1.00  0.00     0.173 A 
ATOM     72  C   UNL A   1      38.554  31.666  36.323  1.00  0.00     0.173 A 
ATOM     73  F   UNL A   1      40.746  34.062  34.698  1.00  0.00    -0.203 F 
ATOM     74  C   UNL A   1      39.452  34.264  36.656  1.00  0.00     0.198 A 
ATOM     75  C   UNL A   1      38.099  32.430  37.397  1.00  0.00     0.198 A 
ATOM     76  F   UNL A   1      38.111  30.405  36.207  1.00  0.00    -0.203 F 
ATOM     77  F   UNL A   1      39.926  35.505  36.840  1.00  0.00    -0.200 F 
ATOM     78  C   UNL A   1      38.556  33.726  37.569  1.00  0.00     0.200 A 
ATOM     79  F   UNL A   1      37.220  31.908  38.262  1.00  0.00    -0.200 F 
ATOM     80  F   UNL A   1      38.144  34.450  38.617  1.00  0.00    -0.200 F 
ENDBRANCH  46  70
BRANCH  58  81
ATOM     81  C   UNL A   1      44.311  27.271  34.641  1.00  0.00     0.064 A 
ATOM     82  C   UNL A   1      45.574  27.838  34.862  1.00  0.00     0.173 A 
ATOM     83  C   UNL A   1      43.955  26.136  35.385  1.00  0.00     0.173 A 
ATOM     84  F   UNL A   1      45.966  28.909  34.157  1.00  0.00    -0.203 F 
ATOM     85  C   UNL A   1      46.452  27.281  35.787  1.00  0.00     0.198 A 
ATOM     86  C   UNL A   1      44.825  25.598  36.327  1.00  0.00     0.198 A 
ATOM     87  F   UNL A   1      42.756  25.559  35.206  1.00  0.00    -0.203 F 
ATOM     88  F   UNL A   1      47.670  27.815  35.957  1.00  0.00    -0.200 F 
ATOM     89  C   UNL A   1      46.073  26.168  36.524  1.00  0.00     0.200 A 
ATOM     90  F   UNL A   1      44.455  24.529  37.045  1.00  0.00    -0.200 F 
ATOM     91  F   UNL A   1      46.917  25.640  37.421  1.00  0.00    -0.200 F 
ENDBRANCH  58  81
ENDBRANCH  32  33
ENDBRANCH  25  27
ENDBRANCH  24  25
ENDBRANCH  23  24
ENDBRANCH   1  23
TORSDOF 17
ENDMDL
MODEL 2
REMARK VINA RESULT:     -11.3      0.749      2.155
REMARK SMILES C#CC[N@@H+](CC(=O)OCCOC(=O)c1ccc(-c2c3nc(c(-c4c(F)c(F)c(F)c(F)c4F)c4ccc([nH]4)c(-c4c(F)c(F)c(F)c(F)c4F)c4nc(c(-c5c(F)c(F)c(F)c(F)c5F)c5ccc2[nH]5)C=C4)C=C3)cc1)Cc1cn(CC)c2ccccc12
REMARK SMILES IDX 9 1 8 2 6 3 7 4 5 5 4 6 3 8 2 9 1 10 77 11 78 12 79 13 88 14
REMARK SMILES IDX 80 15 83 16 87 17 84 18 86 19 85 20 81 21 82 22 10 23 11 24
REMARK SMILES IDX 12 25 13 26 14 27 15 28 76 29 16 30 75 31 17 32 18 33 19 34
REMARK SMILES IDX 69 35 20 36 74 37 68 38 70 39 21 40 73 41 67 42 66 43 22 45
REMARK SMILES IDX 54 46 34 47 53 48 35 49 38 50 52 51 71 52 36 53 37 54 51 56
REMARK SMILES IDX 72 57 39 58 23 59 24 60 32 61 25 62 26 63 30 64 33 65 27 66
REMARK SMILES IDX 28 67 31 68 29 69 55 70 56 71 64 72 57 73 58 74 62 75 65 76
REMARK SMILES IDX 59 77 60 78 63 79 61 80 40 81 41 82 49 83 42 84 43 85 47 86
REMARK SMILES IDX 50 87 44 88 45 89 48 90 46 91
REMARK H PARENT 4 7 70 44 38 55
REMARK Flexibility Score: inf
ROOT
ATOM      1  C   UNL A   1      31.738  28.201  27.339  1.00  0.00     0.274 C 
ENDROOT
BRANCH   1   2
ATOM      2  O   UNL A   1      31.034  27.018  26.881  1.00  0.00    -0.458 OA
BRANCH   2   3
ATOM      3  C   UNL A   1      31.755  25.950  26.426  1.00  0.00     0.361 C 
ATOM      4  O   UNL A   1      32.973  25.991  26.280  1.00  0.00    -0.245 OA
BRANCH   3   5
ATOM      5  C   UNL A   1      30.927  24.656  26.121  1.00  0.00     0.387 C 
BRANCH   5   6
ATOM      6  N   UNL A   1      31.507  23.593  25.223  1.00  0.00    -0.312 N 
ATOM      7  H   UNL A   1      32.517  23.734  25.243  1.00  0.00     0.349 HD
BRANCH   6   8
ATOM      8  C   UNL A   1      30.862  23.780  23.966  1.00  0.00     0.354 C 
BRANCH   8   9
ATOM      9  C   UNL A   1      31.311  24.848  22.982  1.00  0.00    -0.047 C 
ATOM     10  C   UNL A   1      31.697  25.764  22.137  1.00  0.00     0.010 C 
ENDBRANCH   8   9
ENDBRANCH   6   8
BRANCH   6  11
ATOM     11  C   UNL A   1      31.426  22.170  25.622  1.00  0.00     0.302 C 
BRANCH  11  12
ATOM     12  C   UNL A   1      32.540  21.413  25.014  1.00  0.00     0.032 A 
ATOM     13  C   UNL A   1      32.367  20.191  24.416  1.00  0.00     0.096 A 
ATOM     14  C   UNL A   1      33.937  21.623  25.086  1.00  0.00     0.008 A 
ATOM     15  N   UNL A   1      33.530  19.491  24.547  1.00  0.00    -0.347 N 
ATOM     16  C   UNL A   1      34.543  20.382  24.823  1.00  0.00     0.048 A 
ATOM     17  C   UNL A   1      34.728  22.715  25.475  1.00  0.00     0.011 A 
ATOM     18  C   UNL A   1      35.921  20.198  24.954  1.00  0.00     0.027 A 
ATOM     19  C   UNL A   1      36.108  22.548  25.572  1.00  0.00     0.001 A 
ATOM     20  C   UNL A   1      36.691  21.306  25.324  1.00  0.00     0.002 A 
BRANCH  15  21
ATOM     21  C   UNL A   1      33.545  18.046  24.721  1.00  0.00     0.119 C 
ATOM     22  C   UNL A   1      34.223  17.260  23.624  1.00  0.00     0.027 C 
ENDBRANCH  15  21
ENDBRANCH  11  12
ENDBRANCH   6  11
ENDBRANCH   5   6
ENDBRANCH   3   5
ENDBRANCH   2   3
ENDBRANCH   1   2
BRANCH   1  23
ATOM     23  C   UNL A   1      31.867  29.228  26.185  1.00  0.00     0.275 C 
BRANCH  23  24
ATOM     24  O   UNL A   1      33.180  29.823  26.235  1.00  0.00    -0.458 OA
BRANCH  24  25
ATOM     25  C   UNL A   1      33.379  30.954  26.976  1.00  0.00     0.338 C 
ATOM     26  O   UNL A   1      32.569  31.839  27.165  1.00  0.00    -0.246 OA
BRANCH  25  27
ATOM     27  C   UNL A   1      34.736  30.878  27.619  1.00  0.00     0.060 A 
ATOM     28  C   UNL A   1      35.174  29.645  28.068  1.00  0.00     0.016 A 
ATOM     29  C   UNL A   1      35.547  31.980  27.893  1.00  0.00     0.016 A 
ATOM     30  C   UNL A   1      36.237  29.506  28.943  1.00  0.00     0.010 A 
ATOM     31  C   UNL A   1      36.761  31.806  28.607  1.00  0.00     0.010 A 
ATOM     32  C   UNL A   1      37.114  30.556  29.155  1.00  0.00    -0.014 A 
BRANCH  32  33
ATOM     33  C   UNL A   1      38.353  30.286  29.945  1.00  0.00     0.031 A 
ATOM     34  C   UNL A   1      39.462  29.485  29.337  1.00  0.00     0.074 A 
ATOM     35  C   UNL A   1      38.553  30.837  31.165  1.00  0.00     0.049 A 
ATOM     36  N   UNL A   1      40.456  28.872  29.923  1.00  0.00    -0.248 NA
ATOM     37  C   UNL A   1      39.454  29.363  27.872  1.00  0.00     0.031 C 
ATOM     38  C   UNL A   1      37.662  31.794  31.827  1.00  0.00     0.029 A 
ATOM     39  N   UNL A   1      39.586  30.699  32.064  1.00  0.00    -0.354 N 
ATOM     40  C   UNL A   1      41.139  28.213  28.911  1.00  0.00     0.074 A 
ATOM     41  C   UNL A   1      40.478  28.545  27.666  1.00  0.00     0.031 C 
ATOM     42  C   UNL A   1      38.214  32.207  32.976  1.00  0.00     0.029 A 
ATOM     43  C   UNL A   1      39.399  31.405  33.232  1.00  0.00     0.049 A 
ATOM     44  H   UNL A   1      40.383  30.147  31.889  1.00  0.00     0.167 HD
ATOM     45  C   UNL A   1      42.194  27.375  29.035  1.00  0.00     0.037 A 
ATOM     46  C   UNL A   1      40.034  31.338  34.418  1.00  0.00     0.037 A 
ATOM     47  C   UNL A   1      42.857  27.108  30.286  1.00  0.00     0.049 A 
ATOM     48  C   UNL A   1      41.126  30.317  34.573  1.00  0.00     0.074 A 
ATOM     49  C   UNL A   1      43.871  26.208  30.561  1.00  0.00     0.029 A 
ATOM     50  N   UNL A   1      42.577  27.771  31.474  1.00  0.00    -0.354 N 
ATOM     51  N   UNL A   1      41.648  29.524  33.669  1.00  0.00    -0.248 NA
ATOM     52  C   UNL A   1      41.679  30.137  35.922  1.00  0.00     0.031 C 
ATOM     53  C   UNL A   1      44.177  26.301  31.925  1.00  0.00     0.029 A 
ATOM     54  C   UNL A   1      43.389  27.292  32.489  1.00  0.00     0.049 A 
ATOM     55  H   UNL A   1      41.900  28.478  31.580  1.00  0.00     0.167 HD
ATOM     56  C   UNL A   1      42.589  28.755  34.334  1.00  0.00     0.074 A 
ATOM     57  C   UNL A   1      42.587  29.195  35.715  1.00  0.00     0.031 C 
ATOM     58  C   UNL A   1      43.375  27.762  33.850  1.00  0.00     0.037 A 
BRANCH  45  59
ATOM     59  C   UNL A   1      42.603  26.604  27.815  1.00  0.00     0.064 A 
ATOM     60  C   UNL A   1      43.601  27.047  26.938  1.00  0.00     0.173 A 
ATOM     61  C   UNL A   1      41.949  25.399  27.511  1.00  0.00     0.173 A 
ATOM     62  F   UNL A   1      44.240  28.203  27.170  1.00  0.00    -0.203 F 
ATOM     63  C   UNL A   1      43.907  26.329  25.783  1.00  0.00     0.198 A 
ATOM     64  C   UNL A   1      42.275  24.670  26.371  1.00  0.00     0.198 A 
ATOM     65  F   UNL A   1      40.984  24.930  28.318  1.00  0.00    -0.203 F 
ATOM     66  F   UNL A   1      44.822  26.800  24.925  1.00  0.00    -0.200 F 
ATOM     67  C   UNL A   1      43.246  25.141  25.502  1.00  0.00     0.200 A 
ATOM     68  F   UNL A   1      41.640  23.520  26.109  1.00  0.00    -0.200 F 
ATOM     69  F   UNL A   1      43.535  24.458  24.387  1.00  0.00    -0.200 F 
ENDBRANCH  45  59
BRANCH  46  70
ATOM     70  C   UNL A   1      39.564  32.146  35.581  1.00  0.00     0.064 A 
ATOM     71  C   UNL A   1      38.580  31.664  36.454  1.00  0.00     0.173 A 
ATOM     72  C   UNL A   1      40.071  33.434  35.831  1.00  0.00     0.173 A 
ATOM     73  F   UNL A   1      38.034  30.457  36.246  1.00  0.00    -0.203 F 
ATOM     74  C   UNL A   1      38.118  32.436  37.521  1.00  0.00     0.198 A 
ATOM     75  C   UNL A   1      39.640  34.187  36.921  1.00  0.00     0.198 A 
ATOM     76  F   UNL A   1      41.004  33.960  35.023  1.00  0.00    -0.203 F 
ATOM     77  F   UNL A   1      37.139  31.969  38.309  1.00  0.00    -0.200 F 
ATOM     78  C   UNL A   1      38.656  33.692  37.761  1.00  0.00     0.200 A 
ATOM     79  F   UNL A   1      40.179  35.391  37.155  1.00  0.00    -0.200 F 
ATOM     80  F   UNL A   1      38.219  34.428  38.791  1.00  0.00    -0.200 F 
ENDBRANCH  46  70
BRANCH  58  81
ATOM     81  C   UNL A   1      44.324  27.119  34.813  1.00  0.00     0.064 A 
ATOM     82  C   UNL A   1      43.986  25.948  35.507  1.00  0.00     0.173 A 
ATOM     83  C   UNL A   1      45.604  27.658  35.008  1.00  0.00     0.173 A 
ATOM     84  F   UNL A   1      42.766  25.410  35.369  1.00  0.00    -0.203 F 
ATOM     85  C   UNL A   1      44.895  25.347  36.374  1.00  0.00     0.198 A 
ATOM     86  C   UNL A   1      46.518  27.040  35.855  1.00  0.00     0.198 A 
ATOM     87  F   UNL A   1      45.971  28.778  34.365  1.00  0.00    -0.203 F 
ATOM     88  F   UNL A   1      44.540  24.250  37.057  1.00  0.00    -0.200 F 
ATOM     89  C   UNL A   1      46.161  25.888  36.539  1.00  0.00     0.200 A 
ATOM     90  F   UNL A   1      47.745  27.558  36.007  1.00  0.00    -0.200 F 
ATOM     91  F   UNL A   1      47.038  25.302  37.366  1.00  0.00    -0.200 F 
ENDBRANCH  58  81
ENDBRANCH  32  33
ENDBRANCH  25  27
ENDBRANCH  24  25
ENDBRANCH  23  24
ENDBRANCH   1  23
TORSDOF 17
ENDMDL
MODEL 3
REMARK VINA RESULT:     -11.2      4.240      9.807
REMARK SMILES C#CC[N@@H+](CC(=O)OCCOC(=O)c1ccc(-c2c3nc(c(-c4c(F)c(F)c(F)c(F)c4F)c4ccc([nH]4)c(-c4c(F)c(F)c(F)c(F)c4F)c4nc(c(-c5c(F)c(F)c(F)c(F)c5F)c5ccc2[nH]5)C=C4)C=C3)cc1)Cc1cn(CC)c2ccccc12
REMARK SMILES IDX 9 1 8 2 6 3 7 4 5 5 4 6 3 8 2 9 1 10 77 11 78 12 79 13 88 14
REMARK SMILES IDX 80 15 83 16 87 17 84 18 86 19 85 20 81 21 82 22 10 23 11 24
REMARK SMILES IDX 12 25 13 26 14 27 15 28 76 29 16 30 75 31 17 32 18 33 19 34
REMARK SMILES IDX 69 35 20 36 74 37 68 38 70 39 21 40 73 41 67 42 66 43 22 45
REMARK SMILES IDX 54 46 34 47 53 48 35 49 38 50 52 51 71 52 36 53 37 54 51 56
REMARK SMILES IDX 72 57 39 58 23 59 24 60 32 61 25 62 26 63 30 64 33 65 27 66
REMARK SMILES IDX 28 67 31 68 29 69 55 70 56 71 64 72 57 73 58 74 62 75 65 76
REMARK SMILES IDX 59 77 60 78 63 79 61 80 40 81 41 82 49 83 42 84 43 85 47 86
REMARK SMILES IDX 50 87 44 88 45 89 48 90 46 91
REMARK H PARENT 4 7 70 44 38 55
REMARK Flexibility Score: inf
ROOT
ATOM      1  C   UNL A   1      35.718  23.334  23.883  1.00  0.00     0.274 C 
ENDROOT
BRANCH   1   2
ATOM      2  O   UNL A   1      34.764  23.177  22.802  1.00  0.00    -0.458 OA
BRANCH   2   3
ATOM      3  C   UNL A   1      33.669  23.992  22.759  1.00  0.00     0.361 C 
ATOM      4  O   UNL A   1      33.712  25.130  22.300  1.00  0.00    -0.245 OA
BRANCH   3   5
ATOM      5  C   UNL A   1      32.342  23.373  23.316  1.00  0.00     0.387 C 
BRANCH   5   6
ATOM      6  N   UNL A   1      32.069  23.404  24.799  1.00  0.00    -0.312 N 
ATOM      7  H   UNL A   1      32.944  23.695  25.236  1.00  0.00     0.349 HD
BRANCH   6   8
ATOM      8  C   UNL A   1      31.604  22.094  25.115  1.00  0.00     0.354 C 
BRANCH   8   9
ATOM      9  C   UNL A   1      32.341  20.846  24.656  1.00  0.00    -0.047 C 
ATOM     10  C   UNL A   1      32.973  19.775  24.263  1.00  0.00     0.010 C 
ENDBRANCH   8   9
ENDBRANCH   6   8
BRANCH   6  11
ATOM     11  C   UNL A   1      31.141  24.413  25.353  1.00  0.00     0.302 C 
BRANCH  11  12
ATOM     12  C   UNL A   1      31.698  25.769  25.160  1.00  0.00     0.032 A 
ATOM     13  C   UNL A   1      32.818  26.211  25.815  1.00  0.00     0.096 A 
ATOM     14  C   UNL A   1      31.153  26.897  24.503  1.00  0.00     0.008 A 
ATOM     15  N   UNL A   1      32.713  27.563  25.960  1.00  0.00    -0.347 N 
ATOM     16  C   UNL A   1      31.786  28.025  25.053  1.00  0.00     0.048 A 
ATOM     17  C   UNL A   1      30.098  27.066  23.593  1.00  0.00     0.011 A 
ATOM     18  C   UNL A   1      31.381  29.322  24.730  1.00  0.00     0.027 A 
ATOM     19  C   UNL A   1      29.713  28.358  23.239  1.00  0.00     0.001 A 
ATOM     20  C   UNL A   1      30.340  29.465  23.807  1.00  0.00     0.002 A 
BRANCH  15  21
ATOM     21  C   UNL A   1      33.238  28.255  27.127  1.00  0.00     0.119 C 
ATOM     22  C   UNL A   1      34.483  29.080  26.898  1.00  0.00     0.027 C 
ENDBRANCH  15  21
ENDBRANCH  11  12
ENDBRANCH   6  11
ENDBRANCH   5   6
ENDBRANCH   3   5
ENDBRANCH   2   3
ENDBRANCH   1   2
BRANCH   1  23
ATOM     23  C   UNL A   1      35.946  21.977  24.597  1.00  0.00     0.275 C 
BRANCH  23  24
ATOM     24  O   UNL A   1      36.758  22.197  25.769  1.00  0.00    -0.458 OA
BRANCH  24  25
ATOM     25  C   UNL A   1      38.049  21.751  25.788  1.00  0.00     0.338 C 
ATOM     26  O   UNL A   1      38.461  20.727  25.279  1.00  0.00    -0.246 OA
BRANCH  25  27
ATOM     27  C   UNL A   1      38.911  22.789  26.451  1.00  0.00     0.060 A 
ATOM     28  C   UNL A   1      38.623  24.121  26.211  1.00  0.00     0.016 A 
ATOM     29  C   UNL A   1      40.048  22.511  27.210  1.00  0.00     0.016 A 
ATOM     30  C   UNL A   1      39.516  25.139  26.497  1.00  0.00     0.010 A 
ATOM     31  C   UNL A   1      40.853  23.573  27.696  1.00  0.00     0.010 A 
ATOM     32  C   UNL A   1      40.599  24.910  27.328  1.00  0.00    -0.014 A 
BRANCH  32  33
ATOM     33  C   UNL A   1      41.408  26.087  27.765  1.00  0.00     0.031 A 
ATOM     34  C   UNL A   1      40.806  27.105  28.683  1.00  0.00     0.074 A 
ATOM     35  C   UNL A   1      42.716  26.211  27.440  1.00  0.00     0.049 A 
ATOM     36  N   UNL A   1      41.191  28.329  28.928  1.00  0.00    -0.248 NA
ATOM     37  C   UNL A   1      39.613  26.684  29.432  1.00  0.00     0.031 C 
ATOM     38  C   UNL A   1      43.514  25.220  26.712  1.00  0.00     0.029 A 
ATOM     39  N   UNL A   1      43.625  27.211  27.702  1.00  0.00    -0.354 N 
ATOM     40  C   UNL A   1      40.237  28.858  29.784  1.00  0.00     0.074 A 
ATOM     41  C   UNL A   1      39.283  27.804  30.061  1.00  0.00     0.031 C 
ATOM     42  C   UNL A   1      44.791  25.621  26.650  1.00  0.00     0.029 A 
ATOM     43  C   UNL A   1      44.870  26.981  27.158  1.00  0.00     0.049 A 
ATOM     44  H   UNL A   1      43.407  28.014  28.227  1.00  0.00     0.167 HD
ATOM     45  C   UNL A   1      40.157  30.126  30.252  1.00  0.00     0.037 A 
ATOM     46  C   UNL A   1      45.924  27.801  26.981  1.00  0.00     0.037 A 
ATOM     47  C   UNL A   1      41.154  31.134  29.994  1.00  0.00     0.049 A 
ATOM     48  C   UNL A   1      45.774  29.237  27.399  1.00  0.00     0.074 A 
ATOM     49  C   UNL A   1      41.142  32.476  30.328  1.00  0.00     0.029 A 
ATOM     50  N   UNL A   1      42.361  30.890  29.354  1.00  0.00    -0.354 N 
ATOM     51  N   UNL A   1      44.778  29.814  28.029  1.00  0.00    -0.248 NA
ATOM     52  C   UNL A   1      46.863  30.152  27.033  1.00  0.00     0.031 C 
ATOM     53  C   UNL A   1      42.327  33.052  29.853  1.00  0.00     0.029 A 
ATOM     54  C   UNL A   1      43.099  32.060  29.270  1.00  0.00     0.049 A 
ATOM     55  H   UNL A   1      42.652  30.015  29.010  1.00  0.00     0.167 HD
ATOM     56  C   UNL A   1      45.119  31.152  28.137  1.00  0.00     0.074 A 
ATOM     57  C   UNL A   1      46.428  31.300  27.533  1.00  0.00     0.031 C 
ATOM     58  C   UNL A   1      44.407  32.172  28.676  1.00  0.00     0.037 A 
BRANCH  45  59
ATOM     59  C   UNL A   1      38.900  30.511  30.973  1.00  0.00     0.064 A 
ATOM     60  C   UNL A   1      37.739  30.924  30.305  1.00  0.00     0.173 A 
ATOM     61  C   UNL A   1      38.876  30.487  32.377  1.00  0.00     0.173 A 
ATOM     62  F   UNL A   1      37.717  30.986  28.965  1.00  0.00    -0.203 F 
ATOM     63  C   UNL A   1      36.612  31.331  31.017  1.00  0.00     0.198 A 
ATOM     64  C   UNL A   1      37.740  30.868  33.085  1.00  0.00     0.198 A 
ATOM     65  F   UNL A   1      39.961  30.101  33.065  1.00  0.00    -0.203 F 
ATOM     66  F   UNL A   1      35.533  31.779  30.362  1.00  0.00    -0.200 F 
ATOM     67  C   UNL A   1      36.613  31.300  32.405  1.00  0.00     0.200 A 
ATOM     68  F   UNL A   1      37.743  30.830  34.424  1.00  0.00    -0.200 F 
ATOM     69  F   UNL A   1      35.531  31.701  33.087  1.00  0.00    -0.200 F 
ENDBRANCH  45  59
BRANCH  46  70
ATOM     70  C   UNL A   1      47.141  27.334  26.256  1.00  0.00     0.064 A 
ATOM     71  C   UNL A   1      48.242  26.806  26.944  1.00  0.00     0.173 A 
ATOM     72  C   UNL A   1      47.242  27.429  24.857  1.00  0.00     0.173 A 
ATOM     73  F   UNL A   1      48.218  26.723  28.283  1.00  0.00    -0.203 F 
ATOM     74  C   UNL A   1      49.393  26.402  26.266  1.00  0.00     0.198 A 
ATOM     75  C   UNL A   1      48.375  26.985  24.177  1.00  0.00     0.198 A 
ATOM     76  F   UNL A   1      46.229  27.939  24.141  1.00  0.00    -0.203 F 
ATOM     77  F   UNL A   1      50.450  25.949  26.955  1.00  0.00    -0.200 F 
ATOM     78  C   UNL A   1      49.454  26.481  24.882  1.00  0.00     0.200 A 
ATOM     79  F   UNL A   1      48.417  27.048  22.840  1.00  0.00    -0.200 F 
ATOM     80  F   UNL A   1      50.555  26.083  24.232  1.00  0.00    -0.200 F 
ENDBRANCH  46  70
BRANCH  58  81
ATOM     81  C   UNL A   1      45.050  33.524  28.671  1.00  0.00     0.064 A 
ATOM     82  C   UNL A   1      44.820  34.443  27.637  1.00  0.00     0.173 A 
ATOM     83  C   UNL A   1      45.871  33.918  29.737  1.00  0.00     0.173 A 
ATOM     84  F   UNL A   1      44.061  34.101  26.586  1.00  0.00    -0.203 F 
ATOM     85  C   UNL A   1      45.402  35.708  27.667  1.00  0.00     0.198 A 
ATOM     86  C   UNL A   1      46.428  35.192  29.776  1.00  0.00     0.198 A 
ATOM     87  F   UNL A   1      46.119  33.071  30.748  1.00  0.00    -0.203 F 
ATOM     88  F   UNL A   1      45.201  36.559  26.651  1.00  0.00    -0.200 F 
ATOM     89  C   UNL A   1      46.197  36.083  28.740  1.00  0.00     0.200 A 
ATOM     90  F   UNL A   1      47.189  35.557  30.818  1.00  0.00    -0.200 F 
ATOM     91  F   UNL A   1      46.747  37.304  28.771  1.00  0.00    -0.200 F 
ENDBRANCH  58  81
ENDBRANCH  32  33
ENDBRANCH  25  27
ENDBRANCH  24  25
ENDBRANCH  23  24
ENDBRANCH   1  23
TORSDOF 17
ENDMDL
