MODEL 1
REMARK VINA RESULT:      -9.7      0.000      0.000
REMARK SMILES COc1cccc(C(=O)N[C@H]2C=C[C@@H](C(=O)OCCOC(=O)c3ccc(-c4c5nc(c(-c6c(F)c(F)c(F)c(F)c6F)c6ccc([nH]6)c(-c6c(F)c(F)c(F)c(F)c6F)c6nc(c(-c7c(F)c(F)c(F)c(F)c7F)c7ccc4[nH]7)C=C6)C=C5)cc3)C2)c1
REMARK SMILES IDX 18 1 17 2 15 3 16 4 14 5 11 6 12 7 86 8 13 9 10 10 8 11 9 12
REMARK SMILES IDX 7 14 3 15 4 16 87 17 5 18 6 19 2 20 1 21 19 22 20 23 21 24
REMARK SMILES IDX 22 25 23 26 24 27 85 28 25 29 84 30 26 31 27 32 28 33 78 34
REMARK SMILES IDX 29 35 83 36 77 37 79 38 30 39 82 40 76 41 75 42 31 44 63 45
REMARK SMILES IDX 43 46 62 47 44 48 47 49 61 50 80 51 45 52 46 53 60 55 81 56
REMARK SMILES IDX 48 57 32 58 33 59 41 60 34 61 35 62 39 63 42 64 36 65 37 66
REMARK SMILES IDX 40 67 38 68 64 69 65 70 73 71 66 72 67 73 71 74 74 75 68 76
REMARK SMILES IDX 69 77 72 78 70 79 49 80 50 81 58 82 51 83 52 84 56 85 59 86
REMARK SMILES IDX 53 87 54 88 57 89 55 90
REMARK H PARENT 10 13 79 43 47 54
REMARK Flexibility Score: inf
ROOT
ATOM      1  C   UNL A   1      43.587  18.792  25.144  1.00  0.00     0.274 C 
ENDROOT
BRANCH   1   2
ATOM      2  O   UNL A   1      44.974  18.488  25.394  1.00  0.00    -0.462 OA
BRANCH   2   3
ATOM      3  C   UNL A   1      45.865  19.490  25.177  1.00  0.00     0.312 C 
ATOM      4  O   UNL A   1      47.067  19.327  24.996  1.00  0.00    -0.252 OA
BRANCH   3   5
ATOM      5  C   UNL A   1      45.231  20.875  25.195  1.00  0.00     0.124 C 
ATOM      6  C   UNL A   1      45.675  23.273  25.086  1.00  0.00     0.106 C 
ATOM      7  C   UNL A   1      45.192  22.736  23.774  1.00  0.00    -0.006 C 
ATOM      8  C   UNL A   1      46.067  21.989  25.828  1.00  0.00     0.048 C 
ATOM      9  C   UNL A   1      44.945  21.421  23.830  1.00  0.00    -0.014 C 
BRANCH   6  10
ATOM     10  N   UNL A   1      46.820  24.122  24.863  1.00  0.00    -0.346 N 
ATOM     11  C   UNL A   1      47.006  25.475  24.975  1.00  0.00     0.251 C 
ATOM     12  O   UNL A   1      48.128  25.916  24.716  1.00  0.00    -0.269 OA
ATOM     13  H   UNL A   1      47.625  23.633  24.574  1.00  0.00     0.164 HD
BRANCH  11  14
ATOM     14  C   UNL A   1      45.926  26.438  25.336  1.00  0.00     0.043 A 
ATOM     15  C   UNL A   1      43.620  27.201  25.437  1.00  0.00     0.119 A 
ATOM     16  C   UNL A   1      44.033  28.358  26.100  1.00  0.00     0.046 A 
ATOM     17  C   UNL A   1      44.564  26.228  25.093  1.00  0.00     0.060 A 
ATOM     18  C   UNL A   1      45.378  28.554  26.404  1.00  0.00     0.005 A 
ATOM     19  C   UNL A   1      46.319  27.602  26.017  1.00  0.00     0.014 A 
BRANCH  15  20
ATOM     20  O   UNL A   1      42.274  27.131  25.199  1.00  0.00    -0.497 OA
ATOM     21  C   UNL A   1      41.506  28.296  25.476  1.00  0.00     0.278 C 
ENDBRANCH  15  20
ENDBRANCH  11  14
ENDBRANCH   6  10
ENDBRANCH   3   5
ENDBRANCH   2   3
ENDBRANCH   1   2
BRANCH   1  22
ATOM     22  C   UNL A   1      42.670  18.066  26.135  1.00  0.00     0.275 C 
BRANCH  22  23
ATOM     23  O   UNL A   1      42.109  18.969  27.109  1.00  0.00    -0.458 OA
BRANCH  23  24
ATOM     24  C   UNL A   1      41.342  19.959  26.597  1.00  0.00     0.338 C 
ATOM     25  O   UNL A   1      40.291  19.842  25.988  1.00  0.00    -0.246 OA
BRANCH  24  26
ATOM     26  C   UNL A   1      41.872  21.273  26.993  1.00  0.00     0.060 A 
ATOM     27  C   UNL A   1      42.134  21.484  28.350  1.00  0.00     0.016 A 
ATOM     28  C   UNL A   1      42.031  22.309  26.070  1.00  0.00     0.016 A 
ATOM     29  C   UNL A   1      42.547  22.735  28.795  1.00  0.00     0.010 A 
ATOM     30  C   UNL A   1      42.447  23.568  26.519  1.00  0.00     0.010 A 
ATOM     31  C   UNL A   1      42.693  23.790  27.884  1.00  0.00    -0.014 A 
BRANCH  31  32
ATOM     32  C   UNL A   1      43.065  25.134  28.385  1.00  0.00     0.031 A 
ATOM     33  C   UNL A   1      42.004  26.170  28.615  1.00  0.00     0.074 A 
ATOM     34  C   UNL A   1      44.352  25.407  28.670  1.00  0.00     0.049 A 
ATOM     35  N   UNL A   1      42.129  27.404  29.032  1.00  0.00    -0.248 NA
ATOM     36  C   UNL A   1      40.618  25.762  28.342  1.00  0.00     0.031 C 
ATOM     37  C   UNL A   1      45.464  24.469  28.520  1.00  0.00     0.029 A 
ATOM     38  N   UNL A   1      44.938  26.550  29.148  1.00  0.00    -0.354 N 
ATOM     39  C   UNL A   1      40.842  27.923  29.064  1.00  0.00     0.074 A 
ATOM     40  C   UNL A   1      39.952  26.878  28.605  1.00  0.00     0.031 C 
ATOM     41  C   UNL A   1      46.600  25.074  28.902  1.00  0.00     0.029 A 
ATOM     42  C   UNL A   1      46.300  26.450  29.291  1.00  0.00     0.049 A 
ATOM     43  H   UNL A   1      44.430  27.365  29.369  1.00  0.00     0.167 HD
ATOM     44  C   UNL A   1      40.443  29.160  29.446  1.00  0.00     0.037 A 
ATOM     45  C   UNL A   1      47.203  27.372  29.673  1.00  0.00     0.037 A 
ATOM     46  C   UNL A   1      41.328  30.196  29.909  1.00  0.00     0.049 A 
ATOM     47  C   UNL A   1      46.736  28.754  30.044  1.00  0.00     0.074 A 
ATOM     48  C   UNL A   1      41.015  31.477  30.330  1.00  0.00     0.029 A 
ATOM     49  N   UNL A   1      42.706  30.069  30.009  1.00  0.00    -0.354 N 
ATOM     50  N   UNL A   1      45.517  29.232  30.079  1.00  0.00    -0.248 NA
ATOM     51  C   UNL A   1      47.773  29.723  30.426  1.00  0.00     0.031 C 
ATOM     52  C   UNL A   1      42.207  32.138  30.650  1.00  0.00     0.029 A 
ATOM     53  C   UNL A   1      43.259  31.255  30.467  1.00  0.00     0.049 A 
ATOM     54  H   UNL A   1      43.216  29.257  29.787  1.00  0.00     0.167 HD
ATOM     55  C   UNL A   1      45.636  30.548  30.504  1.00  0.00     0.074 A 
ATOM     56  C   UNL A   1      47.046  30.789  30.729  1.00  0.00     0.031 C 
ATOM     57  C   UNL A   1      44.664  31.475  30.688  1.00  0.00     0.037 A 
BRANCH  44  58
ATOM     58  C   UNL A   1      38.978  29.470  29.360  1.00  0.00     0.064 A 
ATOM     59  C   UNL A   1      38.176  29.556  30.507  1.00  0.00     0.173 A 
ATOM     60  C   UNL A   1      38.379  29.720  28.117  1.00  0.00     0.173 A 
ATOM     61  F   UNL A   1      38.701  29.311  31.717  1.00  0.00    -0.203 F 
ATOM     62  C   UNL A   1      36.822  29.866  30.410  1.00  0.00     0.198 A 
ATOM     63  C   UNL A   1      37.030  30.052  28.026  1.00  0.00     0.198 A 
ATOM     64  F   UNL A   1      39.104  29.652  26.991  1.00  0.00    -0.203 F 
ATOM     65  F   UNL A   1      36.066  29.909  31.517  1.00  0.00    -0.200 F 
ATOM     66  C   UNL A   1      36.251  30.120  29.172  1.00  0.00     0.200 A 
ATOM     67  F   UNL A   1      36.481  30.305  26.830  1.00  0.00    -0.200 F 
ATOM     68  F   UNL A   1      34.949  30.423  29.082  1.00  0.00    -0.200 F 
ENDBRANCH  44  58
BRANCH  45  69
ATOM     69  C   UNL A   1      48.645  27.021  29.713  1.00  0.00     0.064 A 
ATOM     70  C   UNL A   1      49.214  26.439  30.854  1.00  0.00     0.173 A 
ATOM     71  C   UNL A   1      49.482  27.266  28.616  1.00  0.00     0.173 A 
ATOM     72  F   UNL A   1      48.457  26.209  31.937  1.00  0.00    -0.203 F 
ATOM     73  C   UNL A   1      50.571  26.128  30.899  1.00  0.00     0.198 A 
ATOM     74  C   UNL A   1      50.834  26.930  28.653  1.00  0.00     0.198 A 
ATOM     75  F   UNL A   1      48.983  27.823  27.503  1.00  0.00    -0.203 F 
ATOM     76  F   UNL A   1      51.100  25.610  32.015  1.00  0.00    -0.200 F 
ATOM     77  C   UNL A   1      51.378  26.368  29.797  1.00  0.00     0.200 A 
ATOM     78  F   UNL A   1      51.607  27.156  27.582  1.00  0.00    -0.200 F 
ATOM     79  F   UNL A   1      52.683  26.065  29.840  1.00  0.00    -0.200 F 
ENDBRANCH  45  69
BRANCH  57  80
ATOM     80  C   UNL A   1      45.092  32.826  31.180  1.00  0.00     0.064 A 
ATOM     81  C   UNL A   1      45.233  33.097  32.548  1.00  0.00     0.173 A 
ATOM     82  C   UNL A   1      45.395  33.850  30.269  1.00  0.00     0.173 A 
ATOM     83  F   UNL A   1      44.938  32.156  33.456  1.00  0.00    -0.203 F 
ATOM     84  C   UNL A   1      45.642  34.354  32.989  1.00  0.00     0.198 A 
ATOM     85  C   UNL A   1      45.828  35.096  30.713  1.00  0.00     0.198 A 
ATOM     86  F   UNL A   1      45.281  33.637  28.950  1.00  0.00    -0.203 F 
ATOM     87  F   UNL A   1      45.730  34.604  34.302  1.00  0.00    -0.200 F 
ATOM     88  C   UNL A   1      45.946  35.349  32.072  1.00  0.00     0.200 A 
ATOM     89  F   UNL A   1      46.130  36.054  29.826  1.00  0.00    -0.200 F 
ATOM     90  F   UNL A   1      46.343  36.555  32.498  1.00  0.00    -0.200 F 
ENDBRANCH  57  80
ENDBRANCH  31  32
ENDBRANCH  24  26
ENDBRANCH  23  24
ENDBRANCH  22  23
ENDBRANCH   1  22
TORSDOF 14
ENDMDL
MODEL 2
REMARK VINA RESULT:      -9.7      0.699      7.467
REMARK SMILES COc1cccc(C(=O)N[C@H]2C=C[C@@H](C(=O)OCCOC(=O)c3ccc(-c4c5nc(c(-c6c(F)c(F)c(F)c(F)c6F)c6ccc([nH]6)c(-c6c(F)c(F)c(F)c(F)c6F)c6nc(c(-c7c(F)c(F)c(F)c(F)c7F)c7ccc4[nH]7)C=C6)C=C5)cc3)C2)c1
REMARK SMILES IDX 18 1 17 2 15 3 16 4 14 5 11 6 12 7 86 8 13 9 10 10 8 11 9 12
REMARK SMILES IDX 7 14 3 15 4 16 87 17 5 18 6 19 2 20 1 21 19 22 20 23 21 24
REMARK SMILES IDX 22 25 23 26 24 27 85 28 25 29 84 30 26 31 27 32 28 33 78 34
REMARK SMILES IDX 29 35 83 36 77 37 79 38 30 39 82 40 76 41 75 42 31 44 63 45
REMARK SMILES IDX 43 46 62 47 44 48 47 49 61 50 80 51 45 52 46 53 60 55 81 56
REMARK SMILES IDX 48 57 32 58 33 59 41 60 34 61 35 62 39 63 42 64 36 65 37 66
REMARK SMILES IDX 40 67 38 68 64 69 65 70 73 71 66 72 67 73 71 74 74 75 68 76
REMARK SMILES IDX 69 77 72 78 70 79 49 80 50 81 58 82 51 83 52 84 56 85 59 86
REMARK SMILES IDX 53 87 54 88 57 89 55 90
REMARK H PARENT 10 13 79 43 47 54
REMARK Flexibility Score: inf
ROOT
ATOM      1  C   UNL A   1      43.794  18.816  25.334  1.00  0.00     0.274 C 
ENDROOT
BRANCH   1   2
ATOM      2  O   UNL A   1      45.224  18.645  25.402  1.00  0.00    -0.462 OA
BRANCH   2   3
ATOM      3  C   UNL A   1      45.981  19.713  25.041  1.00  0.00     0.312 C 
ATOM      4  O   UNL A   1      47.145  19.645  24.656  1.00  0.00    -0.252 OA
BRANCH   3   5
ATOM      5  C   UNL A   1      45.251  21.044  25.172  1.00  0.00     0.124 C 
ATOM      6  C   UNL A   1      45.514  23.471  25.185  1.00  0.00     0.106 C 
ATOM      7  C   UNL A   1      45.001  22.973  23.869  1.00  0.00    -0.006 C 
ATOM      8  C   UNL A   1      46.037  22.180  25.829  1.00  0.00     0.048 C 
ATOM      9  C   UNL A   1      44.854  21.642  23.857  1.00  0.00    -0.014 C 
BRANCH   6  10
ATOM     10  N   UNL A   1      46.581  24.414  24.958  1.00  0.00    -0.346 N 
ATOM     11  C   UNL A   1      46.655  25.777  25.083  1.00  0.00     0.251 C 
ATOM     12  O   UNL A   1      47.732  26.313  24.815  1.00  0.00    -0.269 OA
ATOM     13  H   UNL A   1      47.419  23.998  24.653  1.00  0.00     0.164 HD
BRANCH  11  14
ATOM     14  C   UNL A   1      45.503  26.642  25.468  1.00  0.00     0.043 A 
ATOM     15  C   UNL A   1      44.482  28.595  26.498  1.00  0.00     0.119 A 
ATOM     16  C   UNL A   1      43.223  28.145  26.096  1.00  0.00     0.046 A 
ATOM     17  C   UNL A   1      45.620  27.860  26.148  1.00  0.00     0.060 A 
ATOM     18  C   UNL A   1      43.094  26.967  25.367  1.00  0.00     0.005 A 
ATOM     19  C   UNL A   1      44.228  26.217  25.061  1.00  0.00     0.014 A 
BRANCH  15  20
ATOM     20  O   UNL A   1      44.470  29.765  27.207  1.00  0.00    -0.497 OA
ATOM     21  C   UNL A   1      45.398  30.769  26.817  1.00  0.00     0.278 C 
ENDBRANCH  15  20
ENDBRANCH  11  14
ENDBRANCH   6  10
ENDBRANCH   3   5
ENDBRANCH   2   3
ENDBRANCH   1   2
BRANCH   1  22
ATOM     22  C   UNL A   1      43.087  18.054  26.461  1.00  0.00     0.275 C 
BRANCH  22  23
ATOM     23  O   UNL A   1      42.195  18.905  27.207  1.00  0.00    -0.458 OA
BRANCH  23  24
ATOM     24  C   UNL A   1      41.504  19.801  26.466  1.00  0.00     0.338 C 
ATOM     25  O   UNL A   1      40.746  19.568  25.539  1.00  0.00    -0.246 OA
BRANCH  24  26
ATOM     26  C   UNL A   1      41.669  21.156  27.017  1.00  0.00     0.060 A 
ATOM     27  C   UNL A   1      41.898  22.198  26.113  1.00  0.00     0.016 A 
ATOM     28  C   UNL A   1      41.684  21.393  28.393  1.00  0.00     0.016 A 
ATOM     29  C   UNL A   1      42.155  23.483  26.581  1.00  0.00     0.010 A 
ATOM     30  C   UNL A   1      41.943  22.686  28.862  1.00  0.00     0.010 A 
ATOM     31  C   UNL A   1      42.193  23.733  27.959  1.00  0.00    -0.014 A 
BRANCH  31  32
ATOM     32  C   UNL A   1      42.537  25.091  28.440  1.00  0.00     0.031 A 
ATOM     33  C   UNL A   1      43.964  25.440  28.746  1.00  0.00     0.074 A 
ATOM     34  C   UNL A   1      41.571  26.020  28.563  1.00  0.00     0.049 A 
ATOM     35  N   UNL A   1      44.465  26.565  29.191  1.00  0.00    -0.248 NA
ATOM     36  C   UNL A   1      44.962  24.384  28.518  1.00  0.00     0.031 C 
ATOM     37  C   UNL A   1      40.156  25.807  28.262  1.00  0.00     0.029 A 
ATOM     38  N   UNL A   1      41.636  27.328  28.969  1.00  0.00    -0.354 N 
ATOM     39  C   UNL A   1      45.831  26.350  29.305  1.00  0.00     0.074 A 
ATOM     40  C   UNL A   1      46.081  24.982  28.901  1.00  0.00     0.031 C 
ATOM     41  C   UNL A   1      39.485  26.948  28.491  1.00  0.00     0.029 A 
ATOM     42  C   UNL A   1      40.417  27.958  28.986  1.00  0.00     0.049 A 
ATOM     43  H   UNL A   1      42.477  27.773  29.224  1.00  0.00     0.167 HD
ATOM     44  C   UNL A   1      46.789  27.220  29.705  1.00  0.00     0.037 A 
ATOM     45  C   UNL A   1      40.088  29.204  29.376  1.00  0.00     0.037 A 
ATOM     46  C   UNL A   1      46.541  28.582  30.100  1.00  0.00     0.049 A 
ATOM     47  C   UNL A   1      41.167  30.133  29.864  1.00  0.00     0.074 A 
ATOM     48  C   UNL A   1      47.448  29.543  30.509  1.00  0.00     0.029 A 
ATOM     49  N   UNL A   1      45.287  29.176  30.135  1.00  0.00    -0.354 N 
ATOM     50  N   UNL A   1      42.456  29.924  29.959  1.00  0.00    -0.248 NA
ATOM     51  C   UNL A   1      40.740  31.470  30.302  1.00  0.00     0.031 C 
ATOM     52  C   UNL A   1      46.741  30.708  30.828  1.00  0.00     0.029 A 
ATOM     53  C   UNL A   1      45.396  30.485  30.579  1.00  0.00     0.049 A 
ATOM     54  H   UNL A   1      44.445  28.733  29.883  1.00  0.00     0.167 HD
ATOM     55  C   UNL A   1      42.999  31.105  30.449  1.00  0.00     0.074 A 
ATOM     56  C   UNL A   1      41.899  32.033  30.615  1.00  0.00     0.031 C 
ATOM     57  C   UNL A   1      44.291  31.395  30.735  1.00  0.00     0.037 A 
BRANCH  44  58
ATOM     58  C   UNL A   1      48.201  26.717  29.759  1.00  0.00     0.064 A 
ATOM     59  C   UNL A   1      49.090  26.907  28.691  1.00  0.00     0.173 A 
ATOM     60  C   UNL A   1      48.680  26.070  30.908  1.00  0.00     0.173 A 
ATOM     61  F   UNL A   1      48.674  27.508  27.566  1.00  0.00    -0.203 F 
ATOM     62  C   UNL A   1      50.403  26.452  28.766  1.00  0.00     0.198 A 
ATOM     63  C   UNL A   1      50.000  25.636  30.987  1.00  0.00     0.198 A 
ATOM     64  F   UNL A   1      47.869  25.867  31.956  1.00  0.00    -0.203 F 
ATOM     65  F   UNL A   1      51.227  26.612  27.720  1.00  0.00    -0.200 F 
ATOM     66  C   UNL A   1      50.860  25.823  29.915  1.00  0.00     0.200 A 
ATOM     67  F   UNL A   1      50.441  25.036  32.101  1.00  0.00    -0.200 F 
ATOM     68  F   UNL A   1      52.126  25.390  29.987  1.00  0.00    -0.200 F 
ENDBRANCH  44  58
BRANCH  45  69
ATOM     69  C   UNL A   1      38.670  29.642  29.329  1.00  0.00     0.064 A 
ATOM     70  C   UNL A   1      37.927  29.807  30.505  1.00  0.00     0.173 A 
ATOM     71  C   UNL A   1      38.030  29.896  28.108  1.00  0.00     0.173 A 
ATOM     72  F   UNL A   1      38.491  29.552  31.696  1.00  0.00    -0.203 F 
ATOM     73  C   UNL A   1      36.591  30.199  30.460  1.00  0.00     0.198 A 
ATOM     74  C   UNL A   1      36.701  30.313  28.066  1.00  0.00     0.198 A 
ATOM     75  F   UNL A   1      38.699  29.750  26.956  1.00  0.00    -0.203 F 
ATOM     76  F   UNL A   1      35.890  30.311  31.597  1.00  0.00    -0.200 F 
ATOM     77  C   UNL A   1      35.981  30.458  29.242  1.00  0.00     0.200 A 
ATOM     78  F   UNL A   1      36.119  30.570  26.887  1.00  0.00    -0.200 F 
ATOM     79  F   UNL A   1      34.697  30.837  29.200  1.00  0.00    -0.200 F 
ENDBRANCH  45  69
BRANCH  57  80
ATOM     80  C   UNL A   1      44.588  32.777  31.236  1.00  0.00     0.064 A 
ATOM     81  C   UNL A   1      44.616  33.069  32.607  1.00  0.00     0.173 A 
ATOM     82  C   UNL A   1      44.880  33.811  30.334  1.00  0.00     0.173 A 
ATOM     83  F   UNL A   1      44.327  32.117  33.505  1.00  0.00    -0.203 F 
ATOM     84  C   UNL A   1      44.905  34.355  33.057  1.00  0.00     0.198 A 
ATOM     85  C   UNL A   1      45.193  35.090  30.789  1.00  0.00     0.198 A 
ATOM     86  F   UNL A   1      44.871  33.580  29.014  1.00  0.00    -0.203 F 
ATOM     87  F   UNL A   1      44.885  34.623  34.370  1.00  0.00    -0.200 F 
ATOM     88  C   UNL A   1      45.199  35.361  32.149  1.00  0.00     0.200 A 
ATOM     89  F   UNL A   1      45.485  36.058  29.912  1.00  0.00    -0.200 F 
ATOM     90  F   UNL A   1      45.480  36.597  32.585  1.00  0.00    -0.200 F 
ENDBRANCH  57  80
ENDBRANCH  31  32
ENDBRANCH  24  26
ENDBRANCH  23  24
ENDBRANCH  22  23
ENDBRANCH   1  22
TORSDOF 14
ENDMDL
MODEL 3
REMARK VINA RESULT:      -9.6      6.468     12.010
REMARK SMILES COc1cccc(C(=O)N[C@H]2C=C[C@@H](C(=O)OCCOC(=O)c3ccc(-c4c5nc(c(-c6c(F)c(F)c(F)c(F)c6F)c6ccc([nH]6)c(-c6c(F)c(F)c(F)c(F)c6F)c6nc(c(-c7c(F)c(F)c(F)c(F)c7F)c7ccc4[nH]7)C=C6)C=C5)cc3)C2)c1
REMARK SMILES IDX 18 1 17 2 15 3 16 4 14 5 11 6 12 7 86 8 13 9 10 10 8 11 9 12
REMARK SMILES IDX 7 14 3 15 4 16 87 17 5 18 6 19 2 20 1 21 19 22 20 23 21 24
REMARK SMILES IDX 22 25 23 26 24 27 85 28 25 29 84 30 26 31 27 32 28 33 78 34
REMARK SMILES IDX 29 35 83 36 77 37 79 38 30 39 82 40 76 41 75 42 31 44 63 45
REMARK SMILES IDX 43 46 62 47 44 48 47 49 61 50 80 51 45 52 46 53 60 55 81 56
REMARK SMILES IDX 48 57 32 58 33 59 41 60 34 61 35 62 39 63 42 64 36 65 37 66
REMARK SMILES IDX 40 67 38 68 64 69 65 70 73 71 66 72 67 73 71 74 74 75 68 76
REMARK SMILES IDX 69 77 72 78 70 79 49 80 50 81 58 82 51 83 52 84 56 85 59 86
REMARK SMILES IDX 53 87 54 88 57 89 55 90
REMARK H PARENT 10 13 79 43 47 54
REMARK Flexibility Score: inf
ROOT
ATOM      1  C   UNL A   1      33.908  35.137  28.630  1.00  0.00     0.274 C 
ENDROOT
BRANCH   1   2
ATOM      2  O   UNL A   1      33.808  33.733  28.937  1.00  0.00    -0.462 OA
BRANCH   2   3
ATOM      3  C   UNL A   1      34.766  32.926  28.412  1.00  0.00     0.312 C 
ATOM      4  O   UNL A   1      35.860  33.311  28.012  1.00  0.00    -0.252 OA
BRANCH   3   5
ATOM      5  C   UNL A   1      34.351  31.461  28.344  1.00  0.00     0.124 C 
ATOM      6  C   UNL A   1      33.614  29.663  26.866  1.00  0.00     0.106 C 
ATOM      7  C   UNL A   1      35.070  29.549  27.198  1.00  0.00    -0.006 C 
ATOM      8  C   UNL A   1      33.305  31.107  27.284  1.00  0.00     0.048 C 
ATOM      9  C   UNL A   1      35.478  30.534  28.010  1.00  0.00    -0.014 C 
BRANCH   6  10
ATOM     10  N   UNL A   1      33.430  29.476  25.448  1.00  0.00    -0.346 N 
ATOM     11  C   UNL A   1      33.191  28.363  24.684  1.00  0.00     0.251 C 
ATOM     12  O   UNL A   1      33.072  28.527  23.468  1.00  0.00    -0.269 OA
ATOM     13  H   UNL A   1      33.487  30.310  24.928  1.00  0.00     0.164 HD
BRANCH  11  14
ATOM     14  C   UNL A   1      33.124  26.977  25.228  1.00  0.00     0.043 A 
ATOM     15  C   UNL A   1      32.073  25.155  26.449  1.00  0.00     0.119 A 
ATOM     16  C   UNL A   1      33.167  24.335  26.161  1.00  0.00     0.046 A 
ATOM     17  C   UNL A   1      32.040  26.460  25.947  1.00  0.00     0.060 A 
ATOM     18  C   UNL A   1      34.226  24.814  25.395  1.00  0.00     0.005 A 
ATOM     19  C   UNL A   1      34.206  26.130  24.937  1.00  0.00     0.014 A 
BRANCH  15  20
ATOM     20  O   UNL A   1      31.103  24.562  27.209  1.00  0.00    -0.497 OA
ATOM     21  C   UNL A   1      30.567  23.332  26.735  1.00  0.00     0.278 C 
ENDBRANCH  15  20
ENDBRANCH  11  14
ENDBRANCH   6  10
ENDBRANCH   3   5
ENDBRANCH   2   3
ENDBRANCH   1   2
BRANCH   1  22
ATOM     22  C   UNL A   1      32.916  35.962  29.458  1.00  0.00     0.275 C 
BRANCH  22  23
ATOM     23  O   UNL A   1      32.405  35.217  30.582  1.00  0.00    -0.458 OA
BRANCH  23  24
ATOM     24  C   UNL A   1      32.754  35.700  31.796  1.00  0.00     0.338 C 
ATOM     25  O   UNL A   1      32.159  36.531  32.462  1.00  0.00    -0.246 OA
BRANCH  24  26
ATOM     26  C   UNL A   1      33.924  34.975  32.318  1.00  0.00     0.060 A 
ATOM     27  C   UNL A   1      35.175  35.585  32.187  1.00  0.00     0.016 A 
ATOM     28  C   UNL A   1      33.813  33.687  32.849  1.00  0.00     0.016 A 
ATOM     29  C   UNL A   1      36.326  34.908  32.576  1.00  0.00     0.010 A 
ATOM     30  C   UNL A   1      34.972  33.007  33.240  1.00  0.00     0.010 A 
ATOM     31  C   UNL A   1      36.234  33.608  33.092  1.00  0.00    -0.014 A 
BRANCH  31  32
ATOM     32  C   UNL A   1      37.474  32.875  33.436  1.00  0.00     0.031 A 
ATOM     33  C   UNL A   1      38.166  33.139  34.741  1.00  0.00     0.074 A 
ATOM     34  C   UNL A   1      37.954  31.943  32.591  1.00  0.00     0.049 A 
ATOM     35  N   UNL A   1      39.267  32.614  35.216  1.00  0.00    -0.248 NA
ATOM     36  C   UNL A   1      37.534  34.124  35.632  1.00  0.00     0.031 C 
ATOM     37  C   UNL A   1      37.348  31.576  31.311  1.00  0.00     0.029 A 
ATOM     38  N   UNL A   1      39.057  31.136  32.685  1.00  0.00    -0.354 N 
ATOM     39  C   UNL A   1      39.465  33.209  36.454  1.00  0.00     0.074 A 
ATOM     40  C   UNL A   1      38.381  34.149  36.651  1.00  0.00     0.031 C 
ATOM     41  C   UNL A   1      38.087  30.611  30.740  1.00  0.00     0.029 A 
ATOM     42  C   UNL A   1      39.234  30.318  31.596  1.00  0.00     0.049 A 
ATOM     43  H   UNL A   1      39.665  31.141  33.460  1.00  0.00     0.167 HD
ATOM     44  C   UNL A   1      40.458  32.984  37.346  1.00  0.00     0.037 A 
ATOM     45  C   UNL A   1      40.221  29.447  31.315  1.00  0.00     0.037 A 
ATOM     46  C   UNL A   1      41.531  32.044  37.153  1.00  0.00     0.049 A 
ATOM     47  C   UNL A   1      41.340  29.255  32.303  1.00  0.00     0.074 A 
ATOM     48  C   UNL A   1      42.577  31.738  38.006  1.00  0.00     0.029 A 
ATOM     49  N   UNL A   1      41.695  31.257  36.022  1.00  0.00    -0.354 N 
ATOM     50  N   UNL A   1      41.513  29.815  33.474  1.00  0.00    -0.248 NA
ATOM     51  C   UNL A   1      42.401  28.311  31.925  1.00  0.00     0.031 C 
ATOM     52  C   UNL A   1      43.395  30.793  37.376  1.00  0.00     0.029 A 
ATOM     53  C   UNL A   1      42.836  30.481  36.147  1.00  0.00     0.049 A 
ATOM     54  H   UNL A   1      41.090  31.251  35.245  1.00  0.00     0.167 HD
ATOM     55  C   UNL A   1      42.688  29.280  33.982  1.00  0.00     0.074 A 
ATOM     56  C   UNL A   1      43.179  28.338  32.998  1.00  0.00     0.031 C 
ATOM     57  C   UNL A   1      43.307  29.546  35.159  1.00  0.00     0.037 A 
BRANCH  44  58
ATOM     58  C   UNL A   1      40.445  33.789  38.612  1.00  0.00     0.064 A 
ATOM     59  C   UNL A   1      41.182  34.976  38.736  1.00  0.00     0.173 A 
ATOM     60  C   UNL A   1      39.655  33.387  39.699  1.00  0.00     0.173 A 
ATOM     61  F   UNL A   1      41.963  35.393  37.728  1.00  0.00    -0.203 F 
ATOM     62  C   UNL A   1      41.142  35.722  39.911  1.00  0.00     0.198 A 
ATOM     63  C   UNL A   1      39.600  34.147  40.863  1.00  0.00     0.198 A 
ATOM     64  F   UNL A   1      38.930  32.261  39.628  1.00  0.00    -0.203 F 
ATOM     65  F   UNL A   1      41.881  36.834  40.021  1.00  0.00    -0.200 F 
ATOM     66  C   UNL A   1      40.347  35.312  40.971  1.00  0.00     0.200 A 
ATOM     67  F   UNL A   1      38.825  33.754  41.884  1.00  0.00    -0.200 F 
ATOM     68  F   UNL A   1      40.305  36.034  42.098  1.00  0.00    -0.200 F 
ENDBRANCH  44  58
BRANCH  45  69
ATOM     69  C   UNL A   1      40.200  28.697  30.034  1.00  0.00     0.064 A 
ATOM     70  C   UNL A   1      40.813  29.213  28.885  1.00  0.00     0.173 A 
ATOM     71  C   UNL A   1      39.560  27.453  29.933  1.00  0.00     0.173 A 
ATOM     72  F   UNL A   1      41.416  30.410  28.928  1.00  0.00    -0.203 F 
ATOM     73  C   UNL A   1      40.776  28.518  27.678  1.00  0.00     0.198 A 
ATOM     74  C   UNL A   1      39.546  26.747  28.732  1.00  0.00     0.198 A 
ATOM     75  F   UNL A   1      38.957  26.920  31.005  1.00  0.00    -0.203 F 
ATOM     76  F   UNL A   1      41.335  29.051  26.583  1.00  0.00    -0.200 F 
ATOM     77  C   UNL A   1      40.148  27.283  27.604  1.00  0.00     0.200 A 
ATOM     78  F   UNL A   1      38.946  25.551  28.668  1.00  0.00    -0.200 F 
ATOM     79  F   UNL A   1      40.115  26.614  26.443  1.00  0.00    -0.200 F 
ENDBRANCH  45  69
BRANCH  57  80
ATOM     80  C   UNL A   1      44.569  28.791  35.454  1.00  0.00     0.064 A 
ATOM     81  C   UNL A   1      45.827  29.298  35.096  1.00  0.00     0.173 A 
ATOM     82  C   UNL A   1      44.521  27.564  36.132  1.00  0.00     0.173 A 
ATOM     83  F   UNL A   1      45.922  30.458  34.432  1.00  0.00    -0.203 F 
ATOM     84  C   UNL A   1      46.991  28.591  35.388  1.00  0.00     0.198 A 
ATOM     85  C   UNL A   1      45.688  26.872  36.444  1.00  0.00     0.198 A 
ATOM     86  F   UNL A   1      43.342  27.041  36.500  1.00  0.00    -0.203 F 
ATOM     87  F   UNL A   1      48.179  29.073  34.999  1.00  0.00    -0.200 F 
ATOM     88  C   UNL A   1      46.921  27.384  36.066  1.00  0.00     0.200 A 
ATOM     89  F   UNL A   1      45.620  25.710  37.107  1.00  0.00    -0.200 F 
ATOM     90  F   UNL A   1      48.043  26.707  36.349  1.00  0.00    -0.200 F 
ENDBRANCH  57  80
ENDBRANCH  31  32
ENDBRANCH  24  26
ENDBRANCH  23  24
ENDBRANCH  22  23
ENDBRANCH   1  22
TORSDOF 14
ENDMDL
