MODEL 1
REMARK VINA RESULT:     -13.5      0.000      0.000
REMARK SMILES Cc1ccc(OCC(=O)NNC(=O)[C@H]2CCCC[C@@H]2C(=O)OCCOC(=O)c2ccc(-c3c4nc(c(-c5c(F)c(F)c(F)c(F)c5F)c5ccc([nH]5)c(-c5c(F)c(F)c(F)c(F)c5F)c5nc(c(-c6c(F)c(F)c(F)c(F)c6F)c6ccc3[nH]6)C=C5)C=C4)cc2)cc1
REMARK SMILES IDX 22 1 20 2 21 3 19 4 14 5 15 6 16 7 18 8 17 9 12 10 11 11
REMARK SMILES IDX 13 13 10 14 8 15 9 16 7 18 6 19 5 20 1 21 2 22 3 23 92 24
REMARK SMILES IDX 4 25 91 26 23 27 24 28 25 29 26 30 27 31 28 32 29 33 90 34
REMARK SMILES IDX 30 35 89 36 31 37 32 38 33 39 83 40 34 41 88 42 82 43 84 44
REMARK SMILES IDX 35 45 87 46 81 47 80 48 36 50 68 51 48 52 67 53 49 54 52 55
REMARK SMILES IDX 66 56 85 57 50 58 51 59 65 61 86 62 53 63 37 64 38 65 46 66
REMARK SMILES IDX 39 67 40 68 44 69 47 70 41 71 42 72 45 73 43 74 69 75 70 76
REMARK SMILES IDX 78 77 71 78 72 79 76 80 79 81 73 82 74 83 77 84 75 85 54 86
REMARK SMILES IDX 55 87 63 88 56 89 57 90 61 91 64 92 58 93 59 94 62 95 60 96
REMARK H PARENT 11 12 10 17 84 49 52 60
REMARK Flexibility Score: inf
ROOT
ATOM      1  O   UNL A   1      31.776  28.355  26.373  1.00  0.00    -0.462 OA
ENDROOT
BRANCH   1   2
ATOM      2  C   UNL A   1      31.325  28.884  25.197  1.00  0.00     0.309 C 
ATOM      3  O   UNL A   1      31.130  30.082  25.027  1.00  0.00    -0.252 OA
BRANCH   2   4
ATOM      4  C   UNL A   1      30.995  27.822  24.157  1.00  0.00     0.111 C 
ATOM      5  C   UNL A   1      31.801  26.522  24.367  1.00  0.00     0.094 C 
ATOM      6  C   UNL A   1      33.306  26.700  24.077  1.00  0.00     0.014 C 
ATOM      7  C   UNL A   1      33.619  27.421  22.764  1.00  0.00     0.001 C 
ATOM      8  C   UNL A   1      31.271  28.438  22.779  1.00  0.00     0.016 C 
ATOM      9  C   UNL A   1      32.763  28.655  22.504  1.00  0.00     0.001 C 
BRANCH   5  10
ATOM     10  C   UNL A   1      31.254  25.391  23.489  1.00  0.00     0.242 C 
ATOM     11  N   UNL A   1      30.596  24.332  24.044  1.00  0.00    -0.267 N 
ATOM     12  H   UNL A   1      30.353  23.596  23.436  1.00  0.00     0.191 HD
ATOM     13  O   UNL A   1      31.380  25.390  22.263  1.00  0.00    -0.273 OA
BRANCH  11  14
ATOM     14  N   UNL A   1      30.238  24.186  25.371  1.00  0.00    -0.265 N 
ATOM     15  C   UNL A   1      30.934  23.375  26.241  1.00  0.00     0.276 C 
ATOM     16  O   UNL A   1      30.623  23.340  27.432  1.00  0.00    -0.269 OA
ATOM     17  H   UNL A   1      29.457  24.680  25.709  1.00  0.00     0.191 HD
BRANCH  15  18
ATOM     18  C   UNL A   1      32.145  22.593  25.709  1.00  0.00     0.331 C 
BRANCH  18  19
ATOM     19  O   UNL A   1      33.187  23.361  25.131  1.00  0.00    -0.484 OA
BRANCH  19  20
ATOM     20  C   UNL A   1      34.467  22.896  25.257  1.00  0.00     0.120 A 
ATOM     21  C   UNL A   1      38.615  21.852  25.813  1.00  0.00     0.044 C 
ATOM     22  C   UNL A   1      37.177  22.213  25.597  1.00  0.00    -0.051 A 
ATOM     23  C   UNL A   1      36.768  23.547  25.673  1.00  0.00     0.007 A 
ATOM     24  C   UNL A   1      36.218  21.226  25.343  1.00  0.00     0.007 A 
ATOM     25  C   UNL A   1      35.423  23.884  25.501  1.00  0.00     0.047 A 
ATOM     26  C   UNL A   1      34.872  21.564  25.173  1.00  0.00     0.047 A 
ENDBRANCH  19  20
ENDBRANCH  18  19
ENDBRANCH  15  18
ENDBRANCH  11  14
ENDBRANCH   5  10
ENDBRANCH   2   4
ENDBRANCH   1   2
BRANCH   1  27
ATOM     27  C   UNL A   1      32.358  29.337  27.246  1.00  0.00     0.274 C 
BRANCH  27  28
ATOM     28  C   UNL A   1      33.884  29.250  27.338  1.00  0.00     0.275 C 
BRANCH  28  29
ATOM     29  O   UNL A   1      34.616  30.452  27.688  1.00  0.00    -0.458 OA
BRANCH  29  30
ATOM     30  C   UNL A   1      35.513  30.645  28.680  1.00  0.00     0.338 C 
ATOM     31  O   UNL A   1      35.284  31.363  29.646  1.00  0.00    -0.246 OA
BRANCH  30  32
ATOM     32  C   UNL A   1      36.767  29.889  28.626  1.00  0.00     0.060 A 
ATOM     33  C   UNL A   1      37.602  30.080  27.518  1.00  0.00     0.016 A 
ATOM     34  C   UNL A   1      37.138  29.055  29.679  1.00  0.00     0.016 A 
ATOM     35  C   UNL A   1      38.881  29.533  27.523  1.00  0.00     0.010 A 
ATOM     36  C   UNL A   1      38.421  28.535  29.694  1.00  0.00     0.010 A 
ATOM     37  C   UNL A   1      39.303  28.796  28.634  1.00  0.00    -0.014 A 
BRANCH  37  38
ATOM     38  C   UNL A   1      40.570  28.075  28.643  1.00  0.00     0.031 A 
ATOM     39  C   UNL A   1      40.729  26.654  28.256  1.00  0.00     0.074 A 
ATOM     40  C   UNL A   1      41.610  28.772  29.143  1.00  0.00     0.049 A 
ATOM     41  N   UNL A   1      41.603  25.867  28.799  1.00  0.00    -0.248 NA
ATOM     42  C   UNL A   1      39.900  25.982  27.258  1.00  0.00     0.031 C 
ATOM     43  C   UNL A   1      43.019  28.420  29.180  1.00  0.00     0.029 A 
ATOM     44  N   UNL A   1      41.496  29.897  29.977  1.00  0.00    -0.354 N 
ATOM     45  C   UNL A   1      41.602  24.686  28.094  1.00  0.00     0.074 A 
ATOM     46  C   UNL A   1      40.464  24.765  27.206  1.00  0.00     0.031 C 
ATOM     47  C   UNL A   1      43.595  29.108  30.182  1.00  0.00     0.029 A 
ATOM     48  C   UNL A   1      42.523  29.765  30.922  1.00  0.00     0.049 A 
ATOM     49  H   UNL A   1      40.835  30.624  29.912  1.00  0.00     0.167 HD
ATOM     50  C   UNL A   1      42.641  23.813  28.212  1.00  0.00     0.037 A 
ATOM     51  C   UNL A   1      42.236  29.564  32.241  1.00  0.00     0.037 A 
ATOM     52  C   UNL A   1      43.680  24.326  29.087  1.00  0.00     0.049 A 
ATOM     53  C   UNL A   1      42.913  28.355  32.832  1.00  0.00     0.074 A 
ATOM     54  C   UNL A   1      44.819  25.071  28.834  1.00  0.00     0.029 A 
ATOM     55  N   UNL A   1      43.470  24.381  30.451  1.00  0.00    -0.354 N 
ATOM     56  N   UNL A   1      43.273  27.315  32.134  1.00  0.00    -0.248 NA
ATOM     57  C   UNL A   1      43.155  28.192  34.263  1.00  0.00     0.031 C 
ATOM     58  C   UNL A   1      45.314  25.559  30.068  1.00  0.00     0.029 A 
ATOM     59  C   UNL A   1      44.472  25.106  31.064  1.00  0.00     0.049 A 
ATOM     60  H   UNL A   1      42.712  23.961  30.920  1.00  0.00     0.167 HD
ATOM     61  C   UNL A   1      43.863  26.409  32.970  1.00  0.00     0.074 A 
ATOM     62  C   UNL A   1      43.707  26.968  34.299  1.00  0.00     0.031 C 
ATOM     63  C   UNL A   1      44.458  25.279  32.501  1.00  0.00     0.037 A 
BRANCH  50  64
ATOM     64  C   UNL A   1      42.841  22.633  27.300  1.00  0.00     0.064 A 
ATOM     65  C   UNL A   1      42.052  21.471  27.434  1.00  0.00     0.173 A 
ATOM     66  C   UNL A   1      43.812  22.592  26.283  1.00  0.00     0.173 A 
ATOM     67  F   UNL A   1      41.058  21.397  28.328  1.00  0.00    -0.203 F 
ATOM     68  C   UNL A   1      42.273  20.324  26.670  1.00  0.00     0.198 A 
ATOM     69  C   UNL A   1      44.051  21.433  25.535  1.00  0.00     0.198 A 
ATOM     70  F   UNL A   1      44.545  23.678  25.995  1.00  0.00    -0.203 F 
ATOM     71  F   UNL A   1      41.507  19.240  26.862  1.00  0.00    -0.200 F 
ATOM     72  C   UNL A   1      43.289  20.295  25.738  1.00  0.00     0.200 A 
ATOM     73  F   UNL A   1      45.034  21.415  24.624  1.00  0.00    -0.200 F 
ATOM     74  F   UNL A   1      43.533  19.178  25.040  1.00  0.00    -0.200 F 
ENDBRANCH  50  64
BRANCH  51  75
ATOM     75  C   UNL A   1      40.899  30.042  32.701  1.00  0.00     0.064 A 
ATOM     76  C   UNL A   1      40.625  31.423  32.770  1.00  0.00     0.173 A 
ATOM     77  C   UNL A   1      39.813  29.169  32.850  1.00  0.00     0.173 A 
ATOM     78  F   UNL A   1      41.622  32.314  32.633  1.00  0.00    -0.203 F 
ATOM     79  C   UNL A   1      39.323  31.903  32.909  1.00  0.00     0.198 A 
ATOM     80  C   UNL A   1      38.512  29.652  32.999  1.00  0.00     0.198 A 
ATOM     81  F   UNL A   1      39.990  27.841  32.787  1.00  0.00    -0.203 F 
ATOM     82  F   UNL A   1      39.093  33.224  32.898  1.00  0.00    -0.200 F 
ATOM     83  C   UNL A   1      38.266  31.015  33.010  1.00  0.00     0.200 A 
ATOM     84  F   UNL A   1      37.484  28.792  33.066  1.00  0.00    -0.200 F 
ATOM     85  F   UNL A   1      37.007  31.466  33.090  1.00  0.00    -0.200 F 
ENDBRANCH  51  75
BRANCH  63  86
ATOM     86  C   UNL A   1      45.152  24.264  33.349  1.00  0.00     0.064 A 
ATOM     87  C   UNL A   1      46.500  24.366  33.718  1.00  0.00     0.173 A 
ATOM     88  C   UNL A   1      44.489  23.070  33.707  1.00  0.00     0.173 A 
ATOM     89  F   UNL A   1      47.238  25.420  33.344  1.00  0.00    -0.203 F 
ATOM     90  C   UNL A   1      47.128  23.364  34.458  1.00  0.00     0.198 A 
ATOM     91  C   UNL A   1      45.133  22.050  34.399  1.00  0.00     0.198 A 
ATOM     92  F   UNL A   1      43.197  22.873  33.402  1.00  0.00    -0.203 F 
ATOM     93  F   UNL A   1      48.403  23.521  34.839  1.00  0.00    -0.200 F 
ATOM     94  C   UNL A   1      46.448  22.204  34.791  1.00  0.00     0.200 A 
ATOM     95  F   UNL A   1      44.472  20.919  34.685  1.00  0.00    -0.200 F 
ATOM     96  F   UNL A   1      47.060  21.237  35.485  1.00  0.00    -0.200 F 
ENDBRANCH  63  86
ENDBRANCH  37  38
ENDBRANCH  30  32
ENDBRANCH  29  30
ENDBRANCH  28  29
ENDBRANCH  27  28
ENDBRANCH   1  27
TORSDOF 16
ENDMDL
MODEL 2
REMARK VINA RESULT:     -13.2      0.348      1.595
REMARK SMILES Cc1ccc(OCC(=O)NNC(=O)[C@H]2CCCC[C@@H]2C(=O)OCCOC(=O)c2ccc(-c3c4nc(c(-c5c(F)c(F)c(F)c(F)c5F)c5ccc([nH]5)c(-c5c(F)c(F)c(F)c(F)c5F)c5nc(c(-c6c(F)c(F)c(F)c(F)c6F)c6ccc3[nH]6)C=C5)C=C4)cc2)cc1
REMARK SMILES IDX 22 1 20 2 21 3 19 4 14 5 15 6 16 7 18 8 17 9 12 10 11 11
REMARK SMILES IDX 13 13 10 14 8 15 9 16 7 18 6 19 5 20 1 21 2 22 3 23 92 24
REMARK SMILES IDX 4 25 91 26 23 27 24 28 25 29 26 30 27 31 28 32 29 33 90 34
REMARK SMILES IDX 30 35 89 36 31 37 32 38 33 39 83 40 34 41 88 42 82 43 84 44
REMARK SMILES IDX 35 45 87 46 81 47 80 48 36 50 68 51 48 52 67 53 49 54 52 55
REMARK SMILES IDX 66 56 85 57 50 58 51 59 65 61 86 62 53 63 37 64 38 65 46 66
REMARK SMILES IDX 39 67 40 68 44 69 47 70 41 71 42 72 45 73 43 74 69 75 70 76
REMARK SMILES IDX 78 77 71 78 72 79 76 80 79 81 73 82 74 83 77 84 75 85 54 86
REMARK SMILES IDX 55 87 63 88 56 89 57 90 61 91 64 92 58 93 59 94 62 95 60 96
REMARK H PARENT 11 12 10 17 84 49 52 60
REMARK Flexibility Score: inf
ROOT
ATOM      1  O   UNL A   1      31.654  28.543  26.497  1.00  0.00    -0.462 OA
ENDROOT
BRANCH   1   2
ATOM      2  C   UNL A   1      31.354  29.035  25.259  1.00  0.00     0.309 C 
ATOM      3  O   UNL A   1      31.272  30.232  25.011  1.00  0.00    -0.252 OA
BRANCH   2   4
ATOM      4  C   UNL A   1      31.033  27.943  24.248  1.00  0.00     0.111 C 
ATOM      5  C   UNL A   1      31.706  26.599  24.600  1.00  0.00     0.094 C 
ATOM      6  C   UNL A   1      33.241  26.642  24.445  1.00  0.00     0.014 C 
ATOM      7  C   UNL A   1      33.729  27.258  23.132  1.00  0.00     0.001 C 
ATOM      8  C   UNL A   1      31.482  28.453  22.872  1.00  0.00     0.016 C 
ATOM      9  C   UNL A   1      33.005  28.537  22.730  1.00  0.00     0.001 C 
BRANCH   5  10
ATOM     10  C   UNL A   1      31.149  25.463  23.733  1.00  0.00     0.242 C 
ATOM     11  N   UNL A   1      30.634  24.337  24.305  1.00  0.00    -0.267 N 
ATOM     12  H   UNL A   1      30.379  23.609  23.693  1.00  0.00     0.191 HD
ATOM     13  O   UNL A   1      31.140  25.519  22.502  1.00  0.00    -0.273 OA
BRANCH  11  14
ATOM     14  N   UNL A   1      30.435  24.113  25.655  1.00  0.00    -0.265 N 
ATOM     15  C   UNL A   1      31.163  23.184  26.366  1.00  0.00     0.276 C 
ATOM     16  O   UNL A   1      31.003  23.077  27.583  1.00  0.00    -0.269 OA
ATOM     17  H   UNL A   1      29.748  24.636  26.126  1.00  0.00     0.191 HD
BRANCH  15  18
ATOM     18  C   UNL A   1      32.226  22.358  25.626  1.00  0.00     0.331 C 
BRANCH  18  19
ATOM     19  O   UNL A   1      33.232  23.088  24.945  1.00  0.00    -0.484 OA
BRANCH  19  20
ATOM     20  C   UNL A   1      34.532  22.707  25.129  1.00  0.00     0.120 A 
ATOM     21  C   UNL A   1      38.698  21.912  25.918  1.00  0.00     0.044 C 
ATOM     22  C   UNL A   1      37.255  22.189  25.621  1.00  0.00    -0.051 A 
ATOM     23  C   UNL A   1      36.735  23.474  25.802  1.00  0.00     0.007 A 
ATOM     24  C   UNL A   1      36.402  21.169  25.186  1.00  0.00     0.007 A 
ATOM     25  C   UNL A   1      35.383  23.729  25.554  1.00  0.00     0.047 A 
ATOM     26  C   UNL A   1      35.049  21.426  24.940  1.00  0.00     0.047 A 
ENDBRANCH  19  20
ENDBRANCH  18  19
ENDBRANCH  15  18
ENDBRANCH  11  14
ENDBRANCH   5  10
ENDBRANCH   2   4
ENDBRANCH   1   2
BRANCH   1  27
ATOM     27  C   UNL A   1      32.483  29.426  27.269  1.00  0.00     0.274 C 
BRANCH  27  28
ATOM     28  C   UNL A   1      33.956  29.411  26.850  1.00  0.00     0.275 C 
BRANCH  28  29
ATOM     29  O   UNL A   1      34.795  30.519  27.265  1.00  0.00    -0.458 OA
BRANCH  29  30
ATOM     30  C   UNL A   1      35.609  30.615  28.340  1.00  0.00     0.338 C 
ATOM     31  O   UNL A   1      35.309  31.257  29.339  1.00  0.00    -0.246 OA
BRANCH  30  32
ATOM     32  C   UNL A   1      36.855  29.844  28.327  1.00  0.00     0.060 A 
ATOM     33  C   UNL A   1      37.683  29.953  27.203  1.00  0.00     0.016 A 
ATOM     34  C   UNL A   1      37.225  29.077  29.430  1.00  0.00     0.016 A 
ATOM     35  C   UNL A   1      38.957  29.394  27.235  1.00  0.00     0.010 A 
ATOM     36  C   UNL A   1      38.503  28.545  29.471  1.00  0.00     0.010 A 
ATOM     37  C   UNL A   1      39.380  28.727  28.390  1.00  0.00    -0.014 A 
BRANCH  37  38
ATOM     38  C   UNL A   1      40.639  27.994  28.438  1.00  0.00     0.031 A 
ATOM     39  C   UNL A   1      40.785  26.556  28.113  1.00  0.00     0.074 A 
ATOM     40  C   UNL A   1      41.683  28.702  28.914  1.00  0.00     0.049 A 
ATOM     41  N   UNL A   1      41.649  25.785  28.695  1.00  0.00    -0.248 NA
ATOM     42  C   UNL A   1      39.955  25.850  27.140  1.00  0.00     0.031 C 
ATOM     43  C   UNL A   1      43.088  28.338  28.974  1.00  0.00     0.029 A 
ATOM     44  N   UNL A   1      41.576  29.862  29.698  1.00  0.00    -0.354 N 
ATOM     45  C   UNL A   1      41.639  24.574  28.041  1.00  0.00     0.074 A 
ATOM     46  C   UNL A   1      40.508  24.627  27.144  1.00  0.00     0.031 C 
ATOM     47  C   UNL A   1      43.665  29.063  29.949  1.00  0.00     0.029 A 
ATOM     48  C   UNL A   1      42.596  29.761  30.654  1.00  0.00     0.049 A 
ATOM     49  H   UNL A   1      40.923  30.593  29.597  1.00  0.00     0.167 HD
ATOM     50  C   UNL A   1      42.669  23.698  28.204  1.00  0.00     0.037 A 
ATOM     51  C   UNL A   1      42.300  29.620  31.978  1.00  0.00     0.037 A 
ATOM     52  C   UNL A   1      43.708  24.237  29.062  1.00  0.00     0.049 A 
ATOM     53  C   UNL A   1      42.960  28.432  32.625  1.00  0.00     0.074 A 
ATOM     54  C   UNL A   1      44.856  24.960  28.784  1.00  0.00     0.029 A 
ATOM     55  N   UNL A   1      43.490  24.353  30.421  1.00  0.00    -0.354 N 
ATOM     56  N   UNL A   1      43.314  27.359  31.975  1.00  0.00    -0.248 NA
ATOM     57  C   UNL A   1      43.193  28.328  34.063  1.00  0.00     0.031 C 
ATOM     58  C   UNL A   1      45.349  25.495  29.999  1.00  0.00     0.029 A 
ATOM     59  C   UNL A   1      44.496  25.094  31.009  1.00  0.00     0.049 A 
ATOM     60  H   UNL A   1      42.726  23.961  30.903  1.00  0.00     0.167 HD
ATOM     61  C   UNL A   1      43.890  26.484  32.853  1.00  0.00     0.074 A 
ATOM     62  C   UNL A   1      43.732  27.102  34.155  1.00  0.00     0.031 C 
ATOM     63  C   UNL A   1      44.476  25.329  32.437  1.00  0.00     0.037 A 
BRANCH  50  64
ATOM     64  C   UNL A   1      42.862  22.477  27.345  1.00  0.00     0.064 A 
ATOM     65  C   UNL A   1      43.881  22.431  26.369  1.00  0.00     0.173 A 
ATOM     66  C   UNL A   1      42.058  21.327  27.435  1.00  0.00     0.173 A 
ATOM     67  F   UNL A   1      44.750  23.438  26.214  1.00  0.00    -0.203 F 
ATOM     68  C   UNL A   1      44.028  21.356  25.491  1.00  0.00     0.198 A 
ATOM     69  C   UNL A   1      42.189  20.260  26.538  1.00  0.00     0.198 A 
ATOM     70  F   UNL A   1      41.130  21.217  28.398  1.00  0.00    -0.203 F 
ATOM     71  F   UNL A   1      44.999  21.382  24.566  1.00  0.00    -0.200 F 
ATOM     72  C   UNL A   1      43.166  20.281  25.558  1.00  0.00     0.200 A 
ATOM     73  F   UNL A   1      41.354  19.214  26.615  1.00  0.00    -0.200 F 
ATOM     74  F   UNL A   1      43.277  19.272  24.684  1.00  0.00    -0.200 F 
ENDBRANCH  50  64
BRANCH  51  75
ATOM     75  C   UNL A   1      40.964  30.131  32.409  1.00  0.00     0.064 A 
ATOM     76  C   UNL A   1      39.870  29.250  32.517  1.00  0.00     0.173 A 
ATOM     77  C   UNL A   1      40.801  31.418  32.937  1.00  0.00     0.173 A 
ATOM     78  F   UNL A   1      39.961  28.000  32.032  1.00  0.00    -0.203 F 
ATOM     79  C   UNL A   1      38.701  29.617  33.183  1.00  0.00     0.198 A 
ATOM     80  C   UNL A   1      39.626  31.787  33.594  1.00  0.00     0.198 A 
ATOM     81  F   UNL A   1      41.799  32.312  32.882  1.00  0.00    -0.203 F 
ATOM     82  F   UNL A   1      37.708  28.727  33.329  1.00  0.00    -0.200 F 
ATOM     83  C   UNL A   1      38.586  30.882  33.733  1.00  0.00     0.200 A 
ATOM     84  F   UNL A   1      39.527  33.002  34.154  1.00  0.00    -0.200 F 
ATOM     85  F   UNL A   1      37.489  31.225  34.420  1.00  0.00    -0.200 F 
ENDBRANCH  51  75
BRANCH  63  86
ATOM     86  C   UNL A   1      45.155  24.344  33.332  1.00  0.00     0.064 A 
ATOM     87  C   UNL A   1      46.494  24.464  33.726  1.00  0.00     0.173 A 
ATOM     88  C   UNL A   1      44.489  23.160  33.714  1.00  0.00     0.173 A 
ATOM     89  F   UNL A   1      47.236  25.509  33.334  1.00  0.00    -0.203 F 
ATOM     90  C   UNL A   1      47.109  23.489  34.512  1.00  0.00     0.198 A 
ATOM     91  C   UNL A   1      45.121  22.165  34.453  1.00  0.00     0.198 A 
ATOM     92  F   UNL A   1      43.204  22.949  33.387  1.00  0.00    -0.203 F 
ATOM     93  F   UNL A   1      48.376  23.664  34.915  1.00  0.00    -0.200 F 
ATOM     94  C   UNL A   1      46.426  22.338  34.867  1.00  0.00     0.200 A 
ATOM     95  F   UNL A   1      44.457  21.042  34.761  1.00  0.00    -0.200 F 
ATOM     96  F   UNL A   1      47.027  21.396  35.605  1.00  0.00    -0.200 F 
ENDBRANCH  63  86
ENDBRANCH  37  38
ENDBRANCH  30  32
ENDBRANCH  29  30
ENDBRANCH  28  29
ENDBRANCH  27  28
ENDBRANCH   1  27
TORSDOF 16
ENDMDL
MODEL 3
REMARK VINA RESULT:     -13.2      0.339      1.601
REMARK SMILES Cc1ccc(OCC(=O)NNC(=O)[C@H]2CCCC[C@@H]2C(=O)OCCOC(=O)c2ccc(-c3c4nc(c(-c5c(F)c(F)c(F)c(F)c5F)c5ccc([nH]5)c(-c5c(F)c(F)c(F)c(F)c5F)c5nc(c(-c6c(F)c(F)c(F)c(F)c6F)c6ccc3[nH]6)C=C5)C=C4)cc2)cc1
REMARK SMILES IDX 22 1 20 2 21 3 19 4 14 5 15 6 16 7 18 8 17 9 12 10 11 11
REMARK SMILES IDX 13 13 10 14 8 15 9 16 7 18 6 19 5 20 1 21 2 22 3 23 92 24
REMARK SMILES IDX 4 25 91 26 23 27 24 28 25 29 26 30 27 31 28 32 29 33 90 34
REMARK SMILES IDX 30 35 89 36 31 37 32 38 33 39 83 40 34 41 88 42 82 43 84 44
REMARK SMILES IDX 35 45 87 46 81 47 80 48 36 50 68 51 48 52 67 53 49 54 52 55
REMARK SMILES IDX 66 56 85 57 50 58 51 59 65 61 86 62 53 63 37 64 38 65 46 66
REMARK SMILES IDX 39 67 40 68 44 69 47 70 41 71 42 72 45 73 43 74 69 75 70 76
REMARK SMILES IDX 78 77 71 78 72 79 76 80 79 81 73 82 74 83 77 84 75 85 54 86
REMARK SMILES IDX 55 87 63 88 56 89 57 90 61 91 64 92 58 93 59 94 62 95 60 96
REMARK H PARENT 11 12 10 17 84 49 52 60
REMARK Flexibility Score: inf
ROOT
ATOM      1  O   UNL A   1      31.748  28.600  26.670  1.00  0.00    -0.462 OA
ENDROOT
BRANCH   1   2
ATOM      2  C   UNL A   1      31.419  29.145  25.462  1.00  0.00     0.309 C 
ATOM      3  O   UNL A   1      31.349  30.353  25.264  1.00  0.00    -0.252 OA
BRANCH   2   4
ATOM      4  C   UNL A   1      31.052  28.099  24.418  1.00  0.00     0.111 C 
ATOM      5  C   UNL A   1      31.690  26.725  24.714  1.00  0.00     0.094 C 
ATOM      6  C   UNL A   1      33.223  26.728  24.538  1.00  0.00     0.014 C 
ATOM      7  C   UNL A   1      33.712  27.375  23.241  1.00  0.00     0.001 C 
ATOM      8  C   UNL A   1      31.499  28.644  23.055  1.00  0.00     0.016 C 
ATOM      9  C   UNL A   1      33.021  28.689  22.894  1.00  0.00     0.001 C 
BRANCH   5  10
ATOM     10  C   UNL A   1      31.088  25.637  23.815  1.00  0.00     0.242 C 
ATOM     11  N   UNL A   1      30.540  24.510  24.355  1.00  0.00    -0.267 N 
ATOM     12  H   UNL A   1      30.255  23.811  23.723  1.00  0.00     0.191 HD
ATOM     13  O   UNL A   1      31.070  25.734  22.587  1.00  0.00    -0.273 OA
BRANCH  11  14
ATOM     14  N   UNL A   1      30.344  24.249  25.699  1.00  0.00    -0.265 N 
ATOM     15  C   UNL A   1      31.015  23.245  26.363  1.00  0.00     0.276 C 
ATOM     16  O   UNL A   1      30.865  23.103  27.577  1.00  0.00    -0.269 OA
ATOM     17  H   UNL A   1      29.702  24.800  26.201  1.00  0.00     0.191 HD
BRANCH  15  18
ATOM     18  C   UNL A   1      32.007  22.376  25.575  1.00  0.00     0.331 C 
BRANCH  18  19
ATOM     19  O   UNL A   1      33.005  23.065  24.841  1.00  0.00    -0.484 OA
BRANCH  19  20
ATOM     20  C   UNL A   1      34.308  22.701  25.039  1.00  0.00     0.120 A 
ATOM     21  C   UNL A   1      38.477  21.966  25.863  1.00  0.00     0.044 C 
ATOM     22  C   UNL A   1      37.033  22.221  25.555  1.00  0.00    -0.051 A 
ATOM     23  C   UNL A   1      36.499  23.504  25.706  1.00  0.00     0.007 A 
ATOM     24  C   UNL A   1      36.193  21.184  25.136  1.00  0.00     0.007 A 
ATOM     25  C   UNL A   1      35.146  23.740  25.446  1.00  0.00     0.047 A 
ATOM     26  C   UNL A   1      34.839  21.421  24.879  1.00  0.00     0.047 A 
ENDBRANCH  19  20
ENDBRANCH  18  19
ENDBRANCH  15  18
ENDBRANCH  11  14
ENDBRANCH   5  10
ENDBRANCH   2   4
ENDBRANCH   1   2
BRANCH   1  27
ATOM     27  C   UNL A   1      32.627  29.431  27.444  1.00  0.00     0.274 C 
BRANCH  27  28
ATOM     28  C   UNL A   1      34.089  29.368  26.993  1.00  0.00     0.275 C 
BRANCH  28  29
ATOM     29  O   UNL A   1      34.974  30.445  27.394  1.00  0.00    -0.458 OA
BRANCH  29  30
ATOM     30  C   UNL A   1      35.788  30.523  28.469  1.00  0.00     0.338 C 
ATOM     31  O   UNL A   1      35.491  31.151  29.478  1.00  0.00    -0.246 OA
BRANCH  30  32
ATOM     32  C   UNL A   1      37.032  29.748  28.445  1.00  0.00     0.060 A 
ATOM     33  C   UNL A   1      37.876  29.896  27.337  1.00  0.00     0.016 A 
ATOM     34  C   UNL A   1      37.384  28.938  29.522  1.00  0.00     0.016 A 
ATOM     35  C   UNL A   1      39.147  29.331  27.365  1.00  0.00     0.010 A 
ATOM     36  C   UNL A   1      38.660  28.400  29.561  1.00  0.00     0.010 A 
ATOM     37  C   UNL A   1      39.552  28.619  28.500  1.00  0.00    -0.014 A 
BRANCH  37  38
ATOM     38  C   UNL A   1      40.808  27.880  28.537  1.00  0.00     0.031 A 
ATOM     39  C   UNL A   1      40.952  26.453  28.169  1.00  0.00     0.074 A 
ATOM     40  C   UNL A   1      41.850  28.569  29.045  1.00  0.00     0.049 A 
ATOM     41  N   UNL A   1      41.807  25.660  28.735  1.00  0.00    -0.248 NA
ATOM     42  C   UNL A   1      40.129  25.780  27.166  1.00  0.00     0.031 C 
ATOM     43  C   UNL A   1      43.253  28.197  29.108  1.00  0.00     0.029 A 
ATOM     44  N   UNL A   1      41.739  29.705  29.864  1.00  0.00    -0.354 N 
ATOM     45  C   UNL A   1      41.799  24.470  28.044  1.00  0.00     0.074 A 
ATOM     46  C   UNL A   1      40.677  24.555  27.138  1.00  0.00     0.031 C 
ATOM     47  C   UNL A   1      43.823  28.889  30.111  1.00  0.00     0.029 A 
ATOM     48  C   UNL A   1      42.749  29.570  30.826  1.00  0.00     0.049 A 
ATOM     49  H   UNL A   1      41.090  30.440  29.779  1.00  0.00     0.167 HD
ATOM     50  C   UNL A   1      42.824  23.585  28.189  1.00  0.00     0.037 A 
ATOM     51  C   UNL A   1      42.439  29.389  32.143  1.00  0.00     0.037 A 
ATOM     52  C   UNL A   1      43.857  24.093  29.074  1.00  0.00     0.049 A 
ATOM     53  C   UNL A   1      43.089  28.178  32.758  1.00  0.00     0.074 A 
ATOM     54  C   UNL A   1      45.010  24.820  28.830  1.00  0.00     0.029 A 
ATOM     55  N   UNL A   1      43.626  24.168  30.434  1.00  0.00    -0.354 N 
ATOM     56  N   UNL A   1      43.445  27.125  32.079  1.00  0.00    -0.248 NA
ATOM     57  C   UNL A   1      43.307  28.029  34.194  1.00  0.00     0.031 C 
ATOM     58  C   UNL A   1      45.493  25.315  30.066  1.00  0.00     0.029 A 
ATOM     59  C   UNL A   1      44.629  24.887  31.054  1.00  0.00     0.049 A 
ATOM     60  H   UNL A   1      42.856  23.764  30.896  1.00  0.00     0.167 HD
ATOM     61  C   UNL A   1      44.010  26.221  32.934  1.00  0.00     0.074 A 
ATOM     62  C   UNL A   1      43.841  26.798  34.254  1.00  0.00     0.031 C 
ATOM     63  C   UNL A   1      44.595  25.076  32.488  1.00  0.00     0.037 A 
BRANCH  50  64
ATOM     64  C   UNL A   1      43.022  22.391  27.294  1.00  0.00     0.064 A 
ATOM     65  C   UNL A   1      44.045  22.375  26.322  1.00  0.00     0.173 A 
ATOM     66  C   UNL A   1      42.217  21.239  27.346  1.00  0.00     0.173 A 
ATOM     67  F   UNL A   1      44.914  23.385  26.202  1.00  0.00    -0.203 F 
ATOM     68  C   UNL A   1      44.197  21.326  25.413  1.00  0.00     0.198 A 
ATOM     69  C   UNL A   1      42.352  20.200  26.417  1.00  0.00     0.198 A 
ATOM     70  F   UNL A   1      41.285  21.100  28.301  1.00  0.00    -0.203 F 
ATOM     71  F   UNL A   1      45.171  21.380  24.494  1.00  0.00    -0.200 F 
ATOM     72  C   UNL A   1      43.334  20.250  25.444  1.00  0.00     0.200 A 
ATOM     73  F   UNL A   1      41.517  19.152  26.459  1.00  0.00    -0.200 F 
ATOM     74  F   UNL A   1      43.449  19.268  24.539  1.00  0.00    -0.200 F 
ENDBRANCH  50  64
BRANCH  51  75
ATOM     75  C   UNL A   1      41.102  29.891  32.575  1.00  0.00     0.064 A 
ATOM     76  C   UNL A   1      40.831  31.274  32.578  1.00  0.00     0.173 A 
ATOM     77  C   UNL A   1      40.014  29.029  32.764  1.00  0.00     0.173 A 
ATOM     78  F   UNL A   1      41.830  32.156  32.400  1.00  0.00    -0.203 F 
ATOM     79  C   UNL A   1      39.530  31.763  32.690  1.00  0.00     0.198 A 
ATOM     80  C   UNL A   1      38.714  29.521  32.887  1.00  0.00     0.198 A 
ATOM     81  F   UNL A   1      40.188  27.699  32.765  1.00  0.00    -0.203 F 
ATOM     82  F   UNL A   1      39.303  33.082  32.615  1.00  0.00    -0.200 F 
ATOM     83  C   UNL A   1      38.471  30.884  32.832  1.00  0.00     0.200 A 
ATOM     84  F   UNL A   1      37.684  28.667  32.993  1.00  0.00    -0.200 F 
ATOM     85  F   UNL A   1      37.213  31.340  32.887  1.00  0.00    -0.200 F 
ENDBRANCH  51  75
BRANCH  63  86
ATOM     86  C   UNL A   1      45.262  24.062  33.359  1.00  0.00     0.064 A 
ATOM     87  C   UNL A   1      44.615  22.909  33.825  1.00  0.00     0.173 A 
ATOM     88  C   UNL A   1      46.558  24.305  33.863  1.00  0.00     0.173 A 
ATOM     89  F   UNL A   1      43.349  22.641  33.476  1.00  0.00    -0.203 F 
ATOM     90  C   UNL A   1      45.253  22.019  34.689  1.00  0.00     0.198 A 
ATOM     91  C   UNL A   1      47.170  23.442  34.765  1.00  0.00     0.198 A 
ATOM     92  F   UNL A   1      47.262  25.381  33.479  1.00  0.00    -0.203 F 
ATOM     93  F   UNL A   1      44.623  20.899  35.070  1.00  0.00    -0.200 F 
ATOM     94  C   UNL A   1      46.525  22.289  35.165  1.00  0.00     0.200 A 
ATOM     95  F   UNL A   1      48.388  23.735  35.243  1.00  0.00    -0.200 F 
ATOM     96  F   UNL A   1      47.126  21.441  36.009  1.00  0.00    -0.200 F 
ENDBRANCH  63  86
ENDBRANCH  37  38
ENDBRANCH  30  32
ENDBRANCH  29  30
ENDBRANCH  28  29
ENDBRANCH  27  28
ENDBRANCH   1  27
TORSDOF 16
ENDMDL
