MODEL 1
REMARK VINA RESULT:     -12.3      0.000      0.000
REMARK SMILES CS(=O)(=O)[C@@H]1CCC[C@@H](Sc2ccc(C(=O)OCCOC(=O)c3ccc(-c4c5nc(c(-c6c(F)c(F)c(F)c(F)c6F)c6ccc([nH]6)c(-c6c(F)c(F)c(F)c(F)c6F)c6nc(c(-c7c(F)c(F)c(F)c(F)c7F)c7ccc4[nH]7)C=C6)C=C5)cc3)cn2)C1
REMARK SMILES IDX 18 1 17 2 15 3 16 4 14 5 11 6 12 7 87 8 13 9 86 10 10 11
REMARK SMILES IDX 9 12 5 13 6 14 88 15 7 16 8 17 2 18 1 19 3 20 4 21 19 22
REMARK SMILES IDX 20 23 21 24 22 25 23 26 24 27 85 28 25 29 84 30 26 31 27 32
REMARK SMILES IDX 28 33 78 34 29 35 83 36 77 37 79 38 30 39 82 40 76 41 75 42
REMARK SMILES IDX 31 44 63 45 43 46 62 47 44 48 47 49 61 50 80 51 45 52 46 53
REMARK SMILES IDX 60 55 81 56 48 57 32 58 33 59 41 60 34 61 35 62 39 63 42 64
REMARK SMILES IDX 36 65 37 66 40 67 38 68 64 69 65 70 73 71 66 72 67 73 71 74
REMARK SMILES IDX 74 75 68 76 69 77 72 78 70 79 49 80 50 81 58 82 51 83 52 84
REMARK SMILES IDX 56 85 59 86 53 87 54 88 57 89 55 90
REMARK H PARENT 79 43 47 54
REMARK Flexibility Score: inf
ROOT
ATOM      1  C   UNL A   1      42.411  20.470  26.167  1.00  0.00     0.275 C 
ENDROOT
BRANCH   1   2
ATOM      2  O   UNL A   1      41.018  20.643  25.844  1.00  0.00    -0.458 OA
BRANCH   2   3
ATOM      3  C   UNL A   1      40.227  21.217  26.780  1.00  0.00     0.339 C 
ATOM      4  O   UNL A   1      40.415  21.256  27.989  1.00  0.00    -0.246 OA
BRANCH   3   5
ATOM      5  C   UNL A   1      39.082  21.851  26.113  1.00  0.00     0.078 A 
ATOM      6  C   UNL A   1      36.924  23.070  24.846  1.00  0.00     0.096 A 
ATOM      7  C   UNL A   1      37.716  23.754  25.742  1.00  0.00     0.036 A 
ATOM      8  N   UNL A   1      37.237  21.798  24.527  1.00  0.00    -0.249 NA
ATOM      9  C   UNL A   1      38.767  23.154  26.418  1.00  0.00     0.020 A 
ATOM     10  C   UNL A   1      38.322  21.235  25.131  1.00  0.00     0.128 A 
BRANCH   6  11
ATOM     11  S   UNL A   1      35.478  23.711  24.044  1.00  0.00    -0.103 SA
BRANCH  11  12
ATOM     12  C   UNL A   1      33.916  23.185  24.915  1.00  0.00     0.054 C 
ATOM     13  C   UNL A   1      33.853  20.658  25.166  1.00  0.00     0.109 C 
ATOM     14  C   UNL A   1      33.712  20.794  26.694  1.00  0.00     0.020 C 
ATOM     15  C   UNL A   1      33.286  21.868  24.448  1.00  0.00     0.034 C 
ATOM     16  C   UNL A   1      34.057  22.159  27.316  1.00  0.00     0.002 C 
ATOM     17  C   UNL A   1      33.856  23.389  26.432  1.00  0.00     0.015 C 
BRANCH  13  18
ATOM     18  S   UNL A   1      33.162  19.094  24.613  1.00  0.00     0.150 S 
ATOM     19  C   UNL A   1      32.305  19.489  23.104  1.00  0.00     0.158 C 
ATOM     20  O   UNL A   1      32.184  18.653  25.586  1.00  0.00    -0.229 OA
ATOM     21  O   UNL A   1      34.284  18.248  24.251  1.00  0.00    -0.229 OA
ENDBRANCH  13  18
ENDBRANCH  11  12
ENDBRANCH   6  11
ENDBRANCH   3   5
ENDBRANCH   2   3
ENDBRANCH   1   2
BRANCH   1  22
ATOM     22  C   UNL A   1      43.286  21.434  25.364  1.00  0.00     0.275 C 
BRANCH  22  23
ATOM     23  O   UNL A   1      42.555  22.631  25.040  1.00  0.00    -0.458 OA
BRANCH  23  24
ATOM     24  C   UNL A   1      43.271  23.773  25.135  1.00  0.00     0.338 C 
ATOM     25  O   UNL A   1      44.277  24.078  24.516  1.00  0.00    -0.246 OA
BRANCH  24  26
ATOM     26  C   UNL A   1      42.587  24.729  26.014  1.00  0.00     0.060 A 
ATOM     27  C   UNL A   1      42.901  26.070  25.853  1.00  0.00     0.016 A 
ATOM     28  C   UNL A   1      41.851  24.318  27.117  1.00  0.00     0.016 A 
ATOM     29  C   UNL A   1      42.634  26.989  26.854  1.00  0.00     0.010 A 
ATOM     30  C   UNL A   1      41.443  25.275  28.054  1.00  0.00     0.010 A 
ATOM     31  C   UNL A   1      41.871  26.616  27.960  1.00  0.00    -0.014 A 
BRANCH  31  32
ATOM     32  C   UNL A   1      41.567  27.610  29.028  1.00  0.00     0.031 A 
ATOM     33  C   UNL A   1      42.437  27.667  30.255  1.00  0.00     0.074 A 
ATOM     34  C   UNL A   1      40.534  28.469  28.904  1.00  0.00     0.049 A 
ATOM     35  N   UNL A   1      42.204  28.226  31.414  1.00  0.00    -0.248 NA
ATOM     36  C   UNL A   1      43.739  26.984  30.172  1.00  0.00     0.031 C 
ATOM     37  C   UNL A   1      39.664  28.600  27.732  1.00  0.00     0.029 A 
ATOM     38  N   UNL A   1      40.037  29.404  29.781  1.00  0.00    -0.354 N 
ATOM     39  C   UNL A   1      43.291  27.903  32.216  1.00  0.00     0.074 A 
ATOM     40  C   UNL A   1      44.183  27.093  31.415  1.00  0.00     0.031 C 
ATOM     41  C   UNL A   1      38.771  29.577  27.946  1.00  0.00     0.029 A 
ATOM     42  C   UNL A   1      38.917  30.050  29.315  1.00  0.00     0.049 A 
ATOM     43  H   UNL A   1      40.444  29.591  30.657  1.00  0.00     0.167 HD
ATOM     44  C   UNL A   1      43.514  28.251  33.506  1.00  0.00     0.037 A 
ATOM     45  C   UNL A   1      38.054  30.872  29.940  1.00  0.00     0.037 A 
ATOM     46  C   UNL A   1      42.641  29.108  34.266  1.00  0.00     0.049 A 
ATOM     47  C   UNL A   1      38.277  31.177  31.394  1.00  0.00     0.074 A 
ATOM     48  C   UNL A   1      42.757  29.513  35.584  1.00  0.00     0.029 A 
ATOM     49  N   UNL A   1      41.496  29.710  33.763  1.00  0.00    -0.354 N 
ATOM     50  N   UNL A   1      39.251  30.790  32.181  1.00  0.00    -0.248 NA
ATOM     51  C   UNL A   1      37.268  32.015  32.055  1.00  0.00     0.031 C 
ATOM     52  C   UNL A   1      41.662  30.326  35.890  1.00  0.00     0.029 A 
ATOM     53  C   UNL A   1      40.894  30.478  34.746  1.00  0.00     0.049 A 
ATOM     54  H   UNL A   1      41.161  29.606  32.842  1.00  0.00     0.167 HD
ATOM     55  C   UNL A   1      38.993  31.365  33.417  1.00  0.00     0.074 A 
ATOM     56  C   UNL A   1      37.776  32.136  33.272  1.00  0.00     0.031 C 
ATOM     57  C   UNL A   1      39.700  31.263  34.569  1.00  0.00     0.037 A 
BRANCH  44  58
ATOM     58  C   UNL A   1      44.725  27.681  34.189  1.00  0.00     0.064 A 
ATOM     59  C   UNL A   1      45.964  28.338  34.184  1.00  0.00     0.173 A 
ATOM     60  C   UNL A   1      44.631  26.471  34.896  1.00  0.00     0.173 A 
ATOM     61  F   UNL A   1      46.115  29.491  33.514  1.00  0.00    -0.203 F 
ATOM     62  C   UNL A   1      47.068  27.793  34.838  1.00  0.00     0.198 A 
ATOM     63  C   UNL A   1      45.726  25.946  35.575  1.00  0.00     0.198 A 
ATOM     64  F   UNL A   1      43.469  25.801  34.938  1.00  0.00    -0.203 F 
ATOM     65  F   UNL A   1      48.254  28.415  34.778  1.00  0.00    -0.200 F 
ATOM     66  C   UNL A   1      46.946  26.603  35.540  1.00  0.00     0.200 A 
ATOM     67  F   UNL A   1      45.602  24.803  36.265  1.00  0.00    -0.200 F 
ATOM     68  F   UNL A   1      48.006  26.087  36.177  1.00  0.00    -0.200 F 
ENDBRANCH  44  58
BRANCH  45  69
ATOM     69  C   UNL A   1      36.868  31.410  29.217  1.00  0.00     0.064 A 
ATOM     70  C   UNL A   1      36.809  32.757  28.832  1.00  0.00     0.173 A 
ATOM     71  C   UNL A   1      35.763  30.600  28.914  1.00  0.00     0.173 A 
ATOM     72  F   UNL A   1      37.828  33.580  29.121  1.00  0.00    -0.203 F 
ATOM     73  C   UNL A   1      35.682  33.276  28.196  1.00  0.00     0.198 A 
ATOM     74  C   UNL A   1      34.654  31.111  28.242  1.00  0.00     0.198 A 
ATOM     75  F   UNL A   1      35.762  29.303  29.259  1.00  0.00    -0.203 F 
ATOM     76  F   UNL A   1      35.630  34.581  27.894  1.00  0.00    -0.200 F 
ATOM     77  C   UNL A   1      34.610  32.452  27.895  1.00  0.00     0.200 A 
ATOM     78  F   UNL A   1      33.628  30.304  27.938  1.00  0.00    -0.200 F 
ATOM     79  F   UNL A   1      33.529  32.951  27.281  1.00  0.00    -0.200 F 
ENDBRANCH  45  69
BRANCH  57  80
ATOM     80  C   UNL A   1      39.219  32.069  35.739  1.00  0.00     0.064 A 
ATOM     81  C   UNL A   1      38.357  31.532  36.706  1.00  0.00     0.173 A 
ATOM     82  C   UNL A   1      39.663  33.389  35.910  1.00  0.00     0.173 A 
ATOM     83  F   UNL A   1      37.891  30.281  36.576  1.00  0.00    -0.203 F 
ATOM     84  C   UNL A   1      37.936  32.298  37.789  1.00  0.00     0.198 A 
ATOM     85  C   UNL A   1      39.267  34.140  37.012  1.00  0.00     0.198 A 
ATOM     86  F   UNL A   1      40.492  33.946  35.015  1.00  0.00    -0.203 F 
ATOM     87  F   UNL A   1      37.071  31.783  38.674  1.00  0.00    -0.200 F 
ATOM     88  C   UNL A   1      38.399  33.596  37.946  1.00  0.00     0.200 A 
ATOM     89  F   UNL A   1      39.726  35.389  37.170  1.00  0.00    -0.200 F 
ATOM     90  F   UNL A   1      37.999  34.328  38.996  1.00  0.00    -0.200 F 
ENDBRANCH  57  80
ENDBRANCH  31  32
ENDBRANCH  24  26
ENDBRANCH  23  24
ENDBRANCH  22  23
ENDBRANCH   1  22
TORSDOF 14
ENDMDL
MODEL 2
REMARK VINA RESULT:     -12.2      0.558      2.100
REMARK SMILES CS(=O)(=O)[C@@H]1CCC[C@@H](Sc2ccc(C(=O)OCCOC(=O)c3ccc(-c4c5nc(c(-c6c(F)c(F)c(F)c(F)c6F)c6ccc([nH]6)c(-c6c(F)c(F)c(F)c(F)c6F)c6nc(c(-c7c(F)c(F)c(F)c(F)c7F)c7ccc4[nH]7)C=C6)C=C5)cc3)cn2)C1
REMARK SMILES IDX 18 1 17 2 15 3 16 4 14 5 11 6 12 7 87 8 13 9 86 10 10 11
REMARK SMILES IDX 9 12 5 13 6 14 88 15 7 16 8 17 2 18 1 19 3 20 4 21 19 22
REMARK SMILES IDX 20 23 21 24 22 25 23 26 24 27 85 28 25 29 84 30 26 31 27 32
REMARK SMILES IDX 28 33 78 34 29 35 83 36 77 37 79 38 30 39 82 40 76 41 75 42
REMARK SMILES IDX 31 44 63 45 43 46 62 47 44 48 47 49 61 50 80 51 45 52 46 53
REMARK SMILES IDX 60 55 81 56 48 57 32 58 33 59 41 60 34 61 35 62 39 63 42 64
REMARK SMILES IDX 36 65 37 66 40 67 38 68 64 69 65 70 73 71 66 72 67 73 71 74
REMARK SMILES IDX 74 75 68 76 69 77 72 78 70 79 49 80 50 81 58 82 51 83 52 84
REMARK SMILES IDX 56 85 59 86 53 87 54 88 57 89 55 90
REMARK H PARENT 79 43 47 54
REMARK Flexibility Score: inf
ROOT
ATOM      1  C   UNL A   1      42.669  20.372  26.186  1.00  0.00     0.275 C 
ENDROOT
BRANCH   1   2
ATOM      2  O   UNL A   1      41.297  20.542  25.781  1.00  0.00    -0.458 OA
BRANCH   2   3
ATOM      3  C   UNL A   1      40.425  20.998  26.710  1.00  0.00     0.339 C 
ATOM      4  O   UNL A   1      40.566  20.999  27.926  1.00  0.00    -0.246 OA
BRANCH   3   5
ATOM      5  C   UNL A   1      39.249  21.556  26.027  1.00  0.00     0.078 A 
ATOM      6  C   UNL A   1      37.012  22.597  24.739  1.00  0.00     0.096 A 
ATOM      7  C   UNL A   1      37.340  21.262  24.651  1.00  0.00     0.036 A 
ATOM      8  N   UNL A   1      37.755  23.408  25.519  1.00  0.00    -0.249 NA
ATOM      9  C   UNL A   1      38.474  20.731  25.246  1.00  0.00     0.020 A 
ATOM     10  C   UNL A   1      38.823  22.867  26.171  1.00  0.00     0.128 A 
BRANCH   6  11
ATOM     11  S   UNL A   1      35.666  23.388  23.899  1.00  0.00    -0.103 SA
BRANCH  11  12
ATOM     12  C   UNL A   1      34.026  22.975  24.683  1.00  0.00     0.054 C 
ATOM     13  C   UNL A   1      33.845  20.474  25.086  1.00  0.00     0.109 C 
ATOM     14  C   UNL A   1      33.599  20.715  26.588  1.00  0.00     0.020 C 
ATOM     15  C   UNL A   1      33.380  21.653  24.253  1.00  0.00     0.034 C 
ATOM     16  C   UNL A   1      33.952  22.106  27.147  1.00  0.00     0.002 C 
ATOM     17  C   UNL A   1      33.864  23.281  26.174  1.00  0.00     0.015 C 
BRANCH  13  18
ATOM     18  S   UNL A   1      33.136  18.902  24.583  1.00  0.00     0.150 S 
ATOM     19  C   UNL A   1      34.540  17.860  24.251  1.00  0.00     0.158 C 
ATOM     20  O   UNL A   1      32.415  19.099  23.342  1.00  0.00    -0.229 OA
ATOM     21  O   UNL A   1      32.470  18.353  25.750  1.00  0.00    -0.229 OA
ENDBRANCH  13  18
ENDBRANCH  11  12
ENDBRANCH   6  11
ENDBRANCH   3   5
ENDBRANCH   2   3
ENDBRANCH   1   2
BRANCH   1  22
ATOM     22  C   UNL A   1      43.581  21.370  25.471  1.00  0.00     0.275 C 
BRANCH  22  23
ATOM     23  O   UNL A   1      42.822  22.492  24.985  1.00  0.00    -0.458 OA
BRANCH  23  24
ATOM     24  C   UNL A   1      43.473  23.675  25.028  1.00  0.00     0.338 C 
ATOM     25  O   UNL A   1      44.437  24.023  24.367  1.00  0.00    -0.246 OA
BRANCH  24  26
ATOM     26  C   UNL A   1      42.765  24.612  25.909  1.00  0.00     0.060 A 
ATOM     27  C   UNL A   1      43.010  25.964  25.719  1.00  0.00     0.016 A 
ATOM     28  C   UNL A   1      42.075  24.185  27.035  1.00  0.00     0.016 A 
ATOM     29  C   UNL A   1      42.723  26.886  26.713  1.00  0.00     0.010 A 
ATOM     30  C   UNL A   1      41.643  25.136  27.968  1.00  0.00     0.010 A 
ATOM     31  C   UNL A   1      42.005  26.494  27.843  1.00  0.00    -0.014 A 
BRANCH  31  32
ATOM     32  C   UNL A   1      41.678  27.490  28.903  1.00  0.00     0.031 A 
ATOM     33  C   UNL A   1      42.560  27.592  30.119  1.00  0.00     0.074 A 
ATOM     34  C   UNL A   1      40.615  28.311  28.781  1.00  0.00     0.049 A 
ATOM     35  N   UNL A   1      42.321  28.156  31.274  1.00  0.00    -0.248 NA
ATOM     36  C   UNL A   1      43.884  26.953  30.028  1.00  0.00     0.031 C 
ATOM     37  C   UNL A   1      39.728  28.398  27.618  1.00  0.00     0.029 A 
ATOM     38  N   UNL A   1      40.096  29.239  29.653  1.00  0.00    -0.354 N 
ATOM     39  C   UNL A   1      43.428  27.880  32.067  1.00  0.00     0.074 A 
ATOM     40  C   UNL A   1      44.338  27.092  31.265  1.00  0.00     0.031 C 
ATOM     41  C   UNL A   1      38.804  29.346  27.831  1.00  0.00     0.029 A 
ATOM     42  C   UNL A   1      38.949  29.840  29.192  1.00  0.00     0.049 A 
ATOM     43  H   UNL A   1      40.507  29.451  30.522  1.00  0.00     0.167 HD
ATOM     44  C   UNL A   1      43.653  28.251  33.350  1.00  0.00     0.037 A 
ATOM     45  C   UNL A   1      38.065  30.640  29.818  1.00  0.00     0.037 A 
ATOM     46  C   UNL A   1      42.759  29.086  34.110  1.00  0.00     0.049 A 
ATOM     47  C   UNL A   1      38.294  30.970  31.266  1.00  0.00     0.074 A 
ATOM     48  C   UNL A   1      42.877  29.511  35.422  1.00  0.00     0.029 A 
ATOM     49  N   UNL A   1      41.589  29.643  33.614  1.00  0.00    -0.354 N 
ATOM     50  N   UNL A   1      39.290  30.626  32.046  1.00  0.00    -0.248 NA
ATOM     51  C   UNL A   1      37.265  31.780  31.928  1.00  0.00     0.031 C 
ATOM     52  C   UNL A   1      41.757  30.290  35.731  1.00  0.00     0.029 A 
ATOM     53  C   UNL A   1      40.972  30.402  34.595  1.00  0.00     0.049 A 
ATOM     54  H   UNL A   1      41.247  29.517  32.698  1.00  0.00     0.167 HD
ATOM     55  C   UNL A   1      39.026  31.207  33.278  1.00  0.00     0.074 A 
ATOM     56  C   UNL A   1      37.781  31.933  33.138  1.00  0.00     0.031 C 
ATOM     57  C   UNL A   1      39.749  31.143  34.422  1.00  0.00     0.037 A 
BRANCH  44  58
ATOM     58  C   UNL A   1      44.891  27.732  34.025  1.00  0.00     0.064 A 
ATOM     59  C   UNL A   1      44.910  26.509  34.711  1.00  0.00     0.173 A 
ATOM     60  C   UNL A   1      46.091  28.456  33.948  1.00  0.00     0.173 A 
ATOM     61  F   UNL A   1      43.789  25.781  34.828  1.00  0.00    -0.203 F 
ATOM     62  C   UNL A   1      46.077  26.045  35.317  1.00  0.00     0.198 A 
ATOM     63  C   UNL A   1      47.262  27.974  34.526  1.00  0.00     0.198 A 
ATOM     64  F   UNL A   1      46.133  29.631  33.300  1.00  0.00    -0.203 F 
ATOM     65  F   UNL A   1      46.058  24.897  36.009  1.00  0.00    -0.200 F 
ATOM     66  C   UNL A   1      47.253  26.772  35.216  1.00  0.00     0.200 A 
ATOM     67  F   UNL A   1      48.401  28.671  34.414  1.00  0.00    -0.200 F 
ATOM     68  F   UNL A   1      48.375  26.318  35.790  1.00  0.00    -0.200 F 
ENDBRANCH  44  58
BRANCH  45  69
ATOM     69  C   UNL A   1      36.853  31.128  29.103  1.00  0.00     0.064 A 
ATOM     70  C   UNL A   1      35.788  30.262  28.817  1.00  0.00     0.173 A 
ATOM     71  C   UNL A   1      36.740  32.460  28.674  1.00  0.00     0.173 A 
ATOM     72  F   UNL A   1      35.857  28.974  29.183  1.00  0.00    -0.203 F 
ATOM     73  C   UNL A   1      34.672  30.703  28.108  1.00  0.00     0.198 A 
ATOM     74  C   UNL A   1      35.606  32.908  28.001  1.00  0.00     0.198 A 
ATOM     75  F   UNL A   1      37.728  33.333  28.919  1.00  0.00    -0.203 F 
ATOM     76  F   UNL A   1      33.697  29.838  27.796  1.00  0.00    -0.200 F 
ATOM     77  C   UNL A   1      34.578  32.027  27.708  1.00  0.00     0.200 A 
ATOM     78  F   UNL A   1      35.514  34.194  27.632  1.00  0.00    -0.200 F 
ATOM     79  F   UNL A   1      33.503  32.450  27.029  1.00  0.00    -0.200 F 
ENDBRANCH  45  69
BRANCH  57  80
ATOM     80  C   UNL A   1      39.254  31.946  35.589  1.00  0.00     0.064 A 
ATOM     81  C   UNL A   1      39.601  33.293  35.762  1.00  0.00     0.173 A 
ATOM     82  C   UNL A   1      38.385  31.361  36.523  1.00  0.00     0.173 A 
ATOM     83  F   UNL A   1      40.443  33.890  34.906  1.00  0.00    -0.203 F 
ATOM     84  C   UNL A   1      39.117  34.019  36.847  1.00  0.00     0.198 A 
ATOM     85  C   UNL A   1      37.877  32.100  37.587  1.00  0.00     0.198 A 
ATOM     86  F   UNL A   1      38.020  30.077  36.397  1.00  0.00    -0.203 F 
ATOM     87  F   UNL A   1      39.502  35.291  37.024  1.00  0.00    -0.200 F 
ATOM     88  C   UNL A   1      38.248  33.425  37.751  1.00  0.00     0.200 A 
ATOM     89  F   UNL A   1      37.027  31.530  38.450  1.00  0.00    -0.200 F 
ATOM     90  F   UNL A   1      37.776  34.131  38.789  1.00  0.00    -0.200 F 
ENDBRANCH  57  80
ENDBRANCH  31  32
ENDBRANCH  24  26
ENDBRANCH  23  24
ENDBRANCH  22  23
ENDBRANCH   1  22
TORSDOF 14
ENDMDL
MODEL 3
REMARK VINA RESULT:     -12.1      3.692      8.174
REMARK SMILES CS(=O)(=O)[C@@H]1CCC[C@@H](Sc2ccc(C(=O)OCCOC(=O)c3ccc(-c4c5nc(c(-c6c(F)c(F)c(F)c(F)c6F)c6ccc([nH]6)c(-c6c(F)c(F)c(F)c(F)c6F)c6nc(c(-c7c(F)c(F)c(F)c(F)c7F)c7ccc4[nH]7)C=C6)C=C5)cc3)cn2)C1
REMARK SMILES IDX 18 1 17 2 15 3 16 4 14 5 11 6 12 7 87 8 13 9 86 10 10 11
REMARK SMILES IDX 9 12 5 13 6 14 88 15 7 16 8 17 2 18 1 19 3 20 4 21 19 22
REMARK SMILES IDX 20 23 21 24 22 25 23 26 24 27 85 28 25 29 84 30 26 31 27 32
REMARK SMILES IDX 28 33 78 34 29 35 83 36 77 37 79 38 30 39 82 40 76 41 75 42
REMARK SMILES IDX 31 44 63 45 43 46 62 47 44 48 47 49 61 50 80 51 45 52 46 53
REMARK SMILES IDX 60 55 81 56 48 57 32 58 33 59 41 60 34 61 35 62 39 63 42 64
REMARK SMILES IDX 36 65 37 66 40 67 38 68 64 69 65 70 73 71 66 72 67 73 71 74
REMARK SMILES IDX 74 75 68 76 69 77 72 78 70 79 49 80 50 81 58 82 51 83 52 84
REMARK SMILES IDX 56 85 59 86 53 87 54 88 57 89 55 90
REMARK H PARENT 79 43 47 54
REMARK Flexibility Score: inf
ROOT
ATOM      1  C   UNL A   1      33.257  29.192  24.737  1.00  0.00     0.275 C 
ENDROOT
BRANCH   1   2
ATOM      2  O   UNL A   1      33.042  29.335  23.319  1.00  0.00    -0.458 OA
BRANCH   2   3
ATOM      3  C   UNL A   1      31.949  28.736  22.792  1.00  0.00     0.339 C 
ATOM      4  O   UNL A   1      30.920  29.274  22.405  1.00  0.00    -0.246 OA
BRANCH   3   5
ATOM      5  C   UNL A   1      32.194  27.290  22.704  1.00  0.00     0.078 A 
ATOM      6  C   UNL A   1      32.638  24.547  22.533  1.00  0.00     0.096 A 
ATOM      7  C   UNL A   1      31.546  25.062  23.196  1.00  0.00     0.036 A 
ATOM      8  N   UNL A   1      33.479  25.387  21.897  1.00  0.00    -0.249 NA
ATOM      9  C   UNL A   1      31.330  26.424  23.333  1.00  0.00     0.020 A 
ATOM     10  C   UNL A   1      33.219  26.724  21.961  1.00  0.00     0.128 A 
BRANCH   6  11
ATOM     11  S   UNL A   1      33.070  22.831  22.429  1.00  0.00    -0.103 SA
BRANCH  11  12
ATOM     12  C   UNL A   1      32.935  21.985  24.085  1.00  0.00     0.054 C 
ATOM     13  C   UNL A   1      33.491  19.516  23.864  1.00  0.00     0.109 C 
ATOM     14  C   UNL A   1      34.606  19.654  24.919  1.00  0.00     0.020 C 
ATOM     15  C   UNL A   1      32.400  20.549  24.075  1.00  0.00     0.034 C 
ATOM     16  C   UNL A   1      35.091  21.076  25.252  1.00  0.00     0.002 C 
ATOM     17  C   UNL A   1      34.077  22.207  25.081  1.00  0.00     0.015 C 
BRANCH  13  18
ATOM     18  S   UNL A   1      32.890  17.824  23.808  1.00  0.00     0.150 S 
ATOM     19  C   UNL A   1      34.310  16.829  24.209  1.00  0.00     0.158 C 
ATOM     20  O   UNL A   1      32.495  17.521  22.448  1.00  0.00    -0.229 OA
ATOM     21  O   UNL A   1      31.951  17.679  24.905  1.00  0.00    -0.229 OA
ENDBRANCH  13  18
ENDBRANCH  11  12
ENDBRANCH   6  11
ENDBRANCH   3   5
ENDBRANCH   2   3
ENDBRANCH   1   2
BRANCH   1  22
ATOM     22  C   UNL A   1      32.228  29.994  25.533  1.00  0.00     0.275 C 
BRANCH  22  23
ATOM     23  O   UNL A   1      32.625  30.101  26.913  1.00  0.00    -0.458 OA
BRANCH  23  24
ATOM     24  C   UNL A   1      33.203  31.276  27.245  1.00  0.00     0.338 C 
ATOM     25  O   UNL A   1      32.670  32.369  27.346  1.00  0.00    -0.246 OA
BRANCH  24  26
ATOM     26  C   UNL A   1      34.601  31.062  27.635  1.00  0.00     0.060 A 
ATOM     27  C   UNL A   1      34.968  29.770  27.982  1.00  0.00     0.016 A 
ATOM     28  C   UNL A   1      35.465  32.118  27.889  1.00  0.00     0.016 A 
ATOM     29  C   UNL A   1      36.112  29.530  28.726  1.00  0.00     0.010 A 
ATOM     30  C   UNL A   1      36.697  31.855  28.502  1.00  0.00     0.010 A 
ATOM     31  C   UNL A   1      37.015  30.564  28.972  1.00  0.00    -0.014 A 
BRANCH  31  32
ATOM     32  C   UNL A   1      38.256  30.302  29.755  1.00  0.00     0.031 A 
ATOM     33  C   UNL A   1      39.335  29.436  29.163  1.00  0.00     0.074 A 
ATOM     34  C   UNL A   1      38.433  30.844  30.978  1.00  0.00     0.049 A 
ATOM     35  N   UNL A   1      40.341  28.843  29.752  1.00  0.00    -0.248 NA
ATOM     36  C   UNL A   1      39.259  29.187  27.714  1.00  0.00     0.031 C 
ATOM     37  C   UNL A   1      37.522  31.781  31.641  1.00  0.00     0.029 A 
ATOM     38  N   UNL A   1      39.449  30.681  31.890  1.00  0.00    -0.354 N 
ATOM     39  C   UNL A   1      40.972  28.097  28.764  1.00  0.00     0.074 A 
ATOM     40  C   UNL A   1      40.233  28.306  27.538  1.00  0.00     0.031 C 
ATOM     41  C   UNL A   1      38.034  32.137  32.828  1.00  0.00     0.029 A 
ATOM     42  C   UNL A   1      39.238  31.356  33.069  1.00  0.00     0.049 A 
ATOM     43  H   UNL A   1      40.249  30.135  31.715  1.00  0.00     0.167 HD
ATOM     44  C   UNL A   1      42.066  27.308  28.880  1.00  0.00     0.037 A 
ATOM     45  C   UNL A   1      39.893  31.296  34.244  1.00  0.00     0.037 A 
ATOM     46  C   UNL A   1      42.822  27.161  30.097  1.00  0.00     0.049 A 
ATOM     47  C   UNL A   1      41.054  30.351  34.372  1.00  0.00     0.074 A 
ATOM     48  C   UNL A   1      43.936  26.376  30.336  1.00  0.00     0.029 A 
ATOM     49  N   UNL A   1      42.549  27.836  31.279  1.00  0.00    -0.354 N 
ATOM     50  N   UNL A   1      41.589  29.569  33.466  1.00  0.00    -0.248 NA
ATOM     51  C   UNL A   1      41.688  30.261  35.693  1.00  0.00     0.031 C 
ATOM     52  C   UNL A   1      44.312  26.545  31.672  1.00  0.00     0.029 A 
ATOM     53  C   UNL A   1      43.470  27.481  32.251  1.00  0.00     0.049 A 
ATOM     54  H   UNL A   1      41.809  28.474  31.408  1.00  0.00     0.167 HD
ATOM     55  C   UNL A   1      42.643  28.924  34.096  1.00  0.00     0.074 A 
ATOM     56  C   UNL A   1      42.677  29.413  35.458  1.00  0.00     0.031 C 
ATOM     57  C   UNL A   1      43.504  28.006  33.591  1.00  0.00     0.037 A 
BRANCH  44  58
ATOM     58  C   UNL A   1      42.493  26.515  27.676  1.00  0.00     0.064 A 
ATOM     59  C   UNL A   1      43.472  26.978  26.786  1.00  0.00     0.173 A 
ATOM     60  C   UNL A   1      41.937  25.249  27.434  1.00  0.00     0.173 A 
ATOM     61  F   UNL A   1      44.027  28.187  26.961  1.00  0.00    -0.203 F 
ATOM     62  C   UNL A   1      43.858  26.216  25.684  1.00  0.00     0.198 A 
ATOM     63  C   UNL A   1      42.349  24.476  26.352  1.00  0.00     0.198 A 
ATOM     64  F   UNL A   1      40.999  24.753  28.256  1.00  0.00    -0.203 F 
ATOM     65  F   UNL A   1      44.760  26.701  24.820  1.00  0.00    -0.200 F 
ATOM     66  C   UNL A   1      43.304  24.963  25.474  1.00  0.00     0.200 A 
ATOM     67  F   UNL A   1      41.822  23.258  26.160  1.00  0.00    -0.200 F 
ATOM     68  F   UNL A   1      43.685  24.228  24.421  1.00  0.00    -0.200 F 
ENDBRANCH  44  58
BRANCH  45  69
ATOM     69  C   UNL A   1      39.429  32.102  35.407  1.00  0.00     0.064 A 
ATOM     70  C   UNL A   1      38.549  31.559  36.355  1.00  0.00     0.173 A 
ATOM     71  C   UNL A   1      39.835  33.434  35.587  1.00  0.00     0.173 A 
ATOM     72  F   UNL A   1      38.111  30.300  36.216  1.00  0.00    -0.203 F 
ATOM     73  C   UNL A   1      38.076  32.324  37.420  1.00  0.00     0.198 A 
ATOM     74  C   UNL A   1      39.394  34.184  36.674  1.00  0.00     0.198 A 
ATOM     75  F   UNL A   1      40.675  34.006  34.711  1.00  0.00    -0.203 F 
ATOM     76  F   UNL A   1      37.190  31.798  38.276  1.00  0.00    -0.200 F 
ATOM     77  C   UNL A   1      38.505  33.633  37.583  1.00  0.00     0.200 A 
ATOM     78  F   UNL A   1      39.825  35.442  36.836  1.00  0.00    -0.200 F 
ATOM     79  F   UNL A   1      38.052  34.366  38.609  1.00  0.00    -0.200 F 
ENDBRANCH  45  69
BRANCH  57  80
ATOM     80  C   UNL A   1      44.606  27.536  34.494  1.00  0.00     0.064 A 
ATOM     81  C   UNL A   1      45.828  28.218  34.590  1.00  0.00     0.173 A 
ATOM     82  C   UNL A   1      44.415  26.405  35.302  1.00  0.00     0.173 A 
ATOM     83  F   UNL A   1      46.064  29.293  33.824  1.00  0.00    -0.203 F 
ATOM     84  C   UNL A   1      46.829  27.767  35.445  1.00  0.00     0.198 A 
ATOM     85  C   UNL A   1      45.406  25.977  36.180  1.00  0.00     0.198 A 
ATOM     86  F   UNL A   1      43.262  25.722  35.249  1.00  0.00    -0.203 F 
ATOM     87  F   UNL A   1      48.009  28.402  35.485  1.00  0.00    -0.200 F 
ATOM     88  C   UNL A   1      46.614  26.654  36.245  1.00  0.00     0.200 A 
ATOM     89  F   UNL A   1      45.191  24.912  36.962  1.00  0.00    -0.200 F 
ATOM     90  F   UNL A   1      47.577  26.229  37.076  1.00  0.00    -0.200 F 
ENDBRANCH  57  80
ENDBRANCH  31  32
ENDBRANCH  24  26
ENDBRANCH  23  24
ENDBRANCH  22  23
ENDBRANCH   1  22
TORSDOF 14
ENDMDL
