MODEL 1
REMARK VINA RESULT:     -13.6      0.000      0.000
REMARK SMILES O=C(OCCOC(=O)[C@H]1C[C@H](O)CN1S(=O)(=O)c1ccc2c(c1)OCCO2)c1ccc(-c2c3nc(c(-c4c(F)c(F)c(F)c(F)c4F)c4ccc([nH]4)c(-c4c(F)c(F)c(F)c(F)c4F)c4nc(c(-c5c(F)c(F)c(F)c(F)c5F)c5ccc2[nH]5)C=C4)C=C3)cc1
REMARK SMILES IDX 4 1 3 2 2 3 1 4 28 5 29 6 90 7 30 8 89 9 31 10 32 11 33 12
REMARK SMILES IDX 83 13 34 14 88 15 82 16 84 17 35 18 87 19 81 20 80 21 36 23
REMARK SMILES IDX 68 24 48 25 67 26 49 27 52 28 66 29 85 30 50 31 51 32 65 34
REMARK SMILES IDX 86 35 53 36 37 37 38 38 46 39 39 40 40 41 44 42 47 43 41 44
REMARK SMILES IDX 42 45 45 46 43 47 69 48 70 49 78 50 71 51 72 52 76 53 79 54
REMARK SMILES IDX 73 55 74 56 77 57 75 58 54 59 55 60 63 61 56 62 57 63 61 64
REMARK SMILES IDX 64 65 58 66 59 67 62 68 60 69 5 70 6 71 7 72 8 73 9 74 10 75
REMARK SMILES IDX 14 76 11 77 13 78 15 79 16 80 17 81 18 82 19 83 23 84 20 85
REMARK SMILES IDX 22 86 21 87 24 88 27 89 25 90 26 91 12 92
REMARK H PARENT 84 22 52 33 12 93
REMARK Flexibility Score: inf
ROOT
ATOM      1  C   UNL A   1      38.457  19.663  24.990  1.00  0.00     0.275 C 
ENDROOT
BRANCH   1   2
ATOM      2  O   UNL A   1      39.444  19.331  25.987  1.00  0.00    -0.458 OA
BRANCH   2   3
ATOM      3  C   UNL A   1      40.762  19.643  26.000  1.00  0.00     0.338 C 
ATOM      4  O   UNL A   1      41.614  18.789  25.769  1.00  0.00    -0.246 OA
BRANCH   3   5
ATOM      5  C   UNL A   1      41.266  20.979  26.415  1.00  0.00     0.060 A 
ATOM      6  C   UNL A   1      41.959  22.252  25.319  1.00  0.00     0.016 A 
ATOM      7  C   UNL A   1      41.287  21.332  28.186  1.00  0.00     0.016 A 
ATOM      8  C   UNL A   1      42.401  23.859  25.905  1.00  0.00     0.010 A 
ATOM      9  C   UNL A   1      41.912  22.974  28.784  1.00  0.00     0.010 A 
ATOM     10  C   UNL A   1      42.385  24.247  27.628  1.00  0.00    -0.014 A 
BRANCH  10  11
ATOM     11  C   UNL A   1      42.885  25.633  27.954  1.00  0.00     0.031 A 
ATOM     12  C   UNL A   1      44.200  26.163  27.434  1.00  0.00     0.074 A 
ATOM     13  C   UNL A   1      42.029  26.523  28.497  1.00  0.00     0.049 A 
ATOM     14  N   UNL A   1      44.668  27.389  27.372  1.00  0.00    -0.248 NA
ATOM     15  C   UNL A   1      45.107  25.178  26.862  1.00  0.00     0.031 C 
ATOM     16  C   UNL A   1      40.674  26.222  28.956  1.00  0.00     0.029 A 
ATOM     17  N   UNL A   1      42.149  27.877  28.720  1.00  0.00    -0.354 N 
ATOM     18  C   UNL A   1      45.874  27.303  26.672  1.00  0.00     0.074 A 
ATOM     19  C   UNL A   1      46.071  25.915  26.340  1.00  0.00     0.031 C 
ATOM     20  C   UNL A   1      40.078  27.351  29.366  1.00  0.00     0.029 A 
ATOM     21  C   UNL A   1      41.029  28.453  29.271  1.00  0.00     0.049 A 
ATOM     22  H   UNL A   1      42.964  28.385  28.503  1.00  0.00     0.167 HD
ATOM     23  C   UNL A   1      46.765  28.275  26.358  1.00  0.00     0.037 A 
ATOM     24  C   UNL A   1      40.802  29.716  29.686  1.00  0.00     0.037 A 
ATOM     25  C   UNL A   1      46.654  29.634  26.803  1.00  0.00     0.049 A 
ATOM     26  C   UNL A   1      41.886  30.749  29.504  1.00  0.00     0.074 A 
ATOM     27  C   UNL A   1      47.565  30.667  26.678  1.00  0.00     0.029 A 
ATOM     28  N   UNL A   1      45.565  30.137  27.495  1.00  0.00    -0.354 N 
ATOM     29  N   UNL A   1      43.036  30.645  28.884  1.00  0.00    -0.248 NA
ATOM     30  C   UNL A   1      41.644  32.074  30.092  1.00  0.00     0.031 C 
ATOM     31  C   UNL A   1      47.049  31.783  27.348  1.00  0.00     0.029 A 
ATOM     32  C   UNL A   1      45.789  31.461  27.827  1.00  0.00     0.049 A 
ATOM     33  H   UNL A   1      44.752  29.628  27.717  1.00  0.00     0.167 HD
ATOM     34  C   UNL A   1      43.640  31.892  28.984  1.00  0.00     0.074 A 
ATOM     35  C   UNL A   1      42.717  32.745  29.702  1.00  0.00     0.031 C 
ATOM     36  C   UNL A   1      44.853  32.295  28.532  1.00  0.00     0.037 A 
BRANCH  23  37
ATOM     37  C   UNL A   1      47.983  27.865  25.577  1.00  0.00     0.064 A 
ATOM     38  C   UNL A   1      49.209  27.599  26.209  1.00  0.00     0.173 A 
ATOM     39  C   UNL A   1      47.932  27.754  24.179  1.00  0.00     0.173 A 
ATOM     40  F   UNL A   1      49.319  27.710  27.541  1.00  0.00    -0.203 F 
ATOM     41  C   UNL A   1      50.340  27.264  25.467  1.00  0.00     0.198 A 
ATOM     42  C   UNL A   1      49.058  27.394  23.444  1.00  0.00     0.198 A 
ATOM     43  F   UNL A   1      46.788  28.002  23.523  1.00  0.00    -0.203 F 
ATOM     44  F   UNL A   1      51.512  27.065  26.087  1.00  0.00    -0.200 F 
ATOM     45  C   UNL A   1      50.263  27.158  24.087  1.00  0.00     0.200 A 
ATOM     46  F   UNL A   1      48.979  27.285  22.110  1.00  0.00    -0.200 F 
ATOM     47  F   UNL A   1      51.353  26.840  23.374  1.00  0.00    -0.200 F 
ENDBRANCH  23  37
BRANCH  24  48
ATOM     48  C   UNL A   1      39.536  30.063  30.399  1.00  0.00     0.064 A 
ATOM     49  C   UNL A   1      39.369  29.835  31.773  1.00  0.00     0.173 A 
ATOM     50  C   UNL A   1      38.430  30.564  29.691  1.00  0.00     0.173 A 
ATOM     51  F   UNL A   1      40.380  29.333  32.497  1.00  0.00    -0.203 F 
ATOM     52  C   UNL A   1      38.142  30.057  32.398  1.00  0.00     0.198 A 
ATOM     53  C   UNL A   1      37.218  30.826  30.326  1.00  0.00     0.198 A 
ATOM     54  F   UNL A   1      38.523  30.798  28.373  1.00  0.00    -0.203 F 
ATOM     55  F   UNL A   1      37.989  29.757  33.696  1.00  0.00    -0.200 F 
ATOM     56  C   UNL A   1      37.069  30.557  31.675  1.00  0.00     0.200 A 
ATOM     57  F   UNL A   1      36.193  31.326  29.622  1.00  0.00    -0.200 F 
ATOM     58  F   UNL A   1      35.889  30.763  32.275  1.00  0.00    -0.200 F 
ENDBRANCH  24  48
BRANCH  36  59
ATOM     59  C   UNL A   1      45.237  33.728  28.763  1.00  0.00     0.064 A 
ATOM     60  C   UNL A   1      44.945  34.732  27.829  1.00  0.00     0.173 A 
ATOM     61  C   UNL A   1      45.867  34.106  29.960  1.00  0.00     0.173 A 
ATOM     62  F   UNL A   1      44.354  34.420  26.665  1.00  0.00    -0.203 F 
ATOM     63  C   UNL A   1      45.301  36.056  28.067  1.00  0.00     0.198 A 
ATOM     64  C   UNL A   1      46.186  35.437  30.212  1.00  0.00     0.198 A 
ATOM     65  F   UNL A   1      46.157  33.186  30.891  1.00  0.00    -0.203 F 
ATOM     66  F   UNL A   1      45.065  36.988  27.135  1.00  0.00    -0.200 F 
ATOM     67  C   UNL A   1      45.913  36.409  29.261  1.00  0.00     0.200 A 
ATOM     68  F   UNL A   1      46.759  35.777  31.373  1.00  0.00    -0.200 F 
ATOM     69  F   UNL A   1      46.246  37.685  29.493  1.00  0.00    -0.200 F 
ENDBRANCH  36  59
ENDBRANCH  10  11
ENDBRANCH   3   5
ENDBRANCH   2   3
ENDBRANCH   1   2
BRANCH   1  70
ATOM     70  C   UNL A   1      37.863  21.085  25.153  1.00  0.00     0.274 C 
BRANCH  70  71
ATOM     71  O   UNL A   1      36.526  21.118  25.699  1.00  0.00    -0.461 OA
BRANCH  71  72
ATOM     72  C   UNL A   1      35.785  22.223  25.403  1.00  0.00     0.324 C 
ATOM     73  O   UNL A   1      35.946  23.298  25.966  1.00  0.00    -0.250 OA
BRANCH  72  74
ATOM     74  C   UNL A   1      34.788  21.957  24.252  1.00  0.00     0.185 C 
ATOM     75  C   UNL A   1      34.010  20.682  24.735  1.00  0.00     0.065 C 
ATOM     76  N   UNL A   1      33.491  23.067  23.585  1.00  0.00    -0.181 NA
ATOM     77  C   UNL A   1      32.618  21.116  25.088  1.00  0.00     0.131 C 
ATOM     78  C   UNL A   1      32.202  21.870  23.839  1.00  0.00     0.135 C 
BRANCH  76  79
ATOM     79  S   UNL A   1      33.372  25.483  23.152  1.00  0.00     0.244 S 
ATOM     80  O   UNL A   1      33.854  26.348  24.252  1.00  0.00    -0.207 OA
ATOM     81  O   UNL A   1      33.962  25.886  21.862  1.00  0.00    -0.207 OA
BRANCH  79  82
ATOM     82  C   UNL A   1      31.605  26.438  22.937  1.00  0.00     0.086 A 
ATOM     83  C   UNL A   1      30.582  25.813  23.686  1.00  0.00     0.026 A 
ATOM     84  C   UNL A   1      31.293  27.613  22.237  1.00  0.00     0.072 A 
ATOM     85  C   UNL A   1      29.332  26.421  23.841  1.00  0.00     0.052 A 
ATOM     86  C   UNL A   1      30.059  28.237  22.437  1.00  0.00     0.162 A 
ATOM     87  C   UNL A   1      29.080  27.649  23.238  1.00  0.00     0.161 A 
ATOM     88  O   UNL A   1      29.906  29.462  21.836  1.00  0.00    -0.486 OA
ATOM     89  O   UNL A   1      27.869  28.235  23.492  1.00  0.00    -0.486 OA
ATOM     90  C   UNL A   1      28.838  30.204  22.436  1.00  0.00     0.271 C 
ATOM     91  C   UNL A   1      27.609  29.326  22.598  1.00  0.00     0.271 C 
ENDBRANCH  79  82
ENDBRANCH  76  79
BRANCH  77  92
ATOM     92  O   UNL A   1      31.779  20.007  25.377  1.00  0.00    -0.392 OA
ATOM     93  H   UNL A   1      31.881  19.334  24.685  1.00  0.00     0.211 HD
ENDBRANCH  77  92
ENDBRANCH  72  74
ENDBRANCH  71  72
ENDBRANCH  70  71
ENDBRANCH   1  70
TORSDOF 14
ENDMDL
MODEL 2
REMARK VINA RESULT:     -13.4      1.976      3.344
REMARK SMILES O=C(OCCOC(=O)[C@H]1C[C@H](O)CN1S(=O)(=O)c1ccc2c(c1)OCCO2)c1ccc(-c2c3nc(c(-c4c(F)c(F)c(F)c(F)c4F)c4ccc([nH]4)c(-c4c(F)c(F)c(F)c(F)c4F)c4nc(c(-c5c(F)c(F)c(F)c(F)c5F)c5ccc2[nH]5)C=C4)C=C3)cc1
REMARK SMILES IDX 4 1 3 2 2 3 1 4 28 5 29 6 90 7 30 8 89 9 31 10 32 11 33 12
REMARK SMILES IDX 83 13 34 14 88 15 82 16 84 17 35 18 87 19 81 20 80 21 36 23
REMARK SMILES IDX 68 24 48 25 67 26 49 27 52 28 66 29 85 30 50 31 51 32 65 34
REMARK SMILES IDX 86 35 53 36 37 37 38 38 46 39 39 40 40 41 44 42 47 43 41 44
REMARK SMILES IDX 42 45 45 46 43 47 69 48 70 49 78 50 71 51 72 52 76 53 79 54
REMARK SMILES IDX 73 55 74 56 77 57 75 58 54 59 55 60 63 61 56 62 57 63 61 64
REMARK SMILES IDX 64 65 58 66 59 67 62 68 60 69 5 70 6 71 7 72 8 73 9 74 10 75
REMARK SMILES IDX 14 76 11 77 13 78 15 79 16 80 17 81 18 82 19 83 23 84 20 85
REMARK SMILES IDX 22 86 21 87 24 88 27 89 25 90 26 91 12 92
REMARK H PARENT 84 22 52 33 12 93
REMARK Flexibility Score: inf
ROOT
ATOM      1  C   UNL A   1      35.916  21.966  25.681  1.00  0.00     0.275 C 
ENDROOT
BRANCH   1   2
ATOM      2  O   UNL A   1      36.863  20.879  25.691  1.00  0.00    -0.458 OA
BRANCH   2   3
ATOM      3  C   UNL A   1      38.215  20.943  25.696  1.00  0.00     0.338 C 
ATOM      4  O   UNL A   1      38.894  19.971  25.375  1.00  0.00    -0.246 OA
BRANCH   3   5
ATOM      5  C   UNL A   1      38.961  22.126  26.203  1.00  0.00     0.060 A 
ATOM      6  C   UNL A   1      38.678  23.856  25.729  1.00  0.00     0.016 A 
ATOM      7  C   UNL A   1      40.345  21.804  27.319  1.00  0.00     0.016 A 
ATOM      8  C   UNL A   1      39.534  25.196  26.501  1.00  0.00     0.010 A 
ATOM      9  C   UNL A   1      41.331  23.227  27.987  1.00  0.00     0.010 A 
ATOM     10  C   UNL A   1      40.861  24.910  27.632  1.00  0.00    -0.014 A 
BRANCH  10  11
ATOM     11  C   UNL A   1      41.540  26.167  28.118  1.00  0.00     0.031 A 
ATOM     12  C   UNL A   1      42.946  26.537  27.711  1.00  0.00     0.074 A 
ATOM     13  C   UNL A   1      40.794  27.122  28.712  1.00  0.00     0.049 A 
ATOM     14  N   UNL A   1      43.593  27.678  27.795  1.00  0.00    -0.248 NA
ATOM     15  C   UNL A   1      43.730  25.483  27.082  1.00  0.00     0.031 C 
ATOM     16  C   UNL A   1      39.386  26.989  29.078  1.00  0.00     0.029 A 
ATOM     17  N   UNL A   1      41.100  28.415  29.075  1.00  0.00    -0.354 N 
ATOM     18  C   UNL A   1      44.811  27.475  27.143  1.00  0.00     0.074 A 
ATOM     19  C   UNL A   1      44.820  26.111  26.680  1.00  0.00     0.031 C 
ATOM     20  C   UNL A   1      38.939  28.152  29.575  1.00  0.00     0.029 A 
ATOM     21  C   UNL A   1      40.046  29.101  29.633  1.00  0.00     0.049 A 
ATOM     22  H   UNL A   1      41.992  28.812  28.947  1.00  0.00     0.167 HD
ATOM     23  C   UNL A   1      45.852  28.325  26.967  1.00  0.00     0.037 A 
ATOM     24  C   UNL A   1      39.984  30.339  30.164  1.00  0.00     0.037 A 
ATOM     25  C   UNL A   1      45.917  29.638  27.543  1.00  0.00     0.049 A 
ATOM     26  C   UNL A   1      41.217  31.207  30.135  1.00  0.00     0.074 A 
ATOM     27  C   UNL A   1      46.976  30.527  27.563  1.00  0.00     0.029 A 
ATOM     28  N   UNL A   1      44.876  30.233  28.235  1.00  0.00    -0.354 N 
ATOM     29  N   UNL A   1      42.373  30.988  29.558  1.00  0.00    -0.248 NA
ATOM     30  C   UNL A   1      41.139  32.493  30.843  1.00  0.00     0.031 C 
ATOM     31  C   UNL A   1      46.592  31.640  28.320  1.00  0.00     0.029 A 
ATOM     32  C   UNL A   1      45.273  31.471  28.709  1.00  0.00     0.049 A 
ATOM     33  H   UNL A   1      43.986  29.836  28.369  1.00  0.00     0.167 HD
ATOM     34  C   UNL A   1      43.148  32.113  29.810  1.00  0.00     0.074 A 
ATOM     35  C   UNL A   1      42.321  33.026  30.570  1.00  0.00     0.031 C 
ATOM     36  C   UNL A   1      44.431  32.368  29.454  1.00  0.00     0.037 A 
BRANCH  23  37
ATOM     37  C   UNL A   1      47.040  27.810  26.202  1.00  0.00     0.064 A 
ATOM     38  C   UNL A   1      47.077  27.828  24.798  1.00  0.00     0.173 A 
ATOM     39  C   UNL A   1      48.147  27.273  26.878  1.00  0.00     0.173 A 
ATOM     40  F   UNL A   1      46.038  28.311  24.102  1.00  0.00    -0.203 F 
ATOM     41  C   UNL A   1      48.166  27.305  24.103  1.00  0.00     0.198 A 
ATOM     42  C   UNL A   1      49.244  26.776  26.180  1.00  0.00     0.198 A 
ATOM     43  F   UNL A   1      48.162  27.226  28.219  1.00  0.00    -0.203 F 
ATOM     44  F   UNL A   1      48.158  27.287  22.763  1.00  0.00    -0.200 F 
ATOM     45  C   UNL A   1      49.250  26.784  24.794  1.00  0.00     0.200 A 
ATOM     46  F   UNL A   1      50.293  26.278  26.850  1.00  0.00    -0.200 F 
ATOM     47  F   UNL A   1      50.294  26.277  24.124  1.00  0.00    -0.200 F 
ENDBRANCH  23  37
BRANCH  24  48
ATOM     48  C   UNL A   1      38.744  30.806  30.853  1.00  0.00     0.064 A 
ATOM     49  C   UNL A   1      37.698  31.434  30.159  1.00  0.00     0.173 A 
ATOM     50  C   UNL A   1      38.617  30.700  32.248  1.00  0.00     0.173 A 
ATOM     51  F   UNL A   1      37.775  31.590  28.829  1.00  0.00    -0.203 F 
ATOM     52  C   UNL A   1      36.601  31.968  30.836  1.00  0.00     0.198 A 
ATOM     53  C   UNL A   1      37.500  31.193  32.917  1.00  0.00     0.198 A 
ATOM     54  F   UNL A   1      39.584  30.114  32.970  1.00  0.00    -0.203 F 
ATOM     55  F   UNL A   1      35.655  32.632  30.155  1.00  0.00    -0.200 F 
ATOM     56  C   UNL A   1      36.500  31.843  32.213  1.00  0.00     0.200 A 
ATOM     57  F   UNL A   1      37.403  31.052  34.246  1.00  0.00    -0.200 F 
ATOM     58  F   UNL A   1      35.450  32.362  32.862  1.00  0.00    -0.200 F 
ENDBRANCH  24  48
BRANCH  36  59
ATOM     59  C   UNL A   1      45.008  33.697  29.846  1.00  0.00     0.064 A 
ATOM     60  C   UNL A   1      45.693  33.879  31.056  1.00  0.00     0.173 A 
ATOM     61  C   UNL A   1      44.912  34.793  28.974  1.00  0.00     0.173 A 
ATOM     62  F   UNL A   1      45.803  32.865  31.929  1.00  0.00    -0.203 F 
ATOM     63  C   UNL A   1      46.230  35.117  31.395  1.00  0.00     0.198 A 
ATOM     64  C   UNL A   1      45.483  36.019  29.299  1.00  0.00     0.198 A 
ATOM     65  F   UNL A   1      44.277  34.669  27.799  1.00  0.00    -0.203 F 
ATOM     66  F   UNL A   1      46.829  35.282  32.582  1.00  0.00    -0.200 F 
ATOM     67  C   UNL A   1      46.132  36.183  30.513  1.00  0.00     0.200 A 
ATOM     68  F   UNL A   1      45.405  37.042  28.437  1.00  0.00    -0.200 F 
ATOM     69  F   UNL A   1      46.658  37.372  30.837  1.00  0.00    -0.200 F 
ENDBRANCH  36  59
ENDBRANCH  10  11
ENDBRANCH   3   5
ENDBRANCH   2   3
ENDBRANCH   1   2
BRANCH   1  70
ATOM     70  C   UNL A   1      35.615  22.515  24.264  1.00  0.00     0.274 C 
BRANCH  70  71
ATOM     71  O   UNL A   1      34.430  23.338  24.178  1.00  0.00    -0.461 OA
BRANCH  71  72
ATOM     72  C   UNL A   1      33.674  23.184  23.054  1.00  0.00     0.324 C 
ATOM     73  O   UNL A   1      34.109  23.392  21.930  1.00  0.00    -0.250 OA
BRANCH  72  74
ATOM     74  C   UNL A   1      32.254  22.667  23.382  1.00  0.00     0.185 C 
ATOM     75  C   UNL A   1      32.502  21.177  23.810  1.00  0.00     0.065 C 
ATOM     76  N   UNL A   1      31.060  23.312  24.613  1.00  0.00    -0.181 NA
ATOM     77  C   UNL A   1      32.263  21.094  25.289  1.00  0.00     0.131 C 
ATOM     78  C   UNL A   1      30.896  21.737  25.420  1.00  0.00     0.135 C 
BRANCH  76  79
ATOM     79  S   UNL A   1      30.429  25.568  25.358  1.00  0.00     0.244 S 
ATOM     80  O   UNL A   1      29.970  26.482  24.288  1.00  0.00    -0.207 OA
ATOM     81  O   UNL A   1      29.498  25.578  26.501  1.00  0.00    -0.207 OA
BRANCH  79  82
ATOM     82  C   UNL A   1      31.787  26.854  26.120  1.00  0.00     0.086 A 
ATOM     83  C   UNL A   1      33.111  26.425  25.865  1.00  0.00     0.026 A 
ATOM     84  C   UNL A   1      31.601  28.083  26.771  1.00  0.00     0.072 A 
ATOM     85  C   UNL A   1      34.199  27.262  26.127  1.00  0.00     0.052 A 
ATOM     86  C   UNL A   1      32.690  28.932  26.983  1.00  0.00     0.162 A 
ATOM     87  C   UNL A   1      33.987  28.528  26.661  1.00  0.00     0.161 A 
ATOM     88  O   UNL A   1      32.390  30.176  27.480  1.00  0.00    -0.486 OA
ATOM     89  O   UNL A   1      35.082  29.334  26.819  1.00  0.00    -0.486 OA
ATOM     90  C   UNL A   1      33.460  31.099  27.251  1.00  0.00     0.271 C 
ATOM     91  C   UNL A   1      34.789  30.474  27.638  1.00  0.00     0.271 C 
ENDBRANCH  79  82
ENDBRANCH  76  79
BRANCH  77  92
ATOM     92  O   UNL A   1      32.296  19.751  25.751  1.00  0.00    -0.392 OA
ATOM     93  H   UNL A   1      31.842  19.691  26.607  1.00  0.00     0.211 HD
ENDBRANCH  77  92
ENDBRANCH  72  74
ENDBRANCH  71  72
ENDBRANCH  70  71
ENDBRANCH   1  70
TORSDOF 14
ENDMDL
MODEL 3
REMARK VINA RESULT:     -13.3      4.062      8.437
REMARK SMILES O=C(OCCOC(=O)[C@H]1C[C@H](O)CN1S(=O)(=O)c1ccc2c(c1)OCCO2)c1ccc(-c2c3nc(c(-c4c(F)c(F)c(F)c(F)c4F)c4ccc([nH]4)c(-c4c(F)c(F)c(F)c(F)c4F)c4nc(c(-c5c(F)c(F)c(F)c(F)c5F)c5ccc2[nH]5)C=C4)C=C3)cc1
REMARK SMILES IDX 4 1 3 2 2 3 1 4 28 5 29 6 90 7 30 8 89 9 31 10 32 11 33 12
REMARK SMILES IDX 83 13 34 14 88 15 82 16 84 17 35 18 87 19 81 20 80 21 36 23
REMARK SMILES IDX 68 24 48 25 67 26 49 27 52 28 66 29 85 30 50 31 51 32 65 34
REMARK SMILES IDX 86 35 53 36 37 37 38 38 46 39 39 40 40 41 44 42 47 43 41 44
REMARK SMILES IDX 42 45 45 46 43 47 69 48 70 49 78 50 71 51 72 52 76 53 79 54
REMARK SMILES IDX 73 55 74 56 77 57 75 58 54 59 55 60 63 61 56 62 57 63 61 64
REMARK SMILES IDX 64 65 58 66 59 67 62 68 60 69 5 70 6 71 7 72 8 73 9 74 10 75
REMARK SMILES IDX 14 76 11 77 13 78 15 79 16 80 17 81 18 82 19 83 23 84 20 85
REMARK SMILES IDX 22 86 21 87 24 88 27 89 25 90 26 91 12 92
REMARK H PARENT 84 22 52 33 12 93
REMARK Flexibility Score: inf
ROOT
ATOM      1  C   UNL A   1      36.872  23.579  25.029  1.00  0.00     0.275 C 
ENDROOT
BRANCH   1   2
ATOM      2  O   UNL A   1      37.730  22.685  25.765  1.00  0.00    -0.458 OA
BRANCH   2   3
ATOM      3  C   UNL A   1      39.006  22.889  26.170  1.00  0.00     0.338 C 
ATOM      4  O   UNL A   1      39.841  21.991  26.097  1.00  0.00    -0.246 OA
BRANCH   3   5
ATOM      5  C   UNL A   1      39.445  24.143  26.838  1.00  0.00     0.060 A 
ATOM      6  C   UNL A   1      38.897  24.741  28.463  1.00  0.00     0.016 A 
ATOM      7  C   UNL A   1      40.550  25.224  25.903  1.00  0.00     0.016 A 
ATOM      8  C   UNL A   1      39.591  26.179  29.220  1.00  0.00     0.010 A 
ATOM      9  C   UNL A   1      41.134  26.813  26.665  1.00  0.00     0.010 A 
ATOM     10  C   UNL A   1      40.711  27.229  28.346  1.00  0.00    -0.014 A 
BRANCH  10  11
ATOM     11  C   UNL A   1      41.127  28.462  29.111  1.00  0.00     0.031 A 
ATOM     12  C   UNL A   1      40.170  29.592  29.407  1.00  0.00     0.074 A 
ATOM     13  C   UNL A   1      42.297  28.448  29.782  1.00  0.00     0.049 A 
ATOM     14  N   UNL A   1      40.252  30.585  30.263  1.00  0.00    -0.248 NA
ATOM     15  C   UNL A   1      38.920  29.586  28.661  1.00  0.00     0.031 C 
ATOM     16  C   UNL A   1      43.299  27.387  29.711  1.00  0.00     0.029 A 
ATOM     17  N   UNL A   1      42.830  29.333  30.692  1.00  0.00    -0.354 N 
ATOM     18  C   UNL A   1      39.023  31.245  30.203  1.00  0.00     0.074 A 
ATOM     19  C   UNL A   1      38.220  30.552  29.228  1.00  0.00     0.031 C 
ATOM     20  C   UNL A   1      44.300  27.657  30.562  1.00  0.00     0.029 A 
ATOM     21  C   UNL A   1      44.053  28.950  31.192  1.00  0.00     0.049 A 
ATOM     22  H   UNL A   1      42.377  30.165  30.961  1.00  0.00     0.167 HD
ATOM     23  C   UNL A   1      38.597  32.348  30.866  1.00  0.00     0.037 A 
ATOM     24  C   UNL A   1      44.897  29.580  32.034  1.00  0.00     0.037 A 
ATOM     25  C   UNL A   1      39.432  33.131  31.732  1.00  0.00     0.049 A 
ATOM     26  C   UNL A   1      44.488  30.912  32.615  1.00  0.00     0.074 A 
ATOM     27  C   UNL A   1      39.162  34.346  32.335  1.00  0.00     0.029 A 
ATOM     28  N   UNL A   1      40.723  32.781  32.088  1.00  0.00    -0.354 N 
ATOM     29  N   UNL A   1      43.345  31.544  32.515  1.00  0.00    -0.248 NA
ATOM     30  C   UNL A   1      45.494  31.621  33.417  1.00  0.00     0.031 C 
ATOM     31  C   UNL A   1      40.315  34.759  33.012  1.00  0.00     0.029 A 
ATOM     32  C   UNL A   1      41.275  33.767  32.886  1.00  0.00     0.049 A 
ATOM     33  H   UNL A   1      41.180  31.952  31.816  1.00  0.00     0.167 HD
ATOM     34  C   UNL A   1      43.485  32.709  33.259  1.00  0.00     0.074 A 
ATOM     35  C   UNL A   1      44.815  32.682  33.828  1.00  0.00     0.031 C 
ATOM     36  C   UNL A   1      42.598  33.716  33.450  1.00  0.00     0.037 A 
BRANCH  23  37
ATOM     37  C   UNL A   1      37.196  32.819  30.590  1.00  0.00     0.064 A 
ATOM     38  C   UNL A   1      36.889  33.602  29.466  1.00  0.00     0.173 A 
ATOM     39  C   UNL A   1      36.149  32.500  31.469  1.00  0.00     0.173 A 
ATOM     40  F   UNL A   1      37.855  33.953  28.603  1.00  0.00    -0.203 F 
ATOM     41  C   UNL A   1      35.593  34.068  29.248  1.00  0.00     0.198 A 
ATOM     42  C   UNL A   1      34.851  32.946  31.234  1.00  0.00     0.198 A 
ATOM     43  F   UNL A   1      36.387  31.759  32.562  1.00  0.00    -0.203 F 
ATOM     44  F   UNL A   1      35.333  34.856  28.196  1.00  0.00    -0.200 F 
ATOM     45  C   UNL A   1      34.576  33.736  30.130  1.00  0.00     0.200 A 
ATOM     46  F   UNL A   1      33.868  32.619  32.085  1.00  0.00    -0.200 F 
ATOM     47  F   UNL A   1      33.331  34.189  29.922  1.00  0.00    -0.200 F 
ENDBRANCH  23  37
BRANCH  24  48
ATOM     48  C   UNL A   1      46.253  29.017  32.311  1.00  0.00     0.064 A 
ATOM     49  C   UNL A   1      47.341  29.240  31.453  1.00  0.00     0.173 A 
ATOM     50  C   UNL A   1      46.465  28.171  33.412  1.00  0.00     0.173 A 
ATOM     51  F   UNL A   1      47.192  30.016  30.370  1.00  0.00    -0.203 F 
ATOM     52  C   UNL A   1      48.568  28.611  31.665  1.00  0.00     0.198 A 
ATOM     53  C   UNL A   1      47.703  27.579  33.647  1.00  0.00     0.198 A 
ATOM     54  F   UNL A   1      45.463  27.914  34.267  1.00  0.00    -0.203 F 
ATOM     55  F   UNL A   1      49.566  28.781  30.787  1.00  0.00    -0.200 F 
ATOM     56  C   UNL A   1      48.749  27.785  32.764  1.00  0.00     0.200 A 
ATOM     57  F   UNL A   1      47.874  26.797  34.722  1.00  0.00    -0.200 F 
ATOM     58  F   UNL A   1      49.926  27.176  32.963  1.00  0.00    -0.200 F 
ENDBRANCH  24  48
BRANCH  36  59
ATOM     59  C   UNL A   1      43.018  34.851  34.337  1.00  0.00     0.064 A 
ATOM     60  C   UNL A   1      43.593  36.021  33.820  1.00  0.00     0.173 A 
ATOM     61  C   UNL A   1      42.798  34.784  35.722  1.00  0.00     0.173 A 
ATOM     62  F   UNL A   1      43.834  36.131  32.504  1.00  0.00    -0.203 F 
ATOM     63  C   UNL A   1      43.966  37.066  34.660  1.00  0.00     0.198 A 
ATOM     64  C   UNL A   1      43.136  35.846  36.554  1.00  0.00     0.198 A 
ATOM     65  F   UNL A   1      42.240  33.692  36.266  1.00  0.00    -0.203 F 
ATOM     66  F   UNL A   1      44.567  38.149  34.150  1.00  0.00    -0.200 F 
ATOM     67  C   UNL A   1      43.729  36.982  36.024  1.00  0.00     0.200 A 
ATOM     68  F   UNL A   1      42.889  35.770  37.869  1.00  0.00    -0.200 F 
ATOM     69  F   UNL A   1      44.080  37.993  36.829  1.00  0.00    -0.200 F 
ENDBRANCH  36  59
ENDBRANCH  10  11
ENDBRANCH   3   5
ENDBRANCH   2   3
ENDBRANCH   1   2
BRANCH   1  70
ATOM     70  C   UNL A   1      36.527  23.077  23.604  1.00  0.00     0.274 C 
BRANCH  70  71
ATOM     71  O   UNL A   1      35.227  22.458  23.483  1.00  0.00    -0.461 OA
BRANCH  71  72
ATOM     72  C   UNL A   1      34.185  23.298  23.226  1.00  0.00     0.324 C 
ATOM     73  O   UNL A   1      34.335  24.402  22.719  1.00  0.00    -0.250 OA
BRANCH  72  74
ATOM     74  C   UNL A   1      32.826  22.659  23.592  1.00  0.00     0.185 C 
ATOM     75  C   UNL A   1      33.225  21.232  24.110  1.00  0.00     0.065 C 
ATOM     76  N   UNL A   1      31.570  23.253  24.787  1.00  0.00    -0.181 NA
ATOM     77  C   UNL A   1      32.994  21.217  25.593  1.00  0.00     0.131 C 
ATOM     78  C   UNL A   1      31.568  21.723  25.690  1.00  0.00     0.135 C 
BRANCH  76  79
ATOM     79  S   UNL A   1      30.708  25.474  25.393  1.00  0.00     0.244 S 
ATOM     80  O   UNL A   1      30.248  26.305  24.257  1.00  0.00    -0.207 OA
ATOM     81  O   UNL A   1      29.705  25.448  26.473  1.00  0.00    -0.207 OA
BRANCH  79  82
ATOM     82  C   UNL A   1      31.903  26.898  26.183  1.00  0.00     0.086 A 
ATOM     83  C   UNL A   1      33.270  26.559  26.055  1.00  0.00     0.026 A 
ATOM     84  C   UNL A   1      31.576  28.140  26.748  1.00  0.00     0.072 A 
ATOM     85  C   UNL A   1      34.271  27.490  26.353  1.00  0.00     0.052 A 
ATOM     86  C   UNL A   1      32.580  29.079  26.995  1.00  0.00     0.162 A 
ATOM     87  C   UNL A   1      33.924  28.761  26.797  1.00  0.00     0.161 A 
ATOM     88  O   UNL A   1      32.150  30.320  27.396  1.00  0.00    -0.486 OA
ATOM     89  O   UNL A   1      34.941  29.656  26.993  1.00  0.00    -0.486 OA
ATOM     90  C   UNL A   1      33.166  31.310  27.198  1.00  0.00     0.271 C 
ATOM     91  C   UNL A   1      34.501  30.810  27.721  1.00  0.00     0.271 C 
ENDBRANCH  79  82
ENDBRANCH  76  79
BRANCH  77  92
ATOM     92  O   UNL A   1      33.164  19.916  26.137  1.00  0.00    -0.392 OA
ATOM     93  H   UNL A   1      32.319  19.602  26.497  1.00  0.00     0.211 HD
ENDBRANCH  77  92
ENDBRANCH  72  74
ENDBRANCH  71  72
ENDBRANCH  70  71
ENDBRANCH   1  70
TORSDOF 14
ENDMDL
