MODEL 1
REMARK VINA RESULT:     -12.0      0.000      0.000
REMARK SMILES COc1ccc(C(F)(F)F)cc1-c1cccnc1C(=O)OCCOC(=O)c1ccc(-c2c3nc(c(-c4c(F)c(F)c(F)c(F)c4F)c4ccc([nH]4)c(-c4c(F)c(F)c(F)c(F)c4F)c4nc(c(-c5c(F)c(F)c(F)c(F)c5F)c5ccc2[nH]5)C=C4)C=C3)cc1
REMARK SMILES IDX 22 1 21 2 19 3 20 4 18 5 13 6 14 7 15 8 17 9 16 10 12 11
REMARK SMILES IDX 3 12 4 13 5 14 11 15 6 16 2 17 1 18 7 19 8 20 9 21 10 22
REMARK SMILES IDX 23 23 24 24 25 25 26 26 27 27 28 28 89 29 29 30 88 31 30 32
REMARK SMILES IDX 31 33 32 34 82 35 33 36 87 37 81 38 83 39 34 40 86 41 80 42
REMARK SMILES IDX 79 43 35 45 67 46 47 47 66 48 48 49 51 50 65 51 84 52 49 53
REMARK SMILES IDX 50 54 64 56 85 57 52 58 36 59 37 60 45 61 38 62 39 63 43 64
REMARK SMILES IDX 46 65 40 66 41 67 44 68 42 69 68 70 69 71 77 72 70 73 71 74
REMARK SMILES IDX 75 75 78 76 72 77 73 78 76 79 74 80 53 81 54 82 62 83 55 84
REMARK SMILES IDX 56 85 60 86 63 87 57 88 58 89 61 90 59 91
REMARK H PARENT 83 44 51 55
REMARK Flexibility Score: inf
ROOT
ATOM      1  C   UNL A   1      31.651  28.949  27.224  1.00  0.00     0.275 C 
ENDROOT
BRANCH   1   2
ATOM      2  O   UNL A   1      31.282  27.705  26.594  1.00  0.00    -0.457 OA
BRANCH   2   3
ATOM      3  C   UNL A   1      32.292  26.928  26.118  1.00  0.00     0.357 C 
ATOM      4  O   UNL A   1      33.479  27.091  26.349  1.00  0.00    -0.244 OA
BRANCH   3   5
ATOM      5  C   UNL A   1      31.756  25.798  25.283  1.00  0.00     0.156 A 
ATOM      6  C   UNL A   1      31.079  25.991  24.065  1.00  0.00     0.019 A 
ATOM      7  C   UNL A   1      30.625  24.827  23.420  1.00  0.00     0.013 A 
ATOM      8  C   UNL A   1      30.840  23.567  23.976  1.00  0.00     0.021 A 
ATOM      9  N   UNL A   1      32.008  24.565  25.821  1.00  0.00    -0.249 NA
ATOM     10  C   UNL A   1      31.535  23.488  25.164  1.00  0.00     0.112 A 
BRANCH   6  11
ATOM     11  C   UNL A   1      30.827  27.316  23.469  1.00  0.00     0.027 A 
ATOM     12  C   UNL A   1      31.809  28.026  22.752  1.00  0.00     0.126 A 
ATOM     13  C   UNL A   1      31.512  29.246  22.136  1.00  0.00     0.048 A 
ATOM     14  C   UNL A   1      30.214  29.752  22.173  1.00  0.00     0.017 A 
ATOM     15  C   UNL A   1      29.540  27.887  23.552  1.00  0.00     0.025 A 
ATOM     16  C   UNL A   1      29.209  29.072  22.873  1.00  0.00     0.056 A 
BRANCH  12  17
ATOM     17  O   UNL A   1      33.113  27.603  22.679  1.00  0.00    -0.496 OA
ATOM     18  C   UNL A   1      34.011  28.580  23.213  1.00  0.00     0.278 C 
ENDBRANCH  12  17
BRANCH  16  19
ATOM     19  C   UNL A   1      27.790  29.585  22.864  1.00  0.00     0.416 C 
ATOM     20  F   UNL A   1      27.471  30.232  21.712  1.00  0.00    -0.166 F 
ATOM     21  F   UNL A   1      26.879  28.580  22.999  1.00  0.00    -0.166 F 
ATOM     22  F   UNL A   1      27.524  30.457  23.875  1.00  0.00    -0.166 F 
ENDBRANCH  16  19
ENDBRANCH   6  11
ENDBRANCH   3   5
ENDBRANCH   2   3
ENDBRANCH   1   2
BRANCH   1  23
ATOM     23  C   UNL A   1      31.887  30.037  26.178  1.00  0.00     0.275 C 
BRANCH  23  24
ATOM     24  O   UNL A   1      33.264  30.448  26.185  1.00  0.00    -0.458 OA
BRANCH  24  25
ATOM     25  C   UNL A   1      33.566  31.392  27.103  1.00  0.00     0.338 C 
ATOM     26  O   UNL A   1      32.856  32.307  27.499  1.00  0.00    -0.246 OA
BRANCH  25  27
ATOM     27  C   UNL A   1      34.850  31.049  27.730  1.00  0.00     0.060 A 
ATOM     28  C   UNL A   1      35.043  29.716  28.090  1.00  0.00     0.016 A 
ATOM     29  C   UNL A   1      35.828  32.009  27.999  1.00  0.00     0.016 A 
ATOM     30  C   UNL A   1      36.215  29.325  28.724  1.00  0.00     0.010 A 
ATOM     31  C   UNL A   1      37.006  31.617  28.645  1.00  0.00     0.010 A 
ATOM     32  C   UNL A   1      37.199  30.275  29.022  1.00  0.00    -0.014 A 
BRANCH  32  33
ATOM     33  C   UNL A   1      38.392  29.853  29.792  1.00  0.00     0.031 A 
ATOM     34  C   UNL A   1      38.585  30.354  31.193  1.00  0.00     0.074 A 
ATOM     35  C   UNL A   1      39.262  28.976  29.259  1.00  0.00     0.049 A 
ATOM     36  N   UNL A   1      39.571  30.131  32.027  1.00  0.00    -0.248 NA
ATOM     37  C   UNL A   1      37.525  31.220  31.732  1.00  0.00     0.031 C 
ATOM     38  C   UNL A   1      39.148  28.382  27.928  1.00  0.00     0.029 A 
ATOM     39  N   UNL A   1      40.406  28.425  29.778  1.00  0.00    -0.354 N 
ATOM     40  C   UNL A   1      39.262  30.845  33.176  1.00  0.00     0.074 A 
ATOM     41  C   UNL A   1      38.005  31.519  32.931  1.00  0.00     0.031 C 
ATOM     42  C   UNL A   1      40.177  27.539  27.737  1.00  0.00     0.029 A 
ATOM     43  C   UNL A   1      41.042  27.569  28.914  1.00  0.00     0.049 A 
ATOM     44  H   UNL A   1      40.740  28.625  30.683  1.00  0.00     0.167 HD
ATOM     45  C   UNL A   1      39.965  30.926  34.330  1.00  0.00     0.037 A 
ATOM     46  C   UNL A   1      42.203  26.901  29.051  1.00  0.00     0.037 A 
ATOM     47  C   UNL A   1      41.202  30.235  34.577  1.00  0.00     0.049 A 
ATOM     48  C   UNL A   1      42.986  27.042  30.328  1.00  0.00     0.074 A 
ATOM     49  C   UNL A   1      41.984  30.241  35.720  1.00  0.00     0.029 A 
ATOM     50  N   UNL A   1      41.839  29.408  33.662  1.00  0.00    -0.354 N 
ATOM     51  N   UNL A   1      42.694  27.729  31.405  1.00  0.00    -0.248 NA
ATOM     52  C   UNL A   1      44.263  26.320  30.405  1.00  0.00     0.031 C 
ATOM     53  C   UNL A   1      43.113  29.448  35.482  1.00  0.00     0.029 A 
ATOM     54  C   UNL A   1      43.014  28.916  34.207  1.00  0.00     0.049 A 
ATOM     55  H   UNL A   1      41.505  29.202  32.759  1.00  0.00     0.167 HD
ATOM     56  C   UNL A   1      43.741  27.516  32.291  1.00  0.00     0.074 A 
ATOM     57  C   UNL A   1      44.667  26.617  31.633  1.00  0.00     0.031 C 
ATOM     58  C   UNL A   1      43.924  28.025  33.533  1.00  0.00     0.037 A 
BRANCH  45  59
ATOM     59  C   UNL A   1      39.426  31.823  35.404  1.00  0.00     0.064 A 
ATOM     60  C   UNL A   1      38.544  31.354  36.387  1.00  0.00     0.173 A 
ATOM     61  C   UNL A   1      39.821  33.169  35.462  1.00  0.00     0.173 A 
ATOM     62  F   UNL A   1      38.124  30.079  36.365  1.00  0.00    -0.203 F 
ATOM     63  C   UNL A   1      38.058  32.204  37.378  1.00  0.00     0.198 A 
ATOM     64  C   UNL A   1      39.353  34.010  36.468  1.00  0.00     0.198 A 
ATOM     65  F   UNL A   1      40.664  33.666  34.546  1.00  0.00    -0.203 F 
ATOM     66  F   UNL A   1      37.183  31.745  38.283  1.00  0.00    -0.200 F 
ATOM     67  C   UNL A   1      38.467  33.529  37.420  1.00  0.00     0.200 A 
ATOM     68  F   UNL A   1      39.756  35.288  36.513  1.00  0.00    -0.200 F 
ATOM     69  F   UNL A   1      38.002  34.345  38.376  1.00  0.00    -0.200 F 
ENDBRANCH  45  59
BRANCH  46  70
ATOM     70  C   UNL A   1      42.705  26.057  27.936  1.00  0.00     0.064 A 
ATOM     71  C   UNL A   1      42.316  24.716  27.811  1.00  0.00     0.173 A 
ATOM     72  C   UNL A   1      43.584  26.575  26.974  1.00  0.00     0.173 A 
ATOM     73  F   UNL A   1      41.500  24.168  28.724  1.00  0.00    -0.203 F 
ATOM     74  C   UNL A   1      42.796  23.924  26.771  1.00  0.00     0.198 A 
ATOM     75  C   UNL A   1      44.042  25.790  25.920  1.00  0.00     0.198 A 
ATOM     76  F   UNL A   1      43.989  27.851  27.054  1.00  0.00    -0.203 F 
ATOM     77  F   UNL A   1      42.443  22.633  26.696  1.00  0.00    -0.200 F 
ATOM     78  C   UNL A   1      43.652  24.463  25.821  1.00  0.00     0.200 A 
ATOM     79  F   UNL A   1      44.861  26.318  25.000  1.00  0.00    -0.200 F 
ATOM     80  F   UNL A   1      44.109  23.702  24.819  1.00  0.00    -0.200 F 
ENDBRANCH  46  70
BRANCH  58  81
ATOM     81  C   UNL A   1      45.167  27.610  34.264  1.00  0.00     0.064 A 
ATOM     82  C   UNL A   1      46.341  28.374  34.201  1.00  0.00     0.173 A 
ATOM     83  C   UNL A   1      45.174  26.454  35.058  1.00  0.00     0.173 A 
ATOM     84  F   UNL A   1      46.387  29.479  33.442  1.00  0.00    -0.203 F 
ATOM     85  C   UNL A   1      47.486  27.982  34.889  1.00  0.00     0.198 A 
ATOM     86  C   UNL A   1      46.313  26.079  35.765  1.00  0.00     0.198 A 
ATOM     87  F   UNL A   1      44.074  25.693  35.155  1.00  0.00    -0.203 F 
ATOM     88  F   UNL A   1      48.611  28.703  34.780  1.00  0.00    -0.200 F 
ATOM     89  C   UNL A   1      47.469  26.839  35.675  1.00  0.00     0.200 A 
ATOM     90  F   UNL A   1      46.293  24.980  36.531  1.00  0.00    -0.200 F 
ATOM     91  F   UNL A   1      48.572  26.465  36.338  1.00  0.00    -0.200 F 
ENDBRANCH  58  81
ENDBRANCH  32  33
ENDBRANCH  25  27
ENDBRANCH  24  25
ENDBRANCH  23  24
ENDBRANCH   1  23
TORSDOF 14
ENDMDL
MODEL 2
REMARK VINA RESULT:     -12.0      0.510      7.340
REMARK SMILES COc1ccc(C(F)(F)F)cc1-c1cccnc1C(=O)OCCOC(=O)c1ccc(-c2c3nc(c(-c4c(F)c(F)c(F)c(F)c4F)c4ccc([nH]4)c(-c4c(F)c(F)c(F)c(F)c4F)c4nc(c(-c5c(F)c(F)c(F)c(F)c5F)c5ccc2[nH]5)C=C4)C=C3)cc1
REMARK SMILES IDX 22 1 21 2 19 3 20 4 18 5 13 6 14 7 15 8 17 9 16 10 12 11
REMARK SMILES IDX 3 12 4 13 5 14 11 15 6 16 2 17 1 18 7 19 8 20 9 21 10 22
REMARK SMILES IDX 23 23 24 24 25 25 26 26 27 27 28 28 89 29 29 30 88 31 30 32
REMARK SMILES IDX 31 33 32 34 82 35 33 36 87 37 81 38 83 39 34 40 86 41 80 42
REMARK SMILES IDX 79 43 35 45 67 46 47 47 66 48 48 49 51 50 65 51 84 52 49 53
REMARK SMILES IDX 50 54 64 56 85 57 52 58 36 59 37 60 45 61 38 62 39 63 43 64
REMARK SMILES IDX 46 65 40 66 41 67 44 68 42 69 68 70 69 71 77 72 70 73 71 74
REMARK SMILES IDX 75 75 78 76 72 77 73 78 76 79 74 80 53 81 54 82 62 83 55 84
REMARK SMILES IDX 56 85 60 86 63 87 57 88 58 89 61 90 59 91
REMARK H PARENT 83 44 51 55
REMARK Flexibility Score: inf
ROOT
ATOM      1  C   UNL A   1      31.660  28.697  27.255  1.00  0.00     0.275 C 
ENDROOT
BRANCH   1   2
ATOM      2  O   UNL A   1      31.284  27.399  26.751  1.00  0.00    -0.457 OA
BRANCH   2   3
ATOM      3  C   UNL A   1      32.260  26.656  26.164  1.00  0.00     0.357 C 
ATOM      4  O   UNL A   1      33.460  26.807  26.327  1.00  0.00    -0.244 OA
BRANCH   3   5
ATOM      5  C   UNL A   1      31.669  25.578  25.296  1.00  0.00     0.156 A 
ATOM      6  C   UNL A   1      30.969  25.842  24.105  1.00  0.00     0.019 A 
ATOM      7  C   UNL A   1      30.464  24.720  23.424  1.00  0.00     0.013 A 
ATOM      8  C   UNL A   1      30.654  23.432  23.922  1.00  0.00     0.021 A 
ATOM      9  N   UNL A   1      31.897  24.316  25.776  1.00  0.00    -0.249 NA
ATOM     10  C   UNL A   1      31.376  23.283  25.087  1.00  0.00     0.112 A 
BRANCH   6  11
ATOM     11  C   UNL A   1      30.743  27.198  23.572  1.00  0.00     0.027 A 
ATOM     12  C   UNL A   1      31.748  27.935  22.918  1.00  0.00     0.126 A 
ATOM     13  C   UNL A   1      31.478  29.187  22.357  1.00  0.00     0.048 A 
ATOM     14  C   UNL A   1      30.183  29.703  22.387  1.00  0.00     0.017 A 
ATOM     15  C   UNL A   1      29.458  27.776  23.651  1.00  0.00     0.025 A 
ATOM     16  C   UNL A   1      29.154  28.997  23.025  1.00  0.00     0.056 A 
BRANCH  12  17
ATOM     17  O   UNL A   1      33.050  27.504  22.857  1.00  0.00    -0.496 OA
ATOM     18  C   UNL A   1      33.273  26.671  21.715  1.00  0.00     0.278 C 
ENDBRANCH  12  17
BRANCH  16  19
ATOM     19  C   UNL A   1      27.740  29.522  23.005  1.00  0.00     0.416 C 
ATOM     20  F   UNL A   1      26.824  28.584  23.362  1.00  0.00    -0.166 F 
ATOM     21  F   UNL A   1      27.568  30.567  23.865  1.00  0.00    -0.166 F 
ATOM     22  F   UNL A   1      27.353  29.986  21.784  1.00  0.00    -0.166 F 
ENDBRANCH  16  19
ENDBRANCH   6  11
ENDBRANCH   3   5
ENDBRANCH   2   3
ENDBRANCH   1   2
BRANCH   1  23
ATOM     23  C   UNL A   1      31.789  29.704  26.114  1.00  0.00     0.275 C 
BRANCH  23  24
ATOM     24  O   UNL A   1      33.121  30.244  26.071  1.00  0.00    -0.458 OA
BRANCH  24  25
ATOM     25  C   UNL A   1      33.351  31.247  26.947  1.00  0.00     0.338 C 
ATOM     26  O   UNL A   1      32.599  32.163  27.252  1.00  0.00    -0.246 OA
BRANCH  25  27
ATOM     27  C   UNL A   1      34.609  30.977  27.656  1.00  0.00     0.060 A 
ATOM     28  C   UNL A   1      34.862  29.654  28.016  1.00  0.00     0.016 A 
ATOM     29  C   UNL A   1      35.503  31.992  28.001  1.00  0.00     0.016 A 
ATOM     30  C   UNL A   1      36.010  29.328  28.724  1.00  0.00     0.010 A 
ATOM     31  C   UNL A   1      36.657  31.666  28.722  1.00  0.00     0.010 A 
ATOM     32  C   UNL A   1      36.910  30.334  29.098  1.00  0.00    -0.014 A 
BRANCH  32  33
ATOM     33  C   UNL A   1      38.073  29.977  29.944  1.00  0.00     0.031 A 
ATOM     34  C   UNL A   1      39.142  29.079  29.394  1.00  0.00     0.074 A 
ATOM     35  C   UNL A   1      38.198  30.507  31.174  1.00  0.00     0.049 A 
ATOM     36  N   UNL A   1      40.223  28.623  29.976  1.00  0.00    -0.248 NA
ATOM     37  C   UNL A   1      38.976  28.639  28.000  1.00  0.00     0.031 C 
ATOM     38  C   UNL A   1      37.249  31.432  31.792  1.00  0.00     0.029 A 
ATOM     39  N   UNL A   1      39.181  30.350  32.119  1.00  0.00    -0.354 N 
ATOM     40  C   UNL A   1      40.852  27.825  29.030  1.00  0.00     0.074 A 
ATOM     41  C   UNL A   1      40.027  27.848  27.840  1.00  0.00     0.031 C 
ATOM     42  C   UNL A   1      37.701  31.770  33.011  1.00  0.00     0.029 A 
ATOM     43  C   UNL A   1      38.946  31.053  33.274  1.00  0.00     0.049 A 
ATOM     44  H   UNL A   1      39.978  29.788  31.981  1.00  0.00     0.167 HD
ATOM     45  C   UNL A   1      42.013  27.138  29.146  1.00  0.00     0.037 A 
ATOM     46  C   UNL A   1      39.648  31.095  34.423  1.00  0.00     0.037 A 
ATOM     47  C   UNL A   1      42.841  27.138  30.323  1.00  0.00     0.049 A 
ATOM     48  C   UNL A   1      40.913  30.289  34.540  1.00  0.00     0.074 A 
ATOM     49  C   UNL A   1      44.044  26.486  30.534  1.00  0.00     0.029 A 
ATOM     50  N   UNL A   1      42.550  27.828  31.492  1.00  0.00    -0.354 N 
ATOM     51  N   UNL A   1      41.494  29.527  33.646  1.00  0.00    -0.248 NA
ATOM     52  C   UNL A   1      41.615  30.344  35.829  1.00  0.00     0.031 C 
ATOM     53  C   UNL A   1      44.461  26.751  31.844  1.00  0.00     0.029 A 
ATOM     54  C   UNL A   1      43.539  27.601  32.434  1.00  0.00     0.049 A 
ATOM     55  H   UNL A   1      41.757  28.395  31.630  1.00  0.00     0.167 HD
ATOM     56  C   UNL A   1      42.633  29.020  34.257  1.00  0.00     0.074 A 
ATOM     57  C   UNL A   1      42.673  29.579  35.592  1.00  0.00     0.031 C 
ATOM     58  C   UNL A   1      43.558  28.164  33.760  1.00  0.00     0.037 A 
BRANCH  45  59
ATOM     59  C   UNL A   1      42.440  26.302  27.977  1.00  0.00     0.064 A 
ATOM     60  C   UNL A   1      43.325  26.786  27.004  1.00  0.00     0.173 A 
ATOM     61  C   UNL A   1      41.972  24.985  27.845  1.00  0.00     0.173 A 
ATOM     62  F   UNL A   1      43.787  28.045  27.078  1.00  0.00    -0.203 F 
ATOM     63  C   UNL A   1      43.711  25.991  25.928  1.00  0.00     0.198 A 
ATOM     64  C   UNL A   1      42.379  24.184  26.781  1.00  0.00     0.198 A 
ATOM     65  F   UNL A   1      41.124  24.475  28.750  1.00  0.00    -0.203 F 
ATOM     66  F   UNL A   1      44.526  26.487  24.987  1.00  0.00    -0.200 F 
ATOM     67  C   UNL A   1      43.242  24.689  25.821  1.00  0.00     0.200 A 
ATOM     68  F   UNL A   1      41.932  22.925  26.683  1.00  0.00    -0.200 F 
ATOM     69  F   UNL A   1      43.617  23.924  24.787  1.00  0.00    -0.200 F 
ENDBRANCH  45  59
BRANCH  46  70
ATOM     70  C   UNL A   1      39.154  31.913  35.560  1.00  0.00     0.064 A 
ATOM     71  C   UNL A   1      38.324  31.360  36.544  1.00  0.00     0.173 A 
ATOM     72  C   UNL A   1      39.504  33.266  35.685  1.00  0.00     0.173 A 
ATOM     73  F   UNL A   1      37.939  30.078  36.452  1.00  0.00    -0.203 F 
ATOM     74  C   UNL A   1      37.855  32.131  37.604  1.00  0.00     0.198 A 
ATOM     75  C   UNL A   1      39.056  34.029  36.759  1.00  0.00     0.198 A 
ATOM     76  F   UNL A   1      40.292  33.842  34.764  1.00  0.00    -0.203 F 
ATOM     77  F   UNL A   1      37.028  31.590  38.510  1.00  0.00    -0.200 F 
ATOM     78  C   UNL A   1      38.227  33.463  37.716  1.00  0.00     0.200 A 
ATOM     79  F   UNL A   1      39.425  35.312  36.866  1.00  0.00    -0.200 F 
ATOM     80  F   UNL A   1      37.779  34.204  38.737  1.00  0.00    -0.200 F 
ENDBRANCH  46  70
BRANCH  58  81
ATOM     81  C   UNL A   1      44.697  27.790  34.663  1.00  0.00     0.064 A 
ATOM     82  C   UNL A   1      45.889  28.526  34.679  1.00  0.00     0.173 A 
ATOM     83  C   UNL A   1      44.582  26.702  35.541  1.00  0.00     0.173 A 
ATOM     84  F   UNL A   1      46.051  29.566  33.846  1.00  0.00    -0.203 F 
ATOM     85  C   UNL A   1      46.935  28.174  35.526  1.00  0.00     0.198 A 
ATOM     86  C   UNL A   1      45.620  26.367  36.404  1.00  0.00     0.198 A 
ATOM     87  F   UNL A   1      43.458  25.969  35.567  1.00  0.00    -0.203 F 
ATOM     88  F   UNL A   1      48.084  28.865  35.494  1.00  0.00    -0.200 F 
ATOM     89  C   UNL A   1      46.798  27.099  36.392  1.00  0.00     0.200 A 
ATOM     90  F   UNL A   1      45.483  25.335  37.247  1.00  0.00    -0.200 F 
ATOM     91  F   UNL A   1      47.806  26.762  37.208  1.00  0.00    -0.200 F 
ENDBRANCH  58  81
ENDBRANCH  32  33
ENDBRANCH  25  27
ENDBRANCH  24  25
ENDBRANCH  23  24
ENDBRANCH   1  23
TORSDOF 14
ENDMDL
MODEL 3
REMARK VINA RESULT:     -11.7      5.379     10.370
REMARK SMILES COc1ccc(C(F)(F)F)cc1-c1cccnc1C(=O)OCCOC(=O)c1ccc(-c2c3nc(c(-c4c(F)c(F)c(F)c(F)c4F)c4ccc([nH]4)c(-c4c(F)c(F)c(F)c(F)c4F)c4nc(c(-c5c(F)c(F)c(F)c(F)c5F)c5ccc2[nH]5)C=C4)C=C3)cc1
REMARK SMILES IDX 22 1 21 2 19 3 20 4 18 5 13 6 14 7 15 8 17 9 16 10 12 11
REMARK SMILES IDX 3 12 4 13 5 14 11 15 6 16 2 17 1 18 7 19 8 20 9 21 10 22
REMARK SMILES IDX 23 23 24 24 25 25 26 26 27 27 28 28 89 29 29 30 88 31 30 32
REMARK SMILES IDX 31 33 32 34 82 35 33 36 87 37 81 38 83 39 34 40 86 41 80 42
REMARK SMILES IDX 79 43 35 45 67 46 47 47 66 48 48 49 51 50 65 51 84 52 49 53
REMARK SMILES IDX 50 54 64 56 85 57 52 58 36 59 37 60 45 61 38 62 39 63 43 64
REMARK SMILES IDX 46 65 40 66 41 67 44 68 42 69 68 70 69 71 77 72 70 73 71 74
REMARK SMILES IDX 75 75 78 76 72 77 73 78 76 79 74 80 53 81 54 82 62 83 55 84
REMARK SMILES IDX 56 85 60 86 63 87 57 88 58 89 61 90 59 91
REMARK H PARENT 83 44 51 55
REMARK Flexibility Score: inf
ROOT
ATOM      1  C   UNL A   1      37.141  19.861  24.656  1.00  0.00     0.275 C 
ENDROOT
BRANCH   1   2
ATOM      2  O   UNL A   1      36.447  20.843  25.452  1.00  0.00    -0.457 OA
BRANCH   2   3
ATOM      3  C   UNL A   1      35.662  21.735  24.790  1.00  0.00     0.357 C 
ATOM      4  O   UNL A   1      35.881  22.179  23.675  1.00  0.00    -0.244 OA
BRANCH   3   5
ATOM      5  C   UNL A   1      34.446  22.091  25.601  1.00  0.00     0.156 A 
ATOM      6  C   UNL A   1      33.195  21.471  25.429  1.00  0.00     0.019 A 
ATOM      7  C   UNL A   1      32.156  21.935  26.256  1.00  0.00     0.013 A 
ATOM      8  C   UNL A   1      32.376  22.956  27.180  1.00  0.00     0.021 A 
ATOM      9  N   UNL A   1      34.685  23.066  26.531  1.00  0.00    -0.249 NA
ATOM     10  C   UNL A   1      33.648  23.479  27.284  1.00  0.00     0.112 A 
BRANCH   6  11
ATOM     11  C   UNL A   1      32.939  20.403  24.445  1.00  0.00     0.027 A 
ATOM     12  C   UNL A   1      32.336  20.648  23.197  1.00  0.00     0.126 A 
ATOM     13  C   UNL A   1      32.178  19.624  22.257  1.00  0.00     0.048 A 
ATOM     14  C   UNL A   1      32.672  18.348  22.523  1.00  0.00     0.017 A 
ATOM     15  C   UNL A   1      33.364  19.085  24.716  1.00  0.00     0.025 A 
ATOM     16  C   UNL A   1      33.282  18.066  23.752  1.00  0.00     0.056 A 
BRANCH  12  17
ATOM     17  O   UNL A   1      31.812  21.872  22.863  1.00  0.00    -0.496 OA
ATOM     18  C   UNL A   1      32.787  22.703  22.226  1.00  0.00     0.278 C 
ENDBRANCH  12  17
BRANCH  16  19
ATOM     19  C   UNL A   1      33.872  16.704  24.018  1.00  0.00     0.416 C 
ATOM     20  F   UNL A   1      34.916  16.742  24.888  1.00  0.00    -0.166 F 
ATOM     21  F   UNL A   1      32.961  15.845  24.557  1.00  0.00    -0.166 F 
ATOM     22  F   UNL A   1      34.336  16.087  22.896  1.00  0.00    -0.166 F 
ENDBRANCH  16  19
ENDBRANCH   6  11
ENDBRANCH   3   5
ENDBRANCH   2   3
ENDBRANCH   1   2
BRANCH   1  23
ATOM     23  C   UNL A   1      38.559  19.643  25.180  1.00  0.00     0.275 C 
BRANCH  23  24
ATOM     24  O   UNL A   1      39.106  20.879  25.670  1.00  0.00    -0.458 OA
BRANCH  24  25
ATOM     25  C   UNL A   1      39.973  20.744  26.698  1.00  0.00     0.338 C 
ATOM     26  O   UNL A   1      40.438  19.708  27.154  1.00  0.00    -0.246 OA
BRANCH  25  27
ATOM     27  C   UNL A   1      40.449  22.076  27.094  1.00  0.00     0.060 A 
ATOM     28  C   UNL A   1      39.936  23.167  26.393  1.00  0.00     0.016 A 
ATOM     29  C   UNL A   1      41.404  22.259  28.097  1.00  0.00     0.016 A 
ATOM     30  C   UNL A   1      40.370  24.453  26.684  1.00  0.00     0.010 A 
ATOM     31  C   UNL A   1      41.848  23.554  28.385  1.00  0.00     0.010 A 
ATOM     32  C   UNL A   1      41.342  24.656  27.672  1.00  0.00    -0.014 A 
BRANCH  32  33
ATOM     33  C   UNL A   1      41.866  26.024  27.890  1.00  0.00     0.031 A 
ATOM     34  C   UNL A   1      43.200  26.408  27.319  1.00  0.00     0.074 A 
ATOM     35  C   UNL A   1      41.120  26.934  28.542  1.00  0.00     0.049 A 
ATOM     36  N   UNL A   1      43.851  27.540  27.418  1.00  0.00    -0.248 NA
ATOM     37  C   UNL A   1      43.893  25.381  26.525  1.00  0.00     0.031 C 
ATOM     38  C   UNL A   1      39.788  26.691  29.093  1.00  0.00     0.029 A 
ATOM     39  N   UNL A   1      41.374  28.250  28.840  1.00  0.00    -0.354 N 
ATOM     40  C   UNL A   1      45.037  27.354  26.721  1.00  0.00     0.074 A 
ATOM     41  C   UNL A   1      45.023  25.998  26.214  1.00  0.00     0.031 C 
ATOM     42  C   UNL A   1      39.335  27.824  29.656  1.00  0.00     0.029 A 
ATOM     43  C   UNL A   1      40.362  28.857  29.541  1.00  0.00     0.049 A 
ATOM     44  H   UNL A   1      42.202  28.713  28.577  1.00  0.00     0.167 HD
ATOM     45  C   UNL A   1      46.044  28.238  26.523  1.00  0.00     0.037 A 
ATOM     46  C   UNL A   1      40.283  30.101  30.050  1.00  0.00     0.037 A 
ATOM     47  C   UNL A   1      46.041  29.592  27.010  1.00  0.00     0.049 A 
ATOM     48  C   UNL A   1      41.434  31.050  29.851  1.00  0.00     0.074 A 
ATOM     49  C   UNL A   1      47.007  30.571  26.848  1.00  0.00     0.029 A 
ATOM     50  N   UNL A   1      45.017  30.161  27.753  1.00  0.00    -0.354 N 
ATOM     51  N   UNL A   1      42.558  30.863  29.203  1.00  0.00    -0.248 NA
ATOM     52  C   UNL A   1      41.307  32.380  30.461  1.00  0.00     0.031 C 
ATOM     53  C   UNL A   1      46.584  31.719  27.527  1.00  0.00     0.029 A 
ATOM     54  C   UNL A   1      45.336  31.470  28.076  1.00  0.00     0.049 A 
ATOM     55  H   UNL A   1      44.186  29.702  28.013  1.00  0.00     0.167 HD
ATOM     56  C   UNL A   1      43.267  32.051  29.316  1.00  0.00     0.074 A 
ATOM     57  C   UNL A   1      42.437  32.960  30.079  1.00  0.00     0.031 C 
ATOM     58  C   UNL A   1      44.498  32.358  28.840  1.00  0.00     0.037 A 
BRANCH  45  59
ATOM     59  C   UNL A   1      47.248  27.754  25.773  1.00  0.00     0.064 A 
ATOM     60  C   UNL A   1      47.302  27.764  24.372  1.00  0.00     0.173 A 
ATOM     61  C   UNL A   1      48.377  27.297  26.472  1.00  0.00     0.173 A 
ATOM     62  F   UNL A   1      46.242  28.177  23.659  1.00  0.00    -0.203 F 
ATOM     63  C   UNL A   1      48.433  27.314  23.696  1.00  0.00     0.198 A 
ATOM     64  C   UNL A   1      49.515  26.870  25.793  1.00  0.00     0.198 A 
ATOM     65  F   UNL A   1      48.376  27.269  27.812  1.00  0.00    -0.203 F 
ATOM     66  F   UNL A   1      48.447  27.293  22.356  1.00  0.00    -0.200 F 
ATOM     67  C   UNL A   1      49.540  26.873  24.407  1.00  0.00     0.200 A 
ATOM     68  F   UNL A   1      50.587  26.453  26.481  1.00  0.00    -0.200 F 
ATOM     69  F   UNL A   1      50.629  26.443  23.755  1.00  0.00    -0.200 F 
ENDBRANCH  45  59
BRANCH  46  70
ATOM     70  C   UNL A   1      39.079  30.510  30.816  1.00  0.00     0.064 A 
ATOM     71  C   UNL A   1      37.990  31.124  30.183  1.00  0.00     0.173 A 
ATOM     72  C   UNL A   1      38.993  30.295  32.200  1.00  0.00     0.173 A 
ATOM     73  F   UNL A   1      38.038  31.377  28.866  1.00  0.00    -0.203 F 
ATOM     74  C   UNL A   1      36.866  31.516  30.906  1.00  0.00     0.198 A 
ATOM     75  C   UNL A   1      37.858  30.663  32.917  1.00  0.00     0.198 A 
ATOM     76  F   UNL A   1      40.013  29.716  32.853  1.00  0.00    -0.203 F 
ATOM     77  F   UNL A   1      35.855  32.138  30.284  1.00  0.00    -0.200 F 
ATOM     78  C   UNL A   1      36.797  31.278  32.271  1.00  0.00     0.200 A 
ATOM     79  F   UNL A   1      37.793  30.423  34.234  1.00  0.00    -0.200 F 
ATOM     80  F   UNL A   1      35.714  31.651  32.965  1.00  0.00    -0.200 F 
ENDBRANCH  46  70
BRANCH  58  81
ATOM     81  C   UNL A   1      45.014  33.739  29.120  1.00  0.00     0.064 A 
ATOM     82  C   UNL A   1      45.820  34.005  30.236  1.00  0.00     0.173 A 
ATOM     83  C   UNL A   1      44.722  34.798  28.249  1.00  0.00     0.173 A 
ATOM     84  F   UNL A   1      46.113  33.026  31.106  1.00  0.00    -0.203 F 
ATOM     85  C   UNL A   1      46.298  35.289  30.481  1.00  0.00     0.198 A 
ATOM     86  C   UNL A   1      45.222  36.075  28.484  1.00  0.00     0.198 A 
ATOM     87  F   UNL A   1      43.959  34.593  27.165  1.00  0.00    -0.203 F 
ATOM     88  F   UNL A   1      47.031  35.531  31.578  1.00  0.00    -0.200 F 
ATOM     89  C   UNL A   1      46.004  36.321  29.603  1.00  0.00     0.200 A 
ATOM     90  F   UNL A   1      44.946  37.070  27.630  1.00  0.00    -0.200 F 
ATOM     91  F   UNL A   1      46.467  37.556  29.841  1.00  0.00    -0.200 F 
ENDBRANCH  58  81
ENDBRANCH  32  33
ENDBRANCH  25  27
ENDBRANCH  24  25
ENDBRANCH  23  24
ENDBRANCH   1  23
TORSDOF 14
ENDMDL
