MODEL 1
REMARK VINA RESULT:     -10.0      0.000      0.000
REMARK SMILES CCN(CCC(=O)OCCOC(=O)c1ccc(-c2c3nc(c(-c4c(F)c(F)c(F)c(F)c4F)c4ccc([nH]4)c(-c4c(F)c(F)c(F)c(F)c4F)c4nc(c(-c5c(F)c(F)c(F)c(F)c5F)c5ccc2[nH]5)C=C4)C=C3)cc1)C(=O)N(C)CCc1cccs1
REMARK SMILES IDX 6 1 7 2 5 3 4 4 3 5 2 6 1 7 77 8 78 9 79 10 80 11 81 12
REMARK SMILES IDX 82 13 83 14 84 15 87 16 85 17 86 18 8 19 9 20 10 21 11 22
REMARK SMILES IDX 12 23 13 24 14 25 15 26 76 27 16 28 75 29 17 30 18 31 19 32
REMARK SMILES IDX 69 33 20 34 74 35 68 36 70 37 21 38 73 39 67 40 66 41 22 43
REMARK SMILES IDX 54 44 34 45 53 46 35 47 38 48 52 49 71 50 36 51 37 52 51 54
REMARK SMILES IDX 72 55 39 56 23 57 24 58 32 59 25 60 26 61 30 62 33 63 27 64
REMARK SMILES IDX 28 65 31 66 29 67 55 68 56 69 64 70 57 71 58 72 62 73 65 74
REMARK SMILES IDX 59 75 60 76 63 77 61 78 40 79 41 80 49 81 42 82 43 83 47 84
REMARK SMILES IDX 50 85 44 86 45 87 48 88 46 89
REMARK H PARENT 70 42 38 53
REMARK Flexibility Score: inf
ROOT
ATOM      1  C   UNL A   1      37.378  22.827  25.468  1.00  0.00     0.307 C 
ATOM      2  O   UNL A   1      37.583  23.955  25.899  1.00  0.00    -0.252 OA
ENDROOT
BRANCH   1   3
ATOM      3  C   UNL A   1      36.171  22.482  24.629  1.00  0.00     0.144 C 
BRANCH   3   4
ATOM      4  C   UNL A   1      35.392  23.712  24.173  1.00  0.00     0.133 C 
BRANCH   4   5
ATOM      5  N   UNL A   1      34.285  24.076  25.068  1.00  0.00    -0.324 N 
BRANCH   5   6
ATOM      6  C   UNL A   1      34.156  25.494  25.427  1.00  0.00     0.118 C 
ATOM      7  C   UNL A   1      33.720  26.332  24.227  1.00  0.00     0.027 C 
ENDBRANCH   5   6
BRANCH   5   8
ATOM      8  C   UNL A   1      33.633  23.194  25.921  1.00  0.00     0.319 C 
ATOM      9  O   UNL A   1      33.932  23.201  27.111  1.00  0.00    -0.248 OA
BRANCH   8  10
ATOM     10  N   UNL A   1      32.606  22.413  25.423  1.00  0.00    -0.327 N 
ATOM     11  C   UNL A   1      31.230  22.889  25.449  1.00  0.00     0.148 C 
BRANCH  10  12
ATOM     12  C   UNL A   1      32.743  20.940  25.393  1.00  0.00     0.126 C 
BRANCH  12  13
ATOM     13  C   UNL A   1      32.549  20.171  24.067  1.00  0.00     0.068 C 
BRANCH  13  14
ATOM     14  C   UNL A   1      32.845  18.698  24.099  1.00  0.00     0.006 A 
ATOM     15  C   UNL A   1      33.256  17.903  23.045  1.00  0.00     0.015 A 
ATOM     16  S   UNL A   1      32.728  17.790  25.551  1.00  0.00    -0.149 S 
ATOM     17  C   UNL A   1      33.671  16.611  23.477  1.00  0.00     0.012 A 
ATOM     18  C   UNL A   1      33.487  16.438  24.831  1.00  0.00     0.065 A 
ENDBRANCH  13  14
ENDBRANCH  12  13
ENDBRANCH  10  12
ENDBRANCH   8  10
ENDBRANCH   5   8
ENDBRANCH   4   5
ENDBRANCH   3   4
ENDBRANCH   1   3
BRANCH   1  19
ATOM     19  O   UNL A   1      38.172  21.749  25.689  1.00  0.00    -0.462 OA
BRANCH  19  20
ATOM     20  C   UNL A   1      37.804  20.517  25.030  1.00  0.00     0.274 C 
BRANCH  20  21
ATOM     21  C   UNL A   1      38.795  19.408  25.372  1.00  0.00     0.275 C 
BRANCH  21  22
ATOM     22  O   UNL A   1      39.732  19.942  26.314  1.00  0.00    -0.458 OA
BRANCH  22  23
ATOM     23  C   UNL A   1      41.035  19.681  26.096  1.00  0.00     0.338 C 
ATOM     24  O   UNL A   1      41.552  18.631  25.755  1.00  0.00    -0.246 OA
BRANCH  23  25
ATOM     25  C   UNL A   1      41.758  20.920  26.403  1.00  0.00     0.060 A 
ATOM     26  C   UNL A   1      41.978  21.877  25.403  1.00  0.00     0.016 A 
ATOM     27  C   UNL A   1      42.145  21.150  27.720  1.00  0.00     0.016 A 
ATOM     28  C   UNL A   1      42.557  23.096  25.730  1.00  0.00     0.010 A 
ATOM     29  C   UNL A   1      42.688  22.385  28.053  1.00  0.00     0.010 A 
ATOM     30  C   UNL A   1      42.882  23.365  27.063  1.00  0.00    -0.014 A 
BRANCH  30  31
ATOM     31  C   UNL A   1      43.406  24.683  27.467  1.00  0.00     0.031 A 
ATOM     32  C   UNL A   1      42.461  25.699  28.023  1.00  0.00     0.074 A 
ATOM     33  C   UNL A   1      44.700  24.967  27.228  1.00  0.00     0.049 A 
ATOM     34  N   UNL A   1      42.646  26.972  28.240  1.00  0.00    -0.248 NA
ATOM     35  C   UNL A   1      41.110  25.216  28.357  1.00  0.00     0.031 C 
ATOM     36  C   UNL A   1      45.683  24.026  26.683  1.00  0.00     0.029 A 
ATOM     37  N   UNL A   1      45.401  26.134  27.374  1.00  0.00    -0.354 N 
ATOM     38  C   UNL A   1      41.434  27.449  28.721  1.00  0.00     0.074 A 
ATOM     39  C   UNL A   1      40.510  26.336  28.734  1.00  0.00     0.031 C 
ATOM     40  C   UNL A   1      46.853  24.662  26.516  1.00  0.00     0.029 A 
ATOM     41  C   UNL A   1      46.688  26.059  26.897  1.00  0.00     0.049 A 
ATOM     42  H   UNL A   1      45.022  26.947  27.780  1.00  0.00     0.167 HD
ATOM     43  C   UNL A   1      41.134  28.708  29.118  1.00  0.00     0.037 A 
ATOM     44  C   UNL A   1      47.611  27.028  26.753  1.00  0.00     0.037 A 
ATOM     45  C   UNL A   1      42.078  29.794  29.076  1.00  0.00     0.049 A 
ATOM     46  C   UNL A   1      47.243  28.423  27.183  1.00  0.00     0.074 A 
ATOM     47  C   UNL A   1      41.898  31.116  29.438  1.00  0.00     0.029 A 
ATOM     48  N   UNL A   1      43.391  29.673  28.638  1.00  0.00    -0.354 N 
ATOM     49  N   UNL A   1      46.098  28.869  27.647  1.00  0.00    -0.248 NA
ATOM     50  C   UNL A   1      48.290  29.445  27.080  1.00  0.00     0.031 C 
ATOM     51  C   UNL A   1      43.093  31.801  29.189  1.00  0.00     0.029 A 
ATOM     52  C   UNL A   1      44.033  30.896  28.718  1.00  0.00     0.049 A 
ATOM     53  H   UNL A   1      43.804  28.839  28.317  1.00  0.00     0.167 HD
ATOM     54  C   UNL A   1      46.292  30.216  27.909  1.00  0.00     0.074 A 
ATOM     55  C   UNL A   1      47.674  30.506  27.577  1.00  0.00     0.031 C 
ATOM     56  C   UNL A   1      45.413  31.137  28.377  1.00  0.00     0.037 A 
BRANCH  43  57
ATOM     57  C   UNL A   1      39.742  28.967  29.615  1.00  0.00     0.064 A 
ATOM     58  C   UNL A   1      39.394  28.769  30.961  1.00  0.00     0.173 A 
ATOM     59  C   UNL A   1      38.744  29.435  28.745  1.00  0.00     0.173 A 
ATOM     60  F   UNL A   1      40.304  28.305  31.830  1.00  0.00    -0.203 F 
ATOM     61  C   UNL A   1      38.097  29.006  31.411  1.00  0.00     0.198 A 
ATOM     62  C   UNL A   1      37.456  29.698  29.206  1.00  0.00     0.198 A 
ATOM     63  F   UNL A   1      39.018  29.640  27.449  1.00  0.00    -0.203 F 
ATOM     64  F   UNL A   1      37.780  28.764  32.691  1.00  0.00    -0.200 F 
ATOM     65  C   UNL A   1      37.132  29.478  30.536  1.00  0.00     0.200 A 
ATOM     66  F   UNL A   1      36.524  30.162  28.360  1.00  0.00    -0.200 F 
ATOM     67  F   UNL A   1      35.885  29.711  30.972  1.00  0.00    -0.200 F 
ENDBRANCH  43  57
BRANCH  44  68
ATOM     68  C   UNL A   1      48.946  26.714  26.176  1.00  0.00     0.064 A 
ATOM     69  C   UNL A   1      49.234  26.988  24.832  1.00  0.00     0.173 A 
ATOM     70  C   UNL A   1      49.963  26.138  26.954  1.00  0.00     0.173 A 
ATOM     71  F   UNL A   1      48.293  27.522  24.040  1.00  0.00    -0.203 F 
ATOM     72  C   UNL A   1      50.477  26.676  24.282  1.00  0.00     0.198 A 
ATOM     73  C   UNL A   1      51.215  25.856  26.410  1.00  0.00     0.198 A 
ATOM     74  F   UNL A   1      49.745  25.861  28.247  1.00  0.00    -0.203 F 
ATOM     75  F   UNL A   1      50.707  26.902  22.981  1.00  0.00    -0.200 F 
ATOM     76  C   UNL A   1      51.469  26.116  25.073  1.00  0.00     0.200 A 
ATOM     77  F   UNL A   1      52.176  25.331  27.183  1.00  0.00    -0.200 F 
ATOM     78  F   UNL A   1      52.664  25.820  24.545  1.00  0.00    -0.200 F 
ENDBRANCH  44  68
BRANCH  56  79
ATOM     79  C   UNL A   1      45.942  32.525  28.579  1.00  0.00     0.064 A 
ATOM     80  C   UNL A   1      45.864  33.496  27.569  1.00  0.00     0.173 A 
ATOM     81  C   UNL A   1      46.519  32.891  29.804  1.00  0.00     0.173 A 
ATOM     82  F   UNL A   1      45.335  33.186  26.375  1.00  0.00    -0.203 F 
ATOM     83  C   UNL A   1      46.377  34.772  27.767  1.00  0.00     0.198 A 
ATOM     84  C   UNL A   1      47.002  34.178  30.010  1.00  0.00     0.198 A 
ATOM     85  F   UNL A   1      46.609  31.999  30.802  1.00  0.00    -0.203 F 
ATOM     86  F   UNL A   1      46.346  35.667  26.769  1.00  0.00    -0.200 F 
ATOM     87  C   UNL A   1      46.940  35.115  28.988  1.00  0.00     0.200 A 
ATOM     88  F   UNL A   1      47.533  34.511  31.193  1.00  0.00    -0.200 F 
ATOM     89  F   UNL A   1      47.434  36.346  29.177  1.00  0.00    -0.200 F 
ENDBRANCH  56  79
ENDBRANCH  30  31
ENDBRANCH  23  25
ENDBRANCH  22  23
ENDBRANCH  21  22
ENDBRANCH  20  21
ENDBRANCH  19  20
ENDBRANCH   1  19
TORSDOF 19
ENDMDL
MODEL 2
REMARK VINA RESULT:     -10.0      4.651      9.938
REMARK SMILES CCN(CCC(=O)OCCOC(=O)c1ccc(-c2c3nc(c(-c4c(F)c(F)c(F)c(F)c4F)c4ccc([nH]4)c(-c4c(F)c(F)c(F)c(F)c4F)c4nc(c(-c5c(F)c(F)c(F)c(F)c5F)c5ccc2[nH]5)C=C4)C=C3)cc1)C(=O)N(C)CCc1cccs1
REMARK SMILES IDX 6 1 7 2 5 3 4 4 3 5 2 6 1 7 77 8 78 9 79 10 80 11 81 12
REMARK SMILES IDX 82 13 83 14 84 15 87 16 85 17 86 18 8 19 9 20 10 21 11 22
REMARK SMILES IDX 12 23 13 24 14 25 15 26 76 27 16 28 75 29 17 30 18 31 19 32
REMARK SMILES IDX 69 33 20 34 74 35 68 36 70 37 21 38 73 39 67 40 66 41 22 43
REMARK SMILES IDX 54 44 34 45 53 46 35 47 38 48 52 49 71 50 36 51 37 52 51 54
REMARK SMILES IDX 72 55 39 56 23 57 24 58 32 59 25 60 26 61 30 62 33 63 27 64
REMARK SMILES IDX 28 65 31 66 29 67 55 68 56 69 64 70 57 71 58 72 62 73 65 74
REMARK SMILES IDX 59 75 60 76 63 77 61 78 40 79 41 80 49 81 42 82 43 83 47 84
REMARK SMILES IDX 50 85 44 86 45 87 48 88 46 89
REMARK H PARENT 70 42 38 53
REMARK Flexibility Score: inf
ROOT
ATOM      1  C   UNL A   1      31.768  27.219  24.336  1.00  0.00     0.307 C 
ATOM      2  O   UNL A   1      31.770  27.143  23.113  1.00  0.00    -0.252 OA
ENDROOT
BRANCH   1   3
ATOM      3  C   UNL A   1      32.635  26.344  25.208  1.00  0.00     0.144 C 
BRANCH   3   4
ATOM      4  C   UNL A   1      33.850  25.786  24.471  1.00  0.00     0.133 C 
BRANCH   4   5
ATOM      5  N   UNL A   1      33.920  24.319  24.471  1.00  0.00    -0.324 N 
BRANCH   5   6
ATOM      6  C   UNL A   1      32.897  23.602  23.697  1.00  0.00     0.118 C 
ATOM      7  C   UNL A   1      33.467  23.076  22.380  1.00  0.00     0.027 C 
ENDBRANCH   5   6
BRANCH   5   8
ATOM      8  C   UNL A   1      34.566  23.556  25.435  1.00  0.00     0.319 C 
ATOM      9  O   UNL A   1      35.732  23.824  25.709  1.00  0.00    -0.248 OA
BRANCH   8  10
ATOM     10  N   UNL A   1      33.850  22.593  26.123  1.00  0.00    -0.327 N 
ATOM     11  C   UNL A   1      32.866  22.974  27.126  1.00  0.00     0.148 C 
BRANCH  10  12
ATOM     12  C   UNL A   1      34.415  21.238  26.302  1.00  0.00     0.126 C 
BRANCH  12  13
ATOM     13  C   UNL A   1      34.960  20.459  25.084  1.00  0.00     0.068 C 
BRANCH  13  14
ATOM     14  C   UNL A   1      34.038  19.439  24.476  1.00  0.00     0.006 A 
ATOM     15  C   UNL A   1      32.786  19.660  23.931  1.00  0.00     0.015 A 
ATOM     16  S   UNL A   1      34.482  17.786  24.354  1.00  0.00    -0.149 S 
ATOM     17  C   UNL A   1      32.294  18.519  23.235  1.00  0.00     0.012 A 
ATOM     18  C   UNL A   1      33.148  17.444  23.341  1.00  0.00     0.065 A 
ENDBRANCH  13  14
ENDBRANCH  12  13
ENDBRANCH  10  12
ENDBRANCH   8  10
ENDBRANCH   5   8
ENDBRANCH   4   5
ENDBRANCH   3   4
ENDBRANCH   1   3
BRANCH   1  19
ATOM     19  O   UNL A   1      30.995  28.063  25.065  1.00  0.00    -0.462 OA
BRANCH  19  20
ATOM     20  C   UNL A   1      31.611  28.686  26.215  1.00  0.00     0.274 C 
BRANCH  20  21
ATOM     21  C   UNL A   1      31.884  30.162  25.942  1.00  0.00     0.275 C 
BRANCH  21  22
ATOM     22  O   UNL A   1      33.255  30.415  26.267  1.00  0.00    -0.458 OA
BRANCH  22  23
ATOM     23  C   UNL A   1      33.504  31.404  27.146  1.00  0.00     0.338 C 
ATOM     24  O   UNL A   1      32.812  32.370  27.418  1.00  0.00    -0.246 OA
BRANCH  23  25
ATOM     25  C   UNL A   1      34.833  31.131  27.706  1.00  0.00     0.060 A 
ATOM     26  C   UNL A   1      35.742  32.177  27.912  1.00  0.00     0.016 A 
ATOM     27  C   UNL A   1      35.130  29.828  28.097  1.00  0.00     0.016 A 
ATOM     28  C   UNL A   1      36.948  31.927  28.553  1.00  0.00     0.010 A 
ATOM     29  C   UNL A   1      36.320  29.587  28.772  1.00  0.00     0.010 A 
ATOM     30  C   UNL A   1      37.225  30.636  29.013  1.00  0.00    -0.014 A 
BRANCH  30  31
ATOM     31  C   UNL A   1      38.450  30.350  29.783  1.00  0.00     0.031 A 
ATOM     32  C   UNL A   1      39.441  29.375  29.234  1.00  0.00     0.074 A 
ATOM     33  C   UNL A   1      38.591  30.899  31.004  1.00  0.00     0.049 A 
ATOM     34  N   UNL A   1      40.463  28.813  29.818  1.00  0.00    -0.248 NA
ATOM     35  C   UNL A   1      39.233  28.955  27.837  1.00  0.00     0.031 C 
ATOM     36  C   UNL A   1      37.663  31.858  31.609  1.00  0.00     0.029 A 
ATOM     37  N   UNL A   1      39.542  30.701  31.969  1.00  0.00    -0.354 N 
ATOM     38  C   UNL A   1      41.014  27.961  28.869  1.00  0.00     0.074 A 
ATOM     39  C   UNL A   1      40.194  28.056  27.681  1.00  0.00     0.031 C 
ATOM     40  C   UNL A   1      38.076  32.144  32.854  1.00  0.00     0.029 A 
ATOM     41  C   UNL A   1      39.268  31.357  33.146  1.00  0.00     0.049 A 
ATOM     42  H   UNL A   1      40.343  30.146  31.834  1.00  0.00     0.167 HD
ATOM     43  C   UNL A   1      42.112  27.180  28.992  1.00  0.00     0.037 A 
ATOM     44  C   UNL A   1      39.894  31.291  34.335  1.00  0.00     0.037 A 
ATOM     45  C   UNL A   1      42.894  27.101  30.198  1.00  0.00     0.049 A 
ATOM     46  C   UNL A   1      41.100  30.397  34.448  1.00  0.00     0.074 A 
ATOM     47  C   UNL A   1      44.020  26.342  30.456  1.00  0.00     0.029 A 
ATOM     48  N   UNL A   1      42.621  27.820  31.356  1.00  0.00    -0.354 N 
ATOM     49  N   UNL A   1      41.624  29.600  33.546  1.00  0.00    -0.248 NA
ATOM     50  C   UNL A   1      41.805  30.397  35.735  1.00  0.00     0.031 C 
ATOM     51  C   UNL A   1      44.409  26.576  31.780  1.00  0.00     0.029 A 
ATOM     52  C   UNL A   1      43.555  27.520  32.332  1.00  0.00     0.049 A 
ATOM     53  H   UNL A   1      41.872  28.449  31.466  1.00  0.00     0.167 HD
ATOM     54  C   UNL A   1      42.731  29.019  34.147  1.00  0.00     0.074 A 
ATOM     55  C   UNL A   1      42.815  29.577  35.483  1.00  0.00     0.031 C 
ATOM     56  C   UNL A   1      43.599  28.104  33.649  1.00  0.00     0.037 A 
BRANCH  43  57
ATOM     57  C   UNL A   1      42.512  26.353  27.805  1.00  0.00     0.064 A 
ATOM     58  C   UNL A   1      43.466  26.809  26.882  1.00  0.00     0.173 A 
ATOM     59  C   UNL A   1      41.953  25.083  27.593  1.00  0.00     0.173 A 
ATOM     60  F   UNL A   1      44.018  28.023  27.026  1.00  0.00    -0.203 F 
ATOM     61  C   UNL A   1      43.827  26.037  25.779  1.00  0.00     0.198 A 
ATOM     62  C   UNL A   1      42.338  24.302  26.505  1.00  0.00     0.198 A 
ATOM     63  F   UNL A   1      41.036  24.597  28.441  1.00  0.00    -0.203 F 
ATOM     64  F   UNL A   1      44.705  26.516  24.887  1.00  0.00    -0.200 F 
ATOM     65  C   UNL A   1      43.269  24.782  25.596  1.00  0.00     0.200 A 
ATOM     66  F   UNL A   1      41.803  23.085  26.333  1.00  0.00    -0.200 F 
ATOM     67  F   UNL A   1      43.621  24.038  24.538  1.00  0.00    -0.200 F 
ENDBRANCH  43  57
BRANCH  44  68
ATOM     68  C   UNL A   1      39.393  32.077  35.494  1.00  0.00     0.064 A 
ATOM     69  C   UNL A   1      39.764  33.417  35.673  1.00  0.00     0.173 A 
ATOM     70  C   UNL A   1      38.531  31.510  36.446  1.00  0.00     0.173 A 
ATOM     71  F   UNL A   1      40.599  34.002  34.802  1.00  0.00    -0.203 F 
ATOM     72  C   UNL A   1      39.314  34.151  36.770  1.00  0.00     0.198 A 
ATOM     73  C   UNL A   1      38.055  32.254  37.524  1.00  0.00     0.198 A 
ATOM     74  F   UNL A   1      38.137  30.234  36.321  1.00  0.00    -0.203 F 
ATOM     75  F   UNL A   1      39.726  35.415  36.942  1.00  0.00    -0.200 F 
ATOM     76  C   UNL A   1      38.455  33.571  37.691  1.00  0.00     0.200 A 
ATOM     77  F   UNL A   1      37.212  31.695  38.402  1.00  0.00    -0.200 F 
ATOM     78  F   UNL A   1      38.019  34.278  38.742  1.00  0.00    -0.200 F 
ENDBRANCH  44  68
BRANCH  56  79
ATOM     79  C   UNL A   1      44.722  27.686  34.552  1.00  0.00     0.064 A 
ATOM     80  C   UNL A   1      45.939  28.383  34.582  1.00  0.00     0.173 A 
ATOM     81  C   UNL A   1      44.569  26.585  35.407  1.00  0.00     0.173 A 
ATOM     82  F   UNL A   1      46.136  29.432  33.768  1.00  0.00    -0.203 F 
ATOM     83  C   UNL A   1      46.975  27.970  35.411  1.00  0.00     0.198 A 
ATOM     84  C   UNL A   1      45.596  26.195  36.259  1.00  0.00     0.198 A 
ATOM     85  F   UNL A   1      43.420  25.893  35.419  1.00  0.00    -0.203 F 
ATOM     86  F   UNL A   1      48.151  28.613  35.381  1.00  0.00    -0.200 F 
ATOM     87  C   UNL A   1      46.802  26.881  36.253  1.00  0.00     0.200 A 
ATOM     88  F   UNL A   1      45.422  25.151  37.080  1.00  0.00    -0.200 F 
ATOM     89  F   UNL A   1      47.802  26.484  37.051  1.00  0.00    -0.200 F 
ENDBRANCH  56  79
ENDBRANCH  30  31
ENDBRANCH  23  25
ENDBRANCH  22  23
ENDBRANCH  21  22
ENDBRANCH  20  21
ENDBRANCH  19  20
ENDBRANCH   1  19
TORSDOF 19
ENDMDL
MODEL 3
REMARK VINA RESULT:     -10.0      2.412      4.188
REMARK SMILES CCN(CCC(=O)OCCOC(=O)c1ccc(-c2c3nc(c(-c4c(F)c(F)c(F)c(F)c4F)c4ccc([nH]4)c(-c4c(F)c(F)c(F)c(F)c4F)c4nc(c(-c5c(F)c(F)c(F)c(F)c5F)c5ccc2[nH]5)C=C4)C=C3)cc1)C(=O)N(C)CCc1cccs1
REMARK SMILES IDX 6 1 7 2 5 3 4 4 3 5 2 6 1 7 77 8 78 9 79 10 80 11 81 12
REMARK SMILES IDX 82 13 83 14 84 15 87 16 85 17 86 18 8 19 9 20 10 21 11 22
REMARK SMILES IDX 12 23 13 24 14 25 15 26 76 27 16 28 75 29 17 30 18 31 19 32
REMARK SMILES IDX 69 33 20 34 74 35 68 36 70 37 21 38 73 39 67 40 66 41 22 43
REMARK SMILES IDX 54 44 34 45 53 46 35 47 38 48 52 49 71 50 36 51 37 52 51 54
REMARK SMILES IDX 72 55 39 56 23 57 24 58 32 59 25 60 26 61 30 62 33 63 27 64
REMARK SMILES IDX 28 65 31 66 29 67 55 68 56 69 64 70 57 71 58 72 62 73 65 74
REMARK SMILES IDX 59 75 60 76 63 77 61 78 40 79 41 80 49 81 42 82 43 83 47 84
REMARK SMILES IDX 50 85 44 86 45 87 48 88 46 89
REMARK H PARENT 70 42 38 53
REMARK Flexibility Score: inf
ROOT
ATOM      1  C   UNL A   1      34.127  21.955  24.160  1.00  0.00     0.307 C 
ATOM      2  O   UNL A   1      33.193  21.182  24.342  1.00  0.00    -0.252 OA
ENDROOT
BRANCH   1   3
ATOM      3  C   UNL A   1      34.198  22.881  22.970  1.00  0.00     0.144 C 
BRANCH   3   4
ATOM      4  C   UNL A   1      34.387  24.343  23.364  1.00  0.00     0.133 C 
BRANCH   4   5
ATOM      5  N   UNL A   1      33.282  25.216  22.944  1.00  0.00    -0.324 N 
BRANCH   5   6
ATOM      6  C   UNL A   1      32.023  24.562  22.561  1.00  0.00     0.118 C 
ATOM      7  C   UNL A   1      30.969  24.705  23.658  1.00  0.00     0.027 C 
ENDBRANCH   5   6
BRANCH   5   8
ATOM      8  C   UNL A   1      33.433  26.515  22.478  1.00  0.00     0.319 C 
ATOM      9  O   UNL A   1      33.650  26.687  21.282  1.00  0.00    -0.248 OA
BRANCH   8  10
ATOM     10  N   UNL A   1      33.236  27.571  23.349  1.00  0.00    -0.327 N 
ATOM     11  C   UNL A   1      32.557  28.781  22.910  1.00  0.00     0.148 C 
BRANCH  10  12
ATOM     12  C   UNL A   1      34.150  27.763  24.497  1.00  0.00     0.126 C 
BRANCH  12  13
ATOM     13  C   UNL A   1      33.590  27.780  25.937  1.00  0.00     0.068 C 
BRANCH  13  14
ATOM     14  C   UNL A   1      33.810  29.041  26.725  1.00  0.00     0.006 A 
ATOM     15  C   UNL A   1      34.974  29.445  27.354  1.00  0.00     0.015 A 
ATOM     16  S   UNL A   1      32.568  30.210  26.913  1.00  0.00    -0.149 S 
ATOM     17  C   UNL A   1      34.901  30.794  27.804  1.00  0.00     0.012 A 
ATOM     18  C   UNL A   1      33.661  31.346  27.575  1.00  0.00     0.065 A 
ENDBRANCH  13  14
ENDBRANCH  12  13
ENDBRANCH  10  12
ENDBRANCH   8  10
ENDBRANCH   5   8
ENDBRANCH   4   5
ENDBRANCH   3   4
ENDBRANCH   1   3
BRANCH   1  19
ATOM     19  O   UNL A   1      35.211  22.075  24.967  1.00  0.00    -0.462 OA
BRANCH  19  20
ATOM     20  C   UNL A   1      35.859  20.851  25.382  1.00  0.00     0.274 C 
BRANCH  20  21
ATOM     21  C   UNL A   1      37.306  20.821  24.900  1.00  0.00     0.275 C 
BRANCH  21  22
ATOM     22  O   UNL A   1      38.033  21.796  25.655  1.00  0.00    -0.458 OA
BRANCH  22  23
ATOM     23  C   UNL A   1      39.216  21.412  26.173  1.00  0.00     0.338 C 
ATOM     24  O   UNL A   1      39.695  20.293  26.222  1.00  0.00    -0.246 OA
BRANCH  23  25
ATOM     25  C   UNL A   1      39.829  22.620  26.736  1.00  0.00     0.060 A 
ATOM     26  C   UNL A   1      40.874  22.517  27.663  1.00  0.00     0.016 A 
ATOM     27  C   UNL A   1      39.400  23.859  26.266  1.00  0.00     0.016 A 
ATOM     28  C   UNL A   1      41.527  23.663  28.099  1.00  0.00     0.010 A 
ATOM     29  C   UNL A   1      40.079  25.001  26.672  1.00  0.00     0.010 A 
ATOM     30  C   UNL A   1      41.151  24.905  27.578  1.00  0.00    -0.014 A 
BRANCH  30  31
ATOM     31  C   UNL A   1      41.884  26.133  27.939  1.00  0.00     0.031 A 
ATOM     32  C   UNL A   1      41.173  27.201  28.707  1.00  0.00     0.074 A 
ATOM     33  C   UNL A   1      43.137  26.300  27.479  1.00  0.00     0.049 A 
ATOM     34  N   UNL A   1      41.535  28.431  28.946  1.00  0.00    -0.248 NA
ATOM     35  C   UNL A   1      39.858  26.837  29.262  1.00  0.00     0.031 C 
ATOM     36  C   UNL A   1      43.896  25.302  26.719  1.00  0.00     0.029 A 
ATOM     37  N   UNL A   1      43.980  27.377  27.548  1.00  0.00    -0.354 N 
ATOM     38  C   UNL A   1      40.490  28.996  29.665  1.00  0.00     0.074 A 
ATOM     39  C   UNL A   1      39.464  27.984  29.795  1.00  0.00     0.031 C 
ATOM     40  C   UNL A   1      45.081  25.825  26.368  1.00  0.00     0.029 A 
ATOM     41  C   UNL A   1      45.144  27.203  26.839  1.00  0.00     0.049 A 
ATOM     42  H   UNL A   1      43.773  28.195  28.055  1.00  0.00     0.167 HD
ATOM     43  C   UNL A   1      40.409  30.249  30.169  1.00  0.00     0.037 A 
ATOM     44  C   UNL A   1      46.130  28.080  26.572  1.00  0.00     0.037 A 
ATOM     45  C   UNL A   1      41.446  31.235  30.004  1.00  0.00     0.049 A 
ATOM     46  C   UNL A   1      46.003  29.473  27.129  1.00  0.00     0.074 A 
ATOM     47  C   UNL A   1      41.483  32.541  30.455  1.00  0.00     0.029 A 
ATOM     48  N   UNL A   1      42.638  31.010  29.326  1.00  0.00    -0.354 N 
ATOM     49  N   UNL A   1      45.017  30.002  27.816  1.00  0.00    -0.248 NA
ATOM     50  C   UNL A   1      47.124  30.388  26.882  1.00  0.00     0.031 C 
ATOM     51  C   UNL A   1      42.684  33.116  30.023  1.00  0.00     0.029 A 
ATOM     52  C   UNL A   1      43.417  32.153  29.344  1.00  0.00     0.049 A 
ATOM     53  H   UNL A   1      42.891  30.161  28.896  1.00  0.00     0.167 HD
ATOM     54  C   UNL A   1      45.405  31.302  28.102  1.00  0.00     0.074 A 
ATOM     55  C   UNL A   1      46.729  31.471  27.534  1.00  0.00     0.031 C 
ATOM     56  C   UNL A   1      44.732  32.274  28.767  1.00  0.00     0.037 A 
BRANCH  43  57
ATOM     57  C   UNL A   1      39.165  30.615  30.925  1.00  0.00     0.064 A 
ATOM     58  C   UNL A   1      39.065  30.417  32.312  1.00  0.00     0.173 A 
ATOM     59  C   UNL A   1      38.065  31.186  30.267  1.00  0.00     0.173 A 
ATOM     60  F   UNL A   1      40.080  29.858  32.988  1.00  0.00    -0.203 F 
ATOM     61  C   UNL A   1      37.905  30.755  33.005  1.00  0.00     0.198 A 
ATOM     62  C   UNL A   1      36.917  31.548  30.968  1.00  0.00     0.198 A 
ATOM     63  F   UNL A   1      38.103  31.395  28.943  1.00  0.00    -0.203 F 
ATOM     64  F   UNL A   1      37.818  30.512  34.321  1.00  0.00    -0.200 F 
ATOM     65  C   UNL A   1      36.835  31.326  32.334  1.00  0.00     0.200 A 
ATOM     66  F   UNL A   1      35.886  32.108  30.320  1.00  0.00    -0.200 F 
ATOM     67  F   UNL A   1      35.721  31.655  33.004  1.00  0.00    -0.200 F 
ENDBRANCH  43  57
BRANCH  44  68
ATOM     68  C   UNL A   1      47.296  27.672  25.745  1.00  0.00     0.064 A 
ATOM     69  C   UNL A   1      47.265  27.781  24.348  1.00  0.00     0.173 A 
ATOM     70  C   UNL A   1      48.468  27.165  26.330  1.00  0.00     0.173 A 
ATOM     71  F   UNL A   1      46.164  28.242  23.737  1.00  0.00    -0.203 F 
ATOM     72  C   UNL A   1      48.349  27.379  23.568  1.00  0.00     0.198 A 
ATOM     73  C   UNL A   1      49.562  26.794  25.551  1.00  0.00     0.198 A 
ATOM     74  F   UNL A   1      48.556  27.044  27.663  1.00  0.00    -0.203 F 
ATOM     75  F   UNL A   1      48.271  27.449  22.231  1.00  0.00    -0.200 F 
ATOM     76  C   UNL A   1      49.499  26.892  24.170  1.00  0.00     0.200 A 
ATOM     77  F   UNL A   1      50.678  26.339  26.138  1.00  0.00    -0.200 F 
ATOM     78  F   UNL A   1      50.541  26.509  23.420  1.00  0.00    -0.200 F 
ENDBRANCH  44  68
BRANCH  56  79
ATOM     79  C   UNL A   1      45.441  33.585  28.933  1.00  0.00     0.064 A 
ATOM     80  C   UNL A   1      45.297  34.622  27.998  1.00  0.00     0.173 A 
ATOM     81  C   UNL A   1      46.261  33.809  30.048  1.00  0.00     0.173 A 
ATOM     82  F   UNL A   1      44.537  34.446  26.906  1.00  0.00    -0.203 F 
ATOM     83  C   UNL A   1      45.978  35.823  28.158  1.00  0.00     0.198 A 
ATOM     84  C   UNL A   1      46.914  35.024  30.221  1.00  0.00     0.198 A 
ATOM     85  F   UNL A   1      46.423  32.849  30.971  1.00  0.00    -0.203 F 
ATOM     86  F   UNL A   1      45.874  36.779  27.224  1.00  0.00    -0.200 F 
ATOM     87  C   UNL A   1      46.780  36.026  29.271  1.00  0.00     0.200 A 
ATOM     88  F   UNL A   1      47.679  35.223  31.303  1.00  0.00    -0.200 F 
ATOM     89  F   UNL A   1      47.436  37.185  29.424  1.00  0.00    -0.200 F 
ENDBRANCH  56  79
ENDBRANCH  30  31
ENDBRANCH  23  25
ENDBRANCH  22  23
ENDBRANCH  21  22
ENDBRANCH  20  21
ENDBRANCH  19  20
ENDBRANCH   1  19
TORSDOF 19
ENDMDL
