MODEL 1
REMARK VINA RESULT:     -14.1      0.000      0.000
REMARK SMILES O=C(N/N=C/c1ccccc1O)C(=O)Nc1cccc(C(=O)OCCOC(=O)c2ccc(-c3c4nc(c(-c5c(F)c(F)c(F)c(F)c5F)c5ccc([nH]5)c(-c5c(F)c(F)c(F)c(F)c5F)c5nc(c(-c6c(F)c(F)c(F)c(F)c6F)c6ccc3[nH]6)C=C5)C=C4)cc2)c1
REMARK SMILES IDX 23 1 21 2 22 3 20 4 16 5 17 6 92 7 18 8 19 9 15 10 13 11
REMARK SMILES IDX 14 12 2 14 1 15 3 16 4 18 5 19 6 20 7 21 11 22 8 23 10 24
REMARK SMILES IDX 9 25 12 26 24 28 25 29 26 30 27 31 28 32 29 33 30 34 91 35
REMARK SMILES IDX 31 36 90 37 32 38 33 39 34 40 84 41 35 42 89 43 83 44 85 45
REMARK SMILES IDX 36 46 88 47 82 48 81 49 37 51 69 52 49 53 68 54 50 55 53 56
REMARK SMILES IDX 67 57 86 58 51 59 52 60 66 62 87 63 54 64 38 65 39 66 47 67
REMARK SMILES IDX 40 68 41 69 45 70 48 71 42 72 43 73 46 74 44 75 70 76 71 77
REMARK SMILES IDX 79 78 72 79 73 80 77 81 80 82 74 83 75 84 78 85 76 86 55 87
REMARK SMILES IDX 56 88 64 89 57 90 58 91 62 92 65 93 59 94 60 95 63 96 61 97
REMARK H PARENT 15 13 3 17 12 27 85 50 53 61
REMARK Flexibility Score: inf
ROOT
ATOM      1  O   UNL A   1      31.525  30.718  26.799  1.00  0.00    -0.458 OA
ENDROOT
BRANCH   1   2
ATOM      2  C   UNL A   1      32.348  30.036  25.967  1.00  0.00     0.338 C 
ATOM      3  O   UNL A   1      33.564  30.107  25.910  1.00  0.00    -0.246 OA
BRANCH   2   4
ATOM      4  C   UNL A   1      31.574  29.112  25.107  1.00  0.00     0.062 A 
ATOM      5  C   UNL A   1      30.186  26.285  24.822  1.00  0.00     0.042 A 
ATOM      6  C   UNL A   1      28.945  26.996  23.700  1.00  0.00     0.026 A 
ATOM      7  C   UNL A   1      31.523  27.306  25.494  1.00  0.00     0.041 A 
ATOM      8  C   UNL A   1      29.067  28.770  23.223  1.00  0.00     0.003 A 
ATOM      9  C   UNL A   1      30.364  29.813  23.943  1.00  0.00     0.016 A 
BRANCH   5  10
ATOM     10  N   UNL A   1      29.651  25.277  25.634  1.00  0.00    -0.318 N 
ATOM     11  C   UNL A   1      30.390  24.298  26.294  1.00  0.00     0.315 C 
ATOM     12  O   UNL A   1      29.859  23.751  27.265  1.00  0.00    -0.263 OA
ATOM     13  H   UNL A   1      28.673  25.259  25.747  1.00  0.00     0.170 HD
BRANCH  11  14
ATOM     14  C   UNL A   1      31.827  23.849  25.939  1.00  0.00     0.329 C 
ATOM     15  O   UNL A   1      32.694  23.911  26.811  1.00  0.00    -0.262 OA
ATOM     16  N   UNL A   1      32.185  23.557  24.618  1.00  0.00    -0.239 N 
ATOM     17  H   UNL A   1      32.742  24.165  24.081  1.00  0.00     0.194 HD
BRANCH  16  18
ATOM     18  N   UNL A   1      31.710  22.373  24.116  1.00  0.00    -0.180 NA
ATOM     19  C   UNL A   1      32.061  21.246  24.834  1.00  0.00     0.145 C 
BRANCH  19  20
ATOM     20  C   UNL A   1      32.557  19.219  24.426  1.00  0.00     0.036 A 
ATOM     21  C   UNL A   1      32.737  18.538  23.057  1.00  0.00     0.013 A 
ATOM     22  C   UNL A   1      32.917  17.995  25.310  1.00  0.00     0.124 A 
ATOM     23  C   UNL A   1      33.308  17.287  22.680  1.00  0.00     0.001 A 
ATOM     24  C   UNL A   1      33.587  16.775  24.932  1.00  0.00     0.047 A 
ATOM     25  C   UNL A   1      33.819  16.444  23.622  1.00  0.00     0.004 A 
BRANCH  22  26
ATOM     26  O   UNL A   1      32.534  17.864  26.650  1.00  0.00    -0.507 OA
ATOM     27  H   UNL A   1      32.507  18.619  27.205  1.00  0.00     0.293 HD
ENDBRANCH  22  26
ENDBRANCH  19  20
ENDBRANCH  16  18
ENDBRANCH  11  14
ENDBRANCH   5  10
ENDBRANCH   2   4
ENDBRANCH   1   2
BRANCH   1  28
ATOM     28  C   UNL A   1      31.569  32.149  26.680  1.00  0.00     0.275 C 
BRANCH  28  29
ATOM     29  C   UNL A   1      32.583  32.763  27.649  1.00  0.00     0.275 C 
BRANCH  29  30
ATOM     30  O   UNL A   1      32.472  34.198  27.681  1.00  0.00    -0.458 OA
BRANCH  30  31
ATOM     31  C   UNL A   1      32.954  34.809  28.784  1.00  0.00     0.338 C 
ATOM     32  O   UNL A   1      32.474  35.736  29.418  1.00  0.00    -0.246 OA
BRANCH  31  33
ATOM     33  C   UNL A   1      34.164  34.117  29.243  1.00  0.00     0.060 A 
ATOM     34  C   UNL A   1      34.046  33.217  30.300  1.00  0.00     0.016 A 
ATOM     35  C   UNL A   1      35.421  34.474  28.760  1.00  0.00     0.016 A 
ATOM     36  C   UNL A   1      35.173  32.682  30.905  1.00  0.00     0.010 A 
ATOM     37  C   UNL A   1      36.559  33.897  29.333  1.00  0.00     0.010 A 
ATOM     38  C   UNL A   1      36.442  33.009  30.420  1.00  0.00    -0.014 A 
BRANCH  38  39
ATOM     39  C   UNL A   1      37.646  32.454  31.082  1.00  0.00     0.031 A 
ATOM     40  C   UNL A   1      38.443  31.382  30.400  1.00  0.00     0.074 A 
ATOM     41  C   UNL A   1      38.029  32.922  32.284  1.00  0.00     0.049 A 
ATOM     42  N   UNL A   1      39.403  30.634  30.877  1.00  0.00    -0.248 NA
ATOM     43  C   UNL A   1      38.109  31.111  28.993  1.00  0.00     0.031 C 
ATOM     44  C   UNL A   1      37.380  34.012  33.014  1.00  0.00     0.029 A 
ATOM     45  N   UNL A   1      39.057  32.534  33.106  1.00  0.00    -0.354 N 
ATOM     46  C   UNL A   1      39.752  29.768  29.849  1.00  0.00     0.074 A 
ATOM     47  C   UNL A   1      38.906  30.088  28.719  1.00  0.00     0.031 C 
ATOM     48  C   UNL A   1      38.028  34.210  34.172  1.00  0.00     0.029 A 
ATOM     49  C   UNL A   1      39.084  33.212  34.300  1.00  0.00     0.049 A 
ATOM     50  H   UNL A   1      39.709  31.838  32.864  1.00  0.00     0.167 HD
ATOM     51  C   UNL A   1      40.690  28.791  29.859  1.00  0.00     0.037 A 
ATOM     52  C   UNL A   1      39.841  33.015  35.395  1.00  0.00     0.037 A 
ATOM     53  C   UNL A   1      41.553  28.512  30.978  1.00  0.00     0.049 A 
ATOM     54  C   UNL A   1      40.839  31.891  35.400  1.00  0.00     0.074 A 
ATOM     55  C   UNL A   1      42.548  27.556  31.084  1.00  0.00     0.029 A 
ATOM     56  N   UNL A   1      41.527  29.198  32.183  1.00  0.00    -0.354 N 
ATOM     57  N   UNL A   1      41.129  31.039  34.447  1.00  0.00    -0.248 NA
ATOM     58  C   UNL A   1      41.597  31.688  36.641  1.00  0.00     0.031 C 
ATOM     59  C   UNL A   1      43.098  27.639  32.368  1.00  0.00     0.029 A 
ATOM     60  C   UNL A   1      42.476  28.675  33.047  1.00  0.00     0.049 A 
ATOM     61  H   UNL A   1      40.923  29.945  32.395  1.00  0.00     0.167 HD
ATOM     62  C   UNL A   1      42.108  30.205  34.967  1.00  0.00     0.074 A 
ATOM     63  C   UNL A   1      42.377  30.666  36.314  1.00  0.00     0.031 C 
ATOM     64  C   UNL A   1      42.725  29.148  34.384  1.00  0.00     0.037 A 
BRANCH  51  65
ATOM     65  C   UNL A   1      40.803  27.925  28.641  1.00  0.00     0.064 A 
ATOM     66  C   UNL A   1      40.066  26.742  28.497  1.00  0.00     0.173 A 
ATOM     67  C   UNL A   1      41.645  28.307  27.583  1.00  0.00     0.173 A 
ATOM     68  F   UNL A   1      39.262  26.322  29.487  1.00  0.00    -0.203 F 
ATOM     69  C   UNL A   1      40.183  25.960  27.349  1.00  0.00     0.198 A 
ATOM     70  C   UNL A   1      41.739  27.538  26.428  1.00  0.00     0.198 A 
ATOM     71  F   UNL A   1      42.372  29.432  27.671  1.00  0.00    -0.203 F 
ATOM     72  F   UNL A   1      39.502  24.810  27.253  1.00  0.00    -0.200 F 
ATOM     73  C   UNL A   1      41.014  26.362  26.314  1.00  0.00     0.200 A 
ATOM     74  F   UNL A   1      42.537  27.932  25.425  1.00  0.00    -0.200 F 
ATOM     75  F   UNL A   1      41.121  25.611  25.209  1.00  0.00    -0.200 F 
ENDBRANCH  51  65
BRANCH  52  76
ATOM     76  C   UNL A   1      39.643  33.873  36.591  1.00  0.00     0.064 A 
ATOM     77  C   UNL A   1      38.830  33.453  37.651  1.00  0.00     0.173 A 
ATOM     78  C   UNL A   1      40.275  35.120  36.705  1.00  0.00     0.173 A 
ATOM     79  F   UNL A   1      38.185  32.280  37.577  1.00  0.00    -0.203 F 
ATOM     80  C   UNL A   1      38.653  34.252  38.780  1.00  0.00     0.198 A 
ATOM     81  C   UNL A   1      40.121  35.904  37.844  1.00  0.00     0.198 A 
ATOM     82  F   UNL A   1      41.062  35.567  35.714  1.00  0.00    -0.203 F 
ATOM     83  F   UNL A   1      37.843  33.844  39.766  1.00  0.00    -0.200 F 
ATOM     84  C   UNL A   1      39.305  35.473  38.879  1.00  0.00     0.200 A 
ATOM     85  F   UNL A   1      40.763  37.076  37.941  1.00  0.00    -0.200 F 
ATOM     86  F   UNL A   1      39.143  36.235  39.969  1.00  0.00    -0.200 F 
ENDBRANCH  52  76
BRANCH  64  87
ATOM     87  C   UNL A   1      43.766  28.436  35.194  1.00  0.00     0.064 A 
ATOM     88  C   UNL A   1      43.425  27.394  36.069  1.00  0.00     0.173 A 
ATOM     89  C   UNL A   1      45.120  28.777  35.068  1.00  0.00     0.173 A 
ATOM     90  F   UNL A   1      42.141  27.045  36.236  1.00  0.00    -0.203 F 
ATOM     91  C   UNL A   1      44.404  26.732  36.805  1.00  0.00     0.198 A 
ATOM     92  C   UNL A   1      46.098  28.096  35.787  1.00  0.00     0.198 A 
ATOM     93  F   UNL A   1      45.494  29.764  34.240  1.00  0.00    -0.203 F 
ATOM     94  F   UNL A   1      44.054  25.767  37.667  1.00  0.00    -0.200 F 
ATOM     95  C   UNL A   1      45.740  27.080  36.659  1.00  0.00     0.200 A 
ATOM     96  F   UNL A   1      47.388  28.427  35.637  1.00  0.00    -0.200 F 
ATOM     97  F   UNL A   1      46.680  26.439  37.365  1.00  0.00    -0.200 F 
ENDBRANCH  64  87
ENDBRANCH  38  39
ENDBRANCH  31  33
ENDBRANCH  30  31
ENDBRANCH  29  30
ENDBRANCH  28  29
ENDBRANCH   1  28
TORSDOF 16
ENDMDL
MODEL 2
REMARK VINA RESULT:     -14.1      0.158      1.574
REMARK SMILES O=C(N/N=C/c1ccccc1O)C(=O)Nc1cccc(C(=O)OCCOC(=O)c2ccc(-c3c4nc(c(-c5c(F)c(F)c(F)c(F)c5F)c5ccc([nH]5)c(-c5c(F)c(F)c(F)c(F)c5F)c5nc(c(-c6c(F)c(F)c(F)c(F)c6F)c6ccc3[nH]6)C=C5)C=C4)cc2)c1
REMARK SMILES IDX 23 1 21 2 22 3 20 4 16 5 17 6 92 7 18 8 19 9 15 10 13 11
REMARK SMILES IDX 14 12 2 14 1 15 3 16 4 18 5 19 6 20 7 21 11 22 8 23 10 24
REMARK SMILES IDX 9 25 12 26 24 28 25 29 26 30 27 31 28 32 29 33 30 34 91 35
REMARK SMILES IDX 31 36 90 37 32 38 33 39 34 40 84 41 35 42 89 43 83 44 85 45
REMARK SMILES IDX 36 46 88 47 82 48 81 49 37 51 69 52 49 53 68 54 50 55 53 56
REMARK SMILES IDX 67 57 86 58 51 59 52 60 66 62 87 63 54 64 38 65 39 66 47 67
REMARK SMILES IDX 40 68 41 69 45 70 48 71 42 72 43 73 46 74 44 75 70 76 71 77
REMARK SMILES IDX 79 78 72 79 73 80 77 81 80 82 74 83 75 84 78 85 76 86 55 87
REMARK SMILES IDX 56 88 64 89 57 90 58 91 62 92 65 93 59 94 60 95 63 96 61 97
REMARK H PARENT 15 13 3 17 12 27 85 50 53 61
REMARK Flexibility Score: inf
ROOT
ATOM      1  O   UNL A   1      31.431  30.970  26.812  1.00  0.00    -0.458 OA
ENDROOT
BRANCH   1   2
ATOM      2  C   UNL A   1      32.307  30.206  26.118  1.00  0.00     0.338 C 
ATOM      3  O   UNL A   1      33.524  30.220  26.200  1.00  0.00    -0.246 OA
BRANCH   2   4
ATOM      4  C   UNL A   1      31.590  29.270  25.222  1.00  0.00     0.062 A 
ATOM      5  C   UNL A   1      30.284  26.413  24.864  1.00  0.00     0.042 A 
ATOM      6  C   UNL A   1      29.071  27.102  23.699  1.00  0.00     0.026 A 
ATOM      7  C   UNL A   1      31.568  27.461  25.594  1.00  0.00     0.041 A 
ATOM      8  C   UNL A   1      29.168  28.882  23.239  1.00  0.00     0.003 A 
ATOM      9  C   UNL A   1      30.410  29.951  24.016  1.00  0.00     0.016 A 
BRANCH   5  10
ATOM     10  N   UNL A   1      29.744  25.386  25.647  1.00  0.00    -0.318 N 
ATOM     11  C   UNL A   1      30.472  24.363  26.249  1.00  0.00     0.315 C 
ATOM     12  O   UNL A   1      29.950  23.790  27.209  1.00  0.00    -0.263 OA
ATOM     13  H   UNL A   1      28.768  25.388  25.783  1.00  0.00     0.170 HD
BRANCH  11  14
ATOM     14  C   UNL A   1      31.888  23.894  25.841  1.00  0.00     0.329 C 
ATOM     15  O   UNL A   1      32.802  24.001  26.659  1.00  0.00    -0.262 OA
ATOM     16  N   UNL A   1      32.174  23.531  24.519  1.00  0.00    -0.239 N 
ATOM     17  H   UNL A   1      32.701  24.109  23.921  1.00  0.00     0.194 HD
BRANCH  16  18
ATOM     18  N   UNL A   1      31.675  22.322  24.108  1.00  0.00    -0.180 NA
ATOM     19  C   UNL A   1      32.123  21.226  24.820  1.00  0.00     0.145 C 
BRANCH  19  20
ATOM     20  C   UNL A   1      32.617  19.196  24.425  1.00  0.00     0.036 A 
ATOM     21  C   UNL A   1      32.847  18.518  23.063  1.00  0.00     0.013 A 
ATOM     22  C   UNL A   1      32.928  17.965  25.319  1.00  0.00     0.124 A 
ATOM     23  C   UNL A   1      33.421  17.263  22.706  1.00  0.00     0.001 A 
ATOM     24  C   UNL A   1      33.601  16.741  24.965  1.00  0.00     0.047 A 
ATOM     25  C   UNL A   1      33.884  16.411  23.665  1.00  0.00     0.004 A 
BRANCH  22  26
ATOM     26  O   UNL A   1      32.488  17.835  26.642  1.00  0.00    -0.507 OA
ATOM     27  H   UNL A   1      31.764  18.345  26.948  1.00  0.00     0.293 HD
ENDBRANCH  22  26
ENDBRANCH  19  20
ENDBRANCH  16  18
ENDBRANCH  11  14
ENDBRANCH   5  10
ENDBRANCH   2   4
ENDBRANCH   1   2
BRANCH   1  28
ATOM     28  C   UNL A   1      31.573  32.390  26.641  1.00  0.00     0.275 C 
BRANCH  28  29
ATOM     29  C   UNL A   1      32.551  32.983  27.659  1.00  0.00     0.275 C 
BRANCH  29  30
ATOM     30  O   UNL A   1      32.407  34.413  27.750  1.00  0.00    -0.458 OA
BRANCH  30  31
ATOM     31  C   UNL A   1      32.889  34.991  28.871  1.00  0.00     0.338 C 
ATOM     32  O   UNL A   1      32.414  35.906  29.525  1.00  0.00    -0.246 OA
BRANCH  31  33
ATOM     33  C   UNL A   1      34.089  34.275  29.318  1.00  0.00     0.060 A 
ATOM     34  C   UNL A   1      33.983  33.447  30.434  1.00  0.00     0.016 A 
ATOM     35  C   UNL A   1      35.335  34.546  28.759  1.00  0.00     0.016 A 
ATOM     36  C   UNL A   1      35.114  32.901  31.021  1.00  0.00     0.010 A 
ATOM     37  C   UNL A   1      36.474  33.955  29.317  1.00  0.00     0.010 A 
ATOM     38  C   UNL A   1      36.372  33.141  30.461  1.00  0.00    -0.014 A 
BRANCH  38  39
ATOM     39  C   UNL A   1      37.581  32.575  31.103  1.00  0.00     0.031 A 
ATOM     40  C   UNL A   1      38.357  31.496  30.408  1.00  0.00     0.074 A 
ATOM     41  C   UNL A   1      37.988  33.038  32.299  1.00  0.00     0.049 A 
ATOM     42  N   UNL A   1      39.318  30.738  30.869  1.00  0.00    -0.248 NA
ATOM     43  C   UNL A   1      37.998  31.229  29.006  1.00  0.00     0.031 C 
ATOM     44  C   UNL A   1      37.361  34.134  33.040  1.00  0.00     0.029 A 
ATOM     45  N   UNL A   1      39.025  32.641  33.103  1.00  0.00    -0.354 N 
ATOM     46  C   UNL A   1      39.642  29.870  29.835  1.00  0.00     0.074 A 
ATOM     47  C   UNL A   1      38.780  30.198  28.719  1.00  0.00     0.031 C 
ATOM     48  C   UNL A   1      38.030  34.325  34.187  1.00  0.00     0.029 A 
ATOM     49  C   UNL A   1      39.079  33.318  34.297  1.00  0.00     0.049 A 
ATOM     50  H   UNL A   1      39.667  31.939  32.851  1.00  0.00     0.167 HD
ATOM     51  C   UNL A   1      40.571  28.884  29.829  1.00  0.00     0.037 A 
ATOM     52  C   UNL A   1      39.851  33.113  35.379  1.00  0.00     0.037 A 
ATOM     53  C   UNL A   1      41.449  28.597  30.934  1.00  0.00     0.049 A 
ATOM     54  C   UNL A   1      40.839  31.980  35.368  1.00  0.00     0.074 A 
ATOM     55  C   UNL A   1      42.437  27.631  31.023  1.00  0.00     0.029 A 
ATOM     56  N   UNL A   1      41.449  29.283  32.139  1.00  0.00    -0.354 N 
ATOM     57  N   UNL A   1      41.105  31.126  34.410  1.00  0.00    -0.248 NA
ATOM     58  C   UNL A   1      41.616  31.769  36.597  1.00  0.00     0.031 C 
ATOM     59  C   UNL A   1      43.008  27.709  32.298  1.00  0.00     0.029 A 
ATOM     60  C   UNL A   1      42.407  28.750  32.987  1.00  0.00     0.049 A 
ATOM     61  H   UNL A   1      40.855  30.035  32.361  1.00  0.00     0.167 HD
ATOM     62  C   UNL A   1      42.085  30.282  34.914  1.00  0.00     0.074 A 
ATOM     63  C   UNL A   1      42.381  30.740  36.256  1.00  0.00     0.031 C 
ATOM     64  C   UNL A   1      42.683  29.220  34.320  1.00  0.00     0.037 A 
BRANCH  51  65
ATOM     65  C   UNL A   1      40.656  28.018  28.609  1.00  0.00     0.064 A 
ATOM     66  C   UNL A   1      41.482  28.340  27.523  1.00  0.00     0.173 A 
ATOM     67  C   UNL A   1      39.915  26.827  28.540  1.00  0.00     0.173 A 
ATOM     68  F   UNL A   1      42.194  29.477  27.530  1.00  0.00    -0.203 F 
ATOM     69  C   UNL A   1      41.548  27.512  26.405  1.00  0.00     0.198 A 
ATOM     70  C   UNL A   1      40.005  25.989  27.434  1.00  0.00     0.198 A 
ATOM     71  F   UNL A   1      39.110  26.473  29.554  1.00  0.00    -0.203 F 
ATOM     72  F   UNL A   1      42.311  27.862  25.359  1.00  0.00    -0.200 F 
ATOM     73  C   UNL A   1      40.816  26.335  26.363  1.00  0.00     0.200 A 
ATOM     74  F   UNL A   1      39.302  24.848  27.399  1.00  0.00    -0.200 F 
ATOM     75  F   UNL A   1      40.885  25.538  25.288  1.00  0.00    -0.200 F 
ENDBRANCH  51  65
BRANCH  52  76
ATOM     76  C   UNL A   1      39.681  33.972  36.579  1.00  0.00     0.064 A 
ATOM     77  C   UNL A   1      38.864  33.569  37.643  1.00  0.00     0.173 A 
ATOM     78  C   UNL A   1      40.344  35.203  36.693  1.00  0.00     0.173 A 
ATOM     79  F   UNL A   1      38.190  32.412  37.569  1.00  0.00    -0.203 F 
ATOM     80  C   UNL A   1      38.713  34.369  38.775  1.00  0.00     0.198 A 
ATOM     81  C   UNL A   1      40.215  35.988  37.835  1.00  0.00     0.198 A 
ATOM     82  F   UNL A   1      41.136  35.634  35.699  1.00  0.00    -0.203 F 
ATOM     83  F   UNL A   1      37.898  33.978  39.764  1.00  0.00    -0.200 F 
ATOM     84  C   UNL A   1      39.395  35.574  38.873  1.00  0.00     0.200 A 
ATOM     85  F   UNL A   1      40.885  37.144  37.931  1.00  0.00    -0.200 F 
ATOM     86  F   UNL A   1      39.257  36.336  39.966  1.00  0.00    -0.200 F 
ENDBRANCH  52  76
BRANCH  64  87
ATOM     87  C   UNL A   1      43.730  28.498  35.113  1.00  0.00     0.064 A 
ATOM     88  C   UNL A   1      45.080  28.874  35.055  1.00  0.00     0.173 A 
ATOM     89  C   UNL A   1      43.374  27.442  35.963  1.00  0.00     0.173 A 
ATOM     90  F   UNL A   1      45.470  29.867  34.243  1.00  0.00    -0.203 F 
ATOM     91  C   UNL A   1      46.039  28.203  35.808  1.00  0.00     0.198 A 
ATOM     92  C   UNL A   1      44.333  26.789  36.733  1.00  0.00     0.198 A 
ATOM     93  F   UNL A   1      42.094  27.049  36.054  1.00  0.00    -0.203 F 
ATOM     94  F   UNL A   1      47.331  28.550  35.708  1.00  0.00    -0.200 F 
ATOM     95  C   UNL A   1      45.665  27.165  36.650  1.00  0.00     0.200 A 
ATOM     96  F   UNL A   1      43.967  25.794  37.552  1.00  0.00    -0.200 F 
ATOM     97  F   UNL A   1      46.589  26.523  37.376  1.00  0.00    -0.200 F 
ENDBRANCH  64  87
ENDBRANCH  38  39
ENDBRANCH  31  33
ENDBRANCH  30  31
ENDBRANCH  29  30
ENDBRANCH  28  29
ENDBRANCH   1  28
TORSDOF 16
ENDMDL
MODEL 3
REMARK VINA RESULT:     -14.1      0.337      1.676
REMARK SMILES O=C(N/N=C/c1ccccc1O)C(=O)Nc1cccc(C(=O)OCCOC(=O)c2ccc(-c3c4nc(c(-c5c(F)c(F)c(F)c(F)c5F)c5ccc([nH]5)c(-c5c(F)c(F)c(F)c(F)c5F)c5nc(c(-c6c(F)c(F)c(F)c(F)c6F)c6ccc3[nH]6)C=C5)C=C4)cc2)c1
REMARK SMILES IDX 23 1 21 2 22 3 20 4 16 5 17 6 92 7 18 8 19 9 15 10 13 11
REMARK SMILES IDX 14 12 2 14 1 15 3 16 4 18 5 19 6 20 7 21 11 22 8 23 10 24
REMARK SMILES IDX 9 25 12 26 24 28 25 29 26 30 27 31 28 32 29 33 30 34 91 35
REMARK SMILES IDX 31 36 90 37 32 38 33 39 34 40 84 41 35 42 89 43 83 44 85 45
REMARK SMILES IDX 36 46 88 47 82 48 81 49 37 51 69 52 49 53 68 54 50 55 53 56
REMARK SMILES IDX 67 57 86 58 51 59 52 60 66 62 87 63 54 64 38 65 39 66 47 67
REMARK SMILES IDX 40 68 41 69 45 70 48 71 42 72 43 73 46 74 44 75 70 76 71 77
REMARK SMILES IDX 79 78 72 79 73 80 77 81 80 82 74 83 75 84 78 85 76 86 55 87
REMARK SMILES IDX 56 88 64 89 57 90 58 91 62 92 65 93 59 94 60 95 63 96 61 97
REMARK H PARENT 15 13 3 17 12 27 85 50 53 61
REMARK Flexibility Score: inf
ROOT
ATOM      1  O   UNL A   1      31.167  31.077  26.508  1.00  0.00    -0.458 OA
ENDROOT
BRANCH   1   2
ATOM      2  C   UNL A   1      32.076  30.253  25.936  1.00  0.00     0.338 C 
ATOM      3  O   UNL A   1      33.286  30.264  26.093  1.00  0.00    -0.246 OA
BRANCH   2   4
ATOM      4  C   UNL A   1      31.405  29.251  25.076  1.00  0.00     0.062 A 
ATOM      5  C   UNL A   1      30.230  26.326  24.827  1.00  0.00     0.042 A 
ATOM      6  C   UNL A   1      28.992  26.914  23.633  1.00  0.00     0.026 A 
ATOM      7  C   UNL A   1      31.463  27.458  25.519  1.00  0.00     0.041 A 
ATOM      8  C   UNL A   1      29.011  28.677  23.103  1.00  0.00     0.003 A 
ATOM      9  C   UNL A   1      30.201  29.830  23.840  1.00  0.00     0.016 A 
BRANCH   5  10
ATOM     10  N   UNL A   1      29.732  25.308  25.649  1.00  0.00    -0.318 N 
ATOM     11  C   UNL A   1      30.503  24.339  26.288  1.00  0.00     0.315 C 
ATOM     12  O   UNL A   1      30.005  23.782  27.270  1.00  0.00    -0.263 OA
ATOM     13  H   UNL A   1      28.758  25.273  25.786  1.00  0.00     0.170 HD
BRANCH  11  14
ATOM     14  C   UNL A   1      31.938  23.915  25.897  1.00  0.00     0.329 C 
ATOM     15  O   UNL A   1      32.819  23.956  26.756  1.00  0.00    -0.262 OA
ATOM     16  N   UNL A   1      32.278  23.670  24.561  1.00  0.00    -0.239 N 
ATOM     17  H   UNL A   1      32.822  24.301  24.036  1.00  0.00     0.194 HD
BRANCH  16  18
ATOM     18  N   UNL A   1      31.806  22.499  24.028  1.00  0.00    -0.180 NA
ATOM     19  C   UNL A   1      32.063  21.365  24.775  1.00  0.00     0.145 C 
BRANCH  19  20
ATOM     20  C   UNL A   1      32.525  19.321  24.412  1.00  0.00     0.036 A 
ATOM     21  C   UNL A   1      32.659  18.599  23.059  1.00  0.00     0.013 A 
ATOM     22  C   UNL A   1      32.896  18.119  25.321  1.00  0.00     0.124 A 
ATOM     23  C   UNL A   1      33.204  17.331  22.704  1.00  0.00     0.001 A 
ATOM     24  C   UNL A   1      33.540  16.881  24.960  1.00  0.00     0.047 A 
ATOM     25  C   UNL A   1      33.732  16.509  23.655  1.00  0.00     0.004 A 
BRANCH  22  26
ATOM     26  O   UNL A   1      32.548  18.032  26.674  1.00  0.00    -0.507 OA
ATOM     27  H   UNL A   1      32.623  17.215  27.126  1.00  0.00     0.293 HD
ENDBRANCH  22  26
ENDBRANCH  19  20
ENDBRANCH  16  18
ENDBRANCH  11  14
ENDBRANCH   5  10
ENDBRANCH   2   4
ENDBRANCH   1   2
BRANCH   1  28
ATOM     28  C   UNL A   1      31.500  32.475  26.491  1.00  0.00     0.275 C 
BRANCH  28  29
ATOM     29  C   UNL A   1      32.335  32.870  27.711  1.00  0.00     0.275 C 
BRANCH  29  30
ATOM     30  O   UNL A   1      33.006  34.126  27.502  1.00  0.00    -0.458 OA
BRANCH  30  31
ATOM     31  C   UNL A   1      33.128  34.925  28.583  1.00  0.00     0.338 C 
ATOM     32  O   UNL A   1      32.388  35.820  28.961  1.00  0.00    -0.246 OA
BRANCH  31  33
ATOM     33  C   UNL A   1      34.283  34.502  29.382  1.00  0.00     0.060 A 
ATOM     34  C   UNL A   1      35.549  34.593  28.806  1.00  0.00     0.016 A 
ATOM     35  C   UNL A   1      34.112  33.864  30.609  1.00  0.00     0.016 A 
ATOM     36  C   UNL A   1      36.653  34.031  29.429  1.00  0.00     0.010 A 
ATOM     37  C   UNL A   1      35.231  33.342  31.266  1.00  0.00     0.010 A 
ATOM     38  C   UNL A   1      36.506  33.408  30.672  1.00  0.00    -0.014 A 
BRANCH  38  39
ATOM     39  C   UNL A   1      37.683  32.789  31.325  1.00  0.00     0.031 A 
ATOM     40  C   UNL A   1      38.424  31.683  30.633  1.00  0.00     0.074 A 
ATOM     41  C   UNL A   1      38.093  33.229  32.529  1.00  0.00     0.049 A 
ATOM     42  N   UNL A   1      39.347  30.885  31.101  1.00  0.00    -0.248 NA
ATOM     43  C   UNL A   1      38.072  31.439  29.226  1.00  0.00     0.031 C 
ATOM     44  C   UNL A   1      37.502  34.344  33.269  1.00  0.00     0.029 A 
ATOM     45  N   UNL A   1      39.103  32.785  33.344  1.00  0.00    -0.354 N 
ATOM     46  C   UNL A   1      39.649  30.010  30.067  1.00  0.00     0.074 A 
ATOM     47  C   UNL A   1      38.816  30.380  28.942  1.00  0.00     0.031 C 
ATOM     48  C   UNL A   1      38.163  34.502  34.425  1.00  0.00     0.029 A 
ATOM     49  C   UNL A   1      39.169  33.452  34.543  1.00  0.00     0.049 A 
ATOM     50  H   UNL A   1      39.720  32.059  33.096  1.00  0.00     0.167 HD
ATOM     51  C   UNL A   1      40.538  28.988  30.066  1.00  0.00     0.037 A 
ATOM     52  C   UNL A   1      39.918  33.210  35.633  1.00  0.00     0.037 A 
ATOM     53  C   UNL A   1      41.389  28.659  31.180  1.00  0.00     0.049 A 
ATOM     54  C   UNL A   1      40.859  32.038  35.628  1.00  0.00     0.074 A 
ATOM     55  C   UNL A   1      42.336  27.653  31.276  1.00  0.00     0.029 A 
ATOM     56  N   UNL A   1      41.402  29.337  32.390  1.00  0.00    -0.354 N 
ATOM     57  N   UNL A   1      41.103  31.180  34.668  1.00  0.00    -0.248 NA
ATOM     58  C   UNL A   1      41.611  31.789  36.864  1.00  0.00     0.031 C 
ATOM     59  C   UNL A   1      42.894  27.700  32.558  1.00  0.00     0.029 A 
ATOM     60  C   UNL A   1      42.326  28.761  33.246  1.00  0.00     0.049 A 
ATOM     61  H   UNL A   1      40.836  30.112  32.609  1.00  0.00     0.167 HD
ATOM     62  C   UNL A   1      42.042  30.294  35.178  1.00  0.00     0.074 A 
ATOM     63  C   UNL A   1      42.338  30.732  36.527  1.00  0.00     0.031 C 
ATOM     64  C   UNL A   1      42.604  29.212  34.586  1.00  0.00     0.037 A 
BRANCH  51  65
ATOM     65  C   UNL A   1      40.603  28.126  28.842  1.00  0.00     0.064 A 
ATOM     66  C   UNL A   1      39.857  26.945  28.722  1.00  0.00     0.173 A 
ATOM     67  C   UNL A   1      41.407  28.509  27.756  1.00  0.00     0.173 A 
ATOM     68  F   UNL A   1      39.089  26.525  29.738  1.00  0.00    -0.203 F 
ATOM     69  C   UNL A   1      39.930  26.168  27.568  1.00  0.00     0.198 A 
ATOM     70  C   UNL A   1      41.456  27.744  26.595  1.00  0.00     0.198 A 
ATOM     71  F   UNL A   1      42.140  29.631  27.820  1.00  0.00    -0.203 F 
ATOM     72  F   UNL A   1      39.243  25.019  27.492  1.00  0.00    -0.200 F 
ATOM     73  C   UNL A   1      40.724  26.570  26.504  1.00  0.00     0.200 A 
ATOM     74  F   UNL A   1      42.218  28.139  25.565  1.00  0.00    -0.200 F 
ATOM     75  F   UNL A   1      40.788  25.822  25.393  1.00  0.00    -0.200 F 
ENDBRANCH  51  65
BRANCH  52  76
ATOM     76  C   UNL A   1      39.767  34.068  36.837  1.00  0.00     0.064 A 
ATOM     77  C   UNL A   1      40.440  35.292  36.938  1.00  0.00     0.173 A 
ATOM     78  C   UNL A   1      38.934  33.690  37.900  1.00  0.00     0.173 A 
ATOM     79  F   UNL A   1      41.267  35.684  35.958  1.00  0.00    -0.203 F 
ATOM     80  C   UNL A   1      40.289  36.104  38.061  1.00  0.00     0.198 A 
ATOM     81  C   UNL A   1      38.761  34.514  39.008  1.00  0.00     0.198 A 
ATOM     82  F   UNL A   1      38.269  32.525  37.851  1.00  0.00    -0.203 F 
ATOM     83  F   UNL A   1      40.971  37.253  38.150  1.00  0.00    -0.200 F 
ATOM     84  C   UNL A   1      39.443  35.718  39.091  1.00  0.00     0.200 A 
ATOM     85  F   UNL A   1      37.933  34.144  39.994  1.00  0.00    -0.200 F 
ATOM     86  F   UNL A   1      39.291  36.504  40.165  1.00  0.00    -0.200 F 
ENDBRANCH  52  76
BRANCH  64  87
ATOM     87  C   UNL A   1      43.610  28.444  35.387  1.00  0.00     0.064 A 
ATOM     88  C   UNL A   1      44.984  28.706  35.281  1.00  0.00     0.173 A 
ATOM     89  C   UNL A   1      43.194  27.459  36.294  1.00  0.00     0.173 A 
ATOM     90  F   UNL A   1      45.431  29.627  34.414  1.00  0.00    -0.203 F 
ATOM     91  C   UNL A   1      45.907  27.994  36.042  1.00  0.00     0.198 A 
ATOM     92  C   UNL A   1      44.118  26.765  37.070  1.00  0.00     0.198 A 
ATOM     93  F   UNL A   1      41.889  27.175  36.432  1.00  0.00    -0.203 F 
ATOM     94  F   UNL A   1      47.218  28.230  35.896  1.00  0.00    -0.200 F 
ATOM     95  C   UNL A   1      45.472  27.028  36.940  1.00  0.00     0.200 A 
ATOM     96  F   UNL A   1      43.695  25.841  37.944  1.00  0.00    -0.200 F 
ATOM     97  F   UNL A   1      46.361  26.347  37.674  1.00  0.00    -0.200 F 
ENDBRANCH  64  87
ENDBRANCH  38  39
ENDBRANCH  31  33
ENDBRANCH  30  31
ENDBRANCH  29  30
ENDBRANCH  28  29
ENDBRANCH   1  28
TORSDOF 16
ENDMDL
