MODEL 1
REMARK VINA RESULT:     -10.4      0.000      0.000
REMARK SMILES CC(C)Cc1ccc([C@H](CF)C(=O)OCCOC(=O)c2ccc(-c3c4nc(c(-c5c(F)c(F)c(F)c(F)c5F)c5ccc([nH]5)c(-c5c(F)c(F)c(F)c(F)c5F)c5nc(c(-c6c(F)c(F)c(F)c(F)c6F)c6ccc3[nH]6)C=C5)C=C4)cc2)cc1
REMARK SMILES IDX 15 1 14 2 12 3 13 4 9 5 8 6 5 7 6 8 84 9 7 10 83 11 4 12
REMARK SMILES IDX 2 13 1 14 3 15 10 16 11 17 16 18 17 19 18 20 19 21 20 22
REMARK SMILES IDX 21 23 82 24 22 25 81 26 23 27 24 28 25 29 75 30 26 31 80 32
REMARK SMILES IDX 74 33 76 34 27 35 79 36 73 37 72 38 28 40 60 41 40 42 59 43
REMARK SMILES IDX 41 44 44 45 58 46 77 47 42 48 43 49 57 51 78 52 45 53 29 54
REMARK SMILES IDX 30 55 38 56 31 57 32 58 36 59 39 60 33 61 34 62 37 63 35 64
REMARK SMILES IDX 61 65 62 66 70 67 63 68 64 69 68 70 71 71 65 72 66 73 69 74
REMARK SMILES IDX 67 75 46 76 47 77 55 78 48 79 49 80 53 81 56 82 50 83 51 84
REMARK SMILES IDX 54 85 52 86
REMARK H PARENT 76 39 44 50
REMARK Flexibility Score: inf
ROOT
ATOM      1  C   UNL A   1      33.265  35.028  28.739  1.00  0.00     0.274 C 
ENDROOT
BRANCH   1   2
ATOM      2  O   UNL A   1      34.618  34.565  28.921  1.00  0.00    -0.462 OA
BRANCH   2   3
ATOM      3  C   UNL A   1      34.758  33.230  29.138  1.00  0.00     0.316 C 
ATOM      4  O   UNL A   1      34.409  32.658  30.169  1.00  0.00    -0.251 OA
BRANCH   3   5
ATOM      5  C   UNL A   1      35.464  32.497  28.004  1.00  0.00     0.160 C 
BRANCH   5   6
ATOM      6  C   UNL A   1      34.692  31.251  27.627  1.00  0.00    -0.031 A 
ATOM      7  C   UNL A   1      33.417  28.879  26.780  1.00  0.00    -0.048 A 
ATOM      8  C   UNL A   1      34.749  28.855  27.205  1.00  0.00     0.004 A 
ATOM      9  C   UNL A   1      32.712  30.086  26.861  1.00  0.00     0.004 A 
ATOM     10  C   UNL A   1      35.377  30.024  27.625  1.00  0.00     0.005 A 
ATOM     11  C   UNL A   1      33.347  31.266  27.255  1.00  0.00     0.005 A 
BRANCH   7  12
ATOM     12  C   UNL A   1      32.798  27.596  26.276  1.00  0.00     0.038 C 
BRANCH  12  13
ATOM     13  C   UNL A   1      33.648  26.751  25.305  1.00  0.00    -0.013 C 
ATOM     14  C   UNL A   1      33.768  25.290  25.751  1.00  0.00     0.008 C 
ATOM     15  C   UNL A   1      33.035  26.808  23.905  1.00  0.00     0.008 C 
ENDBRANCH  12  13
ENDBRANCH   7  12
ENDBRANCH   5   6
BRANCH   5  16
ATOM     16  C   UNL A   1      36.959  32.337  28.258  1.00  0.00     0.234 C 
ATOM     17  F   UNL A   1      37.508  33.578  28.392  1.00  0.00    -0.250 F 
ENDBRANCH   5  16
ENDBRANCH   3   5
ENDBRANCH   2   3
ENDBRANCH   1   2
BRANCH   1  18
ATOM     18  C   UNL A   1      32.845  36.019  29.828  1.00  0.00     0.275 C 
BRANCH  18  19
ATOM     19  O   UNL A   1      32.335  35.339  30.990  1.00  0.00    -0.458 OA
BRANCH  19  20
ATOM     20  C   UNL A   1      32.691  35.881  32.178  1.00  0.00     0.338 C 
ATOM     21  O   UNL A   1      32.140  36.787  32.775  1.00  0.00    -0.246 OA
BRANCH  20  22
ATOM     22  C   UNL A   1      33.838  35.140  32.723  1.00  0.00     0.060 A 
ATOM     23  C   UNL A   1      35.112  35.700  32.609  1.00  0.00     0.016 A 
ATOM     24  C   UNL A   1      33.679  33.860  33.251  1.00  0.00     0.016 A 
ATOM     25  C   UNL A   1      36.236  34.994  33.019  1.00  0.00     0.010 A 
ATOM     26  C   UNL A   1      34.809  33.148  33.669  1.00  0.00     0.010 A 
ATOM     27  C   UNL A   1      36.094  33.707  33.544  1.00  0.00    -0.014 A 
BRANCH  27  28
ATOM     28  C   UNL A   1      37.302  32.922  33.883  1.00  0.00     0.031 A 
ATOM     29  C   UNL A   1      38.001  33.171  35.187  1.00  0.00     0.074 A 
ATOM     30  C   UNL A   1      37.745  31.968  33.046  1.00  0.00     0.049 A 
ATOM     31  N   UNL A   1      39.136  32.688  35.624  1.00  0.00    -0.248 NA
ATOM     32  C   UNL A   1      37.331  34.084  36.124  1.00  0.00     0.031 C 
ATOM     33  C   UNL A   1      37.105  31.583  31.789  1.00  0.00     0.029 A 
ATOM     34  N   UNL A   1      38.842  31.148  33.129  1.00  0.00    -0.354 N 
ATOM     35  C   UNL A   1      39.332  33.264  36.873  1.00  0.00     0.074 A 
ATOM     36  C   UNL A   1      38.203  34.134  37.123  1.00  0.00     0.031 C 
ATOM     37  C   UNL A   1      37.822  30.602  31.217  1.00  0.00     0.029 A 
ATOM     38  C   UNL A   1      38.997  30.330  32.039  1.00  0.00     0.049 A 
ATOM     39  H   UNL A   1      39.459  31.147  33.897  1.00  0.00     0.167 HD
ATOM     40  C   UNL A   1      40.366  33.082  37.727  1.00  0.00     0.037 A 
ATOM     41  C   UNL A   1      39.996  29.483  31.723  1.00  0.00     0.037 A 
ATOM     42  C   UNL A   1      41.473  32.196  37.482  1.00  0.00     0.049 A 
ATOM     43  C   UNL A   1      41.163  29.344  32.663  1.00  0.00     0.074 A 
ATOM     44  C   UNL A   1      42.573  31.943  38.283  1.00  0.00     0.029 A 
ATOM     45  N   UNL A   1      41.615  31.409  36.348  1.00  0.00    -0.354 N 
ATOM     46  N   UNL A   1      41.368  29.925  33.819  1.00  0.00    -0.248 NA
ATOM     47  C   UNL A   1      42.246  28.443  32.243  1.00  0.00     0.031 C 
ATOM     48  C   UNL A   1      43.396  31.028  37.618  1.00  0.00     0.029 A 
ATOM     49  C   UNL A   1      42.791  30.681  36.421  1.00  0.00     0.049 A 
ATOM     50  H   UNL A   1      40.974  31.373  35.601  1.00  0.00     0.167 HD
ATOM     51  C   UNL A   1      42.589  29.450  34.275  1.00  0.00     0.074 A 
ATOM     52  C   UNL A   1      43.074  28.520  33.275  1.00  0.00     0.031 C 
ATOM     53  C   UNL A   1      43.252  29.758  35.417  1.00  0.00     0.037 A 
BRANCH  40  54
ATOM     54  C   UNL A   1      40.367  33.889  38.990  1.00  0.00     0.064 A 
ATOM     55  C   UNL A   1      39.719  33.444  40.151  1.00  0.00     0.173 A 
ATOM     56  C   UNL A   1      41.049  35.114  39.043  1.00  0.00     0.173 A 
ATOM     57  F   UNL A   1      39.041  32.288  40.145  1.00  0.00    -0.203 F 
ATOM     58  C   UNL A   1      39.738  34.210  41.316  1.00  0.00     0.198 A 
ATOM     59  C   UNL A   1      41.085  35.864  40.216  1.00  0.00     0.198 A 
ATOM     60  F   UNL A   1      41.686  35.581  37.959  1.00  0.00    -0.203 F 
ATOM     61  F   UNL A   1      39.079  33.786  42.404  1.00  0.00    -0.200 F 
ATOM     62  C   UNL A   1      40.425  35.414  41.349  1.00  0.00     0.200 A 
ATOM     63  F   UNL A   1      41.756  37.023  40.248  1.00  0.00    -0.200 F 
ATOM     64  F   UNL A   1      40.445  36.145  42.471  1.00  0.00    -0.200 F 
ENDBRANCH  40  54
BRANCH  41  65
ATOM     65  C   UNL A   1      39.950  28.729  30.445  1.00  0.00     0.064 A 
ATOM     66  C   UNL A   1      39.315  27.482  30.365  1.00  0.00     0.173 A 
ATOM     67  C   UNL A   1      40.541  29.238  29.280  1.00  0.00     0.173 A 
ATOM     68  F   UNL A   1      38.760  26.942  31.460  1.00  0.00    -0.203 F 
ATOM     69  C   UNL A   1      39.282  26.768  29.169  1.00  0.00     0.198 A 
ATOM     70  C   UNL A   1      40.484  28.536  28.078  1.00  0.00     0.198 A 
ATOM     71  F   UNL A   1      41.165  30.424  29.306  1.00  0.00    -0.203 F 
ATOM     72  F   UNL A   1      38.703  25.560  29.128  1.00  0.00    -0.200 F 
ATOM     73  C   UNL A   1      39.860  27.299  28.025  1.00  0.00     0.200 A 
ATOM     74  F   UNL A   1      41.035  29.056  26.973  1.00  0.00    -0.200 F 
ATOM     75  F   UNL A   1      39.824  26.614  26.874  1.00  0.00    -0.200 F 
ENDBRANCH  41  65
BRANCH  53  76
ATOM     76  C   UNL A   1      44.557  29.062  35.657  1.00  0.00     0.064 A 
ATOM     77  C   UNL A   1      44.620  27.832  36.328  1.00  0.00     0.173 A 
ATOM     78  C   UNL A   1      45.754  29.612  35.177  1.00  0.00     0.173 A 
ATOM     79  F   UNL A   1      43.502  27.275  36.820  1.00  0.00    -0.203 F 
ATOM     80  C   UNL A   1      45.837  27.188  36.528  1.00  0.00     0.198 A 
ATOM     81  C   UNL A   1      46.968  28.954  35.356  1.00  0.00     0.198 A 
ATOM     82  F   UNL A   1      45.746  30.784  34.524  1.00  0.00    -0.203 F 
ATOM     83  F   UNL A   1      45.879  26.034  37.207  1.00  0.00    -0.200 F 
ATOM     84  C   UNL A   1      47.009  27.746  36.037  1.00  0.00     0.200 A 
ATOM     85  F   UNL A   1      48.098  29.489  34.874  1.00  0.00    -0.200 F 
ATOM     86  F   UNL A   1      48.179  27.122  36.226  1.00  0.00    -0.200 F 
ENDBRANCH  53  76
ENDBRANCH  27  28
ENDBRANCH  20  22
ENDBRANCH  19  20
ENDBRANCH  18  19
ENDBRANCH   1  18
TORSDOF 15
ENDMDL
MODEL 2
REMARK VINA RESULT:     -10.3      3.380      9.080
REMARK SMILES CC(C)Cc1ccc([C@H](CF)C(=O)OCCOC(=O)c2ccc(-c3c4nc(c(-c5c(F)c(F)c(F)c(F)c5F)c5ccc([nH]5)c(-c5c(F)c(F)c(F)c(F)c5F)c5nc(c(-c6c(F)c(F)c(F)c(F)c6F)c6ccc3[nH]6)C=C5)C=C4)cc2)cc1
REMARK SMILES IDX 15 1 14 2 12 3 13 4 9 5 8 6 5 7 6 8 84 9 7 10 83 11 4 12
REMARK SMILES IDX 2 13 1 14 3 15 10 16 11 17 16 18 17 19 18 20 19 21 20 22
REMARK SMILES IDX 21 23 82 24 22 25 81 26 23 27 24 28 25 29 75 30 26 31 80 32
REMARK SMILES IDX 74 33 76 34 27 35 79 36 73 37 72 38 28 40 60 41 40 42 59 43
REMARK SMILES IDX 41 44 44 45 58 46 77 47 42 48 43 49 57 51 78 52 45 53 29 54
REMARK SMILES IDX 30 55 38 56 31 57 32 58 36 59 39 60 33 61 34 62 37 63 35 64
REMARK SMILES IDX 61 65 62 66 70 67 63 68 64 69 68 70 71 71 65 72 66 73 69 74
REMARK SMILES IDX 67 75 46 76 47 77 55 78 48 79 49 80 53 81 56 82 50 83 51 84
REMARK SMILES IDX 54 85 52 86
REMARK H PARENT 76 39 44 50
REMARK Flexibility Score: inf
ROOT
ATOM      1  C   UNL A   1      32.049  27.893  26.704  1.00  0.00     0.274 C 
ENDROOT
BRANCH   1   2
ATOM      2  O   UNL A   1      30.813  27.163  26.838  1.00  0.00    -0.462 OA
BRANCH   2   3
ATOM      3  C   UNL A   1      30.709  26.041  26.078  1.00  0.00     0.316 C 
ATOM      4  O   UNL A   1      30.350  24.947  26.509  1.00  0.00    -0.251 OA
BRANCH   3   5
ATOM      5  C   UNL A   1      31.156  26.236  24.635  1.00  0.00     0.160 C 
BRANCH   5   6
ATOM      6  C   UNL A   1      30.242  27.219  23.935  1.00  0.00    -0.031 A 
ATOM      7  C   UNL A   1      28.636  29.214  22.747  1.00  0.00    -0.048 A 
ATOM      8  C   UNL A   1      30.029  29.340  22.760  1.00  0.00     0.004 A 
ATOM      9  C   UNL A   1      28.067  28.044  23.262  1.00  0.00     0.004 A 
ATOM     10  C   UNL A   1      30.820  28.355  23.343  1.00  0.00     0.005 A 
ATOM     11  C   UNL A   1      28.855  27.067  23.874  1.00  0.00     0.005 A 
BRANCH   7  12
ATOM     12  C   UNL A   1      27.817  30.338  22.155  1.00  0.00     0.038 C 
BRANCH  12  13
ATOM     13  C   UNL A   1      28.596  31.563  21.634  1.00  0.00    -0.013 C 
ATOM     14  C   UNL A   1      28.029  32.102  20.318  1.00  0.00     0.008 C 
ATOM     15  C   UNL A   1      28.575  32.671  22.690  1.00  0.00     0.008 C 
ENDBRANCH  12  13
ENDBRANCH   7  12
ENDBRANCH   5   6
BRANCH   5  16
ATOM     16  C   UNL A   1      31.427  24.915  23.925  1.00  0.00     0.234 C 
ATOM     17  F   UNL A   1      30.789  24.936  22.719  1.00  0.00    -0.250 F 
ENDBRANCH   5  16
ENDBRANCH   3   5
ENDBRANCH   2   3
ENDBRANCH   1   2
BRANCH   1  18
ATOM     18  C   UNL A   1      31.832  29.408  26.761  1.00  0.00     0.275 C 
BRANCH  18  19
ATOM     19  O   UNL A   1      32.987  30.124  26.288  1.00  0.00    -0.458 OA
BRANCH  19  20
ATOM     20  C   UNL A   1      33.349  31.194  27.034  1.00  0.00     0.338 C 
ATOM     21  O   UNL A   1      32.703  32.204  27.244  1.00  0.00    -0.246 OA
BRANCH  20  22
ATOM     22  C   UNL A   1      34.654  30.929  27.657  1.00  0.00     0.060 A 
ATOM     23  C   UNL A   1      34.982  29.614  27.991  1.00  0.00     0.016 A 
ATOM     24  C   UNL A   1      35.508  31.974  28.003  1.00  0.00     0.016 A 
ATOM     25  C   UNL A   1      36.160  29.327  28.671  1.00  0.00     0.010 A 
ATOM     26  C   UNL A   1      36.697  31.689  28.684  1.00  0.00     0.010 A 
ATOM     27  C   UNL A   1      37.023  30.366  29.031  1.00  0.00    -0.014 A 
BRANCH  27  28
ATOM     28  C   UNL A   1      38.223  30.065  29.842  1.00  0.00     0.031 A 
ATOM     29  C   UNL A   1      39.277  29.150  29.291  1.00  0.00     0.074 A 
ATOM     30  C   UNL A   1      38.386  30.638  31.048  1.00  0.00     0.049 A 
ATOM     31  N   UNL A   1      40.338  28.659  29.877  1.00  0.00    -0.248 NA
ATOM     32  C   UNL A   1      39.113  28.735  27.890  1.00  0.00     0.031 C 
ATOM     33  C   UNL A   1      37.469  31.602  31.655  1.00  0.00     0.029 A 
ATOM     34  N   UNL A   1      39.382  30.490  31.979  1.00  0.00    -0.354 N 
ATOM     35  C   UNL A   1      40.951  27.851  28.928  1.00  0.00     0.074 A 
ATOM     36  C   UNL A   1      40.143  27.915  27.729  1.00  0.00     0.031 C 
ATOM     37  C   UNL A   1      37.945  31.959  32.859  1.00  0.00     0.029 A 
ATOM     38  C   UNL A   1      39.168  31.208  33.128  1.00  0.00     0.049 A 
ATOM     39  H   UNL A   1      40.174  29.923  31.837  1.00  0.00     0.167 HD
ATOM     40  C   UNL A   1      42.084  27.122  29.054  1.00  0.00     0.037 A 
ATOM     41  C   UNL A   1      39.862  31.228  34.282  1.00  0.00     0.037 A 
ATOM     42  C   UNL A   1      42.896  27.084  30.242  1.00  0.00     0.049 A 
ATOM     43  C   UNL A   1      41.085  30.361  34.417  1.00  0.00     0.074 A 
ATOM     44  C   UNL A   1      44.062  26.373  30.471  1.00  0.00     0.029 A 
ATOM     45  N   UNL A   1      42.628  27.797  31.401  1.00  0.00    -0.354 N 
ATOM     46  N   UNL A   1      41.635  29.564  33.534  1.00  0.00    -0.248 NA
ATOM     47  C   UNL A   1      41.774  30.387  35.715  1.00  0.00     0.031 C 
ATOM     48  C   UNL A   1      44.479  26.632  31.781  1.00  0.00     0.029 A 
ATOM     49  C   UNL A   1      43.597  27.533  32.354  1.00  0.00     0.049 A 
ATOM     50  H   UNL A   1      41.861  28.402  31.527  1.00  0.00     0.167 HD
ATOM     51  C   UNL A   1      42.741  29.006  34.160  1.00  0.00     0.074 A 
ATOM     52  C   UNL A   1      42.793  29.569  35.494  1.00  0.00     0.031 C 
ATOM     53  C   UNL A   1      43.632  28.107  33.674  1.00  0.00     0.037 A 
BRANCH  40  54
ATOM     54  C   UNL A   1      42.491  26.273  27.887  1.00  0.00     0.064 A 
ATOM     55  C   UNL A   1      41.936  25.005  27.668  1.00  0.00     0.173 A 
ATOM     56  C   UNL A   1      43.432  26.750  26.963  1.00  0.00     0.173 A 
ATOM     57  F   UNL A   1      41.044  24.498  28.532  1.00  0.00    -0.203 F 
ATOM     58  C   UNL A   1      42.326  24.235  26.573  1.00  0.00     0.198 A 
ATOM     59  C   UNL A   1      43.802  25.988  25.858  1.00  0.00     0.198 A 
ATOM     60  F   UNL A   1      43.990  27.958  27.129  1.00  0.00    -0.203 F 
ATOM     61  F   UNL A   1      41.813  23.008  26.402  1.00  0.00    -0.200 F 
ATOM     62  C   UNL A   1      43.253  24.729  25.667  1.00  0.00     0.200 A 
ATOM     63  F   UNL A   1      44.690  26.470  24.980  1.00  0.00    -0.200 F 
ATOM     64  F   UNL A   1      43.622  23.989  24.614  1.00  0.00    -0.200 F 
ENDBRANCH  40  54
BRANCH  41  65
ATOM     65  C   UNL A   1      39.396  32.072  35.411  1.00  0.00     0.064 A 
ATOM     66  C   UNL A   1      39.784  33.414  35.518  1.00  0.00     0.173 A 
ATOM     67  C   UNL A   1      38.555  31.553  36.407  1.00  0.00     0.173 A 
ATOM     68  F   UNL A   1      40.611  33.946  34.606  1.00  0.00    -0.203 F 
ATOM     69  C   UNL A   1      39.357  34.203  36.585  1.00  0.00     0.198 A 
ATOM     70  C   UNL A   1      38.106  32.350  37.458  1.00  0.00     0.198 A 
ATOM     71  F   UNL A   1      38.159  30.273  36.353  1.00  0.00    -0.203 F 
ATOM     72  F   UNL A   1      39.774  35.472  36.685  1.00  0.00    -0.200 F 
ATOM     73  C   UNL A   1      38.513  33.672  37.549  1.00  0.00     0.200 A 
ATOM     74  F   UNL A   1      37.283  31.836  38.382  1.00  0.00    -0.200 F 
ATOM     75  F   UNL A   1      38.098  34.433  38.571  1.00  0.00    -0.200 F 
ENDBRANCH  41  65
BRANCH  53  76
ATOM     76  C   UNL A   1      44.753  27.699  34.582  1.00  0.00     0.064 A 
ATOM     77  C   UNL A   1      44.648  26.576  35.416  1.00  0.00     0.173 A 
ATOM     78  C   UNL A   1      45.957  28.417  34.591  1.00  0.00     0.173 A 
ATOM     79  F   UNL A   1      43.509  25.868  35.454  1.00  0.00    -0.203 F 
ATOM     80  C   UNL A   1      45.704  26.199  36.241  1.00  0.00     0.198 A 
ATOM     81  C   UNL A   1      47.020  28.023  35.398  1.00  0.00     0.198 A 
ATOM     82  F   UNL A   1      46.107  29.496  33.807  1.00  0.00    -0.203 F 
ATOM     83  F   UNL A   1      45.570  25.147  37.059  1.00  0.00    -0.200 F 
ATOM     84  C   UNL A   1      46.890  26.918  36.227  1.00  0.00     0.200 A 
ATOM     85  F   UNL A   1      48.169  28.713  35.377  1.00  0.00    -0.200 F 
ATOM     86  F   UNL A   1      47.907  26.550  37.018  1.00  0.00    -0.200 F 
ENDBRANCH  53  76
ENDBRANCH  27  28
ENDBRANCH  20  22
ENDBRANCH  19  20
ENDBRANCH  18  19
ENDBRANCH   1  18
TORSDOF 15
ENDMDL
MODEL 3
REMARK VINA RESULT:     -10.3      3.409      6.151
REMARK SMILES CC(C)Cc1ccc([C@H](CF)C(=O)OCCOC(=O)c2ccc(-c3c4nc(c(-c5c(F)c(F)c(F)c(F)c5F)c5ccc([nH]5)c(-c5c(F)c(F)c(F)c(F)c5F)c5nc(c(-c6c(F)c(F)c(F)c(F)c6F)c6ccc3[nH]6)C=C5)C=C4)cc2)cc1
REMARK SMILES IDX 15 1 14 2 12 3 13 4 9 5 8 6 5 7 6 8 84 9 7 10 83 11 4 12
REMARK SMILES IDX 2 13 1 14 3 15 10 16 11 17 16 18 17 19 18 20 19 21 20 22
REMARK SMILES IDX 21 23 82 24 22 25 81 26 23 27 24 28 25 29 75 30 26 31 80 32
REMARK SMILES IDX 74 33 76 34 27 35 79 36 73 37 72 38 28 40 60 41 40 42 59 43
REMARK SMILES IDX 41 44 44 45 58 46 77 47 42 48 43 49 57 51 78 52 45 53 29 54
REMARK SMILES IDX 30 55 38 56 31 57 32 58 36 59 39 60 33 61 34 62 37 63 35 64
REMARK SMILES IDX 61 65 62 66 70 67 63 68 64 69 68 70 71 71 65 72 66 73 69 74
REMARK SMILES IDX 67 75 46 76 47 77 55 78 48 79 49 80 53 81 56 82 50 83 51 84
REMARK SMILES IDX 54 85 52 86
REMARK H PARENT 76 39 44 50
REMARK Flexibility Score: inf
ROOT
ATOM      1  C   UNL A   1      33.776  34.239  29.190  1.00  0.00     0.274 C 
ENDROOT
BRANCH   1   2
ATOM      2  O   UNL A   1      33.921  33.563  30.456  1.00  0.00    -0.462 OA
BRANCH   2   3
ATOM      3  C   UNL A   1      34.572  34.262  31.423  1.00  0.00     0.316 C 
ATOM      4  O   UNL A   1      34.347  35.439  31.694  1.00  0.00    -0.251 OA
BRANCH   3   5
ATOM      5  C   UNL A   1      35.679  33.470  32.108  1.00  0.00     0.160 C 
BRANCH   5   6
ATOM      6  C   UNL A   1      36.999  33.701  31.403  1.00  0.00    -0.031 A 
ATOM      7  C   UNL A   1      39.453  34.343  30.163  1.00  0.00    -0.048 A 
ATOM      8  C   UNL A   1      39.253  34.611  31.522  1.00  0.00     0.004 A 
ATOM      9  C   UNL A   1      38.441  33.679  29.459  1.00  0.00     0.004 A 
ATOM     10  C   UNL A   1      38.044  34.292  32.133  1.00  0.00     0.005 A 
ATOM     11  C   UNL A   1      37.217  33.384  30.061  1.00  0.00     0.005 A 
BRANCH   7  12
ATOM     12  C   UNL A   1      40.760  34.762  29.531  1.00  0.00     0.038 C 
BRANCH  12  13
ATOM     13  C   UNL A   1      42.050  34.242  30.198  1.00  0.00    -0.013 C 
ATOM     14  C   UNL A   1      42.289  32.753  29.931  1.00  0.00     0.008 C 
ATOM     15  C   UNL A   1      43.248  35.049  29.694  1.00  0.00     0.008 C 
ENDBRANCH  12  13
ENDBRANCH   7  12
ENDBRANCH   5   6
BRANCH   5  16
ATOM     16  C   UNL A   1      35.280  32.023  32.376  1.00  0.00     0.234 C 
ATOM     17  F   UNL A   1      36.318  31.400  33.005  1.00  0.00    -0.250 F 
ENDBRANCH   5  16
ENDBRANCH   3   5
ENDBRANCH   2   3
ENDBRANCH   1   2
BRANCH   1  18
ATOM     18  C   UNL A   1      33.587  33.255  28.032  1.00  0.00     0.275 C 
BRANCH  18  19
ATOM     19  O   UNL A   1      34.769  32.462  27.816  1.00  0.00    -0.458 OA
BRANCH  19  20
ATOM     20  C   UNL A   1      34.590  31.124  27.907  1.00  0.00     0.338 C 
ATOM     21  O   UNL A   1      33.590  30.489  27.627  1.00  0.00    -0.246 OA
BRANCH  20  22
ATOM     22  C   UNL A   1      35.851  30.495  28.328  1.00  0.00     0.060 A 
ATOM     23  C   UNL A   1      35.884  29.811  29.544  1.00  0.00     0.016 A 
ATOM     24  C   UNL A   1      37.017  30.662  27.584  1.00  0.00     0.016 A 
ATOM     25  C   UNL A   1      37.075  29.287  30.031  1.00  0.00     0.010 A 
ATOM     26  C   UNL A   1      38.218  30.131  28.069  1.00  0.00     0.010 A 
ATOM     27  C   UNL A   1      38.255  29.452  29.300  1.00  0.00    -0.014 A 
BRANCH  27  28
ATOM     28  C   UNL A   1      39.536  28.980  29.871  1.00  0.00     0.031 A 
ATOM     29  C   UNL A   1      40.125  29.693  31.052  1.00  0.00     0.074 A 
ATOM     30  C   UNL A   1      40.147  27.896  29.359  1.00  0.00     0.049 A 
ATOM     31  N   UNL A   1      41.288  29.524  31.628  1.00  0.00    -0.248 NA
ATOM     32  C   UNL A   1      39.290  30.735  31.669  1.00  0.00     0.031 C 
ATOM     33  C   UNL A   1      39.631  27.076  28.263  1.00  0.00     0.029 A 
ATOM     34  N   UNL A   1      41.336  27.300  29.695  1.00  0.00    -0.354 N 
ATOM     35  C   UNL A   1      41.339  30.460  32.652  1.00  0.00     0.074 A 
ATOM     36  C   UNL A   1      40.093  31.195  32.620  1.00  0.00     0.031 C 
ATOM     37  C   UNL A   1      40.501  26.083  28.016  1.00  0.00     0.029 A 
ATOM     38  C   UNL A   1      41.656  26.231  28.897  1.00  0.00     0.049 A 
ATOM     39  H   UNL A   1      41.905  27.610  30.436  1.00  0.00     0.167 HD
ATOM     40  C   UNL A   1      42.340  30.683  33.536  1.00  0.00     0.037 A 
ATOM     41  C   UNL A   1      42.773  25.480  28.858  1.00  0.00     0.037 A 
ATOM     42  C   UNL A   1      43.566  29.930  33.578  1.00  0.00     0.049 A 
ATOM     43  C   UNL A   1      43.896  25.787  29.812  1.00  0.00     0.074 A 
ATOM     44  C   UNL A   1      44.645  30.080  34.432  1.00  0.00     0.029 A 
ATOM     45  N   UNL A   1      43.871  28.876  32.729  1.00  0.00    -0.354 N 
ATOM     46  N   UNL A   1      43.959  26.702  30.748  1.00  0.00    -0.248 NA
ATOM     47  C   UNL A   1      45.110  24.966  29.692  1.00  0.00     0.031 C 
ATOM     48  C   UNL A   1      45.616  29.137  34.078  1.00  0.00     0.029 A 
ATOM     49  C   UNL A   1      45.127  28.375  33.029  1.00  0.00     0.049 A 
ATOM     50  H   UNL A   1      43.282  28.535  32.018  1.00  0.00     0.167 HD
ATOM     51  C   UNL A   1      45.206  26.558  31.340  1.00  0.00     0.074 A 
ATOM     52  C   UNL A   1      45.863  25.456  30.666  1.00  0.00     0.031 C 
ATOM     53  C   UNL A   1      45.760  27.275  32.349  1.00  0.00     0.037 A 
BRANCH  40  54
ATOM     54  C   UNL A   1      42.166  31.814  34.504  1.00  0.00     0.064 A 
ATOM     55  C   UNL A   1      41.497  31.645  35.725  1.00  0.00     0.173 A 
ATOM     56  C   UNL A   1      42.700  33.078  34.214  1.00  0.00     0.173 A 
ATOM     57  F   UNL A   1      40.955  30.459  36.040  1.00  0.00    -0.203 F 
ATOM     58  C   UNL A   1      41.352  32.710  36.612  1.00  0.00     0.198 A 
ATOM     59  C   UNL A   1      42.573  34.133  35.114  1.00  0.00     0.198 A 
ATOM     60  F   UNL A   1      43.350  33.289  33.060  1.00  0.00    -0.203 F 
ATOM     61  F   UNL A   1      40.675  32.538  37.756  1.00  0.00    -0.200 F 
ATOM     62  C   UNL A   1      41.895  33.950  36.309  1.00  0.00     0.200 A 
ATOM     63  F   UNL A   1      43.106  35.327  34.823  1.00  0.00    -0.200 F 
ATOM     64  F   UNL A   1      41.757  34.970  37.165  1.00  0.00    -0.200 F 
ENDBRANCH  40  54
BRANCH  41  65
ATOM     65  C   UNL A   1      42.897  24.388  27.860  1.00  0.00     0.064 A 
ATOM     66  C   UNL A   1      43.364  24.644  26.564  1.00  0.00     0.173 A 
ATOM     67  C   UNL A   1      42.548  23.068  28.181  1.00  0.00     0.173 A 
ATOM     68  F   UNL A   1      43.682  25.895  26.202  1.00  0.00    -0.203 F 
ATOM     69  C   UNL A   1      43.468  23.621  25.623  1.00  0.00     0.198 A 
ATOM     70  C   UNL A   1      42.679  22.041  27.248  1.00  0.00     0.198 A 
ATOM     71  F   UNL A   1      42.091  22.773  29.407  1.00  0.00    -0.203 F 
ATOM     72  F   UNL A   1      43.880  23.898  24.378  1.00  0.00    -0.200 F 
ATOM     73  C   UNL A   1      43.132  22.321  25.969  1.00  0.00     0.200 A 
ATOM     74  F   UNL A   1      42.363  20.785  27.589  1.00  0.00    -0.200 F 
ATOM     75  F   UNL A   1      43.238  21.336  25.064  1.00  0.00    -0.200 F 
ENDBRANCH  41  65
BRANCH  53  76
ATOM     76  C   UNL A   1      47.130  26.872  32.800  1.00  0.00     0.064 A 
ATOM     77  C   UNL A   1      47.321  25.850  33.742  1.00  0.00     0.173 A 
ATOM     78  C   UNL A   1      48.267  27.488  32.257  1.00  0.00     0.173 A 
ATOM     79  F   UNL A   1      46.262  25.243  34.301  1.00  0.00    -0.203 F 
ATOM     80  C   UNL A   1      48.600  25.473  34.139  1.00  0.00     0.198 A 
ATOM     81  C   UNL A   1      49.546  27.092  32.637  1.00  0.00     0.198 A 
ATOM     82  F   UNL A   1      48.137  28.467  31.349  1.00  0.00    -0.203 F 
ATOM     83  F   UNL A   1      48.759  24.523  35.069  1.00  0.00    -0.200 F 
ATOM     84  C   UNL A   1      49.711  26.090  33.582  1.00  0.00     0.200 A 
ATOM     85  F   UNL A   1      50.619  27.681  32.092  1.00  0.00    -0.200 F 
ATOM     86  F   UNL A   1      50.943  25.722  33.961  1.00  0.00    -0.200 F 
ENDBRANCH  53  76
ENDBRANCH  27  28
ENDBRANCH  20  22
ENDBRANCH  19  20
ENDBRANCH  18  19
ENDBRANCH   1  18
TORSDOF 15
ENDMDL
