MODEL 1
REMARK VINA RESULT:     -10.5      0.000      0.000
REMARK SMILES Cc1ccc(OCCn2ccnc2)c(/C=C/C(=O)OCCOC(=O)c2ccc(-c3c4nc(c(-c5c(F)c(F)c(F)c(F)c5F)c5ccc([nH]5)c(-c5c(F)c(F)c(F)c(F)c5F)c5nc(c(-c6c(F)c(F)c(F)c(F)c6F)c6ccc3[nH]6)C=C5)C=C4)cc2)n1
REMARK SMILES IDX 19 1 17 2 18 3 16 4 15 5 14 6 1 7 2 8 3 9 88 10 4 11 5 12
REMARK SMILES IDX 6 13 7 14 8 15 9 16 10 17 13 18 11 19 12 20 20 21 21 22
REMARK SMILES IDX 22 23 23 24 24 25 25 26 26 27 87 28 27 29 86 30 28 31 29 32
REMARK SMILES IDX 30 33 80 34 31 35 85 36 79 37 81 38 32 39 84 40 78 41 77 42
REMARK SMILES IDX 33 44 65 45 45 46 64 47 46 48 49 49 63 50 82 51 47 52 48 53
REMARK SMILES IDX 62 55 83 56 50 57 34 58 35 59 43 60 36 61 37 62 41 63 44 64
REMARK SMILES IDX 38 65 39 66 42 67 40 68 66 69 67 70 75 71 68 72 69 73 73 74
REMARK SMILES IDX 76 75 70 76 71 77 74 78 72 79 51 80 52 81 60 82 53 83 54 84
REMARK SMILES IDX 58 85 61 86 55 87 56 88 59 89 57 90
REMARK H PARENT 81 43 49 54
REMARK Flexibility Score: inf
ROOT
ATOM      1  O   UNL A   1      43.150  19.831  25.189  1.00  0.00    -0.459 OA
ENDROOT
BRANCH   1   2
ATOM      2  C   UNL A   1      44.084  20.765  24.885  1.00  0.00     0.330 C 
ATOM      3  O   UNL A   1      44.711  20.840  23.835  1.00  0.00    -0.247 OA
BRANCH   2   4
ATOM      4  C   UNL A   1      44.215  21.782  25.944  1.00  0.00     0.096 C 
ATOM      5  C   UNL A   1      45.274  22.594  26.103  1.00  0.00     0.040 C 
BRANCH   5   6
ATOM      6  C   UNL A   1      45.435  23.485  27.266  1.00  0.00     0.105 A 
ATOM      7  C   UNL A   1      44.024  23.526  30.670  1.00  0.00     0.067 C 
ATOM      8  C   UNL A   1      44.882  23.879  29.494  1.00  0.00     0.038 A 
ATOM      9  C   UNL A   1      45.810  24.906  29.580  1.00  0.00     0.027 A 
ATOM     10  N   UNL A   1      44.720  23.143  28.372  1.00  0.00    -0.250 NA
ATOM     11  C   UNL A   1      46.526  25.260  28.440  1.00  0.00     0.050 A 
ATOM     12  C   UNL A   1      46.292  24.596  27.237  1.00  0.00     0.145 A 
BRANCH  12  13
ATOM     13  O   UNL A   1      46.831  24.980  26.037  1.00  0.00    -0.489 OA
BRANCH  13  14
ATOM     14  C   UNL A   1      47.271  26.341  25.911  1.00  0.00     0.251 C 
BRANCH  14  15
ATOM     15  C   UNL A   1      48.522  26.517  25.038  1.00  0.00     0.164 C 
BRANCH  15  16
ATOM     16  N   UNL A   1      48.283  27.186  23.776  1.00  0.00    -0.334 N 
ATOM     17  C   UNL A   1      49.118  27.195  22.693  1.00  0.00     0.107 A 
ATOM     18  C   UNL A   1      47.181  27.926  23.451  1.00  0.00     0.199 A 
ATOM     19  C   UNL A   1      48.425  27.874  21.717  1.00  0.00     0.130 A 
ATOM     20  N   UNL A   1      47.226  28.330  22.202  1.00  0.00    -0.245 NA
ENDBRANCH  15  16
ENDBRANCH  14  15
ENDBRANCH  13  14
ENDBRANCH  12  13
ENDBRANCH   5   6
ENDBRANCH   2   4
ENDBRANCH   1   2
BRANCH   1  21
ATOM     21  C   UNL A   1      42.412  20.059  26.400  1.00  0.00     0.275 C 
BRANCH  21  22
ATOM     22  C   UNL A   1      40.912  19.974  26.151  1.00  0.00     0.275 C 
BRANCH  22  23
ATOM     23  O   UNL A   1      40.160  20.821  27.022  1.00  0.00    -0.458 OA
BRANCH  23  24
ATOM     24  C   UNL A   1      39.485  21.813  26.396  1.00  0.00     0.338 C 
ATOM     25  O   UNL A   1      38.730  21.711  25.447  1.00  0.00    -0.246 OA
BRANCH  24  26
ATOM     26  C   UNL A   1      39.987  23.111  26.870  1.00  0.00     0.060 A 
ATOM     27  C   UNL A   1      41.088  23.119  27.734  1.00  0.00     0.016 A 
ATOM     28  C   UNL A   1      39.245  24.275  26.626  1.00  0.00     0.016 A 
ATOM     29  C   UNL A   1      41.411  24.288  28.402  1.00  0.00     0.010 A 
ATOM     30  C   UNL A   1      39.556  25.434  27.306  1.00  0.00     0.010 A 
ATOM     31  C   UNL A   1      40.622  25.428  28.207  1.00  0.00    -0.014 A 
BRANCH  31  32
ATOM     32  C   UNL A   1      41.057  26.685  28.800  1.00  0.00     0.031 A 
ATOM     33  C   UNL A   1      42.318  27.206  28.209  1.00  0.00     0.074 A 
ATOM     34  C   UNL A   1      40.279  27.394  29.643  1.00  0.00     0.049 A 
ATOM     35  N   UNL A   1      43.381  27.606  28.823  1.00  0.00    -0.248 NA
ATOM     36  C   UNL A   1      42.453  27.198  26.738  1.00  0.00     0.031 C 
ATOM     37  C   UNL A   1      38.896  27.076  30.013  1.00  0.00     0.029 A 
ATOM     38  N   UNL A   1      40.490  28.608  30.239  1.00  0.00    -0.354 N 
ATOM     39  C   UNL A   1      44.239  28.075  27.830  1.00  0.00     0.074 A 
ATOM     40  C   UNL A   1      43.690  27.661  26.571  1.00  0.00     0.031 C 
ATOM     41  C   UNL A   1      38.324  28.166  30.567  1.00  0.00     0.029 A 
ATOM     42  C   UNL A   1      39.322  29.215  30.689  1.00  0.00     0.049 A 
ATOM     43  H   UNL A   1      41.382  29.013  30.338  1.00  0.00     0.167 HD
ATOM     44  C   UNL A   1      45.165  29.025  28.120  1.00  0.00     0.037 A 
ATOM     45  C   UNL A   1      39.159  30.508  31.067  1.00  0.00     0.037 A 
ATOM     46  C   UNL A   1      45.429  29.070  29.532  1.00  0.00     0.049 A 
ATOM     47  C   UNL A   1      40.490  31.073  31.385  1.00  0.00     0.074 A 
ATOM     48  C   UNL A   1      46.134  28.321  30.445  1.00  0.00     0.029 A 
ATOM     49  N   UNL A   1      44.576  29.876  30.230  1.00  0.00    -0.354 N 
ATOM     50  N   UNL A   1      41.201  30.730  32.421  1.00  0.00    -0.248 NA
ATOM     51  C   UNL A   1      41.195  31.857  30.374  1.00  0.00     0.031 C 
ATOM     52  C   UNL A   1      45.574  28.619  31.723  1.00  0.00     0.029 A 
ATOM     53  C   UNL A   1      44.555  29.555  31.558  1.00  0.00     0.049 A 
ATOM     54  H   UNL A   1      44.042  30.599  29.828  1.00  0.00     0.167 HD
ATOM     55  C   UNL A   1      42.505  30.867  31.994  1.00  0.00     0.074 A 
ATOM     56  C   UNL A   1      42.444  31.737  30.830  1.00  0.00     0.031 C 
ATOM     57  C   UNL A   1      43.462  29.985  32.398  1.00  0.00     0.037 A 
BRANCH  44  58
ATOM     58  C   UNL A   1      45.417  30.250  27.255  1.00  0.00     0.064 A 
ATOM     59  C   UNL A   1      46.752  30.660  27.045  1.00  0.00     0.173 A 
ATOM     60  C   UNL A   1      44.433  31.213  26.936  1.00  0.00     0.173 A 
ATOM     61  F   UNL A   1      47.772  29.834  27.321  1.00  0.00    -0.203 F 
ATOM     62  C   UNL A   1      47.072  31.961  26.646  1.00  0.00     0.198 A 
ATOM     63  C   UNL A   1      44.758  32.494  26.492  1.00  0.00     0.198 A 
ATOM     64  F   UNL A   1      43.129  31.005  27.150  1.00  0.00    -0.203 F 
ATOM     65  F   UNL A   1      48.356  32.343  26.593  1.00  0.00    -0.200 F 
ATOM     66  C   UNL A   1      46.076  32.879  26.379  1.00  0.00     0.200 A 
ATOM     67  F   UNL A   1      43.776  33.377  26.259  1.00  0.00    -0.200 F 
ATOM     68  F   UNL A   1      46.380  34.146  26.065  1.00  0.00    -0.200 F 
ENDBRANCH  44  58
BRANCH  45  69
ATOM     69  C   UNL A   1      37.947  31.364  31.002  1.00  0.00     0.064 A 
ATOM     70  C   UNL A   1      37.232  31.693  32.168  1.00  0.00     0.173 A 
ATOM     71  C   UNL A   1      37.611  32.092  29.844  1.00  0.00     0.173 A 
ATOM     72  F   UNL A   1      37.510  31.079  33.328  1.00  0.00    -0.203 F 
ATOM     73  C   UNL A   1      36.272  32.710  32.183  1.00  0.00     0.198 A 
ATOM     74  C   UNL A   1      36.639  33.093  29.855  1.00  0.00     0.198 A 
ATOM     75  F   UNL A   1      38.282  31.914  28.697  1.00  0.00    -0.203 F 
ATOM     76  F   UNL A   1      35.668  33.042  33.332  1.00  0.00    -0.200 F 
ATOM     77  C   UNL A   1      35.983  33.415  31.027  1.00  0.00     0.200 A 
ATOM     78  F   UNL A   1      36.389  33.788  28.736  1.00  0.00    -0.200 F 
ATOM     79  F   UNL A   1      35.107  34.429  31.054  1.00  0.00    -0.200 F 
ENDBRANCH  45  69
BRANCH  57  80
ATOM     80  C   UNL A   1      43.264  29.302  33.711  1.00  0.00     0.064 A 
ATOM     81  C   UNL A   1      43.618  29.843  34.955  1.00  0.00     0.173 A 
ATOM     82  C   UNL A   1      42.617  28.057  33.700  1.00  0.00     0.173 A 
ATOM     83  F   UNL A   1      44.168  31.062  35.049  1.00  0.00    -0.203 F 
ATOM     84  C   UNL A   1      43.370  29.143  36.135  1.00  0.00     0.198 A 
ATOM     85  C   UNL A   1      42.333  27.382  34.879  1.00  0.00     0.198 A 
ATOM     86  F   UNL A   1      42.227  27.512  32.536  1.00  0.00    -0.203 F 
ATOM     87  F   UNL A   1      43.738  29.663  37.314  1.00  0.00    -0.200 F 
ATOM     88  C   UNL A   1      42.719  27.919  36.096  1.00  0.00     0.200 A 
ATOM     89  F   UNL A   1      41.666  26.220  34.837  1.00  0.00    -0.200 F 
ATOM     90  F   UNL A   1      42.449  27.264  37.233  1.00  0.00    -0.200 F 
ENDBRANCH  57  80
ENDBRANCH  31  32
ENDBRANCH  24  26
ENDBRANCH  23  24
ENDBRANCH  22  23
ENDBRANCH  21  22
ENDBRANCH   1  21
TORSDOF 16
ENDMDL
MODEL 2
REMARK VINA RESULT:     -10.5      3.697      6.958
REMARK SMILES Cc1ccc(OCCn2ccnc2)c(/C=C/C(=O)OCCOC(=O)c2ccc(-c3c4nc(c(-c5c(F)c(F)c(F)c(F)c5F)c5ccc([nH]5)c(-c5c(F)c(F)c(F)c(F)c5F)c5nc(c(-c6c(F)c(F)c(F)c(F)c6F)c6ccc3[nH]6)C=C5)C=C4)cc2)n1
REMARK SMILES IDX 19 1 17 2 18 3 16 4 15 5 14 6 1 7 2 8 3 9 88 10 4 11 5 12
REMARK SMILES IDX 6 13 7 14 8 15 9 16 10 17 13 18 11 19 12 20 20 21 21 22
REMARK SMILES IDX 22 23 23 24 24 25 25 26 26 27 87 28 27 29 86 30 28 31 29 32
REMARK SMILES IDX 30 33 80 34 31 35 85 36 79 37 81 38 32 39 84 40 78 41 77 42
REMARK SMILES IDX 33 44 65 45 45 46 64 47 46 48 49 49 63 50 82 51 47 52 48 53
REMARK SMILES IDX 62 55 83 56 50 57 34 58 35 59 43 60 36 61 37 62 41 63 44 64
REMARK SMILES IDX 38 65 39 66 42 67 40 68 66 69 67 70 75 71 68 72 69 73 73 74
REMARK SMILES IDX 76 75 70 76 71 77 74 78 72 79 51 80 52 81 60 82 53 83 54 84
REMARK SMILES IDX 58 85 61 86 55 87 56 88 59 89 57 90
REMARK H PARENT 81 43 49 54
REMARK Flexibility Score: inf
ROOT
ATOM      1  O   UNL A   1      35.708  22.763  24.906  1.00  0.00    -0.459 OA
ENDROOT
BRANCH   1   2
ATOM      2  C   UNL A   1      35.272  23.522  23.871  1.00  0.00     0.330 C 
ATOM      3  O   UNL A   1      35.418  23.267  22.681  1.00  0.00    -0.247 OA
BRANCH   2   4
ATOM      4  C   UNL A   1      34.491  24.685  24.328  1.00  0.00     0.096 C 
ATOM      5  C   UNL A   1      34.390  25.090  25.605  1.00  0.00     0.040 C 
BRANCH   5   6
ATOM      6  C   UNL A   1      33.474  26.160  26.039  1.00  0.00     0.105 A 
ATOM      7  C   UNL A   1      33.850  29.787  26.572  1.00  0.00     0.067 C 
ATOM      8  C   UNL A   1      33.208  28.441  26.429  1.00  0.00     0.038 A 
ATOM      9  C   UNL A   1      31.841  28.289  26.602  1.00  0.00     0.027 A 
ATOM     10  N   UNL A   1      34.016  27.406  26.107  1.00  0.00    -0.250 NA
ATOM     11  C   UNL A   1      31.296  27.008  26.545  1.00  0.00     0.050 A 
ATOM     12  C   UNL A   1      32.126  25.908  26.335  1.00  0.00     0.145 A 
BRANCH  12  13
ATOM     13  O   UNL A   1      31.703  24.607  26.423  1.00  0.00    -0.489 OA
BRANCH  13  14
ATOM     14  C   UNL A   1      30.608  24.205  25.586  1.00  0.00     0.251 C 
BRANCH  14  15
ATOM     15  C   UNL A   1      31.030  23.713  24.194  1.00  0.00     0.164 C 
BRANCH  15  16
ATOM     16  N   UNL A   1      31.665  22.411  24.186  1.00  0.00    -0.334 N 
ATOM     17  C   UNL A   1      31.888  21.611  25.272  1.00  0.00     0.107 A 
ATOM     18  C   UNL A   1      32.152  21.758  23.088  1.00  0.00     0.199 A 
ATOM     19  C   UNL A   1      32.425  20.454  24.756  1.00  0.00     0.130 A 
ATOM     20  N   UNL A   1      32.591  20.560  23.399  1.00  0.00    -0.245 NA
ENDBRANCH  15  16
ENDBRANCH  14  15
ENDBRANCH  13  14
ENDBRANCH  12  13
ENDBRANCH   5   6
ENDBRANCH   2   4
ENDBRANCH   1   2
BRANCH   1  21
ATOM     21  C   UNL A   1      36.026  21.399  24.588  1.00  0.00     0.275 C 
BRANCH  21  22
ATOM     22  C   UNL A   1      37.434  21.045  25.046  1.00  0.00     0.275 C 
BRANCH  22  23
ATOM     23  O   UNL A   1      37.953  21.973  26.001  1.00  0.00    -0.458 OA
BRANCH  23  24
ATOM     24  C   UNL A   1      39.280  21.851  26.238  1.00  0.00     0.338 C 
ATOM     25  O   UNL A   1      39.939  20.828  26.256  1.00  0.00    -0.246 OA
BRANCH  24  26
ATOM     26  C   UNL A   1      39.801  23.135  26.730  1.00  0.00     0.060 A 
ATOM     27  C   UNL A   1      40.946  23.120  27.533  1.00  0.00     0.016 A 
ATOM     28  C   UNL A   1      39.041  24.303  26.566  1.00  0.00     0.016 A 
ATOM     29  C   UNL A   1      41.299  24.267  28.224  1.00  0.00     0.010 A 
ATOM     30  C   UNL A   1      39.383  25.440  27.269  1.00  0.00     0.010 A 
ATOM     31  C   UNL A   1      40.496  25.408  28.111  1.00  0.00    -0.014 A 
BRANCH  31  32
ATOM     32  C   UNL A   1      40.955  26.647  28.724  1.00  0.00     0.031 A 
ATOM     33  C   UNL A   1      42.229  27.150  28.144  1.00  0.00     0.074 A 
ATOM     34  C   UNL A   1      40.190  27.361  29.575  1.00  0.00     0.049 A 
ATOM     35  N   UNL A   1      43.299  27.517  28.768  1.00  0.00    -0.248 NA
ATOM     36  C   UNL A   1      42.369  27.160  26.674  1.00  0.00     0.031 C 
ATOM     37  C   UNL A   1      38.800  27.067  29.936  1.00  0.00     0.029 A 
ATOM     38  N   UNL A   1      40.425  28.561  30.189  1.00  0.00    -0.354 N 
ATOM     39  C   UNL A   1      44.170  27.983  27.784  1.00  0.00     0.074 A 
ATOM     40  C   UNL A   1      43.616  27.599  26.517  1.00  0.00     0.031 C 
ATOM     41  C   UNL A   1      38.249  28.161  30.505  1.00  0.00     0.029 A 
ATOM     42  C   UNL A   1      39.270  29.187  30.645  1.00  0.00     0.049 A 
ATOM     43  H   UNL A   1      41.325  28.945  30.297  1.00  0.00     0.167 HD
ATOM     44  C   UNL A   1      45.115  28.908  28.090  1.00  0.00     0.037 A 
ATOM     45  C   UNL A   1      39.132  30.477  31.041  1.00  0.00     0.037 A 
ATOM     46  C   UNL A   1      45.375  28.927  29.503  1.00  0.00     0.049 A 
ATOM     47  C   UNL A   1      40.475  31.008  31.372  1.00  0.00     0.074 A 
ATOM     48  C   UNL A   1      46.061  28.149  30.408  1.00  0.00     0.029 A 
ATOM     49  N   UNL A   1      44.537  29.740  30.211  1.00  0.00    -0.354 N 
ATOM     50  N   UNL A   1      41.175  30.635  32.405  1.00  0.00    -0.248 NA
ATOM     51  C   UNL A   1      41.200  31.791  30.375  1.00  0.00     0.031 C 
ATOM     52  C   UNL A   1      45.504  28.440  31.688  1.00  0.00     0.029 A 
ATOM     53  C   UNL A   1      44.506  29.400  31.534  1.00  0.00     0.049 A 
ATOM     54  H   UNL A   1      44.020  30.480  29.818  1.00  0.00     0.167 HD
ATOM     55  C   UNL A   1      42.483  30.750  31.983  1.00  0.00     0.074 A 
ATOM     56  C   UNL A   1      42.444  31.638  30.832  1.00  0.00     0.031 C 
ATOM     57  C   UNL A   1      43.419  29.842  32.377  1.00  0.00     0.037 A 
BRANCH  44  58
ATOM     58  C   UNL A   1      45.396  30.139  27.244  1.00  0.00     0.064 A 
ATOM     59  C   UNL A   1      46.737  30.549  27.081  1.00  0.00     0.173 A 
ATOM     60  C   UNL A   1      44.424  31.107  26.903  1.00  0.00     0.173 A 
ATOM     61  F   UNL A   1      47.747  29.719  27.382  1.00  0.00    -0.203 F 
ATOM     62  C   UNL A   1      47.072  31.853  26.703  1.00  0.00     0.198 A 
ATOM     63  C   UNL A   1      44.765  32.391  26.479  1.00  0.00     0.198 A 
ATOM     64  F   UNL A   1      43.114  30.900  27.073  1.00  0.00    -0.203 F 
ATOM     65  F   UNL A   1      48.357  32.233  26.694  1.00  0.00    -0.200 F 
ATOM     66  C   UNL A   1      46.086  32.775  26.412  1.00  0.00     0.200 A 
ATOM     67  F   UNL A   1      43.792  33.278  26.223  1.00  0.00    -0.200 F 
ATOM     68  F   UNL A   1      46.402  34.044  26.118  1.00  0.00    -0.200 F 
ENDBRANCH  44  58
BRANCH  45  69
ATOM     69  C   UNL A   1      37.940  31.360  30.986  1.00  0.00     0.064 A 
ATOM     70  C   UNL A   1      37.429  31.807  29.754  1.00  0.00     0.173 A 
ATOM     71  C   UNL A   1      37.120  31.574  32.110  1.00  0.00     0.173 A 
ATOM     72  F   UNL A   1      38.124  31.612  28.623  1.00  0.00    -0.203 F 
ATOM     73  C   UNL A   1      36.164  32.395  29.649  1.00  0.00     0.198 A 
ATOM     74  C   UNL A   1      35.866  32.178  32.007  1.00  0.00     0.198 A 
ATOM     75  F   UNL A   1      37.473  31.119  33.321  1.00  0.00    -0.203 F 
ATOM     76  F   UNL A   1      35.685  32.737  28.445  1.00  0.00    -0.200 F 
ATOM     77  C   UNL A   1      35.380  32.571  30.776  1.00  0.00     0.200 A 
ATOM     78  F   UNL A   1      35.104  32.317  33.103  1.00  0.00    -0.200 F 
ATOM     79  F   UNL A   1      34.144  33.079  30.668  1.00  0.00    -0.200 F 
ENDBRANCH  45  69
BRANCH  57  80
ATOM     80  C   UNL A   1      43.203  29.143  33.679  1.00  0.00     0.064 A 
ATOM     81  C   UNL A   1      43.629  29.625  34.925  1.00  0.00     0.173 A 
ATOM     82  C   UNL A   1      42.460  27.953  33.658  1.00  0.00     0.173 A 
ATOM     83  F   UNL A   1      44.275  30.795  35.032  1.00  0.00    -0.203 F 
ATOM     84  C   UNL A   1      43.358  28.917  36.095  1.00  0.00     0.198 A 
ATOM     85  C   UNL A   1      42.154  27.273  34.829  1.00  0.00     0.198 A 
ATOM     86  F   UNL A   1      41.999  27.469  32.494  1.00  0.00    -0.203 F 
ATOM     87  F   UNL A   1      43.796  29.378  37.275  1.00  0.00    -0.200 F 
ATOM     88  C   UNL A   1      42.613  27.748  36.046  1.00  0.00     0.200 A 
ATOM     89  F   UNL A   1      41.398  26.168  34.779  1.00  0.00    -0.200 F 
ATOM     90  F   UNL A   1      42.321  27.088  37.175  1.00  0.00    -0.200 F 
ENDBRANCH  57  80
ENDBRANCH  31  32
ENDBRANCH  24  26
ENDBRANCH  23  24
ENDBRANCH  22  23
ENDBRANCH  21  22
ENDBRANCH   1  21
TORSDOF 16
ENDMDL
MODEL 3
REMARK VINA RESULT:     -10.4      4.326      7.483
REMARK SMILES Cc1ccc(OCCn2ccnc2)c(/C=C/C(=O)OCCOC(=O)c2ccc(-c3c4nc(c(-c5c(F)c(F)c(F)c(F)c5F)c5ccc([nH]5)c(-c5c(F)c(F)c(F)c(F)c5F)c5nc(c(-c6c(F)c(F)c(F)c(F)c6F)c6ccc3[nH]6)C=C5)C=C4)cc2)n1
REMARK SMILES IDX 19 1 17 2 18 3 16 4 15 5 14 6 1 7 2 8 3 9 88 10 4 11 5 12
REMARK SMILES IDX 6 13 7 14 8 15 9 16 10 17 13 18 11 19 12 20 20 21 21 22
REMARK SMILES IDX 22 23 23 24 24 25 25 26 26 27 87 28 27 29 86 30 28 31 29 32
REMARK SMILES IDX 30 33 80 34 31 35 85 36 79 37 81 38 32 39 84 40 78 41 77 42
REMARK SMILES IDX 33 44 65 45 45 46 64 47 46 48 49 49 63 50 82 51 47 52 48 53
REMARK SMILES IDX 62 55 83 56 50 57 34 58 35 59 43 60 36 61 37 62 41 63 44 64
REMARK SMILES IDX 38 65 39 66 42 67 40 68 66 69 67 70 75 71 68 72 69 73 73 74
REMARK SMILES IDX 76 75 70 76 71 77 74 78 72 79 51 80 52 81 60 82 53 83 54 84
REMARK SMILES IDX 58 85 61 86 55 87 56 88 59 89 57 90
REMARK H PARENT 81 43 49 54
REMARK Flexibility Score: inf
ROOT
ATOM      1  O   UNL A   1      35.708  23.402  24.675  1.00  0.00    -0.459 OA
ENDROOT
BRANCH   1   2
ATOM      2  C   UNL A   1      34.826  24.100  23.919  1.00  0.00     0.330 C 
ATOM      3  O   UNL A   1      34.467  23.814  22.783  1.00  0.00    -0.247 OA
BRANCH   2   4
ATOM      4  C   UNL A   1      34.241  25.235  24.657  1.00  0.00     0.096 C 
ATOM      5  C   UNL A   1      33.712  26.331  24.088  1.00  0.00     0.040 C 
BRANCH   5   6
ATOM      6  C   UNL A   1      33.283  27.510  24.861  1.00  0.00     0.105 A 
ATOM      7  C   UNL A   1      34.825  29.502  27.551  1.00  0.00     0.067 C 
ATOM      8  C   UNL A   1      33.865  29.079  26.482  1.00  0.00     0.038 A 
ATOM      9  C   UNL A   1      32.732  29.830  26.213  1.00  0.00     0.027 A 
ATOM     10  N   UNL A   1      34.170  27.958  25.791  1.00  0.00    -0.250 NA
ATOM     11  C   UNL A   1      31.822  29.358  25.271  1.00  0.00     0.050 A 
ATOM     12  C   UNL A   1      32.052  28.141  24.630  1.00  0.00     0.145 A 
BRANCH  12  13
ATOM     13  O   UNL A   1      31.139  27.526  23.814  1.00  0.00    -0.489 OA
BRANCH  13  14
ATOM     14  C   UNL A   1      30.589  28.294  22.733  1.00  0.00     0.251 C 
BRANCH  14  15
ATOM     15  C   UNL A   1      29.104  28.643  22.903  1.00  0.00     0.164 C 
BRANCH  15  16
ATOM     16  N   UNL A   1      28.766  30.010  22.563  1.00  0.00    -0.334 N 
ATOM     17  C   UNL A   1      28.833  31.092  23.397  1.00  0.00     0.107 A 
ATOM     18  C   UNL A   1      28.321  30.454  21.350  1.00  0.00     0.199 A 
ATOM     19  C   UNL A   1      28.508  32.169  22.606  1.00  0.00     0.130 A 
ATOM     20  N   UNL A   1      28.185  31.761  21.338  1.00  0.00    -0.245 NA
ENDBRANCH  15  16
ENDBRANCH  14  15
ENDBRANCH  13  14
ENDBRANCH  12  13
ENDBRANCH   5   6
ENDBRANCH   2   4
ENDBRANCH   1   2
BRANCH   1  21
ATOM     21  C   UNL A   1      35.910  22.033  24.290  1.00  0.00     0.275 C 
BRANCH  21  22
ATOM     22  C   UNL A   1      37.290  21.545  24.711  1.00  0.00     0.275 C 
BRANCH  22  23
ATOM     23  O   UNL A   1      37.743  22.151  25.924  1.00  0.00    -0.458 OA
BRANCH  23  24
ATOM     24  C   UNL A   1      39.062  21.984  26.176  1.00  0.00     0.338 C 
ATOM     25  O   UNL A   1      39.687  20.939  26.195  1.00  0.00    -0.246 OA
BRANCH  24  26
ATOM     26  C   UNL A   1      39.619  23.247  26.683  1.00  0.00     0.060 A 
ATOM     27  C   UNL A   1      40.762  23.190  27.487  1.00  0.00     0.016 A 
ATOM     28  C   UNL A   1      38.893  24.438  26.531  1.00  0.00     0.016 A 
ATOM     29  C   UNL A   1      41.146  24.319  28.192  1.00  0.00     0.010 A 
ATOM     30  C   UNL A   1      39.266  25.556  27.247  1.00  0.00     0.010 A 
ATOM     31  C   UNL A   1      40.376  25.484  28.090  1.00  0.00    -0.014 A 
BRANCH  31  32
ATOM     32  C   UNL A   1      40.869  26.702  28.718  1.00  0.00     0.031 A 
ATOM     33  C   UNL A   1      42.145  27.189  28.127  1.00  0.00     0.074 A 
ATOM     34  C   UNL A   1      40.132  27.416  29.592  1.00  0.00     0.049 A 
ATOM     35  N   UNL A   1      43.231  27.524  28.741  1.00  0.00    -0.248 NA
ATOM     36  C   UNL A   1      42.263  27.222  26.656  1.00  0.00     0.031 C 
ATOM     37  C   UNL A   1      38.741  27.145  29.969  1.00  0.00     0.029 A 
ATOM     38  N   UNL A   1      40.400  28.600  30.224  1.00  0.00    -0.354 N 
ATOM     39  C   UNL A   1      44.097  27.988  27.753  1.00  0.00     0.074 A 
ATOM     40  C   UNL A   1      43.517  27.639  26.488  1.00  0.00     0.031 C 
ATOM     41  C   UNL A   1      38.221  28.239  30.564  1.00  0.00     0.029 A 
ATOM     42  C   UNL A   1      39.264  29.241  30.707  1.00  0.00     0.049 A 
ATOM     43  H   UNL A   1      41.309  28.964  30.324  1.00  0.00     0.167 HD
ATOM     44  C   UNL A   1      45.065  28.889  28.061  1.00  0.00     0.037 A 
ATOM     45  C   UNL A   1      39.160  30.526  31.128  1.00  0.00     0.037 A 
ATOM     46  C   UNL A   1      45.346  28.877  29.470  1.00  0.00     0.049 A 
ATOM     47  C   UNL A   1      40.517  31.024  31.447  1.00  0.00     0.074 A 
ATOM     48  C   UNL A   1      46.029  28.070  30.351  1.00  0.00     0.029 A 
ATOM     49  N   UNL A   1      44.536  29.695  30.205  1.00  0.00    -0.354 N 
ATOM     50  N   UNL A   1      41.225  30.619  32.463  1.00  0.00    -0.248 NA
ATOM     51  C   UNL A   1      41.244  31.810  30.453  1.00  0.00     0.031 C 
ATOM     52  C   UNL A   1      45.496  28.350  31.645  1.00  0.00     0.029 A 
ATOM     53  C   UNL A   1      44.516  29.333  31.522  1.00  0.00     0.049 A 
ATOM     54  H   UNL A   1      44.028  30.452  29.832  1.00  0.00     0.167 HD
ATOM     55  C   UNL A   1      42.528  30.715  32.024  1.00  0.00     0.074 A 
ATOM     56  C   UNL A   1      42.491  31.624  30.889  1.00  0.00     0.031 C 
ATOM     57  C   UNL A   1      43.451  29.781  32.388  1.00  0.00     0.037 A 
BRANCH  44  58
ATOM     58  C   UNL A   1      45.359  30.129  27.232  1.00  0.00     0.064 A 
ATOM     59  C   UNL A   1      46.706  30.515  27.057  1.00  0.00     0.173 A 
ATOM     60  C   UNL A   1      44.403  31.121  26.921  1.00  0.00     0.173 A 
ATOM     61  F   UNL A   1      47.703  29.660  27.329  1.00  0.00    -0.203 F 
ATOM     62  C   UNL A   1      47.062  31.818  26.697  1.00  0.00     0.198 A 
ATOM     63  C   UNL A   1      44.763  32.405  26.515  1.00  0.00     0.198 A 
ATOM     64  F   UNL A   1      43.091  30.937  27.106  1.00  0.00    -0.203 F 
ATOM     65  F   UNL A   1      48.354  32.173  26.676  1.00  0.00    -0.200 F 
ATOM     66  C   UNL A   1      46.090  32.765  26.436  1.00  0.00     0.200 A 
ATOM     67  F   UNL A   1      43.804  33.316  26.288  1.00  0.00    -0.200 F 
ATOM     68  F   UNL A   1      46.427  34.032  26.159  1.00  0.00    -0.200 F 
ENDBRANCH  44  58
BRANCH  45  69
ATOM     69  C   UNL A   1      37.985  31.435  31.105  1.00  0.00     0.064 A 
ATOM     70  C   UNL A   1      37.447  31.890  29.887  1.00  0.00     0.173 A 
ATOM     71  C   UNL A   1      37.203  31.668  32.253  1.00  0.00     0.173 A 
ATOM     72  F   UNL A   1      38.104  31.678  28.737  1.00  0.00    -0.203 F 
ATOM     73  C   UNL A   1      36.192  32.504  29.819  1.00  0.00     0.198 A 
ATOM     74  C   UNL A   1      35.960  32.298  32.186  1.00  0.00     0.198 A 
ATOM     75  F   UNL A   1      37.583  31.209  33.454  1.00  0.00    -0.203 F 
ATOM     76  F   UNL A   1      35.685  32.854  28.629  1.00  0.00    -0.200 F 
ATOM     77  C   UNL A   1      35.446  32.699  30.968  1.00  0.00     0.200 A 
ATOM     78  F   UNL A   1      35.234  32.456  33.302  1.00  0.00    -0.200 F 
ATOM     79  F   UNL A   1      34.219  33.233  30.896  1.00  0.00    -0.200 F 
ENDBRANCH  45  69
BRANCH  57  80
ATOM     80  C   UNL A   1      43.239  29.065  33.681  1.00  0.00     0.064 A 
ATOM     81  C   UNL A   1      43.701  29.512  34.928  1.00  0.00     0.173 A 
ATOM     82  C   UNL A   1      42.465  27.895  33.652  1.00  0.00     0.173 A 
ATOM     83  F   UNL A   1      44.379  30.662  35.044  1.00  0.00    -0.203 F 
ATOM     84  C   UNL A   1      43.431  28.790  36.089  1.00  0.00     0.198 A 
ATOM     85  C   UNL A   1      42.163  27.202  34.816  1.00  0.00     0.198 A 
ATOM     86  F   UNL A   1      41.970  27.445  32.488  1.00  0.00    -0.203 F 
ATOM     87  F   UNL A   1      43.902  29.216  37.270  1.00  0.00    -0.200 F 
ATOM     88  C   UNL A   1      42.655  27.642  36.033  1.00  0.00     0.200 A 
ATOM     89  F   UNL A   1      41.376  26.118  34.760  1.00  0.00    -0.200 F 
ATOM     90  F   UNL A   1      42.366  26.969  37.155  1.00  0.00    -0.200 F 
ENDBRANCH  57  80
ENDBRANCH  31  32
ENDBRANCH  24  26
ENDBRANCH  23  24
ENDBRANCH  22  23
ENDBRANCH  21  22
ENDBRANCH   1  21
TORSDOF 16
ENDMDL
