MODEL 1
REMARK VINA RESULT:     -13.2      0.000      0.000
REMARK SMILES Cc1ccc(OC(F)(F)F)cc1C(=O)OCCOC(=O)c1ccc(-c2c3nc(c(-c4c(F)c(F)c(F)c(F)c4F)c4ccc([nH]4)c(-c4c(F)c(F)c(F)c(F)c4F)c4nc(c(-c5c(F)c(F)c(F)c(F)c5F)c5ccc2[nH]5)C=C4)C=C3)cc1
REMARK SMILES IDX 16 1 15 2 13 3 14 4 12 5 1 6 2 7 3 8 4 9 11 10 5 11 6 12
REMARK SMILES IDX 7 13 8 14 9 15 10 16 17 17 18 18 19 19 20 20 21 21 22 22
REMARK SMILES IDX 83 23 23 24 82 25 24 26 25 27 26 28 76 29 27 30 81 31 75 32
REMARK SMILES IDX 77 33 28 34 80 35 74 36 73 37 29 39 61 40 41 41 60 42 42 43
REMARK SMILES IDX 45 44 59 45 78 46 43 47 44 48 58 50 79 51 46 52 30 53 31 54
REMARK SMILES IDX 39 55 32 56 33 57 37 58 40 59 34 60 35 61 38 62 36 63 62 64
REMARK SMILES IDX 63 65 71 66 64 67 65 68 69 69 72 70 66 71 67 72 70 73 68 74
REMARK SMILES IDX 47 75 48 76 56 77 49 78 50 79 54 80 57 81 51 82 52 83 55 84
REMARK SMILES IDX 53 85
REMARK H PARENT 77 38 45 49
REMARK Flexibility Score: inf
ROOT
ATOM      1  C   UNL A   1      33.159  29.354  26.192  1.00  0.00     0.275 C 
ENDROOT
BRANCH   1   2
ATOM      2  O   UNL A   1      32.372  28.180  25.910  1.00  0.00    -0.458 OA
BRANCH   2   3
ATOM      3  C   UNL A   1      32.323  27.919  24.577  1.00  0.00     0.338 C 
ATOM      4  O   UNL A   1      33.287  27.581  23.902  1.00  0.00    -0.246 OA
BRANCH   3   5
ATOM      5  C   UNL A   1      31.017  28.137  23.918  1.00  0.00     0.066 A 
ATOM      6  C   UNL A   1      30.365  25.712  24.477  1.00  0.00     0.045 C 
ATOM      7  C   UNL A   1      30.053  27.110  24.009  1.00  0.00    -0.036 A 
ATOM      8  C   UNL A   1      28.746  27.370  23.577  1.00  0.00     0.008 A 
ATOM      9  C   UNL A   1      28.394  28.627  23.090  1.00  0.00     0.047 A 
ATOM     10  C   UNL A   1      30.668  29.395  23.388  1.00  0.00     0.062 A 
ATOM     11  C   UNL A   1      29.345  29.644  23.005  1.00  0.00     0.130 A 
BRANCH  11  12
ATOM     12  O   UNL A   1      28.892  30.812  22.460  1.00  0.00    -0.406 OA
BRANCH  12  13
ATOM     13  C   UNL A   1      28.483  31.809  23.389  1.00  0.00     0.573 C 
ATOM     14  F   UNL A   1      29.230  31.769  24.512  1.00  0.00    -0.132 F 
ATOM     15  F   UNL A   1      28.563  33.035  22.836  1.00  0.00    -0.132 F 
ATOM     16  F   UNL A   1      27.195  31.575  23.727  1.00  0.00    -0.132 F 
ENDBRANCH  12  13
ENDBRANCH  11  12
ENDBRANCH   3   5
ENDBRANCH   2   3
ENDBRANCH   1   2
BRANCH   1  17
ATOM     17  C   UNL A   1      34.506  29.097  26.882  1.00  0.00     0.275 C 
BRANCH  17  18
ATOM     18  O   UNL A   1      34.954  29.903  28.005  1.00  0.00    -0.458 OA
BRANCH  18  19
ATOM     19  C   UNL A   1      36.122  30.574  28.075  1.00  0.00     0.338 C 
ATOM     20  O   UNL A   1      36.207  31.784  27.891  1.00  0.00    -0.246 OA
BRANCH  19  21
ATOM     21  C   UNL A   1      37.315  29.754  28.333  1.00  0.00     0.060 A 
ATOM     22  C   UNL A   1      37.345  28.931  29.474  1.00  0.00     0.016 A 
ATOM     23  C   UNL A   1      38.326  29.705  27.377  1.00  0.00     0.016 A 
ATOM     24  C   UNL A   1      38.333  27.967  29.606  1.00  0.00     0.010 A 
ATOM     25  C   UNL A   1      39.214  28.666  27.428  1.00  0.00     0.010 A 
ATOM     26  C   UNL A   1      39.247  27.841  28.565  1.00  0.00    -0.014 A 
BRANCH  26  27
ATOM     27  C   UNL A   1      40.515  27.158  28.706  1.00  0.00     0.031 A 
ATOM     28  C   UNL A   1      40.660  25.727  28.411  1.00  0.00     0.074 A 
ATOM     29  C   UNL A   1      41.493  28.066  28.927  1.00  0.00     0.049 A 
ATOM     30  N   UNL A   1      41.665  25.022  28.786  1.00  0.00    -0.248 NA
ATOM     31  C   UNL A   1      39.667  24.926  27.704  1.00  0.00     0.031 C 
ATOM     32  C   UNL A   1      42.935  28.003  28.818  1.00  0.00     0.029 A 
ATOM     33  N   UNL A   1      41.259  29.355  29.455  1.00  0.00    -0.354 N 
ATOM     34  C   UNL A   1      41.628  23.827  28.093  1.00  0.00     0.074 A 
ATOM     35  C   UNL A   1      40.293  23.751  27.566  1.00  0.00     0.031 C 
ATOM     36  C   UNL A   1      43.456  29.006  29.558  1.00  0.00     0.029 A 
ATOM     37  C   UNL A   1      42.352  29.652  30.265  1.00  0.00     0.049 A 
ATOM     38  H   UNL A   1      40.478  29.930  29.285  1.00  0.00     0.167 HD
ATOM     39  C   UNL A   1      42.809  23.164  27.918  1.00  0.00     0.037 A 
ATOM     40  C   UNL A   1      42.137  29.633  31.614  1.00  0.00     0.037 A 
ATOM     41  C   UNL A   1      43.850  23.877  28.660  1.00  0.00     0.049 A 
ATOM     42  C   UNL A   1      42.877  28.464  32.214  1.00  0.00     0.074 A 
ATOM     43  C   UNL A   1      44.749  24.854  28.265  1.00  0.00     0.029 A 
ATOM     44  N   UNL A   1      43.754  23.957  30.045  1.00  0.00    -0.354 N 
ATOM     45  N   UNL A   1      43.030  27.304  31.630  1.00  0.00    -0.248 NA
ATOM     46  C   UNL A   1      43.624  28.589  33.458  1.00  0.00     0.031 C 
ATOM     47  C   UNL A   1      45.107  25.598  29.423  1.00  0.00     0.029 A 
ATOM     48  C   UNL A   1      44.431  25.069  30.513  1.00  0.00     0.049 A 
ATOM     49  H   UNL A   1      43.272  23.313  30.613  1.00  0.00     0.167 HD
ATOM     50  C   UNL A   1      43.955  26.579  32.334  1.00  0.00     0.074 A 
ATOM     51  C   UNL A   1      44.275  27.416  33.480  1.00  0.00     0.031 C 
ATOM     52  C   UNL A   1      44.458  25.372  31.933  1.00  0.00     0.037 A 
BRANCH  39  53
ATOM     53  C   UNL A   1      43.135  22.092  26.889  1.00  0.00     0.064 A 
ATOM     54  C   UNL A   1      42.486  20.834  26.962  1.00  0.00     0.173 A 
ATOM     55  C   UNL A   1      44.091  22.185  25.859  1.00  0.00     0.173 A 
ATOM     56  F   UNL A   1      41.507  20.603  27.848  1.00  0.00    -0.203 F 
ATOM     57  C   UNL A   1      42.812  19.756  26.132  1.00  0.00     0.198 A 
ATOM     58  C   UNL A   1      44.422  21.103  25.029  1.00  0.00     0.198 A 
ATOM     59  F   UNL A   1      44.730  23.324  25.585  1.00  0.00    -0.203 F 
ATOM     60  F   UNL A   1      42.174  18.586  26.278  1.00  0.00    -0.200 F 
ATOM     61  C   UNL A   1      43.790  19.886  25.172  1.00  0.00     0.200 A 
ATOM     62  F   UNL A   1      45.365  21.255  24.086  1.00  0.00    -0.200 F 
ATOM     63  F   UNL A   1      44.113  18.853  24.381  1.00  0.00    -0.200 F 
ENDBRANCH  39  53
BRANCH  40  64
ATOM     64  C   UNL A   1      40.784  30.149  32.029  1.00  0.00     0.064 A 
ATOM     65  C   UNL A   1      40.419  31.462  31.638  1.00  0.00     0.173 A 
ATOM     66  C   UNL A   1      39.756  29.348  32.541  1.00  0.00     0.173 A 
ATOM     67  F   UNL A   1      41.352  32.300  31.156  1.00  0.00    -0.203 F 
ATOM     68  C   UNL A   1      39.094  31.902  31.642  1.00  0.00     0.198 A 
ATOM     69  C   UNL A   1      38.426  29.805  32.575  1.00  0.00     0.198 A 
ATOM     70  F   UNL A   1      40.005  28.096  32.944  1.00  0.00    -0.203 F 
ATOM     71  F   UNL A   1      38.788  33.109  31.144  1.00  0.00    -0.200 F 
ATOM     72  C   UNL A   1      38.094  31.066  32.099  1.00  0.00     0.200 A 
ATOM     73  F   UNL A   1      37.447  28.989  32.995  1.00  0.00    -0.200 F 
ATOM     74  F   UNL A   1      36.813  31.454  32.041  1.00  0.00    -0.200 F 
ENDBRANCH  40  64
BRANCH  52  75
ATOM     75  C   UNL A   1      45.133  24.395  32.861  1.00  0.00     0.064 A 
ATOM     76  C   UNL A   1      46.408  24.614  33.405  1.00  0.00     0.173 A 
ATOM     77  C   UNL A   1      44.430  23.280  33.379  1.00  0.00     0.173 A 
ATOM     78  F   UNL A   1      47.113  25.718  33.122  1.00  0.00    -0.203 F 
ATOM     79  C   UNL A   1      46.981  23.730  34.315  1.00  0.00     0.198 A 
ATOM     80  C   UNL A   1      44.972  22.451  34.355  1.00  0.00     0.198 A 
ATOM     81  F   UNL A   1      43.184  22.980  32.985  1.00  0.00    -0.203 F 
ATOM     82  F   UNL A   1      48.232  23.945  34.744  1.00  0.00    -0.200 F 
ATOM     83  C   UNL A   1      46.259  22.657  34.802  1.00  0.00     0.200 A 
ATOM     84  F   UNL A   1      44.228  21.464  34.876  1.00  0.00    -0.200 F 
ATOM     85  F   UNL A   1      46.795  21.840  35.716  1.00  0.00    -0.200 F 
ENDBRANCH  52  75
ENDBRANCH  26  27
ENDBRANCH  19  21
ENDBRANCH  18  19
ENDBRANCH  17  18
ENDBRANCH   1  17
TORSDOF 13
ENDMDL
MODEL 2
REMARK VINA RESULT:     -13.1      0.515      1.755
REMARK SMILES Cc1ccc(OC(F)(F)F)cc1C(=O)OCCOC(=O)c1ccc(-c2c3nc(c(-c4c(F)c(F)c(F)c(F)c4F)c4ccc([nH]4)c(-c4c(F)c(F)c(F)c(F)c4F)c4nc(c(-c5c(F)c(F)c(F)c(F)c5F)c5ccc2[nH]5)C=C4)C=C3)cc1
REMARK SMILES IDX 16 1 15 2 13 3 14 4 12 5 1 6 2 7 3 8 4 9 11 10 5 11 6 12
REMARK SMILES IDX 7 13 8 14 9 15 10 16 17 17 18 18 19 19 20 20 21 21 22 22
REMARK SMILES IDX 83 23 23 24 82 25 24 26 25 27 26 28 76 29 27 30 81 31 75 32
REMARK SMILES IDX 77 33 28 34 80 35 74 36 73 37 29 39 61 40 41 41 60 42 42 43
REMARK SMILES IDX 45 44 59 45 78 46 43 47 44 48 58 50 79 51 46 52 30 53 31 54
REMARK SMILES IDX 39 55 32 56 33 57 37 58 40 59 34 60 35 61 38 62 36 63 62 64
REMARK SMILES IDX 63 65 71 66 64 67 65 68 69 69 72 70 66 71 67 72 70 73 68 74
REMARK SMILES IDX 47 75 48 76 56 77 49 78 50 79 54 80 57 81 51 82 52 83 55 84
REMARK SMILES IDX 53 85
REMARK H PARENT 77 38 45 49
REMARK Flexibility Score: inf
ROOT
ATOM      1  C   UNL A   1      32.881  29.356  26.384  1.00  0.00     0.275 C 
ENDROOT
BRANCH   1   2
ATOM      2  O   UNL A   1      32.442  28.028  26.037  1.00  0.00    -0.458 OA
BRANCH   2   3
ATOM      3  C   UNL A   1      32.443  27.837  24.691  1.00  0.00     0.338 C 
ATOM      4  O   UNL A   1      33.435  27.549  24.034  1.00  0.00    -0.246 OA
BRANCH   3   5
ATOM      5  C   UNL A   1      31.157  28.073  23.999  1.00  0.00     0.066 A 
ATOM      6  C   UNL A   1      30.464  25.653  24.531  1.00  0.00     0.045 C 
ATOM      7  C   UNL A   1      30.180  27.056  24.061  1.00  0.00    -0.036 A 
ATOM      8  C   UNL A   1      28.887  27.333  23.597  1.00  0.00     0.008 A 
ATOM      9  C   UNL A   1      28.562  28.596  23.106  1.00  0.00     0.047 A 
ATOM     10  C   UNL A   1      30.835  29.337  23.466  1.00  0.00     0.062 A 
ATOM     11  C   UNL A   1      29.526  29.602  23.050  1.00  0.00     0.130 A 
BRANCH  11  12
ATOM     12  O   UNL A   1      29.100  30.778  22.499  1.00  0.00    -0.406 OA
BRANCH  12  13
ATOM     13  C   UNL A   1      28.696  31.781  23.422  1.00  0.00     0.573 C 
ATOM     14  F   UNL A   1      27.384  31.676  23.719  1.00  0.00    -0.132 F 
ATOM     15  F   UNL A   1      29.423  31.706  24.554  1.00  0.00    -0.132 F 
ATOM     16  F   UNL A   1      28.907  32.991  22.858  1.00  0.00    -0.132 F 
ENDBRANCH  12  13
ENDBRANCH  11  12
ENDBRANCH   3   5
ENDBRANCH   2   3
ENDBRANCH   1   2
BRANCH   1  17
ATOM     17  C   UNL A   1      34.380  29.502  26.679  1.00  0.00     0.275 C 
BRANCH  17  18
ATOM     18  O   UNL A   1      34.861  30.123  27.902  1.00  0.00    -0.458 OA
BRANCH  18  19
ATOM     19  C   UNL A   1      36.018  30.803  28.036  1.00  0.00     0.338 C 
ATOM     20  O   UNL A   1      36.097  32.019  27.892  1.00  0.00    -0.246 OA
BRANCH  19  21
ATOM     21  C   UNL A   1      37.210  29.988  28.311  1.00  0.00     0.060 A 
ATOM     22  C   UNL A   1      37.223  29.160  29.449  1.00  0.00     0.016 A 
ATOM     23  C   UNL A   1      38.238  29.947  27.374  1.00  0.00     0.016 A 
ATOM     24  C   UNL A   1      38.213  28.200  29.596  1.00  0.00     0.010 A 
ATOM     25  C   UNL A   1      39.130  28.911  27.436  1.00  0.00     0.010 A 
ATOM     26  C   UNL A   1      39.146  28.082  28.570  1.00  0.00    -0.014 A 
BRANCH  26  27
ATOM     27  C   UNL A   1      40.415  27.403  28.731  1.00  0.00     0.031 A 
ATOM     28  C   UNL A   1      40.569  25.972  28.445  1.00  0.00     0.074 A 
ATOM     29  C   UNL A   1      41.387  28.316  28.961  1.00  0.00     0.049 A 
ATOM     30  N   UNL A   1      41.570  25.272  28.837  1.00  0.00    -0.248 NA
ATOM     31  C   UNL A   1      39.587  25.165  27.728  1.00  0.00     0.031 C 
ATOM     32  C   UNL A   1      42.830  28.257  28.871  1.00  0.00     0.029 A 
ATOM     33  N   UNL A   1      41.141  29.607  29.480  1.00  0.00    -0.354 N 
ATOM     34  C   UNL A   1      41.547  24.074  28.148  1.00  0.00     0.074 A 
ATOM     35  C   UNL A   1      40.219  23.991  27.604  1.00  0.00     0.031 C 
ATOM     36  C   UNL A   1      43.338  29.266  29.613  1.00  0.00     0.029 A 
ATOM     37  C   UNL A   1      42.222  29.911  30.303  1.00  0.00     0.049 A 
ATOM     38  H   UNL A   1      40.361  30.178  29.297  1.00  0.00     0.167 HD
ATOM     39  C   UNL A   1      42.732  23.413  27.992  1.00  0.00     0.037 A 
ATOM     40  C   UNL A   1      41.989  29.897  31.649  1.00  0.00     0.037 A 
ATOM     41  C   UNL A   1      43.761  24.134  28.745  1.00  0.00     0.049 A 
ATOM     42  C   UNL A   1      42.725  28.734  32.265  1.00  0.00     0.074 A 
ATOM     43  C   UNL A   1      44.661  25.112  28.357  1.00  0.00     0.029 A 
ATOM     44  N   UNL A   1      43.646  24.220  30.128  1.00  0.00    -0.354 N 
ATOM     45  N   UNL A   1      42.890  27.571  31.688  1.00  0.00    -0.248 NA
ATOM     46  C   UNL A   1      43.456  28.866  33.517  1.00  0.00     0.031 C 
ATOM     47  C   UNL A   1      45.002  25.862  29.516  1.00  0.00     0.029 A 
ATOM     48  C   UNL A   1      44.313  25.336  30.600  1.00  0.00     0.049 A 
ATOM     49  H   UNL A   1      43.158  23.577  30.693  1.00  0.00     0.167 HD
ATOM     50  C   UNL A   1      43.808  26.853  32.407  1.00  0.00     0.074 A 
ATOM     51  C   UNL A   1      44.110  27.696  33.554  1.00  0.00     0.031 C 
ATOM     52  C   UNL A   1      44.320  25.646  32.019  1.00  0.00     0.037 A 
BRANCH  39  53
ATOM     53  C   UNL A   1      43.075  22.339  26.973  1.00  0.00     0.064 A 
ATOM     54  C   UNL A   1      42.444  21.072  27.055  1.00  0.00     0.173 A 
ATOM     55  C   UNL A   1      44.032  22.437  25.943  1.00  0.00     0.173 A 
ATOM     56  F   UNL A   1      41.467  20.834  27.941  1.00  0.00    -0.203 F 
ATOM     57  C   UNL A   1      42.787  19.992  26.234  1.00  0.00     0.198 A 
ATOM     58  C   UNL A   1      44.380  21.353  25.122  1.00  0.00     0.198 A 
ATOM     59  F   UNL A   1      44.654  23.583  25.661  1.00  0.00    -0.203 F 
ATOM     60  F   UNL A   1      42.166  18.814  26.389  1.00  0.00    -0.200 F 
ATOM     61  C   UNL A   1      43.765  20.128  25.275  1.00  0.00     0.200 A 
ATOM     62  F   UNL A   1      45.322  21.511  24.180  1.00  0.00    -0.200 F 
ATOM     63  F   UNL A   1      44.104  19.094  24.492  1.00  0.00    -0.200 F 
ENDBRANCH  39  53
BRANCH  40  64
ATOM     64  C   UNL A   1      40.629  30.411  32.044  1.00  0.00     0.064 A 
ATOM     65  C   UNL A   1      39.640  29.467  32.419  1.00  0.00     0.173 A 
ATOM     66  C   UNL A   1      40.341  31.752  32.325  1.00  0.00     0.173 A 
ATOM     67  F   UNL A   1      39.831  28.161  32.165  1.00  0.00    -0.203 F 
ATOM     68  C   UNL A   1      38.498  29.826  33.137  1.00  0.00     0.198 A 
ATOM     69  C   UNL A   1      39.174  32.116  33.019  1.00  0.00     0.198 A 
ATOM     70  F   UNL A   1      41.211  32.717  32.000  1.00  0.00    -0.203 F 
ATOM     71  F   UNL A   1      37.657  28.878  33.575  1.00  0.00    -0.200 F 
ATOM     72  C   UNL A   1      38.272  31.152  33.449  1.00  0.00     0.200 A 
ATOM     73  F   UNL A   1      38.961  33.399  33.346  1.00  0.00    -0.200 F 
ATOM     74  F   UNL A   1      37.215  31.498  34.197  1.00  0.00    -0.200 F 
ENDBRANCH  40  64
BRANCH  52  75
ATOM     75  C   UNL A   1      44.986  24.675  32.960  1.00  0.00     0.064 A 
ATOM     76  C   UNL A   1      44.377  23.482  33.383  1.00  0.00     0.173 A 
ATOM     77  C   UNL A   1      46.345  24.832  33.325  1.00  0.00     0.173 A 
ATOM     78  F   UNL A   1      43.149  23.137  32.974  1.00  0.00    -0.203 F 
ATOM     79  C   UNL A   1      45.040  22.567  34.197  1.00  0.00     0.198 A 
ATOM     80  C   UNL A   1      47.029  23.871  34.061  1.00  0.00     0.198 A 
ATOM     81  F   UNL A   1      47.063  25.898  32.947  1.00  0.00    -0.203 F 
ATOM     82  F   UNL A   1      44.387  21.483  34.635  1.00  0.00    -0.200 F 
ATOM     83  C   UNL A   1      46.369  22.753  34.524  1.00  0.00     0.200 A 
ATOM     84  F   UNL A   1      48.339  24.026  34.300  1.00  0.00    -0.200 F 
ATOM     85  F   UNL A   1      47.017  21.844  35.263  1.00  0.00    -0.200 F 
ENDBRANCH  52  75
ENDBRANCH  26  27
ENDBRANCH  19  21
ENDBRANCH  18  19
ENDBRANCH  17  18
ENDBRANCH   1  17
TORSDOF 13
ENDMDL
MODEL 3
REMARK VINA RESULT:     -13.0      1.973      2.957
REMARK SMILES Cc1ccc(OC(F)(F)F)cc1C(=O)OCCOC(=O)c1ccc(-c2c3nc(c(-c4c(F)c(F)c(F)c(F)c4F)c4ccc([nH]4)c(-c4c(F)c(F)c(F)c(F)c4F)c4nc(c(-c5c(F)c(F)c(F)c(F)c5F)c5ccc2[nH]5)C=C4)C=C3)cc1
REMARK SMILES IDX 16 1 15 2 13 3 14 4 12 5 1 6 2 7 3 8 4 9 11 10 5 11 6 12
REMARK SMILES IDX 7 13 8 14 9 15 10 16 17 17 18 18 19 19 20 20 21 21 22 22
REMARK SMILES IDX 83 23 23 24 82 25 24 26 25 27 26 28 76 29 27 30 81 31 75 32
REMARK SMILES IDX 77 33 28 34 80 35 74 36 73 37 29 39 61 40 41 41 60 42 42 43
REMARK SMILES IDX 45 44 59 45 78 46 43 47 44 48 58 50 79 51 46 52 30 53 31 54
REMARK SMILES IDX 39 55 32 56 33 57 37 58 40 59 34 60 35 61 38 62 36 63 62 64
REMARK SMILES IDX 63 65 71 66 64 67 65 68 69 69 72 70 66 71 67 72 70 73 68 74
REMARK SMILES IDX 47 75 48 76 56 77 49 78 50 79 54 80 57 81 51 82 52 83 55 84
REMARK SMILES IDX 53 85
REMARK H PARENT 77 38 45 49
REMARK Flexibility Score: inf
ROOT
ATOM      1  C   UNL A   1      32.548  30.126  27.124  1.00  0.00     0.275 C 
ENDROOT
BRANCH   1   2
ATOM      2  O   UNL A   1      31.913  30.181  25.832  1.00  0.00    -0.458 OA
BRANCH   2   3
ATOM      3  C   UNL A   1      32.199  29.080  25.087  1.00  0.00     0.338 C 
ATOM      4  O   UNL A   1      33.242  28.914  24.469  1.00  0.00    -0.246 OA
BRANCH   3   5
ATOM      5  C   UNL A   1      31.124  28.069  24.982  1.00  0.00     0.066 A 
ATOM      6  C   UNL A   1      30.335  29.181  22.800  1.00  0.00     0.045 C 
ATOM      7  C   UNL A   1      30.340  28.062  23.808  1.00  0.00    -0.036 A 
ATOM      8  C   UNL A   1      29.459  26.994  23.591  1.00  0.00     0.008 A 
ATOM      9  C   UNL A   1      29.376  25.943  24.503  1.00  0.00     0.047 A 
ATOM     10  C   UNL A   1      31.009  27.025  25.921  1.00  0.00     0.062 A 
ATOM     11  C   UNL A   1      30.155  25.947  25.660  1.00  0.00     0.130 A 
BRANCH  11  12
ATOM     12  O   UNL A   1      29.944  24.891  26.501  1.00  0.00    -0.406 OA
BRANCH  12  13
ATOM     13  C   UNL A   1      30.876  23.823  26.396  1.00  0.00     0.573 C 
ATOM     14  F   UNL A   1      30.310  22.643  26.724  1.00  0.00    -0.132 F 
ATOM     15  F   UNL A   1      31.379  23.751  25.148  1.00  0.00    -0.132 F 
ATOM     16  F   UNL A   1      31.894  24.058  27.254  1.00  0.00    -0.132 F 
ENDBRANCH  12  13
ENDBRANCH  11  12
ENDBRANCH   3   5
ENDBRANCH   2   3
ENDBRANCH   1   2
BRANCH   1  17
ATOM     17  C   UNL A   1      33.862  30.909  27.250  1.00  0.00     0.275 C 
BRANCH  17  18
ATOM     18  O   UNL A   1      35.086  30.277  27.716  1.00  0.00    -0.458 OA
BRANCH  18  19
ATOM     19  C   UNL A   1      36.218  30.921  28.067  1.00  0.00     0.338 C 
ATOM     20  O   UNL A   1      36.302  32.145  28.112  1.00  0.00    -0.246 OA
BRANCH  19  21
ATOM     21  C   UNL A   1      37.381  30.065  28.344  1.00  0.00     0.060 A 
ATOM     22  C   UNL A   1      37.346  29.206  29.458  1.00  0.00     0.016 A 
ATOM     23  C   UNL A   1      38.426  30.020  27.427  1.00  0.00     0.016 A 
ATOM     24  C   UNL A   1      38.305  28.214  29.598  1.00  0.00     0.010 A 
ATOM     25  C   UNL A   1      39.287  28.958  27.478  1.00  0.00     0.010 A 
ATOM     26  C   UNL A   1      39.256  28.098  28.588  1.00  0.00    -0.014 A 
BRANCH  26  27
ATOM     27  C   UNL A   1      40.501  27.379  28.756  1.00  0.00     0.031 A 
ATOM     28  C   UNL A   1      40.610  25.943  28.473  1.00  0.00     0.074 A 
ATOM     29  C   UNL A   1      41.501  28.260  28.989  1.00  0.00     0.049 A 
ATOM     30  N   UNL A   1      41.587  25.212  28.870  1.00  0.00    -0.248 NA
ATOM     31  C   UNL A   1      39.606  25.166  27.752  1.00  0.00     0.031 C 
ATOM     32  C   UNL A   1      42.943  28.154  28.905  1.00  0.00     0.029 A 
ATOM     33  N   UNL A   1      41.295  29.559  29.505  1.00  0.00    -0.354 N 
ATOM     34  C   UNL A   1      41.528  24.013  28.183  1.00  0.00     0.074 A 
ATOM     35  C   UNL A   1      40.200  23.973  27.634  1.00  0.00     0.031 C 
ATOM     36  C   UNL A   1      43.479  29.148  29.648  1.00  0.00     0.029 A 
ATOM     37  C   UNL A   1      42.382  29.829  30.332  1.00  0.00     0.049 A 
ATOM     38  H   UNL A   1      40.535  30.155  29.317  1.00  0.00     0.167 HD
ATOM     39  C   UNL A   1      42.692  23.315  28.033  1.00  0.00     0.037 A 
ATOM     40  C   UNL A   1      42.143  29.826  31.677  1.00  0.00     0.037 A 
ATOM     41  C   UNL A   1      43.740  24.003  28.789  1.00  0.00     0.049 A 
ATOM     42  C   UNL A   1      42.839  28.640  32.297  1.00  0.00     0.074 A 
ATOM     43  C   UNL A   1      44.673  24.951  28.404  1.00  0.00     0.029 A 
ATOM     44  N   UNL A   1      43.622  24.095  30.172  1.00  0.00    -0.354 N 
ATOM     45  N   UNL A   1      42.968  27.472  31.723  1.00  0.00    -0.248 NA
ATOM     46  C   UNL A   1      43.567  28.751  33.553  1.00  0.00     0.031 C 
ATOM     47  C   UNL A   1      45.033  25.692  29.563  1.00  0.00     0.029 A 
ATOM     48  C   UNL A   1      44.323  25.190  30.645  1.00  0.00     0.049 A 
ATOM     49  H   UNL A   1      43.112  23.469  30.735  1.00  0.00     0.167 HD
ATOM     50  C   UNL A   1      43.859  26.726  32.448  1.00  0.00     0.074 A 
ATOM     51  C   UNL A   1      44.184  27.560  33.594  1.00  0.00     0.031 C 
ATOM     52  C   UNL A   1      44.334  25.502  32.063  1.00  0.00     0.037 A 
BRANCH  39  53
ATOM     53  C   UNL A   1      43.004  22.228  27.017  1.00  0.00     0.064 A 
ATOM     54  C   UNL A   1      42.313  20.992  27.081  1.00  0.00     0.173 A 
ATOM     55  C   UNL A   1      43.985  22.284  26.007  1.00  0.00     0.173 A 
ATOM     56  F   UNL A   1      41.308  20.798  27.947  1.00  0.00    -0.203 F 
ATOM     57  C   UNL A   1      42.621  19.900  26.264  1.00  0.00     0.198 A 
ATOM     58  C   UNL A   1      44.298  21.187  25.190  1.00  0.00     0.198 A 
ATOM     59  F   UNL A   1      44.667  23.400  25.742  1.00  0.00    -0.203 F 
ATOM     60  F   UNL A   1      41.942  18.752  26.402  1.00  0.00    -0.200 F 
ATOM     61  C   UNL A   1      43.624  19.992  25.325  1.00  0.00     0.200 A 
ATOM     62  F   UNL A   1      45.266  21.302  24.267  1.00  0.00    -0.200 F 
ATOM     63  F   UNL A   1      43.929  18.945  24.546  1.00  0.00    -0.200 F 
ENDBRANCH  39  53
BRANCH  40  64
ATOM     64  C   UNL A   1      40.798  30.383  32.065  1.00  0.00     0.064 A 
ATOM     65  C   UNL A   1      39.781  29.473  32.447  1.00  0.00     0.173 A 
ATOM     66  C   UNL A   1      40.551  31.735  32.333  1.00  0.00     0.173 A 
ATOM     67  F   UNL A   1      39.933  28.160  32.205  1.00  0.00    -0.203 F 
ATOM     68  C   UNL A   1      38.649  29.873  33.160  1.00  0.00     0.198 A 
ATOM     69  C   UNL A   1      39.394  32.140  33.023  1.00  0.00     0.198 A 
ATOM     70  F   UNL A   1      41.450  32.670  32.002  1.00  0.00    -0.203 F 
ATOM     71  F   UNL A   1      37.779  28.955  33.606  1.00  0.00    -0.200 F 
ATOM     72  C   UNL A   1      38.463  31.208  33.460  1.00  0.00     0.200 A 
ATOM     73  F   UNL A   1      39.219  33.432  33.338  1.00  0.00    -0.200 F 
ATOM     74  F   UNL A   1      37.416  31.592  34.203  1.00  0.00    -0.200 F 
ENDBRANCH  40  64
BRANCH  52  75
ATOM     75  C   UNL A   1      44.964  24.511  33.009  1.00  0.00     0.064 A 
ATOM     76  C   UNL A   1      44.312  23.343  33.436  1.00  0.00     0.173 A 
ATOM     77  C   UNL A   1      46.327  24.620  33.373  1.00  0.00     0.173 A 
ATOM     78  F   UNL A   1      43.072  23.041  33.029  1.00  0.00    -0.203 F 
ATOM     79  C   UNL A   1      44.942  22.409  34.255  1.00  0.00     0.198 A 
ATOM     80  C   UNL A   1      46.977  23.639  34.114  1.00  0.00     0.198 A 
ATOM     81  F   UNL A   1      47.084  25.659  32.991  1.00  0.00    -0.203 F 
ATOM     82  F   UNL A   1      44.250  21.350  34.698  1.00  0.00    -0.200 F 
ATOM     83  C   UNL A   1      46.277  22.548  34.581  1.00  0.00     0.200 A 
ATOM     84  F   UNL A   1      48.291  23.748  34.353  1.00  0.00    -0.200 F 
ATOM     85  F   UNL A   1      46.891  21.619  35.324  1.00  0.00    -0.200 F 
ENDBRANCH  52  75
ENDBRANCH  26  27
ENDBRANCH  19  21
ENDBRANCH  18  19
ENDBRANCH  17  18
ENDBRANCH   1  17
TORSDOF 13
ENDMDL
