MODEL 1
REMARK VINA RESULT:     -13.1      0.000      0.000
REMARK SMILES O=C(CCC(=O)N1N=C(c2ccc(F)cc2)C[C@@H]1c1ccc2nccnc2c1)OCCOC(=O)c1ccc(-c2c3nc(c(-c4c(F)c(F)c(F)c(F)c4F)c4ccc([nH]4)c(-c4c(F)c(F)c(F)c(F)c4F)c4nc(c(-c5c(F)c(F)c(F)c(F)c5F)c5ccc2[nH]5)C=C4)C=C3)cc1
REMARK SMILES IDX 30 1 29 2 2 3 1 4 3 5 4 6 5 7 6 8 7 9 8 10 18 11 9 12 17 13
REMARK SMILES IDX 19 14 20 15 28 16 21 17 27 18 22 19 26 20 23 21 25 22 24 23
REMARK SMILES IDX 10 24 11 25 16 26 12 27 15 28 13 29 14 30 31 31 32 32 33 33
REMARK SMILES IDX 34 34 35 35 36 36 97 37 37 38 96 39 38 40 39 41 40 42 90 43
REMARK SMILES IDX 41 44 95 45 89 46 91 47 42 48 94 49 88 50 87 51 43 53 75 54
REMARK SMILES IDX 55 55 74 56 56 57 59 58 73 59 92 60 57 61 58 62 72 64 93 65
REMARK SMILES IDX 60 66 44 67 45 68 53 69 46 70 47 71 51 72 54 73 48 74 49 75
REMARK SMILES IDX 52 76 50 77 76 78 77 79 85 80 78 81 79 82 83 83 86 84 80 85
REMARK SMILES IDX 81 86 84 87 82 88 61 89 62 90 70 91 63 92 64 93 68 94 71 95
REMARK SMILES IDX 65 96 66 97 69 98 67 99
REMARK H PARENT 91 52 59 63
REMARK Flexibility Score: inf
ROOT
ATOM      1  C   UNL A   1      42.067  19.178  27.123  1.00  0.00     0.274 C 
ENDROOT
BRANCH   1   2
ATOM      2  O   UNL A   1      41.092  20.051  26.491  1.00  0.00    -0.462 OA
BRANCH   2   3
ATOM      3  C   UNL A   1      40.512  21.164  26.966  1.00  0.00     0.306 C 
ATOM      4  O   UNL A   1      40.601  21.511  28.141  1.00  0.00    -0.252 OA
BRANCH   3   5
ATOM      5  C   UNL A   1      39.938  22.070  25.966  1.00  0.00     0.132 C 
BRANCH   5   6
ATOM      6  C   UNL A   1      38.492  21.661  25.821  1.00  0.00     0.114 C 
BRANCH   6   7
ATOM      7  C   UNL A   1      37.408  22.748  25.743  1.00  0.00     0.243 C 
ATOM      8  O   UNL A   1      37.876  23.898  25.614  1.00  0.00    -0.273 OA
BRANCH   7   9
ATOM      9  N   UNL A   1      36.017  22.550  25.702  1.00  0.00    -0.225 N 
ATOM     10  N   UNL A   1      35.752  21.405  24.978  1.00  0.00    -0.174 NA
ATOM     11  C   UNL A   1      34.749  22.942  26.491  1.00  0.00     0.147 C 
ATOM     12  C   UNL A   1      34.630  20.917  25.373  1.00  0.00     0.071 C 
ATOM     13  C   UNL A   1      33.826  21.726  26.321  1.00  0.00     0.091 C 
BRANCH  11  14
ATOM     14  C   UNL A   1      33.856  24.159  26.105  1.00  0.00    -0.021 A 
ATOM     15  C   UNL A   1      34.490  25.277  25.527  1.00  0.00     0.008 A 
ATOM     16  C   UNL A   1      32.467  24.280  26.294  1.00  0.00     0.036 A 
ATOM     17  C   UNL A   1      33.760  26.366  25.025  1.00  0.00     0.031 A 
ATOM     18  C   UNL A   1      31.706  25.312  25.693  1.00  0.00     0.089 A 
ATOM     19  C   UNL A   1      32.379  26.360  25.015  1.00  0.00     0.089 A 
ATOM     20  N   UNL A   1      30.351  25.250  25.653  1.00  0.00    -0.253 NA
ATOM     21  N   UNL A   1      31.725  27.305  24.299  1.00  0.00    -0.253 NA
ATOM     22  C   UNL A   1      29.727  26.116  24.813  1.00  0.00     0.132 A 
ATOM     23  C   UNL A   1      30.398  27.121  24.150  1.00  0.00     0.132 A 
ENDBRANCH  11  14
BRANCH  12  24
ATOM     24  C   UNL A   1      34.241  19.566  24.996  1.00  0.00    -0.002 A 
ATOM     25  C   UNL A   1      35.190  18.639  24.578  1.00  0.00     0.013 A 
ATOM     26  C   UNL A   1      32.889  19.227  25.141  1.00  0.00     0.013 A 
ATOM     27  C   UNL A   1      34.770  17.340  24.301  1.00  0.00     0.040 A 
ATOM     28  C   UNL A   1      32.477  17.933  24.846  1.00  0.00     0.040 A 
ATOM     29  C   UNL A   1      33.423  17.001  24.431  1.00  0.00     0.123 A 
ATOM     30  F   UNL A   1      33.032  15.749  24.163  1.00  0.00    -0.207 F 
ENDBRANCH  12  24
ENDBRANCH   7   9
ENDBRANCH   6   7
ENDBRANCH   5   6
ENDBRANCH   3   5
ENDBRANCH   2   3
ENDBRANCH   1   2
BRANCH   1  31
ATOM     31  C   UNL A   1      42.694  18.330  26.035  1.00  0.00     0.275 C 
BRANCH  31  32
ATOM     32  O   UNL A   1      43.067  19.171  24.943  1.00  0.00    -0.458 OA
BRANCH  32  33
ATOM     33  C   UNL A   1      44.387  19.421  24.755  1.00  0.00     0.338 C 
ATOM     34  O   UNL A   1      45.285  18.698  24.375  1.00  0.00    -0.246 OA
BRANCH  33  35
ATOM     35  C   UNL A   1      44.526  20.858  24.894  1.00  0.00     0.060 A 
ATOM     36  C   UNL A   1      44.405  21.698  23.778  1.00  0.00     0.016 A 
ATOM     37  C   UNL A   1      44.667  21.343  26.188  1.00  0.00     0.016 A 
ATOM     38  C   UNL A   1      44.355  23.066  23.971  1.00  0.00     0.010 A 
ATOM     39  C   UNL A   1      44.629  22.698  26.382  1.00  0.00     0.010 A 
ATOM     40  C   UNL A   1      44.480  23.548  25.275  1.00  0.00    -0.014 A 
BRANCH  40  41
ATOM     41  C   UNL A   1      44.650  24.969  25.549  1.00  0.00     0.031 A 
ATOM     42  C   UNL A   1      46.039  25.497  25.454  1.00  0.00     0.074 A 
ATOM     43  C   UNL A   1      43.615  25.656  26.048  1.00  0.00     0.049 A 
ATOM     44  N   UNL A   1      46.532  26.600  25.935  1.00  0.00    -0.248 NA
ATOM     45  C   UNL A   1      47.020  24.633  24.767  1.00  0.00     0.031 C 
ATOM     46  C   UNL A   1      42.244  25.160  26.156  1.00  0.00     0.029 A 
ATOM     47  N   UNL A   1      43.578  26.899  26.607  1.00  0.00    -0.354 N 
ATOM     48  C   UNL A   1      47.881  26.559  25.623  1.00  0.00     0.074 A 
ATOM     49  C   UNL A   1      48.144  25.307  24.954  1.00  0.00     0.031 C 
ATOM     50  C   UNL A   1      41.496  26.090  26.772  1.00  0.00     0.029 A 
ATOM     51  C   UNL A   1      42.354  27.212  27.140  1.00  0.00     0.049 A 
ATOM     52  H   UNL A   1      44.350  27.509  26.627  1.00  0.00     0.167 HD
ATOM     53  C   UNL A   1      48.805  27.507  25.880  1.00  0.00     0.037 A 
ATOM     54  C   UNL A   1      42.001  28.281  27.874  1.00  0.00     0.037 A 
ATOM     55  C   UNL A   1      48.489  28.730  26.562  1.00  0.00     0.049 A 
ATOM     56  C   UNL A   1      43.060  29.305  28.180  1.00  0.00     0.074 A 
ATOM     57  C   UNL A   1      49.320  29.787  26.864  1.00  0.00     0.029 A 
ATOM     58  N   UNL A   1      47.227  29.048  27.052  1.00  0.00    -0.354 N 
ATOM     59  N   UNL A   1      44.334  29.295  27.859  1.00  0.00    -0.248 NA
ATOM     60  C   UNL A   1      42.641  30.486  28.942  1.00  0.00     0.031 C 
ATOM     61  C   UNL A   1      48.576  30.723  27.586  1.00  0.00     0.029 A 
ATOM     62  C   UNL A   1      47.262  30.281  27.674  1.00  0.00     0.049 A 
ATOM     63  H   UNL A   1      46.428  28.478  26.969  1.00  0.00     0.167 HD
ATOM     64  C   UNL A   1      44.864  30.479  28.351  1.00  0.00     0.074 A 
ATOM     65  C   UNL A   1      43.768  31.185  28.987  1.00  0.00     0.031 C 
ATOM     66  C   UNL A   1      46.135  30.948  28.282  1.00  0.00     0.037 A 
BRANCH  53  67
ATOM     67  C   UNL A   1      50.211  27.252  25.433  1.00  0.00     0.064 A 
ATOM     68  C   UNL A   1      50.591  27.498  24.106  1.00  0.00     0.173 A 
ATOM     69  C   UNL A   1      51.177  26.732  26.308  1.00  0.00     0.173 A 
ATOM     70  F   UNL A   1      49.711  28.010  23.233  1.00  0.00    -0.203 F 
ATOM     71  C   UNL A   1      51.880  27.210  23.666  1.00  0.00     0.198 A 
ATOM     72  C   UNL A   1      52.474  26.475  25.872  1.00  0.00     0.198 A 
ATOM     73  F   UNL A   1      50.873  26.505  27.594  1.00  0.00    -0.203 F 
ATOM     74  F   UNL A   1      52.211  27.422  22.385  1.00  0.00    -0.200 F 
ATOM     75  C   UNL A   1      52.820  26.701  24.549  1.00  0.00     0.200 A 
ATOM     76  F   UNL A   1      53.390  26.015  26.736  1.00  0.00    -0.200 F 
ATOM     77  F   UNL A   1      54.064  26.434  24.126  1.00  0.00    -0.200 F 
ENDBRANCH  53  67
BRANCH  54  78
ATOM     78  C   UNL A   1      40.594  28.432  28.319  1.00  0.00     0.064 A 
ATOM     79  C   UNL A   1      39.620  29.025  27.502  1.00  0.00     0.173 A 
ATOM     80  C   UNL A   1      40.214  28.041  29.609  1.00  0.00     0.173 A 
ATOM     81  F   UNL A   1      39.936  29.432  26.265  1.00  0.00    -0.203 F 
ATOM     82  C   UNL A   1      38.324  29.238  27.969  1.00  0.00     0.198 A 
ATOM     83  C   UNL A   1      38.911  28.230  30.065  1.00  0.00     0.198 A 
ATOM     84  F   UNL A   1      41.109  27.464  30.424  1.00  0.00    -0.203 F 
ATOM     85  F   UNL A   1      37.422  29.845  27.185  1.00  0.00    -0.200 F 
ATOM     86  C   UNL A   1      37.969  28.836  29.247  1.00  0.00     0.200 A 
ATOM     87  F   UNL A   1      38.570  27.825  31.295  1.00  0.00    -0.200 F 
ATOM     88  F   UNL A   1      36.721  29.036  29.694  1.00  0.00    -0.200 F 
ENDBRANCH  54  78
BRANCH  66  89
ATOM     89  C   UNL A   1      46.405  32.298  28.874  1.00  0.00     0.064 A 
ATOM     90  C   UNL A   1      46.317  33.447  28.072  1.00  0.00     0.173 A 
ATOM     91  C   UNL A   1      46.858  32.444  30.192  1.00  0.00     0.173 A 
ATOM     92  F   UNL A   1      45.902  33.353  26.800  1.00  0.00    -0.203 F 
ATOM     93  C   UNL A   1      46.700  34.689  28.561  1.00  0.00     0.198 A 
ATOM     94  C   UNL A   1      47.205  33.695  30.689  1.00  0.00     0.198 A 
ATOM     95  F   UNL A   1      46.947  31.375  30.998  1.00  0.00    -0.203 F 
ATOM     96  F   UNL A   1      46.661  35.764  27.762  1.00  0.00    -0.200 F 
ATOM     97  C   UNL A   1      47.141  34.813  29.870  1.00  0.00     0.200 A 
ATOM     98  F   UNL A   1      47.608  33.819  31.962  1.00  0.00    -0.200 F 
ATOM     99  F   UNL A   1      47.505  36.013  30.343  1.00  0.00    -0.200 F 
ENDBRANCH  66  89
ENDBRANCH  40  41
ENDBRANCH  33  35
ENDBRANCH  32  33
ENDBRANCH  31  32
ENDBRANCH   1  31
TORSDOF 16
ENDMDL
MODEL 2
REMARK VINA RESULT:     -13.1      6.732     12.212
REMARK SMILES O=C(CCC(=O)N1N=C(c2ccc(F)cc2)C[C@@H]1c1ccc2nccnc2c1)OCCOC(=O)c1ccc(-c2c3nc(c(-c4c(F)c(F)c(F)c(F)c4F)c4ccc([nH]4)c(-c4c(F)c(F)c(F)c(F)c4F)c4nc(c(-c5c(F)c(F)c(F)c(F)c5F)c5ccc2[nH]5)C=C4)C=C3)cc1
REMARK SMILES IDX 30 1 29 2 2 3 1 4 3 5 4 6 5 7 6 8 7 9 8 10 18 11 9 12 17 13
REMARK SMILES IDX 19 14 20 15 28 16 21 17 27 18 22 19 26 20 23 21 25 22 24 23
REMARK SMILES IDX 10 24 11 25 16 26 12 27 15 28 13 29 14 30 31 31 32 32 33 33
REMARK SMILES IDX 34 34 35 35 36 36 97 37 37 38 96 39 38 40 39 41 40 42 90 43
REMARK SMILES IDX 41 44 95 45 89 46 91 47 42 48 94 49 88 50 87 51 43 53 75 54
REMARK SMILES IDX 55 55 74 56 56 57 59 58 73 59 92 60 57 61 58 62 72 64 93 65
REMARK SMILES IDX 60 66 44 67 45 68 53 69 46 70 47 71 51 72 54 73 48 74 49 75
REMARK SMILES IDX 52 76 50 77 76 78 77 79 85 80 78 81 79 82 83 83 86 84 80 85
REMARK SMILES IDX 81 86 84 87 82 88 61 89 62 90 70 91 63 92 64 93 68 94 71 95
REMARK SMILES IDX 65 96 66 97 69 98 67 99
REMARK H PARENT 91 52 59 63
REMARK Flexibility Score: inf
ROOT
ATOM      1  C   UNL A   1      32.958  34.654  28.115  1.00  0.00     0.274 C 
ENDROOT
BRANCH   1   2
ATOM      2  O   UNL A   1      34.218  33.942  28.239  1.00  0.00    -0.462 OA
BRANCH   2   3
ATOM      3  C   UNL A   1      34.457  32.709  28.712  1.00  0.00     0.306 C 
ATOM      4  O   UNL A   1      34.051  32.326  29.806  1.00  0.00    -0.252 OA
BRANCH   3   5
ATOM      5  C   UNL A   1      35.049  31.758  27.765  1.00  0.00     0.132 C 
BRANCH   5   6
ATOM      6  C   UNL A   1      33.916  30.874  27.305  1.00  0.00     0.114 C 
BRANCH   6   7
ATOM      7  C   UNL A   1      34.186  29.385  27.035  1.00  0.00     0.243 C 
ATOM      8  O   UNL A   1      35.204  28.959  27.617  1.00  0.00    -0.273 OA
BRANCH   7   9
ATOM      9  N   UNL A   1      33.369  28.496  26.317  1.00  0.00    -0.225 N 
ATOM     10  N   UNL A   1      34.078  27.336  26.074  1.00  0.00    -0.174 NA
ATOM     11  C   UNL A   1      31.872  28.226  26.054  1.00  0.00     0.147 C 
ATOM     12  C   UNL A   1      33.247  26.365  25.938  1.00  0.00     0.071 C 
ATOM     13  C   UNL A   1      31.803  26.700  25.888  1.00  0.00     0.091 C 
BRANCH  11  14
ATOM     14  C   UNL A   1      31.118  28.781  24.808  1.00  0.00    -0.021 A 
ATOM     15  C   UNL A   1      30.916  27.905  23.723  1.00  0.00     0.008 A 
ATOM     16  C   UNL A   1      30.630  30.088  24.630  1.00  0.00     0.036 A 
ATOM     17  C   UNL A   1      30.137  28.267  22.613  1.00  0.00     0.031 A 
ATOM     18  C   UNL A   1      29.749  30.434  23.578  1.00  0.00     0.089 A 
ATOM     19  C   UNL A   1      29.476  29.479  22.566  1.00  0.00     0.089 A 
ATOM     20  N   UNL A   1      29.074  31.611  23.587  1.00  0.00    -0.253 NA
ATOM     21  N   UNL A   1      28.543  29.679  21.605  1.00  0.00    -0.253 NA
ATOM     22  C   UNL A   1      28.044  31.729  22.709  1.00  0.00     0.132 A 
ATOM     23  C   UNL A   1      27.784  30.785  21.739  1.00  0.00     0.132 A 
ENDBRANCH  11  14
BRANCH  12  24
ATOM     24  C   UNL A   1      33.714  24.986  25.964  1.00  0.00    -0.002 A 
ATOM     25  C   UNL A   1      32.920  23.973  26.492  1.00  0.00     0.013 A 
ATOM     26  C   UNL A   1      34.956  24.721  25.375  1.00  0.00     0.013 A 
ATOM     27  C   UNL A   1      33.386  22.662  26.423  1.00  0.00     0.040 A 
ATOM     28  C   UNL A   1      35.421  23.412  25.326  1.00  0.00     0.040 A 
ATOM     29  C   UNL A   1      34.629  22.395  25.849  1.00  0.00     0.123 A 
ATOM     30  F   UNL A   1      35.066  21.131  25.787  1.00  0.00    -0.207 F 
ENDBRANCH  12  24
ENDBRANCH   7   9
ENDBRANCH   6   7
ENDBRANCH   5   6
ENDBRANCH   3   5
ENDBRANCH   2   3
ENDBRANCH   1   2
BRANCH   1  31
ATOM     31  C   UNL A   1      32.973  35.791  29.116  1.00  0.00     0.275 C 
BRANCH  31  32
ATOM     32  O   UNL A   1      32.439  35.329  30.357  1.00  0.00    -0.458 OA
BRANCH  32  33
ATOM     33  C   UNL A   1      32.881  35.917  31.497  1.00  0.00     0.338 C 
ATOM     34  O   UNL A   1      32.472  36.890  32.097  1.00  0.00    -0.246 OA
BRANCH  33  35
ATOM     35  C   UNL A   1      33.867  35.002  32.040  1.00  0.00     0.060 A 
ATOM     36  C   UNL A   1      33.479  33.954  32.887  1.00  0.00     0.016 A 
ATOM     37  C   UNL A   1      35.170  35.159  31.585  1.00  0.00     0.016 A 
ATOM     38  C   UNL A   1      34.411  32.993  33.233  1.00  0.00     0.010 A 
ATOM     39  C   UNL A   1      36.098  34.215  31.936  1.00  0.00     0.010 A 
ATOM     40  C   UNL A   1      35.715  33.144  32.760  1.00  0.00    -0.014 A 
BRANCH  40  41
ATOM     41  C   UNL A   1      36.804  32.305  33.244  1.00  0.00     0.031 A 
ATOM     42  C   UNL A   1      37.423  32.709  34.536  1.00  0.00     0.074 A 
ATOM     43  C   UNL A   1      37.301  31.366  32.430  1.00  0.00     0.049 A 
ATOM     44  N   UNL A   1      38.572  32.363  35.037  1.00  0.00    -0.248 NA
ATOM     45  C   UNL A   1      36.664  33.679  35.349  1.00  0.00     0.031 C 
ATOM     46  C   UNL A   1      36.715  30.955  31.154  1.00  0.00     0.029 A 
ATOM     47  N   UNL A   1      38.446  30.632  32.536  1.00  0.00    -0.354 N 
ATOM     48  C   UNL A   1      38.682  33.082  36.217  1.00  0.00     0.074 A 
ATOM     49  C   UNL A   1      37.510  33.917  36.338  1.00  0.00     0.031 C 
ATOM     50  C   UNL A   1      37.524  30.049  30.580  1.00  0.00     0.029 A 
ATOM     51  C   UNL A   1      38.698  29.866  31.428  1.00  0.00     0.049 A 
ATOM     52  H   UNL A   1      39.031  30.651  33.328  1.00  0.00     0.167 HD
ATOM     53  C   UNL A   1      39.687  33.026  37.113  1.00  0.00     0.037 A 
ATOM     54  C   UNL A   1      39.786  29.133  31.137  1.00  0.00     0.037 A 
ATOM     55  C   UNL A   1      40.837  32.184  36.934  1.00  0.00     0.049 A 
ATOM     56  C   UNL A   1      40.911  29.119  32.137  1.00  0.00     0.074 A 
ATOM     57  C   UNL A   1      41.916  32.010  37.774  1.00  0.00     0.029 A 
ATOM     58  N   UNL A   1      41.049  31.377  35.822  1.00  0.00    -0.354 N 
ATOM     59  N   UNL A   1      41.012  29.768  33.275  1.00  0.00    -0.248 NA
ATOM     60  C   UNL A   1      42.068  28.276  31.821  1.00  0.00     0.031 C 
ATOM     61  C   UNL A   1      42.810  31.138  37.147  1.00  0.00     0.029 A 
ATOM     62  C   UNL A   1      42.255  30.715  35.945  1.00  0.00     0.049 A 
ATOM     63  H   UNL A   1      40.432  31.291  35.060  1.00  0.00     0.167 HD
ATOM     64  C   UNL A   1      42.226  29.388  33.828  1.00  0.00     0.074 A 
ATOM     65  C   UNL A   1      42.823  28.447  32.899  1.00  0.00     0.031 C 
ATOM     66  C   UNL A   1      42.799  29.775  34.995  1.00  0.00     0.037 A 
BRANCH  53  67
ATOM     67  C   UNL A   1      39.585  33.887  38.333  1.00  0.00     0.064 A 
ATOM     68  C   UNL A   1      38.893  33.436  39.466  1.00  0.00     0.173 A 
ATOM     69  C   UNL A   1      40.142  35.175  38.373  1.00  0.00     0.173 A 
ATOM     70  F   UNL A   1      38.355  32.208  39.487  1.00  0.00    -0.203 F 
ATOM     71  C   UNL A   1      38.742  34.251  40.584  1.00  0.00     0.198 A 
ATOM     72  C   UNL A   1      40.016  35.975  39.505  1.00  0.00     0.198 A 
ATOM     73  F   UNL A   1      40.838  35.643  37.326  1.00  0.00    -0.203 F 
ATOM     74  F   UNL A   1      38.048  33.812  41.643  1.00  0.00    -0.200 F 
ATOM     75  C   UNL A   1      39.305  35.519  40.604  1.00  0.00     0.200 A 
ATOM     76  F   UNL A   1      40.590  37.186  39.533  1.00  0.00    -0.200 F 
ATOM     77  F   UNL A   1      39.168  36.298  41.685  1.00  0.00    -0.200 F 
ENDBRANCH  53  67
BRANCH  54  78
ATOM     78  C   UNL A   1      39.826  28.347  29.881  1.00  0.00     0.064 A 
ATOM     79  C   UNL A   1      39.282  27.056  29.799  1.00  0.00     0.173 A 
ATOM     80  C   UNL A   1      40.476  28.853  28.748  1.00  0.00     0.173 A 
ATOM     81  F   UNL A   1      38.664  26.518  30.860  1.00  0.00    -0.203 F 
ATOM     82  C   UNL A   1      39.405  26.296  28.637  1.00  0.00     0.198 A 
ATOM     83  C   UNL A   1      40.576  28.104  27.579  1.00  0.00     0.198 A 
ATOM     84  F   UNL A   1      41.006  30.085  28.778  1.00  0.00    -0.203 F 
ATOM     85  F   UNL A   1      38.914  25.050  28.597  1.00  0.00    -0.200 F 
ATOM     86  C   UNL A   1      40.047  26.823  27.526  1.00  0.00     0.200 A 
ATOM     87  F   UNL A   1      41.183  28.624  26.504  1.00  0.00    -0.200 F 
ATOM     88  F   UNL A   1      40.160  26.095  26.406  1.00  0.00    -0.200 F 
ENDBRANCH  54  78
BRANCH  66  89
ATOM     89  C   UNL A   1      44.115  29.155  35.355  1.00  0.00     0.064 A 
ATOM     90  C   UNL A   1      44.155  28.003  36.156  1.00  0.00     0.173 A 
ATOM     91  C   UNL A   1      45.330  29.761  35.006  1.00  0.00     0.173 A 
ATOM     92  F   UNL A   1      43.016  27.398  36.526  1.00  0.00    -0.203 F 
ATOM     93  C   UNL A   1      45.363  27.497  36.619  1.00  0.00     0.198 A 
ATOM     94  C   UNL A   1      46.539  29.228  35.441  1.00  0.00     0.198 A 
ATOM     95  F   UNL A   1      45.342  30.857  34.233  1.00  0.00    -0.203 F 
ATOM     96  F   UNL A   1      45.374  26.429  37.428  1.00  0.00    -0.200 F 
ATOM     97  C   UNL A   1      46.554  28.108  36.258  1.00  0.00     0.200 A 
ATOM     98  F   UNL A   1      47.692  29.805  35.073  1.00  0.00    -0.200 F 
ATOM     99  F   UNL A   1      47.719  27.615  36.701  1.00  0.00    -0.200 F 
ENDBRANCH  66  89
ENDBRANCH  40  41
ENDBRANCH  33  35
ENDBRANCH  32  33
ENDBRANCH  31  32
ENDBRANCH   1  31
TORSDOF 16
ENDMDL
MODEL 3
REMARK VINA RESULT:     -12.9      6.735     12.632
REMARK SMILES O=C(CCC(=O)N1N=C(c2ccc(F)cc2)C[C@@H]1c1ccc2nccnc2c1)OCCOC(=O)c1ccc(-c2c3nc(c(-c4c(F)c(F)c(F)c(F)c4F)c4ccc([nH]4)c(-c4c(F)c(F)c(F)c(F)c4F)c4nc(c(-c5c(F)c(F)c(F)c(F)c5F)c5ccc2[nH]5)C=C4)C=C3)cc1
REMARK SMILES IDX 30 1 29 2 2 3 1 4 3 5 4 6 5 7 6 8 7 9 8 10 18 11 9 12 17 13
REMARK SMILES IDX 19 14 20 15 28 16 21 17 27 18 22 19 26 20 23 21 25 22 24 23
REMARK SMILES IDX 10 24 11 25 16 26 12 27 15 28 13 29 14 30 31 31 32 32 33 33
REMARK SMILES IDX 34 34 35 35 36 36 97 37 37 38 96 39 38 40 39 41 40 42 90 43
REMARK SMILES IDX 41 44 95 45 89 46 91 47 42 48 94 49 88 50 87 51 43 53 75 54
REMARK SMILES IDX 55 55 74 56 56 57 59 58 73 59 92 60 57 61 58 62 72 64 93 65
REMARK SMILES IDX 60 66 44 67 45 68 53 69 46 70 47 71 51 72 54 73 48 74 49 75
REMARK SMILES IDX 52 76 50 77 76 78 77 79 85 80 78 81 79 82 83 83 86 84 80 85
REMARK SMILES IDX 81 86 84 87 82 88 61 89 62 90 70 91 63 92 64 93 68 94 71 95
REMARK SMILES IDX 65 96 66 97 69 98 67 99
REMARK H PARENT 91 52 59 63
REMARK Flexibility Score: inf
ROOT
ATOM      1  C   UNL A   1      33.993  35.468  28.336  1.00  0.00     0.274 C 
ENDROOT
BRANCH   1   2
ATOM      2  O   UNL A   1      33.834  34.036  28.528  1.00  0.00    -0.462 OA
BRANCH   2   3
ATOM      3  C   UNL A   1      34.598  33.027  28.082  1.00  0.00     0.306 C 
ATOM      4  O   UNL A   1      35.699  33.203  27.569  1.00  0.00    -0.252 OA
BRANCH   3   5
ATOM      5  C   UNL A   1      34.148  31.675  28.429  1.00  0.00     0.132 C 
BRANCH   5   6
ATOM      6  C   UNL A   1      33.508  31.120  27.180  1.00  0.00     0.114 C 
BRANCH   6   7
ATOM      7  C   UNL A   1      33.768  29.655  26.790  1.00  0.00     0.243 C 
ATOM      8  O   UNL A   1      34.506  29.057  27.598  1.00  0.00    -0.273 OA
BRANCH   7   9
ATOM      9  N   UNL A   1      33.189  28.953  25.719  1.00  0.00    -0.225 N 
ATOM     10  N   UNL A   1      31.916  29.443  25.502  1.00  0.00    -0.174 NA
ATOM     11  C   UNL A   1      33.615  28.119  24.492  1.00  0.00     0.147 C 
ATOM     12  C   UNL A   1      31.600  29.242  24.273  1.00  0.00     0.071 C 
ATOM     13  C   UNL A   1      32.524  28.422  23.452  1.00  0.00     0.091 C 
BRANCH  11  14
ATOM     14  C   UNL A   1      33.701  26.564  24.515  1.00  0.00    -0.021 A 
ATOM     15  C   UNL A   1      33.723  25.892  23.276  1.00  0.00     0.008 A 
ATOM     16  C   UNL A   1      33.734  25.737  25.653  1.00  0.00     0.036 A 
ATOM     17  C   UNL A   1      33.932  24.507  23.187  1.00  0.00     0.031 A 
ATOM     18  C   UNL A   1      34.059  24.361  25.583  1.00  0.00     0.089 A 
ATOM     19  C   UNL A   1      34.191  23.748  24.311  1.00  0.00     0.089 A 
ATOM     20  N   UNL A   1      34.361  23.655  26.701  1.00  0.00    -0.253 NA
ATOM     21  N   UNL A   1      34.633  22.477  24.156  1.00  0.00    -0.253 NA
ATOM     22  C   UNL A   1      34.940  22.440  26.516  1.00  0.00     0.132 A 
ATOM     23  C   UNL A   1      35.073  21.864  25.271  1.00  0.00     0.132 A 
ENDBRANCH  11  14
BRANCH  12  24
ATOM     24  C   UNL A   1      30.444  29.908  23.690  1.00  0.00    -0.002 A 
ATOM     25  C   UNL A   1      29.843  30.986  24.331  1.00  0.00     0.013 A 
ATOM     26  C   UNL A   1      30.015  29.461  22.433  1.00  0.00     0.013 A 
ATOM     27  C   UNL A   1      28.786  31.632  23.692  1.00  0.00     0.040 A 
ATOM     28  C   UNL A   1      28.950  30.101  21.811  1.00  0.00     0.040 A 
ATOM     29  C   UNL A   1      28.347  31.182  22.446  1.00  0.00     0.123 A 
ATOM     30  F   UNL A   1      27.333  31.811  21.841  1.00  0.00    -0.207 F 
ENDBRANCH  12  24
ENDBRANCH   7   9
ENDBRANCH   6   7
ENDBRANCH   5   6
ENDBRANCH   3   5
ENDBRANCH   2   3
ENDBRANCH   1   2
BRANCH   1  31
ATOM     31  C   UNL A   1      32.906  36.160  29.133  1.00  0.00     0.275 C 
BRANCH  31  32
ATOM     32  O   UNL A   1      32.563  35.350  30.257  1.00  0.00    -0.458 OA
BRANCH  32  33
ATOM     33  C   UNL A   1      32.872  35.815  31.494  1.00  0.00     0.338 C 
ATOM     34  O   UNL A   1      32.359  36.687  32.165  1.00  0.00    -0.246 OA
BRANCH  33  35
ATOM     35  C   UNL A   1      33.862  34.890  32.012  1.00  0.00     0.060 A 
ATOM     36  C   UNL A   1      33.468  33.713  32.665  1.00  0.00     0.016 A 
ATOM     37  C   UNL A   1      35.189  35.181  31.724  1.00  0.00     0.016 A 
ATOM     38  C   UNL A   1      34.425  32.767  32.977  1.00  0.00     0.010 A 
ATOM     39  C   UNL A   1      36.142  34.251  32.043  1.00  0.00     0.010 A 
ATOM     40  C   UNL A   1      35.756  33.056  32.671  1.00  0.00    -0.014 A 
BRANCH  40  41
ATOM     41  C   UNL A   1      36.848  32.219  33.152  1.00  0.00     0.031 A 
ATOM     42  C   UNL A   1      37.471  32.625  34.441  1.00  0.00     0.074 A 
ATOM     43  C   UNL A   1      37.344  31.280  32.337  1.00  0.00     0.049 A 
ATOM     44  N   UNL A   1      38.622  32.282  34.939  1.00  0.00    -0.248 NA
ATOM     45  C   UNL A   1      36.713  33.595  35.256  1.00  0.00     0.031 C 
ATOM     46  C   UNL A   1      36.754  30.867  31.064  1.00  0.00     0.029 A 
ATOM     47  N   UNL A   1      38.491  30.549  32.440  1.00  0.00    -0.354 N 
ATOM     48  C   UNL A   1      38.734  33.003  36.117  1.00  0.00     0.074 A 
ATOM     49  C   UNL A   1      37.562  33.836  36.242  1.00  0.00     0.031 C 
ATOM     50  C   UNL A   1      37.563  29.962  30.488  1.00  0.00     0.029 A 
ATOM     51  C   UNL A   1      38.741  29.782  31.332  1.00  0.00     0.049 A 
ATOM     52  H   UNL A   1      39.079  30.569  33.230  1.00  0.00     0.167 HD
ATOM     53  C   UNL A   1      39.743  32.950  37.010  1.00  0.00     0.037 A 
ATOM     54  C   UNL A   1      39.829  29.051  31.038  1.00  0.00     0.037 A 
ATOM     55  C   UNL A   1      40.894  32.110  36.828  1.00  0.00     0.049 A 
ATOM     56  C   UNL A   1      40.957  29.040  32.034  1.00  0.00     0.074 A 
ATOM     57  C   UNL A   1      41.976  31.939  37.665  1.00  0.00     0.029 A 
ATOM     58  N   UNL A   1      41.104  31.302  35.716  1.00  0.00    -0.354 N 
ATOM     59  N   UNL A   1      41.061  29.690  33.171  1.00  0.00    -0.248 NA
ATOM     60  C   UNL A   1      42.116  28.198  31.715  1.00  0.00     0.031 C 
ATOM     61  C   UNL A   1      42.870  31.068  37.036  1.00  0.00     0.029 A 
ATOM     62  C   UNL A   1      42.312  30.643  35.836  1.00  0.00     0.049 A 
ATOM     63  H   UNL A   1      40.484  31.214  34.956  1.00  0.00     0.167 HD
ATOM     64  C   UNL A   1      42.278  29.313  33.720  1.00  0.00     0.074 A 
ATOM     65  C   UNL A   1      42.873  28.372  32.790  1.00  0.00     0.031 C 
ATOM     66  C   UNL A   1      42.854  29.702  34.885  1.00  0.00     0.037 A 
BRANCH  53  67
ATOM     67  C   UNL A   1      39.643  33.812  38.230  1.00  0.00     0.064 A 
ATOM     68  C   UNL A   1      38.917  33.381  39.348  1.00  0.00     0.173 A 
ATOM     69  C   UNL A   1      40.238  35.082  38.283  1.00  0.00     0.173 A 
ATOM     70  F   UNL A   1      38.342  32.169  39.356  1.00  0.00    -0.203 F 
ATOM     71  C   UNL A   1      38.769  34.199  40.465  1.00  0.00     0.198 A 
ATOM     72  C   UNL A   1      40.115  35.885  39.413  1.00  0.00     0.198 A 
ATOM     73  F   UNL A   1      40.968  35.531  37.250  1.00  0.00    -0.203 F 
ATOM     74  F   UNL A   1      38.042  33.779  41.509  1.00  0.00    -0.200 F 
ATOM     75  C   UNL A   1      39.369  35.448  40.497  1.00  0.00     0.200 A 
ATOM     76  F   UNL A   1      40.725  37.078  39.455  1.00  0.00    -0.200 F 
ATOM     77  F   UNL A   1      39.235  36.231  41.578  1.00  0.00    -0.200 F 
ENDBRANCH  53  67
BRANCH  54  78
ATOM     78  C   UNL A   1      39.866  28.263  29.782  1.00  0.00     0.064 A 
ATOM     79  C   UNL A   1      39.325  26.971  29.704  1.00  0.00     0.173 A 
ATOM     80  C   UNL A   1      40.511  28.770  28.647  1.00  0.00     0.173 A 
ATOM     81  F   UNL A   1      38.712  26.432  30.768  1.00  0.00    -0.203 F 
ATOM     82  C   UNL A   1      39.446  26.210  28.542  1.00  0.00     0.198 A 
ATOM     83  C   UNL A   1      40.608  28.019  27.478  1.00  0.00     0.198 A 
ATOM     84  F   UNL A   1      41.038  30.003  28.673  1.00  0.00    -0.203 F 
ATOM     85  F   UNL A   1      38.957  24.963  28.505  1.00  0.00    -0.200 F 
ATOM     86  C   UNL A   1      40.082  26.737  27.429  1.00  0.00     0.200 A 
ATOM     87  F   UNL A   1      41.210  28.539  26.400  1.00  0.00    -0.200 F 
ATOM     88  F   UNL A   1      40.193  26.008  26.309  1.00  0.00    -0.200 F 
ENDBRANCH  54  78
BRANCH  66  89
ATOM     89  C   UNL A   1      44.173  29.086  35.241  1.00  0.00     0.064 A 
ATOM     90  C   UNL A   1      44.217  27.930  36.036  1.00  0.00     0.173 A 
ATOM     91  C   UNL A   1      45.385  29.697  34.894  1.00  0.00     0.173 A 
ATOM     92  F   UNL A   1      43.080  27.319  36.404  1.00  0.00    -0.203 F 
ATOM     93  C   UNL A   1      45.427  27.426  36.496  1.00  0.00     0.198 A 
ATOM     94  C   UNL A   1      46.597  29.167  35.325  1.00  0.00     0.198 A 
ATOM     95  F   UNL A   1      45.393  30.797  34.126  1.00  0.00    -0.203 F 
ATOM     96  F   UNL A   1      45.442  26.354  37.300  1.00  0.00    -0.200 F 
ATOM     97  C   UNL A   1      46.616  28.043  36.138  1.00  0.00     0.200 A 
ATOM     98  F   UNL A   1      47.748  29.750  34.959  1.00  0.00    -0.200 F 
ATOM     99  F   UNL A   1      47.783  27.552  36.577  1.00  0.00    -0.200 F 
ENDBRANCH  66  89
ENDBRANCH  40  41
ENDBRANCH  33  35
ENDBRANCH  32  33
ENDBRANCH  31  32
ENDBRANCH   1  31
TORSDOF 16
ENDMDL
