MODEL 1
REMARK VINA RESULT:     -12.5      0.000      0.000
REMARK SMILES Cc1nc2ccccc2n1CCC(=O)N1CC[C@H](O)C[C@@H]1C(=O)OCCOC(=O)c1ccc(-c2c3nc(c(-c4c(F)c(F)c(F)c(F)c4F)c4ccc([nH]4)c(-c4c(F)c(F)c(F)c(F)c4F)c4nc(c(-c5c(F)c(F)c(F)c(F)c5F)c5ccc2[nH]5)C=C4)C=C3)cc1
REMARK SMILES IDX 25 1 24 2 22 3 23 4 21 5 15 6 16 7 17 8 20 9 18 10 13 11
REMARK SMILES IDX 14 12 12 13 11 14 10 15 1 16 2 17 3 18 4 19 9 20 5 21 8 22
REMARK SMILES IDX 6 23 7 24 19 25 26 27 27 28 28 29 29 30 30 31 31 32 92 33
REMARK SMILES IDX 32 34 91 35 33 36 34 37 35 38 85 39 36 40 90 41 84 42 86 43
REMARK SMILES IDX 37 44 89 45 83 46 82 47 38 49 70 50 50 51 69 52 51 53 54 54
REMARK SMILES IDX 68 55 87 56 52 57 53 58 67 60 88 61 55 62 39 63 40 64 48 65
REMARK SMILES IDX 41 66 42 67 46 68 49 69 43 70 44 71 47 72 45 73 71 74 72 75
REMARK SMILES IDX 80 76 73 77 74 78 78 79 81 80 75 81 76 82 79 83 77 84 56 85
REMARK SMILES IDX 57 86 65 87 58 88 59 89 63 90 66 91 60 92 61 93 64 94 62 95
REMARK H PARENT 19 26 86 48 54 59
REMARK Flexibility Score: inf
ROOT
ATOM      1  C   UNL A   1      37.487  21.610  24.901  1.00  0.00     0.274 C 
ENDROOT
BRANCH   1   2
ATOM      2  O   UNL A   1      36.606  22.531  25.590  1.00  0.00    -0.461 OA
BRANCH   2   3
ATOM      3  C   UNL A   1      35.333  22.212  25.969  1.00  0.00     0.329 C 
ATOM      4  O   UNL A   1      35.083  21.742  27.068  1.00  0.00    -0.250 OA
BRANCH   3   5
ATOM      5  C   UNL A   1      34.269  22.433  24.800  1.00  0.00     0.197 C 
ATOM      6  N   UNL A   1      33.413  23.535  25.199  1.00  0.00    -0.329 N 
ATOM      7  C   UNL A   1      32.424  23.183  26.226  1.00  0.00     0.123 C 
ATOM      8  C   UNL A   1      31.435  22.113  25.767  1.00  0.00     0.053 C 
ATOM      9  C   UNL A   1      33.307  21.458  24.091  1.00  0.00     0.069 C 
ATOM     10  C   UNL A   1      31.995  21.070  24.804  1.00  0.00     0.118 C 
BRANCH   6  11
ATOM     11  C   UNL A   1      33.519  24.678  24.439  1.00  0.00     0.225 C 
ATOM     12  O   UNL A   1      33.197  24.702  23.248  1.00  0.00    -0.275 OA
BRANCH  11  13
ATOM     13  C   UNL A   1      34.160  25.893  25.038  1.00  0.00     0.122 C 
BRANCH  13  14
ATOM     14  C   UNL A   1      33.300  26.507  26.130  1.00  0.00     0.134 C 
BRANCH  14  15
ATOM     15  N   UNL A   1      33.000  27.902  25.860  1.00  0.00    -0.328 N 
ATOM     16  C   UNL A   1      30.848  27.526  24.576  1.00  0.00     0.088 C 
ATOM     17  C   UNL A   1      31.852  28.384  25.270  1.00  0.00     0.106 A 
ATOM     18  N   UNL A   1      31.683  29.657  25.581  1.00  0.00    -0.234 NA
ATOM     19  C   UNL A   1      32.761  30.013  26.356  1.00  0.00     0.089 A 
ATOM     20  C   UNL A   1      33.664  28.960  26.447  1.00  0.00     0.068 A 
ATOM     21  C   UNL A   1      33.002  31.188  27.084  1.00  0.00     0.030 A 
ATOM     22  C   UNL A   1      34.880  29.061  27.134  1.00  0.00     0.028 A 
ATOM     23  C   UNL A   1      34.198  31.300  27.804  1.00  0.00     0.002 A 
ATOM     24  C   UNL A   1      35.136  30.267  27.795  1.00  0.00     0.002 A 
ENDBRANCH  14  15
ENDBRANCH  13  14
ENDBRANCH  11  13
ENDBRANCH   6  11
BRANCH  10  25
ATOM     25  O   UNL A   1      32.046  19.771  25.377  1.00  0.00    -0.393 OA
ATOM     26  H   UNL A   1      32.957  19.569  25.640  1.00  0.00     0.210 HD
ENDBRANCH  10  25
ENDBRANCH   3   5
ENDBRANCH   2   3
ENDBRANCH   1   2
BRANCH   1  27
ATOM     27  C   UNL A   1      38.717  21.292  25.768  1.00  0.00     0.275 C 
BRANCH  27  28
ATOM     28  O   UNL A   1      39.069  22.481  26.501  1.00  0.00    -0.458 OA
BRANCH  28  29
ATOM     29  C   UNL A   1      40.158  22.380  27.288  1.00  0.00     0.338 C 
ATOM     30  O   UNL A   1      40.906  21.404  27.392  1.00  0.00    -0.246 OA
BRANCH  29  31
ATOM     31  C   UNL A   1      40.591  23.767  27.502  1.00  0.00     0.060 A 
ATOM     32  C   UNL A   1      41.692  24.213  28.225  1.00  0.00     0.016 A 
ATOM     33  C   UNL A   1      39.650  24.680  27.089  1.00  0.00     0.016 A 
ATOM     34  C   UNL A   1      41.714  25.550  28.683  1.00  0.00     0.010 A 
ATOM     35  C   UNL A   1      39.726  25.999  27.480  1.00  0.00     0.010 A 
ATOM     36  C   UNL A   1      40.643  26.418  28.420  1.00  0.00    -0.014 A 
BRANCH  36  37
ATOM     37  C   UNL A   1      40.589  27.847  28.772  1.00  0.00     0.031 A 
ATOM     38  C   UNL A   1      41.702  28.538  28.094  1.00  0.00     0.074 A 
ATOM     39  C   UNL A   1      39.651  28.628  29.371  1.00  0.00     0.049 A 
ATOM     40  N   UNL A   1      42.901  28.591  28.558  1.00  0.00    -0.248 NA
ATOM     41  C   UNL A   1      41.578  28.965  26.691  1.00  0.00     0.031 C 
ATOM     42  C   UNL A   1      38.271  28.335  29.767  1.00  0.00     0.029 A 
ATOM     43  N   UNL A   1      39.781  29.947  29.759  1.00  0.00    -0.354 N 
ATOM     44  C   UNL A   1      43.624  29.303  27.622  1.00  0.00     0.074 A 
ATOM     45  C   UNL A   1      42.854  29.252  26.410  1.00  0.00     0.031 C 
ATOM     46  C   UNL A   1      37.651  29.466  30.200  1.00  0.00     0.029 A 
ATOM     47  C   UNL A   1      38.626  30.541  30.281  1.00  0.00     0.049 A 
ATOM     48  H   UNL A   1      40.631  30.437  29.674  1.00  0.00     0.167 HD
ATOM     49  C   UNL A   1      44.610  30.134  28.051  1.00  0.00     0.037 A 
ATOM     50  C   UNL A   1      38.508  31.796  30.799  1.00  0.00     0.037 A 
ATOM     51  C   UNL A   1      44.840  29.931  29.470  1.00  0.00     0.049 A 
ATOM     52  C   UNL A   1      39.861  32.187  31.254  1.00  0.00     0.074 A 
ATOM     53  C   UNL A   1      45.262  28.884  30.266  1.00  0.00     0.029 A 
ATOM     54  N   UNL A   1      44.145  30.793  30.283  1.00  0.00    -0.354 N 
ATOM     55  N   UNL A   1      40.480  31.633  32.258  1.00  0.00    -0.248 NA
ATOM     56  C   UNL A   1      40.685  33.012  30.385  1.00  0.00     0.031 C 
ATOM     57  C   UNL A   1      44.542  29.012  31.493  1.00  0.00     0.029 A 
ATOM     58  C   UNL A   1      43.760  30.166  31.438  1.00  0.00     0.049 A 
ATOM     59  H   UNL A   1      43.951  31.733  30.066  1.00  0.00     0.167 HD
ATOM     60  C   UNL A   1      41.806  31.644  31.878  1.00  0.00     0.074 A 
ATOM     61  C   UNL A   1      41.892  32.656  30.830  1.00  0.00     0.031 C 
ATOM     62  C   UNL A   1      42.627  30.612  32.223  1.00  0.00     0.037 A 
BRANCH  49  63
ATOM     63  C   UNL A   1      45.013  31.427  27.378  1.00  0.00     0.064 A 
ATOM     64  C   UNL A   1      46.336  31.539  26.903  1.00  0.00     0.173 A 
ATOM     65  C   UNL A   1      44.287  32.636  27.430  1.00  0.00     0.173 A 
ATOM     66  F   UNL A   1      47.130  30.460  26.826  1.00  0.00    -0.203 F 
ATOM     67  C   UNL A   1      46.909  32.773  26.590  1.00  0.00     0.198 A 
ATOM     68  C   UNL A   1      44.847  33.859  27.065  1.00  0.00     0.198 A 
ATOM     69  F   UNL A   1      43.053  32.720  27.937  1.00  0.00    -0.203 F 
ATOM     70  F   UNL A   1      48.209  32.839  26.272  1.00  0.00    -0.200 F 
ATOM     71  C   UNL A   1      46.165  33.933  26.675  1.00  0.00     0.200 A 
ATOM     72  F   UNL A   1      44.113  34.976  27.179  1.00  0.00    -0.200 F 
ATOM     73  F   UNL A   1      46.726  35.123  26.430  1.00  0.00    -0.200 F 
ENDBRANCH  49  63
BRANCH  50  74
ATOM     74  C   UNL A   1      37.398  32.792  30.856  1.00  0.00     0.064 A 
ATOM     75  C   UNL A   1      36.976  33.489  29.701  1.00  0.00     0.173 A 
ATOM     76  C   UNL A   1      36.505  32.806  31.940  1.00  0.00     0.173 A 
ATOM     77  F   UNL A   1      37.745  33.512  28.601  1.00  0.00    -0.203 F 
ATOM     78  C   UNL A   1      35.714  34.094  29.614  1.00  0.00     0.198 A 
ATOM     79  C   UNL A   1      35.245  33.414  31.852  1.00  0.00     0.198 A 
ATOM     80  F   UNL A   1      36.794  32.135  33.063  1.00  0.00    -0.203 F 
ATOM     81  F   UNL A   1      35.320  34.664  28.465  1.00  0.00    -0.200 F 
ATOM     82  C   UNL A   1      34.842  34.037  30.684  1.00  0.00     0.200 A 
ATOM     83  F   UNL A   1      34.391  33.325  32.882  1.00  0.00    -0.200 F 
ATOM     84  F   UNL A   1      33.603  34.539  30.575  1.00  0.00    -0.200 F 
ENDBRANCH  50  74
BRANCH  62  85
ATOM     85  C   UNL A   1      42.232  29.767  33.402  1.00  0.00     0.064 A 
ATOM     86  C   UNL A   1      41.644  28.493  33.328  1.00  0.00     0.173 A 
ATOM     87  C   UNL A   1      42.589  30.237  34.675  1.00  0.00     0.173 A 
ATOM     88  F   UNL A   1      41.320  27.945  32.150  1.00  0.00    -0.203 F 
ATOM     89  C   UNL A   1      41.422  27.733  34.477  1.00  0.00     0.198 A 
ATOM     90  C   UNL A   1      42.405  29.462  35.814  1.00  0.00     0.198 A 
ATOM     91  F   UNL A   1      43.172  31.440  34.806  1.00  0.00    -0.203 F 
ATOM     92  F   UNL A   1      40.856  26.520  34.385  1.00  0.00    -0.200 F 
ATOM     93  C   UNL A   1      41.819  28.211  35.716  1.00  0.00     0.200 A 
ATOM     94  F   UNL A   1      42.825  29.914  37.003  1.00  0.00    -0.200 F 
ATOM     95  F   UNL A   1      41.658  27.457  36.813  1.00  0.00    -0.200 F 
ENDBRANCH  62  85
ENDBRANCH  36  37
ENDBRANCH  29  31
ENDBRANCH  28  29
ENDBRANCH  27  28
ENDBRANCH   1  27
TORSDOF 16
ENDMDL
MODEL 2
REMARK VINA RESULT:     -12.3      3.312      8.899
REMARK SMILES Cc1nc2ccccc2n1CCC(=O)N1CC[C@H](O)C[C@@H]1C(=O)OCCOC(=O)c1ccc(-c2c3nc(c(-c4c(F)c(F)c(F)c(F)c4F)c4ccc([nH]4)c(-c4c(F)c(F)c(F)c(F)c4F)c4nc(c(-c5c(F)c(F)c(F)c(F)c5F)c5ccc2[nH]5)C=C4)C=C3)cc1
REMARK SMILES IDX 25 1 24 2 22 3 23 4 21 5 15 6 16 7 17 8 20 9 18 10 13 11
REMARK SMILES IDX 14 12 12 13 11 14 10 15 1 16 2 17 3 18 4 19 9 20 5 21 8 22
REMARK SMILES IDX 6 23 7 24 19 25 26 27 27 28 28 29 29 30 30 31 31 32 92 33
REMARK SMILES IDX 32 34 91 35 33 36 34 37 35 38 85 39 36 40 90 41 84 42 86 43
REMARK SMILES IDX 37 44 89 45 83 46 82 47 38 49 70 50 50 51 69 52 51 53 54 54
REMARK SMILES IDX 68 55 87 56 52 57 53 58 67 60 88 61 55 62 39 63 40 64 48 65
REMARK SMILES IDX 41 66 42 67 46 68 49 69 43 70 44 71 47 72 45 73 71 74 72 75
REMARK SMILES IDX 80 76 73 77 74 78 78 79 81 80 75 81 76 82 79 83 77 84 56 85
REMARK SMILES IDX 57 86 65 87 58 88 59 89 63 90 66 91 60 92 61 93 64 94 62 95
REMARK H PARENT 19 26 86 48 54 59
REMARK Flexibility Score: inf
ROOT
ATOM      1  C   UNL A   1      33.454  30.012  26.976  1.00  0.00     0.274 C 
ENDROOT
BRANCH   1   2
ATOM      2  O   UNL A   1      32.107  29.578  26.666  1.00  0.00    -0.461 OA
BRANCH   2   3
ATOM      3  C   UNL A   1      31.603  28.366  27.044  1.00  0.00     0.329 C 
ATOM      4  O   UNL A   1      31.467  28.059  28.217  1.00  0.00    -0.250 OA
BRANCH   3   5
ATOM      5  C   UNL A   1      31.316  27.405  25.803  1.00  0.00     0.197 C 
ATOM      6  N   UNL A   1      32.233  26.285  25.904  1.00  0.00    -0.329 N 
ATOM      7  C   UNL A   1      33.614  26.604  25.520  1.00  0.00     0.123 C 
ATOM      8  C   UNL A   1      33.746  27.040  24.061  1.00  0.00     0.053 C 
ATOM      9  C   UNL A   1      31.239  27.681  24.287  1.00  0.00     0.069 C 
ATOM     10  C   UNL A   1      32.557  27.813  23.496  1.00  0.00     0.118 C 
BRANCH   6  11
ATOM     11  C   UNL A   1      31.654  25.061  26.157  1.00  0.00     0.225 C 
ATOM     12  O   UNL A   1      30.434  24.929  26.282  1.00  0.00    -0.275 OA
BRANCH  11  13
ATOM     13  C   UNL A   1      32.537  23.878  26.415  1.00  0.00     0.122 C 
BRANCH  13  14
ATOM     14  C   UNL A   1      32.255  22.739  25.449  1.00  0.00     0.134 C 
BRANCH  14  15
ATOM     15  N   UNL A   1      33.205  22.716  24.351  1.00  0.00    -0.328 N 
ATOM     16  C   UNL A   1      31.904  24.209  22.769  1.00  0.00     0.088 C 
ATOM     17  C   UNL A   1      33.122  23.459  23.193  1.00  0.00     0.106 A 
ATOM     18  N   UNL A   1      34.316  23.565  22.637  1.00  0.00    -0.234 NA
ATOM     19  C   UNL A   1      35.178  22.848  23.431  1.00  0.00     0.089 A 
ATOM     20  C   UNL A   1      34.483  22.206  24.449  1.00  0.00     0.068 A 
ATOM     21  C   UNL A   1      36.579  22.761  23.396  1.00  0.00     0.030 A 
ATOM     22  C   UNL A   1      35.105  21.362  25.377  1.00  0.00     0.028 A 
ATOM     23  C   UNL A   1      37.226  21.947  24.334  1.00  0.00     0.002 A 
ATOM     24  C   UNL A   1      36.495  21.231  25.283  1.00  0.00     0.002 A 
ENDBRANCH  14  15
ENDBRANCH  13  14
ENDBRANCH  11  13
ENDBRANCH   6  11
BRANCH  10  25
ATOM     25  O   UNL A   1      32.881  29.162  23.191  1.00  0.00    -0.393 OA
ATOM     26  H   UNL A   1      32.140  29.574  22.720  1.00  0.00     0.210 HD
ENDBRANCH  10  25
ENDBRANCH   3   5
ENDBRANCH   2   3
ENDBRANCH   1   2
BRANCH   1  27
ATOM     27  C   UNL A   1      33.436  31.417  27.599  1.00  0.00     0.275 C 
BRANCH  27  28
ATOM     28  O   UNL A   1      34.575  31.536  28.473  1.00  0.00    -0.458 OA
BRANCH  28  29
ATOM     29  C   UNL A   1      35.640  32.183  27.960  1.00  0.00     0.338 C 
ATOM     30  O   UNL A   1      35.671  33.349  27.556  1.00  0.00    -0.246 OA
BRANCH  29  31
ATOM     31  C   UNL A   1      36.805  31.478  28.511  1.00  0.00     0.060 A 
ATOM     32  C   UNL A   1      37.854  32.015  29.248  1.00  0.00     0.016 A 
ATOM     33  C   UNL A   1      36.911  30.192  28.036  1.00  0.00     0.016 A 
ATOM     34  C   UNL A   1      39.072  31.303  29.322  1.00  0.00     0.010 A 
ATOM     35  C   UNL A   1      38.082  29.480  28.183  1.00  0.00     0.010 A 
ATOM     36  C   UNL A   1      39.230  30.075  28.659  1.00  0.00    -0.014 A 
BRANCH  36  37
ATOM     37  C   UNL A   1      40.418  29.207  28.729  1.00  0.00     0.031 A 
ATOM     38  C   UNL A   1      40.686  28.895  30.146  1.00  0.00     0.074 A 
ATOM     39  C   UNL A   1      41.122  28.509  27.800  1.00  0.00     0.049 A 
ATOM     40  N   UNL A   1      41.348  29.666  30.937  1.00  0.00    -0.248 NA
ATOM     41  C   UNL A   1      39.957  27.813  30.828  1.00  0.00     0.031 C 
ATOM     42  C   UNL A   1      40.855  28.265  26.380  1.00  0.00     0.029 A 
ATOM     43  N   UNL A   1      42.308  27.825  27.985  1.00  0.00    -0.354 N 
ATOM     44  C   UNL A   1      41.351  29.021  32.157  1.00  0.00     0.074 A 
ATOM     45  C   UNL A   1      40.274  28.071  32.101  1.00  0.00     0.031 C 
ATOM     46  C   UNL A   1      41.757  27.382  25.873  1.00  0.00     0.029 A 
ATOM     47  C   UNL A   1      42.778  27.118  26.873  1.00  0.00     0.049 A 
ATOM     48  H   UNL A   1      42.790  27.835  28.844  1.00  0.00     0.167 HD
ATOM     49  C   UNL A   1      42.455  29.114  32.944  1.00  0.00     0.037 A 
ATOM     50  C   UNL A   1      43.950  26.428  26.771  1.00  0.00     0.037 A 
ATOM     51  C   UNL A   1      43.371  30.095  32.389  1.00  0.00     0.049 A 
ATOM     52  C   UNL A   1      44.871  27.026  27.765  1.00  0.00     0.074 A 
ATOM     53  C   UNL A   1      43.334  31.452  32.135  1.00  0.00     0.029 A 
ATOM     54  N   UNL A   1      44.340  29.564  31.575  1.00  0.00    -0.354 N 
ATOM     55  N   UNL A   1      45.359  28.230  27.673  1.00  0.00    -0.248 NA
ATOM     56  C   UNL A   1      45.021  26.383  29.060  1.00  0.00     0.031 C 
ATOM     57  C   UNL A   1      44.098  31.646  30.943  1.00  0.00     0.029 A 
ATOM     58  C   UNL A   1      44.633  30.420  30.547  1.00  0.00     0.049 A 
ATOM     59  H   UNL A   1      44.767  28.688  31.711  1.00  0.00     0.167 HD
ATOM     60  C   UNL A   1      45.436  28.658  28.982  1.00  0.00     0.074 A 
ATOM     61  C   UNL A   1      45.400  27.439  29.783  1.00  0.00     0.031 C 
ATOM     62  C   UNL A   1      45.194  29.963  29.292  1.00  0.00     0.037 A 
BRANCH  49  63
ATOM     63  C   UNL A   1      42.949  28.036  33.883  1.00  0.00     0.064 A 
ATOM     64  C   UNL A   1      43.343  26.804  33.322  1.00  0.00     0.173 A 
ATOM     65  C   UNL A   1      42.787  28.037  35.285  1.00  0.00     0.173 A 
ATOM     66  F   UNL A   1      43.510  26.676  31.997  1.00  0.00    -0.203 F 
ATOM     67  C   UNL A   1      43.479  25.648  34.095  1.00  0.00     0.198 A 
ATOM     68  C   UNL A   1      42.976  26.894  36.058  1.00  0.00     0.198 A 
ATOM     69  F   UNL A   1      42.334  29.096  35.962  1.00  0.00    -0.203 F 
ATOM     70  F   UNL A   1      43.725  24.476  33.496  1.00  0.00    -0.200 F 
ATOM     71  C   UNL A   1      43.292  25.693  35.462  1.00  0.00     0.200 A 
ATOM     72  F   UNL A   1      42.766  26.954  37.381  1.00  0.00    -0.200 F 
ATOM     73  F   UNL A   1      43.365  24.578  36.198  1.00  0.00    -0.200 F 
ENDBRANCH  49  63
BRANCH  50  74
ATOM     74  C   UNL A   1      44.375  25.217  26.011  1.00  0.00     0.064 A 
ATOM     75  C   UNL A   1      45.504  25.242  25.160  1.00  0.00     0.173 A 
ATOM     76  C   UNL A   1      43.915  23.943  26.381  1.00  0.00     0.173 A 
ATOM     77  F   UNL A   1      46.038  26.410  24.771  1.00  0.00    -0.203 F 
ATOM     78  C   UNL A   1      46.170  24.071  24.770  1.00  0.00     0.198 A 
ATOM     79  C   UNL A   1      44.580  22.774  25.988  1.00  0.00     0.198 A 
ATOM     80  F   UNL A   1      42.880  23.816  27.222  1.00  0.00    -0.203 F 
ATOM     81  F   UNL A   1      47.292  24.148  24.039  1.00  0.00    -0.200 F 
ATOM     82  C   UNL A   1      45.718  22.839  25.202  1.00  0.00     0.200 A 
ATOM     83  F   UNL A   1      44.157  21.585  26.439  1.00  0.00    -0.200 F 
ATOM     84  F   UNL A   1      46.401  21.724  24.903  1.00  0.00    -0.200 F 
ENDBRANCH  50  74
BRANCH  62  85
ATOM     85  C   UNL A   1      45.356  30.984  28.199  1.00  0.00     0.064 A 
ATOM     86  C   UNL A   1      44.376  31.319  27.250  1.00  0.00     0.173 A 
ATOM     87  C   UNL A   1      46.534  31.745  28.203  1.00  0.00     0.173 A 
ATOM     88  F   UNL A   1      43.200  30.680  27.209  1.00  0.00    -0.203 F 
ATOM     89  C   UNL A   1      44.574  32.365  26.347  1.00  0.00     0.198 A 
ATOM     90  C   UNL A   1      46.713  32.812  27.330  1.00  0.00     0.198 A 
ATOM     91  F   UNL A   1      47.499  31.482  29.100  1.00  0.00    -0.203 F 
ATOM     92  F   UNL A   1      43.627  32.667  25.447  1.00  0.00    -0.200 F 
ATOM     93  C   UNL A   1      45.734  33.121  26.401  1.00  0.00     0.200 A 
ATOM     94  F   UNL A   1      47.821  33.561  27.412  1.00  0.00    -0.200 F 
ATOM     95  F   UNL A   1      45.900  34.161  25.572  1.00  0.00    -0.200 F 
ENDBRANCH  62  85
ENDBRANCH  36  37
ENDBRANCH  29  31
ENDBRANCH  28  29
ENDBRANCH  27  28
ENDBRANCH   1  27
TORSDOF 16
ENDMDL
MODEL 3
REMARK VINA RESULT:     -12.1      1.479      2.004
REMARK SMILES Cc1nc2ccccc2n1CCC(=O)N1CC[C@H](O)C[C@@H]1C(=O)OCCOC(=O)c1ccc(-c2c3nc(c(-c4c(F)c(F)c(F)c(F)c4F)c4ccc([nH]4)c(-c4c(F)c(F)c(F)c(F)c4F)c4nc(c(-c5c(F)c(F)c(F)c(F)c5F)c5ccc2[nH]5)C=C4)C=C3)cc1
REMARK SMILES IDX 25 1 24 2 22 3 23 4 21 5 15 6 16 7 17 8 20 9 18 10 13 11
REMARK SMILES IDX 14 12 12 13 11 14 10 15 1 16 2 17 3 18 4 19 9 20 5 21 8 22
REMARK SMILES IDX 6 23 7 24 19 25 26 27 27 28 28 29 29 30 30 31 31 32 92 33
REMARK SMILES IDX 32 34 91 35 33 36 34 37 35 38 85 39 36 40 90 41 84 42 86 43
REMARK SMILES IDX 37 44 89 45 83 46 82 47 38 49 70 50 50 51 69 52 51 53 54 54
REMARK SMILES IDX 68 55 87 56 52 57 53 58 67 60 88 61 55 62 39 63 40 64 48 65
REMARK SMILES IDX 41 66 42 67 46 68 49 69 43 70 44 71 47 72 45 73 71 74 72 75
REMARK SMILES IDX 80 76 73 77 74 78 78 79 81 80 75 81 76 82 79 83 77 84 56 85
REMARK SMILES IDX 57 86 65 87 58 88 59 89 63 90 66 91 60 92 61 93 64 94 62 95
REMARK H PARENT 19 26 86 48 54 59
REMARK Flexibility Score: inf
ROOT
ATOM      1  C   UNL A   1      37.529  22.210  25.097  1.00  0.00     0.274 C 
ENDROOT
BRANCH   1   2
ATOM      2  O   UNL A   1      36.547  22.639  26.073  1.00  0.00    -0.461 OA
BRANCH   2   3
ATOM      3  C   UNL A   1      35.306  22.080  26.186  1.00  0.00     0.329 C 
ATOM      4  O   UNL A   1      34.820  21.797  27.269  1.00  0.00    -0.250 OA
BRANCH   3   5
ATOM      5  C   UNL A   1      34.640  21.767  24.770  1.00  0.00     0.197 C 
ATOM      6  N   UNL A   1      33.819  22.911  24.418  1.00  0.00    -0.329 N 
ATOM      7  C   UNL A   1      32.552  22.988  25.156  1.00  0.00     0.123 C 
ATOM      8  C   UNL A   1      31.631  21.796  24.897  1.00  0.00     0.053 C 
ATOM      9  C   UNL A   1      33.825  20.559  24.264  1.00  0.00     0.069 C 
ATOM     10  C   UNL A   1      32.334  20.465  24.649  1.00  0.00     0.118 C 
BRANCH   6  11
ATOM     11  C   UNL A   1      34.245  23.639  23.330  1.00  0.00     0.225 C 
ATOM     12  O   UNL A   1      35.276  23.352  22.716  1.00  0.00    -0.275 OA
BRANCH  11  13
ATOM     13  C   UNL A   1      33.508  24.890  22.958  1.00  0.00     0.122 C 
BRANCH  13  14
ATOM     14  C   UNL A   1      33.683  25.982  23.999  1.00  0.00     0.134 C 
BRANCH  14  15
ATOM     15  N   UNL A   1      32.737  27.067  23.807  1.00  0.00    -0.328 N 
ATOM     16  C   UNL A   1      34.302  28.648  22.593  1.00  0.00     0.088 C 
ATOM     17  C   UNL A   1      32.960  28.216  23.079  1.00  0.00     0.106 A 
ATOM     18  N   UNL A   1      31.808  28.754  22.719  1.00  0.00    -0.234 NA
ATOM     19  C   UNL A   1      30.824  27.957  23.253  1.00  0.00     0.089 A 
ATOM     20  C   UNL A   1      31.382  26.958  24.041  1.00  0.00     0.068 A 
ATOM     21  C   UNL A   1      29.436  27.973  23.046  1.00  0.00     0.030 A 
ATOM     22  C   UNL A   1      30.608  26.032  24.751  1.00  0.00     0.028 A 
ATOM     23  C   UNL A   1      28.644  27.037  23.722  1.00  0.00     0.002 A 
ATOM     24  C   UNL A   1      29.221  26.108  24.589  1.00  0.00     0.002 A 
ENDBRANCH  14  15
ENDBRANCH  13  14
ENDBRANCH  11  13
ENDBRANCH   6  11
BRANCH  10  25
ATOM     25  O   UNL A   1      32.094  19.522  25.685  1.00  0.00    -0.393 OA
ATOM     26  H   UNL A   1      32.770  18.827  25.653  1.00  0.00     0.210 HD
ENDBRANCH  10  25
ENDBRANCH   3   5
ENDBRANCH   2   3
ENDBRANCH   1   2
BRANCH   1  27
ATOM     27  C   UNL A   1      38.649  21.408  25.779  1.00  0.00     0.275 C 
BRANCH  27  28
ATOM     28  O   UNL A   1      39.742  22.306  26.054  1.00  0.00    -0.458 OA
BRANCH  28  29
ATOM     29  C   UNL A   1      40.213  22.282  27.316  1.00  0.00     0.338 C 
ATOM     30  O   UNL A   1      40.674  21.306  27.914  1.00  0.00    -0.246 OA
BRANCH  29  31
ATOM     31  C   UNL A   1      40.608  23.670  27.590  1.00  0.00     0.060 A 
ATOM     32  C   UNL A   1      41.769  24.117  28.211  1.00  0.00     0.016 A 
ATOM     33  C   UNL A   1      39.584  24.560  27.369  1.00  0.00     0.016 A 
ATOM     34  C   UNL A   1      41.789  25.415  28.771  1.00  0.00     0.010 A 
ATOM     35  C   UNL A   1      39.649  25.847  27.856  1.00  0.00     0.010 A 
ATOM     36  C   UNL A   1      40.656  26.242  28.710  1.00  0.00    -0.014 A 
BRANCH  36  37
ATOM     37  C   UNL A   1      40.583  27.636  29.183  1.00  0.00     0.031 A 
ATOM     38  C   UNL A   1      41.592  28.429  28.456  1.00  0.00     0.074 A 
ATOM     39  C   UNL A   1      39.682  28.322  29.935  1.00  0.00     0.049 A 
ATOM     40  N   UNL A   1      42.830  28.502  28.800  1.00  0.00    -0.248 NA
ATOM     41  C   UNL A   1      41.307  28.957  27.112  1.00  0.00     0.031 C 
ATOM     42  C   UNL A   1      38.364  27.934  30.442  1.00  0.00     0.029 A 
ATOM     43  N   UNL A   1      39.801  29.612  30.415  1.00  0.00    -0.354 N 
ATOM     44  C   UNL A   1      43.424  29.318  27.858  1.00  0.00     0.074 A 
ATOM     45  C   UNL A   1      42.534  29.325  26.730  1.00  0.00     0.031 C 
ATOM     46  C   UNL A   1      37.748  28.997  31.026  1.00  0.00     0.029 A 
ATOM     47  C   UNL A   1      38.684  30.107  31.097  1.00  0.00     0.049 A 
ATOM     48  H   UNL A   1      40.617  30.146  30.286  1.00  0.00     0.167 HD
ATOM     49  C   UNL A   1      44.416  30.159  28.253  1.00  0.00     0.037 A 
ATOM     50  C   UNL A   1      38.571  31.312  31.727  1.00  0.00     0.037 A 
ATOM     51  C   UNL A   1      44.799  29.856  29.620  1.00  0.00     0.049 A 
ATOM     52  C   UNL A   1      39.949  31.729  32.074  1.00  0.00     0.074 A 
ATOM     53  C   UNL A   1      45.342  28.772  30.280  1.00  0.00     0.029 A 
ATOM     54  N   UNL A   1      44.160  30.618  30.567  1.00  0.00    -0.354 N 
ATOM     55  N   UNL A   1      40.689  31.128  32.962  1.00  0.00    -0.248 NA
ATOM     56  C   UNL A   1      40.645  32.657  31.198  1.00  0.00     0.031 C 
ATOM     57  C   UNL A   1      44.749  28.770  31.581  1.00  0.00     0.029 A 
ATOM     58  C   UNL A   1      43.921  29.886  31.699  1.00  0.00     0.049 A 
ATOM     59  H   UNL A   1      43.908  31.562  30.448  1.00  0.00     0.167 HD
ATOM     60  C   UNL A   1      41.967  31.232  32.453  1.00  0.00     0.074 A 
ATOM     61  C   UNL A   1      41.905  32.325  31.489  1.00  0.00     0.031 C 
ATOM     62  C   UNL A   1      42.859  30.216  32.628  1.00  0.00     0.037 A 
BRANCH  49  63
ATOM     63  C   UNL A   1      44.696  31.517  27.652  1.00  0.00     0.064 A 
ATOM     64  C   UNL A   1      45.926  31.704  26.987  1.00  0.00     0.173 A 
ATOM     65  C   UNL A   1      43.978  32.699  27.934  1.00  0.00     0.173 A 
ATOM     66  F   UNL A   1      46.705  30.655  26.682  1.00  0.00    -0.203 F 
ATOM     67  C   UNL A   1      46.432  32.974  26.707  1.00  0.00     0.198 A 
ATOM     68  C   UNL A   1      44.463  33.964  27.604  1.00  0.00     0.198 A 
ATOM     69  F   UNL A   1      42.840  32.707  28.634  1.00  0.00    -0.203 F 
ATOM     70  F   UNL A   1      47.663  33.100  26.195  1.00  0.00    -0.200 F 
ATOM     71  C   UNL A   1      45.701  34.104  27.019  1.00  0.00     0.200 A 
ATOM     72  F   UNL A   1      43.748  35.048  27.938  1.00  0.00    -0.200 F 
ATOM     73  F   UNL A   1      46.207  35.325  26.804  1.00  0.00    -0.200 F 
ENDBRANCH  49  63
BRANCH  50  74
ATOM     74  C   UNL A   1      37.435  32.247  31.976  1.00  0.00     0.064 A 
ATOM     75  C   UNL A   1      36.443  32.475  30.996  1.00  0.00     0.173 A 
ATOM     76  C   UNL A   1      37.107  32.638  33.284  1.00  0.00     0.173 A 
ATOM     77  F   UNL A   1      36.649  32.111  29.721  1.00  0.00    -0.203 F 
ATOM     78  C   UNL A   1      35.180  32.992  31.320  1.00  0.00     0.198 A 
ATOM     79  C   UNL A   1      35.845  33.158  33.605  1.00  0.00     0.198 A 
ATOM     80  F   UNL A   1      37.964  32.421  34.291  1.00  0.00    -0.203 F 
ATOM     81  F   UNL A   1      34.237  33.105  30.372  1.00  0.00    -0.200 F 
ATOM     82  C   UNL A   1      34.877  33.313  32.629  1.00  0.00     0.200 A 
ATOM     83  F   UNL A   1      35.546  33.434  34.883  1.00  0.00    -0.200 F 
ATOM     84  F   UNL A   1      33.643  33.726  32.956  1.00  0.00    -0.200 F 
ENDBRANCH  50  74
BRANCH  62  85
ATOM     85  C   UNL A   1      42.622  29.264  33.767  1.00  0.00     0.064 A 
ATOM     86  C   UNL A   1      41.846  28.094  33.700  1.00  0.00     0.173 A 
ATOM     87  C   UNL A   1      43.328  29.499  34.956  1.00  0.00     0.173 A 
ATOM     88  F   UNL A   1      41.181  27.763  32.586  1.00  0.00    -0.203 F 
ATOM     89  C   UNL A   1      41.781  27.208  34.777  1.00  0.00     0.198 A 
ATOM     90  C   UNL A   1      43.295  28.596  36.012  1.00  0.00     0.198 A 
ATOM     91  F   UNL A   1      44.101  30.591  35.071  1.00  0.00    -0.203 F 
ATOM     92  F   UNL A   1      41.032  26.099  34.693  1.00  0.00    -0.200 F 
ATOM     93  C   UNL A   1      42.520  27.452  35.924  1.00  0.00     0.200 A 
ATOM     94  F   UNL A   1      44.040  28.819  37.103  1.00  0.00    -0.200 F 
ATOM     95  F   UNL A   1      42.502  26.573  36.936  1.00  0.00    -0.200 F 
ENDBRANCH  62  85
ENDBRANCH  36  37
ENDBRANCH  29  31
ENDBRANCH  28  29
ENDBRANCH  27  28
ENDBRANCH   1  27
TORSDOF 16
ENDMDL
