MODEL 1
REMARK VINA RESULT:     -10.7      0.000      0.000
REMARK SMILES C=CC[N@@H+](CC(=O)OCCOC(=O)c1ccc(-c2c3nc(c(-c4c(F)c(F)c(F)c(F)c4F)c4ccc([nH]4)c(-c4c(F)c(F)c(F)c(F)c4F)c4nc(c(-c5c(F)c(F)c(F)c(F)c5F)c5ccc2[nH]5)C=C4)C=C3)cc1)[C@@H]1CCCOC1
REMARK SMILES IDX 9 1 8 2 6 3 7 4 5 5 4 6 3 8 2 9 1 10 77 11 78 12 82 13 79 14
REMARK SMILES IDX 81 15 80 16 10 17 11 18 12 19 13 20 14 21 15 22 76 23 16 24
REMARK SMILES IDX 75 25 17 26 18 27 19 28 69 29 20 30 74 31 68 32 70 33 21 34
REMARK SMILES IDX 73 35 67 36 66 37 22 39 54 40 34 41 53 42 35 43 38 44 52 45
REMARK SMILES IDX 71 46 36 47 37 48 51 50 72 51 39 52 23 53 24 54 32 55 25 56
REMARK SMILES IDX 26 57 30 58 33 59 27 60 28 61 31 62 29 63 55 64 56 65 64 66
REMARK SMILES IDX 57 67 58 68 62 69 65 70 59 71 60 72 63 73 61 74 40 75 41 76
REMARK SMILES IDX 49 77 42 78 43 79 47 80 50 81 44 82 45 83 48 84 46 85
REMARK H PARENT 4 7 70 38 38 49
REMARK Flexibility Score: inf
ROOT
ATOM      1  C   UNL A   1      31.081  31.871  26.192  1.00  0.00     0.274 C 
ENDROOT
BRANCH   1   2
ATOM      2  O   UNL A   1      31.736  30.632  26.511  1.00  0.00    -0.458 OA
BRANCH   2   3
ATOM      3  C   UNL A   1      31.828  29.676  25.553  1.00  0.00     0.361 C 
ATOM      4  O   UNL A   1      32.364  28.585  25.713  1.00  0.00    -0.245 OA
BRANCH   3   5
ATOM      5  C   UNL A   1      31.119  30.075  24.245  1.00  0.00     0.387 C 
BRANCH   5   6
ATOM      6  N   UNL A   1      29.894  29.310  23.849  1.00  0.00    -0.318 N 
ATOM      7  H   UNL A   1      29.352  29.075  24.681  1.00  0.00     0.349 HD
BRANCH   6   8
ATOM      8  C   UNL A   1      30.257  27.998  23.302  1.00  0.00     0.291 C 
BRANCH   8   9
ATOM      9  C   UNL A   1      29.393  26.861  23.750  1.00  0.00     0.025 C 
ATOM     10  C   UNL A   1      29.691  26.084  24.802  1.00  0.00     0.010 C 
ENDBRANCH   8   9
ENDBRANCH   6   8
BRANCH   6  11
ATOM     11  C   UNL A   1      28.887  30.133  23.120  1.00  0.00     0.211 C 
ATOM     12  C   UNL A   1      29.103  30.204  21.592  1.00  0.00     0.070 C 
ATOM     13  C   UNL A   1      28.626  31.543  23.685  1.00  0.00     0.225 C 
ATOM     14  C   UNL A   1      28.135  31.160  20.895  1.00  0.00     0.035 C 
ATOM     15  O   UNL A   1      27.685  32.309  22.933  1.00  0.00    -0.375 OA
ATOM     16  C   UNL A   1      28.137  32.504  21.600  1.00  0.00     0.160 C 
ENDBRANCH   6  11
ENDBRANCH   5   6
ENDBRANCH   3   5
ENDBRANCH   2   3
ENDBRANCH   1   2
BRANCH   1  17
ATOM     17  C   UNL A   1      31.853  33.017  26.872  1.00  0.00     0.275 C 
BRANCH  17  18
ATOM     18  O   UNL A   1      32.843  32.594  27.836  1.00  0.00    -0.458 OA
BRANCH  18  19
ATOM     19  C   UNL A   1      33.885  33.420  28.053  1.00  0.00     0.338 C 
ATOM     20  O   UNL A   1      33.876  34.640  28.020  1.00  0.00    -0.246 OA
BRANCH  19  21
ATOM     21  C   UNL A   1      35.130  32.644  28.192  1.00  0.00     0.060 A 
ATOM     22  C   UNL A   1      36.335  33.351  28.270  1.00  0.00     0.016 A 
ATOM     23  C   UNL A   1      35.108  31.260  28.369  1.00  0.00     0.016 A 
ATOM     24  C   UNL A   1      37.512  32.686  28.601  1.00  0.00     0.010 A 
ATOM     25  C   UNL A   1      36.276  30.607  28.781  1.00  0.00     0.010 A 
ATOM     26  C   UNL A   1      37.468  31.330  28.963  1.00  0.00    -0.014 A 
BRANCH  26  27
ATOM     27  C   UNL A   1      38.587  30.750  29.755  1.00  0.00     0.031 A 
ATOM     28  C   UNL A   1      39.516  29.722  29.188  1.00  0.00     0.074 A 
ATOM     29  C   UNL A   1      38.717  31.145  31.040  1.00  0.00     0.049 A 
ATOM     30  N   UNL A   1      40.475  29.061  29.787  1.00  0.00    -0.248 NA
ATOM     31  C   UNL A   1      39.347  29.389  27.769  1.00  0.00     0.031 C 
ATOM     32  C   UNL A   1      37.864  32.135  31.706  1.00  0.00     0.029 A 
ATOM     33  N   UNL A   1      39.604  30.769  32.019  1.00  0.00    -0.354 N 
ATOM     34  C   UNL A   1      41.018  28.223  28.825  1.00  0.00     0.074 A 
ATOM     35  C   UNL A   1      40.270  28.448  27.604  1.00  0.00     0.031 C 
ATOM     36  C   UNL A   1      38.286  32.311  32.964  1.00  0.00     0.029 A 
ATOM     37  C   UNL A   1      39.386  31.393  33.225  1.00  0.00     0.049 A 
ATOM     38  H   UNL A   1      40.326  30.117  31.872  1.00  0.00     0.167 HD
ATOM     39  C   UNL A   1      42.047  27.348  28.955  1.00  0.00     0.037 A 
ATOM     40  C   UNL A   1      39.977  31.222  34.422  1.00  0.00     0.037 A 
ATOM     41  C   UNL A   1      42.782  27.132  30.178  1.00  0.00     0.049 A 
ATOM     42  C   UNL A   1      41.076  30.207  34.547  1.00  0.00     0.074 A 
ATOM     43  C   UNL A   1      43.851  26.283  30.405  1.00  0.00     0.029 A 
ATOM     44  N   UNL A   1      42.516  27.765  31.386  1.00  0.00    -0.354 N 
ATOM     45  N   UNL A   1      41.593  29.434  33.625  1.00  0.00    -0.248 NA
ATOM     46  C   UNL A   1      41.667  30.033  35.880  1.00  0.00     0.031 C 
ATOM     47  C   UNL A   1      44.198  26.361  31.758  1.00  0.00     0.029 A 
ATOM     48  C   UNL A   1      43.384  27.303  32.365  1.00  0.00     0.049 A 
ATOM     49  H   UNL A   1      41.814  28.441  31.526  1.00  0.00     0.167 HD
ATOM     50  C   UNL A   1      42.584  28.697  34.257  1.00  0.00     0.074 A 
ATOM     51  C   UNL A   1      42.607  29.130  35.639  1.00  0.00     0.031 C 
ATOM     52  C   UNL A   1      43.398  27.746  33.737  1.00  0.00     0.037 A 
BRANCH  39  53
ATOM     53  C   UNL A   1      42.424  26.531  27.753  1.00  0.00     0.064 A 
ATOM     54  C   UNL A   1      43.482  26.900  26.909  1.00  0.00     0.173 A 
ATOM     55  C   UNL A   1      41.745  25.336  27.466  1.00  0.00     0.173 A 
ATOM     56  F   UNL A   1      44.160  28.035  27.133  1.00  0.00    -0.203 F 
ATOM     57  C   UNL A   1      43.829  26.116  25.809  1.00  0.00     0.198 A 
ATOM     58  C   UNL A   1      42.112  24.541  26.383  1.00  0.00     0.198 A 
ATOM     59  F   UNL A   1      40.731  24.931  28.246  1.00  0.00    -0.203 F 
ATOM     60  F   UNL A   1      44.815  26.511  24.992  1.00  0.00    -0.200 F 
ATOM     61  C   UNL A   1      43.149  24.936  25.551  1.00  0.00     0.200 A 
ATOM     62  F   UNL A   1      41.463  23.394  26.145  1.00  0.00    -0.200 F 
ATOM     63  F   UNL A   1      43.487  24.181  24.497  1.00  0.00    -0.200 F 
ENDBRANCH  39  53
BRANCH  40  64
ATOM     64  C   UNL A   1      39.519  32.010  35.597  1.00  0.00     0.064 A 
ATOM     65  C   UNL A   1      40.073  33.263  35.890  1.00  0.00     0.173 A 
ATOM     66  C   UNL A   1      38.514  31.527  36.450  1.00  0.00     0.173 A 
ATOM     67  F   UNL A   1      41.053  33.758  35.119  1.00  0.00    -0.203 F 
ATOM     68  C   UNL A   1      39.654  33.994  36.999  1.00  0.00     0.198 A 
ATOM     69  C   UNL A   1      38.072  32.275  37.539  1.00  0.00     0.198 A 
ATOM     70  F   UNL A   1      37.948  30.334  36.215  1.00  0.00    -0.203 F 
ATOM     71  F   UNL A   1      40.236  35.167  37.285  1.00  0.00    -0.200 F 
ATOM     72  C   UNL A   1      38.648  33.503  37.819  1.00  0.00     0.200 A 
ATOM     73  F   UNL A   1      37.088  31.803  38.318  1.00  0.00    -0.200 F 
ATOM     74  F   UNL A   1      38.242  34.211  38.882  1.00  0.00    -0.200 F 
ENDBRANCH  40  64
BRANCH  52  75
ATOM     75  C   UNL A   1      44.409  27.136  34.665  1.00  0.00     0.064 A 
ATOM     76  C   UNL A   1      44.144  25.952  35.369  1.00  0.00     0.173 A 
ATOM     77  C   UNL A   1      45.669  27.732  34.829  1.00  0.00     0.173 A 
ATOM     78  F   UNL A   1      42.948  25.355  35.263  1.00  0.00    -0.203 F 
ATOM     79  C   UNL A   1      45.096  25.402  36.225  1.00  0.00     0.198 A 
ATOM     80  C   UNL A   1      46.628  27.162  35.660  1.00  0.00     0.198 A 
ATOM     81  F   UNL A   1      45.972  28.864  34.175  1.00  0.00    -0.203 F 
ATOM     82  F   UNL A   1      44.804  24.299  36.928  1.00  0.00    -0.200 F 
ATOM     83  C   UNL A   1      46.339  26.003  36.363  1.00  0.00     0.200 A 
ATOM     84  F   UNL A   1      47.833  27.736  35.783  1.00  0.00    -0.200 F 
ATOM     85  F   UNL A   1      47.255  25.468  37.181  1.00  0.00    -0.200 F 
ENDBRANCH  52  75
ENDBRANCH  26  27
ENDBRANCH  19  21
ENDBRANCH  18  19
ENDBRANCH  17  18
ENDBRANCH   1  17
TORSDOF 15
ENDMDL
MODEL 2
REMARK VINA RESULT:     -10.7      5.095     10.499
REMARK SMILES C=CC[N@@H+](CC(=O)OCCOC(=O)c1ccc(-c2c3nc(c(-c4c(F)c(F)c(F)c(F)c4F)c4ccc([nH]4)c(-c4c(F)c(F)c(F)c(F)c4F)c4nc(c(-c5c(F)c(F)c(F)c(F)c5F)c5ccc2[nH]5)C=C4)C=C3)cc1)[C@@H]1CCCOC1
REMARK SMILES IDX 9 1 8 2 6 3 7 4 5 5 4 6 3 8 2 9 1 10 77 11 78 12 82 13 79 14
REMARK SMILES IDX 81 15 80 16 10 17 11 18 12 19 13 20 14 21 15 22 76 23 16 24
REMARK SMILES IDX 75 25 17 26 18 27 19 28 69 29 20 30 74 31 68 32 70 33 21 34
REMARK SMILES IDX 73 35 67 36 66 37 22 39 54 40 34 41 53 42 35 43 38 44 52 45
REMARK SMILES IDX 71 46 36 47 37 48 51 50 72 51 39 52 23 53 24 54 32 55 25 56
REMARK SMILES IDX 26 57 30 58 33 59 27 60 28 61 31 62 29 63 55 64 56 65 64 66
REMARK SMILES IDX 57 67 58 68 62 69 65 70 59 71 60 72 63 73 61 74 40 75 41 76
REMARK SMILES IDX 49 77 42 78 43 79 47 80 50 81 44 82 45 83 48 84 46 85
REMARK H PARENT 4 7 70 38 38 49
REMARK Flexibility Score: inf
ROOT
ATOM      1  C   UNL A   1      36.067  20.736  24.863  1.00  0.00     0.274 C 
ENDROOT
BRANCH   1   2
ATOM      2  O   UNL A   1      35.557  21.268  26.097  1.00  0.00    -0.458 OA
BRANCH   2   3
ATOM      3  C   UNL A   1      34.531  22.154  26.052  1.00  0.00     0.361 C 
ATOM      4  O   UNL A   1      34.591  23.257  25.520  1.00  0.00    -0.245 OA
BRANCH   3   5
ATOM      5  C   UNL A   1      33.239  21.600  26.683  1.00  0.00     0.387 C 
BRANCH   5   6
ATOM      6  N   UNL A   1      32.047  21.416  25.796  1.00  0.00    -0.318 N 
ATOM      7  H   UNL A   1      31.385  20.778  26.239  1.00  0.00     0.349 HD
BRANCH   6   8
ATOM      8  C   UNL A   1      32.421  20.710  24.565  1.00  0.00     0.291 C 
BRANCH   8   9
ATOM      9  C   UNL A   1      32.562  19.226  24.699  1.00  0.00     0.025 C 
ATOM     10  C   UNL A   1      32.536  18.389  23.652  1.00  0.00     0.010 C 
ENDBRANCH   8   9
ENDBRANCH   6   8
BRANCH   6  11
ATOM     11  C   UNL A   1      31.190  22.630  25.689  1.00  0.00     0.211 C 
ATOM     12  C   UNL A   1      31.327  23.395  24.354  1.00  0.00     0.070 C 
ATOM     13  C   UNL A   1      31.258  23.615  26.873  1.00  0.00     0.225 C 
ATOM     14  C   UNL A   1      30.537  24.704  24.330  1.00  0.00     0.035 C 
ATOM     15  O   UNL A   1      30.452  24.781  26.710  1.00  0.00    -0.375 OA
ATOM     16  C   UNL A   1      30.856  25.524  25.567  1.00  0.00     0.160 C 
ENDBRANCH   6  11
ENDBRANCH   5   6
ENDBRANCH   3   5
ENDBRANCH   2   3
ENDBRANCH   1   2
BRANCH   1  17
ATOM     17  C   UNL A   1      37.534  20.326  25.080  1.00  0.00     0.275 C 
BRANCH  17  18
ATOM     18  O   UNL A   1      38.461  21.429  25.206  1.00  0.00    -0.458 OA
BRANCH  18  19
ATOM     19  C   UNL A   1      39.503  21.267  26.044  1.00  0.00     0.338 C 
ATOM     20  O   UNL A   1      40.116  20.235  26.265  1.00  0.00    -0.246 OA
BRANCH  19  21
ATOM     21  C   UNL A   1      39.734  22.502  26.815  1.00  0.00     0.060 A 
ATOM     22  C   UNL A   1      40.800  22.516  27.720  1.00  0.00     0.016 A 
ATOM     23  C   UNL A   1      39.001  23.663  26.564  1.00  0.00     0.016 A 
ATOM     24  C   UNL A   1      41.186  23.711  28.322  1.00  0.00     0.010 A 
ATOM     25  C   UNL A   1      39.441  24.877  27.107  1.00  0.00     0.010 A 
ATOM     26  C   UNL A   1      40.576  24.915  27.936  1.00  0.00    -0.014 A 
BRANCH  26  27
ATOM     27  C   UNL A   1      41.274  26.203  28.197  1.00  0.00     0.031 A 
ATOM     28  C   UNL A   1      40.606  27.344  28.899  1.00  0.00     0.074 A 
ATOM     29  C   UNL A   1      42.535  26.339  27.732  1.00  0.00     0.049 A 
ATOM     30  N   UNL A   1      41.057  28.555  29.114  1.00  0.00    -0.248 NA
ATOM     31  C   UNL A   1      39.258  27.099  29.426  1.00  0.00     0.031 C 
ATOM     32  C   UNL A   1      43.286  25.298  27.024  1.00  0.00     0.029 A 
ATOM     33  N   UNL A   1      43.408  27.397  27.777  1.00  0.00    -0.354 N 
ATOM     34  C   UNL A   1      40.046  29.223  29.789  1.00  0.00     0.074 A 
ATOM     35  C   UNL A   1      38.950  28.286  29.935  1.00  0.00     0.031 C 
ATOM     36  C   UNL A   1      44.511  25.754  26.731  1.00  0.00     0.029 A 
ATOM     37  C   UNL A   1      44.609  27.144  27.156  1.00  0.00     0.049 A 
ATOM     38  H   UNL A   1      43.196  28.255  28.211  1.00  0.00     0.167 HD
ATOM     39  C   UNL A   1      40.041  30.502  30.243  1.00  0.00     0.037 A 
ATOM     40  C   UNL A   1      45.661  27.948  26.917  1.00  0.00     0.037 A 
ATOM     41  C   UNL A   1      41.139  31.425  30.088  1.00  0.00     0.049 A 
ATOM     42  C   UNL A   1      45.603  29.374  27.384  1.00  0.00     0.074 A 
ATOM     43  C   UNL A   1      41.236  32.734  30.529  1.00  0.00     0.029 A 
ATOM     44  N   UNL A   1      42.330  31.140  29.431  1.00  0.00    -0.354 N 
ATOM     45  N   UNL A   1      44.649  29.988  28.037  1.00  0.00    -0.248 NA
ATOM     46  C   UNL A   1      46.762  30.219  27.071  1.00  0.00     0.031 C 
ATOM     47  C   UNL A   1      42.459  33.256  30.095  1.00  0.00     0.029 A 
ATOM     48  C   UNL A   1      43.153  32.256  29.434  1.00  0.00     0.049 A 
ATOM     49  H   UNL A   1      42.555  30.272  29.024  1.00  0.00     0.167 HD
ATOM     50  C   UNL A   1      45.098  31.285  28.235  1.00  0.00     0.074 A 
ATOM     51  C   UNL A   1      46.419  31.364  27.646  1.00  0.00     0.031 C 
ATOM     52  C   UNL A   1      44.468  32.318  28.846  1.00  0.00     0.037 A 
BRANCH  39  53
ATOM     53  C   UNL A   1      38.797  30.994  30.924  1.00  0.00     0.064 A 
ATOM     54  C   UNL A   1      37.704  31.493  30.199  1.00  0.00     0.173 A 
ATOM     55  C   UNL A   1      38.677  30.923  32.321  1.00  0.00     0.173 A 
ATOM     56  F   UNL A   1      37.767  31.590  28.863  1.00  0.00    -0.203 F 
ATOM     57  C   UNL A   1      36.550  31.927  30.849  1.00  0.00     0.198 A 
ATOM     58  C   UNL A   1      37.512  31.331  32.965  1.00  0.00     0.198 A 
ATOM     59  F   UNL A   1      39.687  30.446  33.063  1.00  0.00    -0.203 F 
ATOM     60  F   UNL A   1      35.535  32.441  30.139  1.00  0.00    -0.200 F 
ATOM     61  C   UNL A   1      36.452  31.840  32.229  1.00  0.00     0.200 A 
ATOM     62  F   UNL A   1      37.414  31.232  34.298  1.00  0.00    -0.200 F 
ATOM     63  F   UNL A   1      35.339  32.251  32.853  1.00  0.00    -0.200 F 
ENDBRANCH  39  53
BRANCH  40  64
ATOM     64  C   UNL A   1      46.843  27.427  26.178  1.00  0.00     0.064 A 
ATOM     65  C   UNL A   1      47.880  26.761  26.845  1.00  0.00     0.173 A 
ATOM     66  C   UNL A   1      46.957  27.583  24.788  1.00  0.00     0.173 A 
ATOM     67  F   UNL A   1      47.828  26.608  28.176  1.00  0.00    -0.203 F 
ATOM     68  C   UNL A   1      48.992  26.287  26.154  1.00  0.00     0.198 A 
ATOM     69  C   UNL A   1      48.054  27.077  24.093  1.00  0.00     0.198 A 
ATOM     70  F   UNL A   1      45.992  28.210  24.099  1.00  0.00    -0.203 F 
ATOM     71  F   UNL A   1      49.993  25.697  26.824  1.00  0.00    -0.200 F 
ATOM     72  C   UNL A   1      49.076  26.438  24.778  1.00  0.00     0.200 A 
ATOM     73  F   UNL A   1      48.121  27.211  22.761  1.00  0.00    -0.200 F 
ATOM     74  F   UNL A   1      50.144  25.976  24.114  1.00  0.00    -0.200 F 
ENDBRANCH  40  64
BRANCH  52  75
ATOM     75  C   UNL A   1      45.222  33.613  28.941  1.00  0.00     0.064 A 
ATOM     76  C   UNL A   1      46.088  33.887  30.010  1.00  0.00     0.173 A 
ATOM     77  C   UNL A   1      45.096  34.582  27.933  1.00  0.00     0.173 A 
ATOM     78  F   UNL A   1      46.228  33.003  31.009  1.00  0.00    -0.203 F 
ATOM     79  C   UNL A   1      46.779  35.095  30.080  1.00  0.00     0.198 A 
ATOM     80  C   UNL A   1      45.811  35.773  27.990  1.00  0.00     0.198 A 
ATOM     81  F   UNL A   1      44.283  34.366  26.887  1.00  0.00    -0.203 F 
ATOM     82  F   UNL A   1      47.561  35.357  31.136  1.00  0.00    -0.200 F 
ATOM     83  C   UNL A   1      46.647  36.032  29.066  1.00  0.00     0.200 A 
ATOM     84  F   UNL A   1      45.693  36.673  27.003  1.00  0.00    -0.200 F 
ATOM     85  F   UNL A   1      47.317  37.190  29.132  1.00  0.00    -0.200 F 
ENDBRANCH  52  75
ENDBRANCH  26  27
ENDBRANCH  19  21
ENDBRANCH  18  19
ENDBRANCH  17  18
ENDBRANCH   1  17
TORSDOF 15
ENDMDL
MODEL 3
REMARK VINA RESULT:     -10.6      5.944      9.146
REMARK SMILES C=CC[N@@H+](CC(=O)OCCOC(=O)c1ccc(-c2c3nc(c(-c4c(F)c(F)c(F)c(F)c4F)c4ccc([nH]4)c(-c4c(F)c(F)c(F)c(F)c4F)c4nc(c(-c5c(F)c(F)c(F)c(F)c5F)c5ccc2[nH]5)C=C4)C=C3)cc1)[C@@H]1CCCOC1
REMARK SMILES IDX 9 1 8 2 6 3 7 4 5 5 4 6 3 8 2 9 1 10 77 11 78 12 82 13 79 14
REMARK SMILES IDX 81 15 80 16 10 17 11 18 12 19 13 20 14 21 15 22 76 23 16 24
REMARK SMILES IDX 75 25 17 26 18 27 19 28 69 29 20 30 74 31 68 32 70 33 21 34
REMARK SMILES IDX 73 35 67 36 66 37 22 39 54 40 34 41 53 42 35 43 38 44 52 45
REMARK SMILES IDX 71 46 36 47 37 48 51 50 72 51 39 52 23 53 24 54 32 55 25 56
REMARK SMILES IDX 26 57 30 58 33 59 27 60 28 61 31 62 29 63 55 64 56 65 64 66
REMARK SMILES IDX 57 67 58 68 62 69 65 70 59 71 60 72 63 73 61 74 40 75 41 76
REMARK SMILES IDX 49 77 42 78 43 79 47 80 50 81 44 82 45 83 48 84 46 85
REMARK H PARENT 4 7 70 38 38 49
REMARK Flexibility Score: inf
ROOT
ATOM      1  C   UNL A   1      38.109  19.609  25.004  1.00  0.00     0.274 C 
ENDROOT
BRANCH   1   2
ATOM      2  O   UNL A   1      38.004  21.042  24.943  1.00  0.00    -0.458 OA
BRANCH   2   3
ATOM      3  C   UNL A   1      36.822  21.595  24.574  1.00  0.00     0.361 C 
ATOM      4  O   UNL A   1      36.686  22.376  23.639  1.00  0.00    -0.245 OA
BRANCH   3   5
ATOM      5  C   UNL A   1      35.638  21.082  25.414  1.00  0.00     0.387 C 
BRANCH   5   6
ATOM      6  N   UNL A   1      34.434  20.566  24.689  1.00  0.00    -0.318 N 
ATOM      7  H   UNL A   1      34.655  20.444  23.700  1.00  0.00     0.349 HD
BRANCH   6   8
ATOM      8  C   UNL A   1      33.367  21.574  24.673  1.00  0.00     0.291 C 
BRANCH   8   9
ATOM      9  C   UNL A   1      32.921  22.007  23.312  1.00  0.00     0.025 C 
ATOM     10  C   UNL A   1      33.481  23.028  22.647  1.00  0.00     0.010 C 
ENDBRANCH   8   9
ENDBRANCH   6   8
BRANCH   6  11
ATOM     11  C   UNL A   1      34.082  19.161  25.041  1.00  0.00     0.211 C 
ATOM     12  C   UNL A   1      34.865  18.089  24.252  1.00  0.00     0.070 C 
ATOM     13  C   UNL A   1      32.579  18.820  25.051  1.00  0.00     0.225 C 
ATOM     14  C   UNL A   1      34.387  16.665  24.541  1.00  0.00     0.035 C 
ATOM     15  O   UNL A   1      32.292  17.455  25.353  1.00  0.00    -0.375 OA
ATOM     16  C   UNL A   1      32.878  16.586  24.394  1.00  0.00     0.160 C 
ENDBRANCH   6  11
ENDBRANCH   5   6
ENDBRANCH   3   5
ENDBRANCH   2   3
ENDBRANCH   1   2
BRANCH   1  17
ATOM     17  C   UNL A   1      39.414  19.249  25.737  1.00  0.00     0.275 C 
BRANCH  17  18
ATOM     18  O   UNL A   1      40.390  20.313  25.799  1.00  0.00    -0.458 OA
BRANCH  18  19
ATOM     19  C   UNL A   1      41.074  20.457  26.951  1.00  0.00     0.338 C 
ATOM     20  O   UNL A   1      41.563  19.569  27.632  1.00  0.00    -0.246 OA
BRANCH  19  21
ATOM     21  C   UNL A   1      41.032  21.861  27.397  1.00  0.00     0.060 A 
ATOM     22  C   UNL A   1      41.896  22.245  28.428  1.00  0.00     0.016 A 
ATOM     23  C   UNL A   1      40.253  22.811  26.735  1.00  0.00     0.016 A 
ATOM     24  C   UNL A   1      42.042  23.591  28.750  1.00  0.00     0.010 A 
ATOM     25  C   UNL A   1      40.461  24.170  27.004  1.00  0.00     0.010 A 
ATOM     26  C   UNL A   1      41.405  24.567  27.967  1.00  0.00    -0.014 A 
BRANCH  26  27
ATOM     27  C   UNL A   1      41.912  25.966  27.990  1.00  0.00     0.031 A 
ATOM     28  C   UNL A   1      43.244  26.341  27.419  1.00  0.00     0.074 A 
ATOM     29  C   UNL A   1      41.147  26.902  28.595  1.00  0.00     0.049 A 
ATOM     30  N   UNL A   1      43.856  27.499  27.450  1.00  0.00    -0.248 NA
ATOM     31  C   UNL A   1      43.989  25.282  26.727  1.00  0.00     0.031 C 
ATOM     32  C   UNL A   1      39.834  26.652  29.197  1.00  0.00     0.029 A 
ATOM     33  N   UNL A   1      41.355  28.241  28.811  1.00  0.00    -0.354 N 
ATOM     34  C   UNL A   1      45.064  27.309  26.795  1.00  0.00     0.074 A 
ATOM     35  C   UNL A   1      45.105  25.917  26.390  1.00  0.00     0.031 C 
ATOM     36  C   UNL A   1      39.341  27.800  29.681  1.00  0.00     0.029 A 
ATOM     37  C   UNL A   1      40.332  28.851  29.499  1.00  0.00     0.049 A 
ATOM     38  H   UNL A   1      42.158  28.720  28.502  1.00  0.00     0.167 HD
ATOM     39  C   UNL A   1      46.043  28.217  26.557  1.00  0.00     0.037 A 
ATOM     40  C   UNL A   1      40.216  30.106  29.969  1.00  0.00     0.037 A 
ATOM     41  C   UNL A   1      45.990  29.598  26.969  1.00  0.00     0.049 A 
ATOM     42  C   UNL A   1      41.341  31.073  29.737  1.00  0.00     0.074 A 
ATOM     43  C   UNL A   1      46.923  30.599  26.757  1.00  0.00     0.029 A 
ATOM     44  N   UNL A   1      44.948  30.173  27.686  1.00  0.00    -0.354 N 
ATOM     45  N   UNL A   1      42.470  30.886  29.100  1.00  0.00    -0.248 NA
ATOM     46  C   UNL A   1      41.181  32.421  30.297  1.00  0.00     0.031 C 
ATOM     47  C   UNL A   1      46.472  31.763  27.391  1.00  0.00     0.029 A 
ATOM     48  C   UNL A   1      45.230  31.506  27.947  1.00  0.00     0.049 A 
ATOM     49  H   UNL A   1      44.130  29.703  27.968  1.00  0.00     0.167 HD
ATOM     50  C   UNL A   1      43.146  32.095  29.161  1.00  0.00     0.074 A 
ATOM     51  C   UNL A   1      42.292  33.014  29.884  1.00  0.00     0.031 C 
ATOM     52  C   UNL A   1      44.368  32.411  28.666  1.00  0.00     0.037 A 
BRANCH  39  53
ATOM     53  C   UNL A   1      47.276  27.741  25.844  1.00  0.00     0.064 A 
ATOM     54  C   UNL A   1      48.404  27.283  26.540  1.00  0.00     0.173 A 
ATOM     55  C   UNL A   1      47.312  27.698  24.440  1.00  0.00     0.173 A 
ATOM     56  F   UNL A   1      48.426  27.308  27.881  1.00  0.00    -0.203 F 
ATOM     57  C   UNL A   1      49.531  26.826  25.859  1.00  0.00     0.198 A 
ATOM     58  C   UNL A   1      48.429  27.215  23.763  1.00  0.00     0.198 A 
ATOM     59  F   UNL A   1      46.257  28.115  23.724  1.00  0.00    -0.203 F 
ATOM     60  F   UNL A   1      50.614  26.435  26.546  1.00  0.00    -0.200 F 
ATOM     61  C   UNL A   1      49.540  26.787  24.473  1.00  0.00     0.200 A 
ATOM     62  F   UNL A   1      48.430  27.164  22.425  1.00  0.00    -0.200 F 
ATOM     63  F   UNL A   1      50.623  26.341  23.820  1.00  0.00    -0.200 F 
ENDBRANCH  39  53
BRANCH  40  64
ATOM     64  C   UNL A   1      39.001  30.507  30.728  1.00  0.00     0.064 A 
ATOM     65  C   UNL A   1      37.883  31.044  30.077  1.00  0.00     0.173 A 
ATOM     66  C   UNL A   1      38.933  30.357  32.123  1.00  0.00     0.173 A 
ATOM     67  F   UNL A   1      37.908  31.229  28.749  1.00  0.00    -0.203 F 
ATOM     68  C   UNL A   1      36.751  31.432  30.791  1.00  0.00     0.198 A 
ATOM     69  C   UNL A   1      37.787  30.714  32.831  1.00  0.00     0.198 A 
ATOM     70  F   UNL A   1      39.974  29.846  32.797  1.00  0.00    -0.203 F 
ATOM     71  F   UNL A   1      35.715  31.989  30.148  1.00  0.00    -0.200 F 
ATOM     72  C   UNL A   1      36.701  31.260  32.166  1.00  0.00     0.200 A 
ATOM     73  F   UNL A   1      37.737  30.529  34.158  1.00  0.00    -0.200 F 
ATOM     74  F   UNL A   1      35.609  31.628  32.850  1.00  0.00    -0.200 F 
ENDBRANCH  40  64
BRANCH  52  75
ATOM     75  C   UNL A   1      44.834  33.826  28.859  1.00  0.00     0.064 A 
ATOM     76  C   UNL A   1      45.630  34.198  29.952  1.00  0.00     0.173 A 
ATOM     77  C   UNL A   1      44.500  34.815  27.921  1.00  0.00     0.173 A 
ATOM     78  F   UNL A   1      45.960  33.293  30.887  1.00  0.00    -0.203 F 
ATOM     79  C   UNL A   1      46.053  35.515  30.113  1.00  0.00     0.198 A 
ATOM     80  C   UNL A   1      44.950  36.123  28.069  1.00  0.00     0.198 A 
ATOM     81  F   UNL A   1      43.743  34.509  26.856  1.00  0.00    -0.203 F 
ATOM     82  F   UNL A   1      46.770  35.859  31.192  1.00  0.00    -0.200 F 
ATOM     83  C   UNL A   1      45.720  36.474  29.167  1.00  0.00     0.200 A 
ATOM     84  F   UNL A   1      44.638  37.046  27.148  1.00  0.00    -0.200 F 
ATOM     85  F   UNL A   1      46.133  37.739  29.321  1.00  0.00    -0.200 F 
ENDBRANCH  52  75
ENDBRANCH  26  27
ENDBRANCH  19  21
ENDBRANCH  18  19
ENDBRANCH  17  18
ENDBRANCH   1  17
TORSDOF 15
ENDMDL
