MODEL 1
REMARK VINA RESULT:     -11.7      0.000      0.000
REMARK SMILES C[C@@H](CC(=O)OCCOC(=O)c1ccc(-c2c3nc(c(-c4c(F)c(F)c(F)c(F)c4F)c4ccc([nH]4)c(-c4c(F)c(F)c(F)c(F)c4F)c4nc(c(-c5c(F)c(F)c(F)c(F)c5F)c5ccc2[nH]5)C=C4)C=C3)cc1)Cc1nnc(C2C(C)(C)C2(C)C)o1
REMARK SMILES IDX 7 1 6 2 4 3 5 4 3 5 2 6 1 7 75 8 76 9 77 10 87 11 78 12
REMARK SMILES IDX 79 13 80 14 81 15 84 16 82 17 83 18 85 19 86 20 8 21 9 22
REMARK SMILES IDX 10 23 11 24 12 25 13 26 74 27 14 28 73 29 15 30 16 31 17 32
REMARK SMILES IDX 67 33 18 34 72 35 66 36 68 37 19 38 71 39 65 40 64 41 20 43
REMARK SMILES IDX 52 44 32 45 51 46 33 47 36 48 50 49 69 50 34 51 35 52 49 54
REMARK SMILES IDX 70 55 37 56 21 57 22 58 30 59 23 60 24 61 28 62 31 63 25 64
REMARK SMILES IDX 26 65 29 66 27 67 53 68 54 69 62 70 55 71 56 72 60 73 63 74
REMARK SMILES IDX 57 75 58 76 61 77 59 78 38 79 39 80 47 81 40 82 41 83 45 84
REMARK SMILES IDX 48 85 42 86 43 87 46 88 44 89
REMARK H PARENT 68 42 36 53
REMARK Flexibility Score: inf
ROOT
ATOM      1  C   UNL A   1      35.969  20.371  24.995  1.00  0.00     0.274 C 
ENDROOT
BRANCH   1   2
ATOM      2  O   UNL A   1      35.565  21.264  26.053  1.00  0.00    -0.462 OA
BRANCH   2   3
ATOM      3  C   UNL A   1      34.661  22.214  25.720  1.00  0.00     0.306 C 
ATOM      4  O   UNL A   1      33.911  22.774  26.511  1.00  0.00    -0.252 OA
BRANCH   3   5
ATOM      5  C   UNL A   1      34.597  22.494  24.235  1.00  0.00     0.126 C 
BRANCH   5   6
ATOM      6  C   UNL A   1      33.240  22.488  23.508  1.00  0.00     0.006 C 
ATOM      7  C   UNL A   1      32.622  21.086  23.456  1.00  0.00     0.009 C 
BRANCH   6   8
ATOM      8  C   UNL A   1      33.293  23.155  22.119  1.00  0.00     0.103 C 
BRANCH   8   9
ATOM      9  C   UNL A   1      32.981  24.609  22.165  1.00  0.00     0.216 A 
ATOM     10  N   UNL A   1      33.718  25.644  21.829  1.00  0.00    -0.113 NA
ATOM     11  O   UNL A   1      31.721  24.967  22.566  1.00  0.00    -0.425 OA
ATOM     12  N   UNL A   1      32.927  26.755  22.001  1.00  0.00    -0.113 NA
ATOM     13  C   UNL A   1      31.755  26.332  22.436  1.00  0.00     0.220 A 
BRANCH  13  14
ATOM     14  C   UNL A   1      30.613  27.305  22.702  1.00  0.00     0.090 C 
ATOM     15  C   UNL A   1      29.672  27.136  23.900  1.00  0.00    -0.017 C 
ATOM     16  C   UNL A   1      30.625  28.330  23.836  1.00  0.00    -0.017 C 
ATOM     17  C   UNL A   1      28.194  27.332  23.613  1.00  0.00     0.012 C 
ATOM     18  C   UNL A   1      29.884  26.055  24.938  1.00  0.00     0.012 C 
ATOM     19  C   UNL A   1      31.802  28.434  24.781  1.00  0.00     0.012 C 
ATOM     20  C   UNL A   1      30.057  29.703  23.520  1.00  0.00     0.012 C 
ENDBRANCH  13  14
ENDBRANCH   8   9
ENDBRANCH   6   8
ENDBRANCH   5   6
ENDBRANCH   3   5
ENDBRANCH   2   3
ENDBRANCH   1   2
BRANCH   1  21
ATOM     21  C   UNL A   1      37.490  20.313  24.869  1.00  0.00     0.275 C 
BRANCH  21  22
ATOM     22  O   UNL A   1      38.090  21.455  25.506  1.00  0.00    -0.458 OA
BRANCH  22  23
ATOM     23  C   UNL A   1      39.260  21.228  26.140  1.00  0.00     0.338 C 
ATOM     24  O   UNL A   1      39.880  20.184  26.225  1.00  0.00    -0.246 OA
BRANCH  23  25
ATOM     25  C   UNL A   1      39.762  22.494  26.687  1.00  0.00     0.060 A 
ATOM     26  C   UNL A   1      39.257  23.691  26.176  1.00  0.00     0.016 A 
ATOM     27  C   UNL A   1      40.806  22.497  27.614  1.00  0.00     0.016 A 
ATOM     28  C   UNL A   1      39.817  24.902  26.568  1.00  0.00     0.010 A 
ATOM     29  C   UNL A   1      41.349  23.716  28.028  1.00  0.00     0.010 A 
ATOM     30  C   UNL A   1      40.874  24.924  27.488  1.00  0.00    -0.014 A 
BRANCH  30  31
ATOM     31  C   UNL A   1      41.502  26.217  27.842  1.00  0.00     0.031 A 
ATOM     32  C   UNL A   1      42.888  26.536  27.365  1.00  0.00     0.074 A 
ATOM     33  C   UNL A   1      40.808  27.121  28.556  1.00  0.00     0.049 A 
ATOM     34  N   UNL A   1      43.606  27.612  27.569  1.00  0.00    -0.248 NA
ATOM     35  C   UNL A   1      43.559  25.509  26.552  1.00  0.00     0.031 C 
ATOM     36  C   UNL A   1      39.448  26.933  29.060  1.00  0.00     0.029 A 
ATOM     37  N   UNL A   1      41.149  28.384  28.970  1.00  0.00    -0.354 N 
ATOM     38  C   UNL A   1      44.816  27.385  26.929  1.00  0.00     0.074 A 
ATOM     39  C   UNL A   1      44.743  26.066  26.335  1.00  0.00     0.031 C 
ATOM     40  C   UNL A   1      39.063  28.048  29.702  1.00  0.00     0.029 A 
ATOM     41  C   UNL A   1      40.156  29.016  29.673  1.00  0.00     0.049 A 
ATOM     42  H   UNL A   1      42.023  28.795  28.781  1.00  0.00     0.167 HD
ATOM     43  C   UNL A   1      45.891  28.205  26.843  1.00  0.00     0.037 A 
ATOM     44  C   UNL A   1      40.133  30.240  30.232  1.00  0.00     0.037 A 
ATOM     45  C   UNL A   1      45.962  29.524  27.414  1.00  0.00     0.049 A 
ATOM     46  C   UNL A   1      41.332  31.136  30.106  1.00  0.00     0.074 A 
ATOM     47  C   UNL A   1      47.011  30.426  27.380  1.00  0.00     0.029 A 
ATOM     48  N   UNL A   1      44.934  30.133  28.117  1.00  0.00    -0.354 N 
ATOM     49  N   UNL A   1      42.474  30.907  29.508  1.00  0.00    -0.248 NA
ATOM     50  C   UNL A   1      41.238  32.461  30.736  1.00  0.00     0.031 C 
ATOM     51  C   UNL A   1      46.623  31.577  28.077  1.00  0.00     0.029 A 
ATOM     52  C   UNL A   1      45.324  31.398  28.524  1.00  0.00     0.049 A 
ATOM     53  H   UNL A   1      44.056  29.725  28.300  1.00  0.00     0.167 HD
ATOM     54  C   UNL A   1      43.232  32.055  29.681  1.00  0.00     0.074 A 
ATOM     55  C   UNL A   1      42.414  32.989  30.427  1.00  0.00     0.031 C 
ATOM     56  C   UNL A   1      44.496  32.311  29.265  1.00  0.00     0.037 A 
BRANCH  43  57
ATOM     57  C   UNL A   1      47.090  27.686  26.114  1.00  0.00     0.064 A 
ATOM     58  C   UNL A   1      47.188  27.765  24.718  1.00  0.00     0.173 A 
ATOM     59  C   UNL A   1      48.165  27.129  26.823  1.00  0.00     0.173 A 
ATOM     60  F   UNL A   1      46.176  28.273  23.999  1.00  0.00    -0.203 F 
ATOM     61  C   UNL A   1      48.317  27.292  24.055  1.00  0.00     0.198 A 
ATOM     62  C   UNL A   1      49.298  26.671  26.157  1.00  0.00     0.198 A 
ATOM     63  F   UNL A   1      48.114  27.032  28.159  1.00  0.00    -0.203 F 
ATOM     64  F   UNL A   1      48.379  27.349  22.717  1.00  0.00    -0.200 F 
ATOM     65  C   UNL A   1      49.372  26.751  24.774  1.00  0.00     0.200 A 
ATOM     66  F   UNL A   1      50.318  26.151  26.853  1.00  0.00    -0.200 F 
ATOM     67  F   UNL A   1      50.458  26.296  24.134  1.00  0.00    -0.200 F 
ENDBRANCH  43  57
BRANCH  44  68
ATOM     68  C   UNL A   1      38.919  30.693  30.950  1.00  0.00     0.064 A 
ATOM     69  C   UNL A   1      38.808  30.541  32.338  1.00  0.00     0.173 A 
ATOM     70  C   UNL A   1      37.856  31.298  30.266  1.00  0.00     0.173 A 
ATOM     71  F   UNL A   1      39.793  29.946  33.027  1.00  0.00    -0.203 F 
ATOM     72  C   UNL A   1      37.671  30.972  33.017  1.00  0.00     0.198 A 
ATOM     73  C   UNL A   1      36.728  31.745  30.948  1.00  0.00     0.198 A 
ATOM     74  F   UNL A   1      37.921  31.463  28.937  1.00  0.00    -0.203 F 
ATOM     75  F   UNL A   1      37.575  30.791  34.341  1.00  0.00    -0.200 F 
ATOM     76  C   UNL A   1      36.634  31.578  32.322  1.00  0.00     0.200 A 
ATOM     77  F   UNL A   1      35.730  32.335  30.275  1.00  0.00    -0.200 F 
ATOM     78  F   UNL A   1      35.542  31.996  32.976  1.00  0.00    -0.200 F 
ENDBRANCH  44  68
BRANCH  56  79
ATOM     79  C   UNL A   1      45.063  33.654  29.604  1.00  0.00     0.064 A 
ATOM     80  C   UNL A   1      44.888  34.752  28.750  1.00  0.00     0.173 A 
ATOM     81  C   UNL A   1      45.763  33.850  30.803  1.00  0.00     0.173 A 
ATOM     82  F   UNL A   1      44.237  34.604  27.587  1.00  0.00    -0.203 F 
ATOM     83  C   UNL A   1      45.411  35.999  29.077  1.00  0.00     0.198 A 
ATOM     84  C   UNL A   1      46.272  35.102  31.134  1.00  0.00     0.198 A 
ATOM     85  F   UNL A   1      45.954  32.828  31.649  1.00  0.00    -0.203 F 
ATOM     86  F   UNL A   1      45.260  37.029  28.233  1.00  0.00    -0.200 F 
ATOM     87  C   UNL A   1      46.099  36.174  30.269  1.00  0.00     0.200 A 
ATOM     88  F   UNL A   1      46.935  35.273  32.286  1.00  0.00    -0.200 F 
ATOM     89  F   UNL A   1      46.604  37.376  30.582  1.00  0.00    -0.200 F 
ENDBRANCH  56  79
ENDBRANCH  30  31
ENDBRANCH  23  25
ENDBRANCH  22  23
ENDBRANCH  21  22
ENDBRANCH   1  21
TORSDOF 15
ENDMDL
MODEL 2
REMARK VINA RESULT:     -11.7      4.252      9.722
REMARK SMILES C[C@@H](CC(=O)OCCOC(=O)c1ccc(-c2c3nc(c(-c4c(F)c(F)c(F)c(F)c4F)c4ccc([nH]4)c(-c4c(F)c(F)c(F)c(F)c4F)c4nc(c(-c5c(F)c(F)c(F)c(F)c5F)c5ccc2[nH]5)C=C4)C=C3)cc1)Cc1nnc(C2C(C)(C)C2(C)C)o1
REMARK SMILES IDX 7 1 6 2 4 3 5 4 3 5 2 6 1 7 75 8 76 9 77 10 87 11 78 12
REMARK SMILES IDX 79 13 80 14 81 15 84 16 82 17 83 18 85 19 86 20 8 21 9 22
REMARK SMILES IDX 10 23 11 24 12 25 13 26 74 27 14 28 73 29 15 30 16 31 17 32
REMARK SMILES IDX 67 33 18 34 72 35 66 36 68 37 19 38 71 39 65 40 64 41 20 43
REMARK SMILES IDX 52 44 32 45 51 46 33 47 36 48 50 49 69 50 34 51 35 52 49 54
REMARK SMILES IDX 70 55 37 56 21 57 22 58 30 59 23 60 24 61 28 62 31 63 25 64
REMARK SMILES IDX 26 65 29 66 27 67 53 68 54 69 62 70 55 71 56 72 60 73 63 74
REMARK SMILES IDX 57 75 58 76 61 77 59 78 38 79 39 80 47 81 40 82 41 83 45 84
REMARK SMILES IDX 48 85 42 86 43 87 46 88 44 89
REMARK H PARENT 68 42 36 53
REMARK Flexibility Score: inf
ROOT
ATOM      1  C   UNL A   1      31.353  30.133  25.231  1.00  0.00     0.274 C 
ENDROOT
BRANCH   1   2
ATOM      2  O   UNL A   1      32.537  29.357  24.957  1.00  0.00    -0.462 OA
BRANCH   2   3
ATOM      3  C   UNL A   1      32.370  28.273  24.165  1.00  0.00     0.306 C 
ATOM      4  O   UNL A   1      33.276  27.685  23.583  1.00  0.00    -0.252 OA
BRANCH   3   5
ATOM      5  C   UNL A   1      30.924  27.866  23.992  1.00  0.00     0.126 C 
BRANCH   5   6
ATOM      6  C   UNL A   1      30.454  26.476  24.460  1.00  0.00     0.006 C 
ATOM      7  C   UNL A   1      29.011  26.183  24.031  1.00  0.00     0.009 C 
BRANCH   6   8
ATOM      8  C   UNL A   1      30.676  26.236  25.967  1.00  0.00     0.103 C 
BRANCH   8   9
ATOM      9  C   UNL A   1      31.502  25.029  26.243  1.00  0.00     0.216 A 
ATOM     10  N   UNL A   1      31.329  24.069  27.124  1.00  0.00    -0.113 NA
ATOM     11  O   UNL A   1      32.594  24.821  25.443  1.00  0.00    -0.425 OA
ATOM     12  N   UNL A   1      32.342  23.163  26.913  1.00  0.00    -0.113 NA
ATOM     13  C   UNL A   1      33.074  23.627  25.918  1.00  0.00     0.220 A 
BRANCH  13  14
ATOM     14  C   UNL A   1      34.274  22.850  25.391  1.00  0.00     0.090 C 
ATOM     15  C   UNL A   1      34.107  21.564  24.573  1.00  0.00    -0.017 C 
ATOM     16  C   UNL A   1      34.680  22.822  23.917  1.00  0.00    -0.017 C 
ATOM     17  C   UNL A   1      35.031  20.419  24.947  1.00  0.00     0.012 C 
ATOM     18  C   UNL A   1      32.745  21.050  24.159  1.00  0.00     0.012 C 
ATOM     19  C   UNL A   1      33.889  23.581  22.875  1.00  0.00     0.012 C 
ATOM     20  C   UNL A   1      36.169  22.877  23.619  1.00  0.00     0.012 C 
ENDBRANCH  13  14
ENDBRANCH   8   9
ENDBRANCH   6   8
ENDBRANCH   5   6
ENDBRANCH   3   5
ENDBRANCH   2   3
ENDBRANCH   1   2
BRANCH   1  21
ATOM     21  C   UNL A   1      31.649  31.271  26.207  1.00  0.00     0.275 C 
BRANCH  21  22
ATOM     22  O   UNL A   1      32.812  30.964  26.995  1.00  0.00    -0.458 OA
BRANCH  22  23
ATOM     23  C   UNL A   1      33.499  32.026  27.468  1.00  0.00     0.338 C 
ATOM     24  O   UNL A   1      33.131  33.184  27.550  1.00  0.00    -0.246 OA
BRANCH  23  25
ATOM     25  C   UNL A   1      34.800  31.571  27.970  1.00  0.00     0.060 A 
ATOM     26  C   UNL A   1      34.933  30.241  28.373  1.00  0.00     0.016 A 
ATOM     27  C   UNL A   1      35.844  32.480  28.151  1.00  0.00     0.016 A 
ATOM     28  C   UNL A   1      36.107  29.818  28.989  1.00  0.00     0.010 A 
ATOM     29  C   UNL A   1      37.032  32.047  28.745  1.00  0.00     0.010 A 
ATOM     30  C   UNL A   1      37.161  30.720  29.189  1.00  0.00    -0.014 A 
BRANCH  30  31
ATOM     31  C   UNL A   1      38.375  30.270  29.908  1.00  0.00     0.031 A 
ATOM     32  C   UNL A   1      38.619  30.709  31.321  1.00  0.00     0.074 A 
ATOM     33  C   UNL A   1      39.235  29.432  29.302  1.00  0.00     0.049 A 
ATOM     34  N   UNL A   1      39.619  30.421  32.116  1.00  0.00    -0.248 NA
ATOM     35  C   UNL A   1      37.605  31.589  31.923  1.00  0.00     0.031 C 
ATOM     36  C   UNL A   1      39.096  28.923  27.938  1.00  0.00     0.029 A 
ATOM     37  N   UNL A   1      40.390  28.853  29.761  1.00  0.00    -0.354 N 
ATOM     38  C   UNL A   1      39.368  31.097  33.300  1.00  0.00     0.074 A 
ATOM     39  C   UNL A   1      38.125  31.819  33.122  1.00  0.00     0.031 C 
ATOM     40  C   UNL A   1      40.118  28.093  27.676  1.00  0.00     0.029 A 
ATOM     41  C   UNL A   1      40.992  28.030  28.844  1.00  0.00     0.049 A 
ATOM     42  H   UNL A   1      40.752  29.012  30.663  1.00  0.00     0.167 HD
ATOM     43  C   UNL A   1      40.107  31.114  34.435  1.00  0.00     0.037 A 
ATOM     44  C   UNL A   1      42.125  27.309  28.937  1.00  0.00     0.037 A 
ATOM     45  C   UNL A   1      41.332  30.384  34.625  1.00  0.00     0.049 A 
ATOM     46  C   UNL A   1      42.916  27.332  30.214  1.00  0.00     0.074 A 
ATOM     47  C   UNL A   1      42.151  30.342  35.740  1.00  0.00     0.029 A 
ATOM     48  N   UNL A   1      41.911  29.558  33.673  1.00  0.00    -0.354 N 
ATOM     49  N   UNL A   1      42.674  27.983  31.323  1.00  0.00    -0.248 NA
ATOM     50  C   UNL A   1      44.140  26.518  30.248  1.00  0.00     0.031 C 
ATOM     51  C   UNL A   1      43.235  29.502  35.457  1.00  0.00     0.029 A 
ATOM     52  C   UNL A   1      43.077  29.004  34.174  1.00  0.00     0.049 A 
ATOM     53  H   UNL A   1      41.546  29.391  32.774  1.00  0.00     0.167 HD
ATOM     54  C   UNL A   1      43.706  27.656  32.190  1.00  0.00     0.074 A 
ATOM     55  C   UNL A   1      44.571  26.733  31.483  1.00  0.00     0.031 C 
ATOM     56  C   UNL A   1      43.922  28.088  33.456  1.00  0.00     0.037 A 
BRANCH  43  57
ATOM     57  C   UNL A   1      39.614  31.969  35.560  1.00  0.00     0.064 A 
ATOM     58  C   UNL A   1      38.666  31.494  36.478  1.00  0.00     0.173 A 
ATOM     59  C   UNL A   1      40.115  33.267  35.738  1.00  0.00     0.173 A 
ATOM     60  F   UNL A   1      38.146  30.265  36.335  1.00  0.00    -0.203 F 
ATOM     61  C   UNL A   1      38.228  32.294  37.529  1.00  0.00     0.198 A 
ATOM     62  C   UNL A   1      39.685  34.058  36.799  1.00  0.00     0.198 A 
ATOM     63  F   UNL A   1      41.021  33.763  34.883  1.00  0.00    -0.203 F 
ATOM     64  F   UNL A   1      37.299  31.833  38.378  1.00  0.00    -0.200 F 
ATOM     65  C   UNL A   1      38.740  33.573  37.691  1.00  0.00     0.200 A 
ATOM     66  F   UNL A   1      40.183  35.292  36.956  1.00  0.00    -0.200 F 
ATOM     67  F   UNL A   1      38.318  34.342  38.704  1.00  0.00    -0.200 F 
ENDBRANCH  43  57
BRANCH  44  68
ATOM     68  C   UNL A   1      42.567  26.491  27.784  1.00  0.00     0.064 A 
ATOM     69  C   UNL A   1      42.080  25.191  27.597  1.00  0.00     0.173 A 
ATOM     70  C   UNL A   1      43.472  26.997  26.841  1.00  0.00     0.173 A 
ATOM     71  F   UNL A   1      41.229  24.661  28.487  1.00  0.00    -0.203 F 
ATOM     72  C   UNL A   1      42.489  24.423  26.510  1.00  0.00     0.198 A 
ATOM     73  C   UNL A   1      43.867  26.235  25.746  1.00  0.00     0.198 A 
ATOM     74  F   UNL A   1      43.965  28.237  26.983  1.00  0.00    -0.203 F 
ATOM     75  F   UNL A   1      42.030  23.172  26.366  1.00  0.00    -0.200 F 
ATOM     76  C   UNL A   1      43.378  24.946  25.582  1.00  0.00     0.200 A 
ATOM     77  F   UNL A   1      44.723  26.745  24.849  1.00  0.00    -0.200 F 
ATOM     78  F   UNL A   1      43.768  24.208  24.535  1.00  0.00    -0.200 F 
ENDBRANCH  44  68
BRANCH  56  79
ATOM     79  C   UNL A   1      45.136  27.560  34.154  1.00  0.00     0.064 A 
ATOM     80  C   UNL A   1      46.361  28.240  34.095  1.00  0.00     0.173 A 
ATOM     81  C   UNL A   1      45.067  26.380  34.909  1.00  0.00     0.173 A 
ATOM     82  F   UNL A   1      46.473  29.363  33.372  1.00  0.00    -0.203 F 
ATOM     83  C   UNL A   1      47.482  27.747  34.755  1.00  0.00     0.198 A 
ATOM     84  C   UNL A   1      46.187  25.898  35.580  1.00  0.00     0.198 A 
ATOM     85  F   UNL A   1      43.916  25.698  34.993  1.00  0.00    -0.203 F 
ATOM     86  F   UNL A   1      48.651  28.394  34.661  1.00  0.00    -0.200 F 
ATOM     87  C   UNL A   1      47.394  26.579  35.499  1.00  0.00     0.200 A 
ATOM     88  F   UNL A   1      46.102  24.771  36.301  1.00  0.00    -0.200 F 
ATOM     89  F   UNL A   1      48.475  26.104  36.133  1.00  0.00    -0.200 F 
ENDBRANCH  56  79
ENDBRANCH  30  31
ENDBRANCH  23  25
ENDBRANCH  22  23
ENDBRANCH  21  22
ENDBRANCH   1  21
TORSDOF 15
ENDMDL
MODEL 3
REMARK VINA RESULT:     -11.7      0.621      1.852
REMARK SMILES C[C@@H](CC(=O)OCCOC(=O)c1ccc(-c2c3nc(c(-c4c(F)c(F)c(F)c(F)c4F)c4ccc([nH]4)c(-c4c(F)c(F)c(F)c(F)c4F)c4nc(c(-c5c(F)c(F)c(F)c(F)c5F)c5ccc2[nH]5)C=C4)C=C3)cc1)Cc1nnc(C2C(C)(C)C2(C)C)o1
REMARK SMILES IDX 7 1 6 2 4 3 5 4 3 5 2 6 1 7 75 8 76 9 77 10 87 11 78 12
REMARK SMILES IDX 79 13 80 14 81 15 84 16 82 17 83 18 85 19 86 20 8 21 9 22
REMARK SMILES IDX 10 23 11 24 12 25 13 26 74 27 14 28 73 29 15 30 16 31 17 32
REMARK SMILES IDX 67 33 18 34 72 35 66 36 68 37 19 38 71 39 65 40 64 41 20 43
REMARK SMILES IDX 52 44 32 45 51 46 33 47 36 48 50 49 69 50 34 51 35 52 49 54
REMARK SMILES IDX 70 55 37 56 21 57 22 58 30 59 23 60 24 61 28 62 31 63 25 64
REMARK SMILES IDX 26 65 29 66 27 67 53 68 54 69 62 70 55 71 56 72 60 73 63 74
REMARK SMILES IDX 57 75 58 76 61 77 59 78 38 79 39 80 47 81 40 82 41 83 45 84
REMARK SMILES IDX 48 85 42 86 43 87 46 88 44 89
REMARK H PARENT 68 42 36 53
REMARK Flexibility Score: inf
ROOT
ATOM      1  C   UNL A   1      35.853  20.539  24.949  1.00  0.00     0.274 C 
ENDROOT
BRANCH   1   2
ATOM      2  O   UNL A   1      35.408  21.441  25.981  1.00  0.00    -0.462 OA
BRANCH   2   3
ATOM      3  C   UNL A   1      34.181  21.985  25.811  1.00  0.00     0.306 C 
ATOM      4  O   UNL A   1      33.687  22.839  26.539  1.00  0.00    -0.252 OA
BRANCH   3   5
ATOM      5  C   UNL A   1      33.411  21.390  24.653  1.00  0.00     0.126 C 
BRANCH   5   6
ATOM      6  C   UNL A   1      32.925  22.295  23.506  1.00  0.00     0.006 C 
ATOM      7  C   UNL A   1      32.153  21.508  22.441  1.00  0.00     0.009 C 
BRANCH   6   8
ATOM      8  C   UNL A   1      34.049  23.157  22.896  1.00  0.00     0.103 C 
BRANCH   8   9
ATOM      9  C   UNL A   1      33.690  24.599  22.815  1.00  0.00     0.216 A 
ATOM     10  N   UNL A   1      33.656  25.406  21.778  1.00  0.00    -0.113 NA
ATOM     11  O   UNL A   1      33.278  25.207  23.971  1.00  0.00    -0.425 OA
ATOM     12  N   UNL A   1      33.193  26.614  22.243  1.00  0.00    -0.113 NA
ATOM     13  C   UNL A   1      32.977  26.473  23.537  1.00  0.00     0.220 A 
BRANCH  13  14
ATOM     14  C   UNL A   1      32.422  27.619  24.374  1.00  0.00     0.090 C 
ATOM     15  C   UNL A   1      30.941  28.010  24.326  1.00  0.00    -0.017 C 
ATOM     16  C   UNL A   1      31.535  27.413  25.603  1.00  0.00    -0.017 C 
ATOM     17  C   UNL A   1      30.652  29.499  24.250  1.00  0.00     0.012 C 
ATOM     18  C   UNL A   1      29.931  27.220  23.522  1.00  0.00     0.012 C 
ATOM     19  C   UNL A   1      31.148  26.025  26.062  1.00  0.00     0.012 C 
ATOM     20  C   UNL A   1      31.789  28.329  26.788  1.00  0.00     0.012 C 
ENDBRANCH  13  14
ENDBRANCH   8   9
ENDBRANCH   6   8
ENDBRANCH   5   6
ENDBRANCH   3   5
ENDBRANCH   2   3
ENDBRANCH   1   2
BRANCH   1  21
ATOM     21  C   UNL A   1      37.354  20.274  25.053  1.00  0.00     0.275 C 
BRANCH  21  22
ATOM     22  O   UNL A   1      38.042  21.458  25.496  1.00  0.00    -0.458 OA
BRANCH  22  23
ATOM     23  C   UNL A   1      39.221  21.254  26.121  1.00  0.00     0.338 C 
ATOM     24  O   UNL A   1      39.860  20.221  26.204  1.00  0.00    -0.246 OA
BRANCH  23  25
ATOM     25  C   UNL A   1      39.705  22.530  26.660  1.00  0.00     0.060 A 
ATOM     26  C   UNL A   1      39.192  23.716  26.133  1.00  0.00     0.016 A 
ATOM     27  C   UNL A   1      40.740  22.552  27.596  1.00  0.00     0.016 A 
ATOM     28  C   UNL A   1      39.736  24.937  26.518  1.00  0.00     0.010 A 
ATOM     29  C   UNL A   1      41.267  23.781  28.003  1.00  0.00     0.010 A 
ATOM     30  C   UNL A   1      40.784  24.979  27.448  1.00  0.00    -0.014 A 
BRANCH  30  31
ATOM     31  C   UNL A   1      41.396  26.282  27.795  1.00  0.00     0.031 A 
ATOM     32  C   UNL A   1      42.810  26.581  27.390  1.00  0.00     0.074 A 
ATOM     33  C   UNL A   1      40.665  27.211  28.435  1.00  0.00     0.049 A 
ATOM     34  N   UNL A   1      43.519  27.661  27.600  1.00  0.00    -0.248 NA
ATOM     35  C   UNL A   1      43.523  25.525  26.655  1.00  0.00     0.031 C 
ATOM     36  C   UNL A   1      39.277  27.044  28.863  1.00  0.00     0.029 A 
ATOM     37  N   UNL A   1      40.986  28.486  28.826  1.00  0.00    -0.354 N 
ATOM     38  C   UNL A   1      44.764  27.410  27.042  1.00  0.00     0.074 A 
ATOM     39  C   UNL A   1      44.720  26.072  26.490  1.00  0.00     0.031 C 
ATOM     40  C   UNL A   1      38.859  28.180  29.443  1.00  0.00     0.029 A 
ATOM     41  C   UNL A   1      39.956  29.145  29.446  1.00  0.00     0.049 A 
ATOM     42  H   UNL A   1      41.872  28.889  28.675  1.00  0.00     0.167 HD
ATOM     43  C   UNL A   1      45.845  28.224  26.993  1.00  0.00     0.037 A 
ATOM     44  C   UNL A   1      39.905  30.387  29.961  1.00  0.00     0.037 A 
ATOM     45  C   UNL A   1      45.888  29.561  27.522  1.00  0.00     0.049 A 
ATOM     46  C   UNL A   1      41.113  31.275  29.878  1.00  0.00     0.074 A 
ATOM     47  C   UNL A   1      46.941  30.460  27.520  1.00  0.00     0.029 A 
ATOM     48  N   UNL A   1      44.823  30.196  28.142  1.00  0.00    -0.354 N 
ATOM     49  N   UNL A   1      42.287  31.023  29.356  1.00  0.00    -0.248 NA
ATOM     50  C   UNL A   1      40.987  32.621  30.456  1.00  0.00     0.031 C 
ATOM     51  C   UNL A   1      46.517  31.634  28.154  1.00  0.00     0.029 A 
ATOM     52  C   UNL A   1      45.193  31.474  28.528  1.00  0.00     0.049 A 
ATOM     53  H   UNL A   1      43.934  29.797  28.286  1.00  0.00     0.167 HD
ATOM     54  C   UNL A   1      43.039  32.175  29.536  1.00  0.00     0.074 A 
ATOM     55  C   UNL A   1      42.182  33.136  30.200  1.00  0.00     0.031 C 
ATOM     56  C   UNL A   1      44.326  32.413  29.188  1.00  0.00     0.037 A 
BRANCH  43  57
ATOM     57  C   UNL A   1      47.084  27.678  26.355  1.00  0.00     0.064 A 
ATOM     58  C   UNL A   1      48.046  26.985  27.102  1.00  0.00     0.173 A 
ATOM     59  C   UNL A   1      47.296  27.826  24.976  1.00  0.00     0.173 A 
ATOM     60  F   UNL A   1      47.893  26.835  28.427  1.00  0.00    -0.203 F 
ATOM     61  C   UNL A   1      49.186  26.469  26.492  1.00  0.00     0.198 A 
ATOM     62  C   UNL A   1      48.430  27.295  24.368  1.00  0.00     0.198 A 
ATOM     63  F   UNL A   1      46.403  28.483  24.223  1.00  0.00    -0.203 F 
ATOM     64  F   UNL A   1      50.109  25.835  27.229  1.00  0.00    -0.200 F 
ATOM     65  C   UNL A   1      49.375  26.620  25.127  1.00  0.00     0.200 A 
ATOM     66  F   UNL A   1      48.609  27.439  23.048  1.00  0.00    -0.200 F 
ATOM     67  F   UNL A   1      50.472  26.122  24.541  1.00  0.00    -0.200 F 
ENDBRANCH  43  57
BRANCH  44  68
ATOM     68  C   UNL A   1      38.652  30.867  30.590  1.00  0.00     0.064 A 
ATOM     69  C   UNL A   1      37.603  31.369  29.810  1.00  0.00     0.173 A 
ATOM     70  C   UNL A   1      38.475  30.818  31.980  1.00  0.00     0.173 A 
ATOM     71  F   UNL A   1      37.742  31.453  28.479  1.00  0.00    -0.203 F 
ATOM     72  C   UNL A   1      36.423  31.814  30.398  1.00  0.00     0.198 A 
ATOM     73  C   UNL A   1      37.287  31.247  32.566  1.00  0.00     0.198 A 
ATOM     74  F   UNL A   1      39.454  30.345  32.765  1.00  0.00    -0.203 F 
ATOM     75  F   UNL A   1      35.443  32.316  29.634  1.00  0.00    -0.200 F 
ATOM     76  C   UNL A   1      36.263  31.748  31.775  1.00  0.00     0.200 A 
ATOM     77  F   UNL A   1      37.134  31.178  33.895  1.00  0.00    -0.200 F 
ATOM     78  F   UNL A   1      35.125  32.173  32.340  1.00  0.00    -0.200 F 
ENDBRANCH  44  68
BRANCH  56  79
ATOM     79  C   UNL A   1      44.878  33.765  29.514  1.00  0.00     0.064 A 
ATOM     80  C   UNL A   1      44.764  34.833  28.612  1.00  0.00     0.173 A 
ATOM     81  C   UNL A   1      45.501  34.002  30.747  1.00  0.00     0.173 A 
ATOM     82  F   UNL A   1      44.189  34.646  27.416  1.00  0.00    -0.203 F 
ATOM     83  C   UNL A   1      45.272  36.090  28.928  1.00  0.00     0.198 A 
ATOM     84  C   UNL A   1      45.995  35.264  31.066  1.00  0.00     0.198 A 
ATOM     85  F   UNL A   1      45.632  33.010  31.640  1.00  0.00    -0.203 F 
ATOM     86  F   UNL A   1      45.182  37.089  28.040  1.00  0.00    -0.200 F 
ATOM     87  C   UNL A   1      45.884  36.305  30.154  1.00  0.00     0.200 A 
ATOM     88  F   UNL A   1      46.584  35.473  32.251  1.00  0.00    -0.200 F 
ATOM     89  F   UNL A   1      46.374  37.515  30.456  1.00  0.00    -0.200 F 
ENDBRANCH  56  79
ENDBRANCH  30  31
ENDBRANCH  23  25
ENDBRANCH  22  23
ENDBRANCH  21  22
ENDBRANCH   1  21
TORSDOF 15
ENDMDL
