MODEL 1
REMARK VINA RESULT:     -13.1      0.000      0.000
REMARK SMILES [NH3+]Cc1c(-c2ccccc2)c(C(=O)OCCOC(=O)c2ccc(-c3c4nc(c(-c5c(F)c(F)c(F)c(F)c5F)c5ccc([nH]5)c(-c5c(F)c(F)c(F)c(F)c5F)c5nc(c(-c6c(F)c(F)c(F)c(F)c6F)c6ccc3[nH]6)C=C5)C=C4)cc2)c2ccccn12
REMARK SMILES IDX 15 1 14 2 12 3 13 4 11 5 3 6 4 7 88 8 83 9 87 10 84 11 86 12
REMARK SMILES IDX 85 13 2 14 1 15 5 19 6 20 10 21 7 22 9 23 8 24 16 25 17 26
REMARK SMILES IDX 18 27 19 28 20 29 21 30 82 31 22 32 81 33 23 34 24 35 25 36
REMARK SMILES IDX 75 37 26 38 80 39 74 40 76 41 27 42 79 43 73 44 72 45 28 47
REMARK SMILES IDX 60 48 40 49 59 50 41 51 44 52 58 53 77 54 42 55 43 56 57 58
REMARK SMILES IDX 78 59 45 60 29 61 30 62 38 63 31 64 32 65 36 66 39 67 33 68
REMARK SMILES IDX 34 69 37 70 35 71 61 72 62 73 70 74 63 75 64 76 68 77 71 78
REMARK SMILES IDX 65 79 66 80 69 81 67 82 46 83 47 84 55 85 48 86 49 87 53 88
REMARK SMILES IDX 56 89 50 90 51 91 54 92 52 93
REMARK H PARENT 1 16 1 17 1 18 76 46 44 57
REMARK Flexibility Score: inf
ROOT
ATOM      1  C   UNL A   1      31.296  27.639  26.117  1.00  0.00     0.275 C 
ENDROOT
BRANCH   1   2
ATOM      2  O   UNL A   1      32.414  26.748  26.300  1.00  0.00    -0.458 OA
BRANCH   2   3
ATOM      3  C   UNL A   1      32.116  25.416  26.307  1.00  0.00     0.341 C 
ATOM      4  O   UNL A   1      31.403  24.874  27.143  1.00  0.00    -0.246 OA
BRANCH   3   5
ATOM      5  C   UNL A   1      32.822  24.663  25.278  1.00  0.00     0.093 A 
ATOM      6  C   UNL A   1      33.234  23.459  23.372  1.00  0.00     0.086 A 
ATOM      7  C   UNL A   1      32.666  24.655  23.844  1.00  0.00     0.024 A 
ATOM      8  N   UNL A   1      33.837  22.817  24.472  1.00  0.00    -0.314 N 
ATOM      9  C   UNL A   1      33.641  23.608  25.605  1.00  0.00     0.061 A 
ATOM     10  C   UNL A   1      34.465  21.563  24.603  1.00  0.00     0.092 A 
ATOM     11  C   UNL A   1      34.113  23.145  26.872  1.00  0.00     0.027 A 
ATOM     12  C   UNL A   1      34.879  21.116  25.801  1.00  0.00     0.018 A 
ATOM     13  C   UNL A   1      34.699  21.943  26.972  1.00  0.00     0.004 A 
BRANCH   6  14
ATOM     14  C   UNL A   1      33.065  22.933  21.973  1.00  0.00     0.315 C 
BRANCH  14  15
ATOM     15  N   UNL A   1      32.153  21.828  21.770  1.00  0.00    -0.353 N 
ATOM     16  H   UNL A   1      32.181  21.210  22.582  1.00  0.00     0.344 HD
ATOM     17  H   UNL A   1      32.428  21.308  20.938  1.00  0.00     0.344 HD
ATOM     18  H   UNL A   1      31.206  22.186  21.650  1.00  0.00     0.344 HD
ENDBRANCH  14  15
ENDBRANCH   6  14
BRANCH   7  19
ATOM     19  C   UNL A   1      31.668  25.461  23.099  1.00  0.00    -0.015 A 
ATOM     20  C   UNL A   1      32.047  27.084  22.375  1.00  0.00     0.009 A 
ATOM     21  C   UNL A   1      30.035  25.203  23.724  1.00  0.00     0.009 A 
ATOM     22  C   UNL A   1      30.601  28.503  22.440  1.00  0.00     0.001 A 
ATOM     23  C   UNL A   1      28.778  26.448  23.753  1.00  0.00     0.001 A 
ATOM     24  C   UNL A   1      29.013  28.080  23.159  1.00  0.00     0.000 A 
ENDBRANCH   7  19
ENDBRANCH   3   5
ENDBRANCH   2   3
ENDBRANCH   1   2
BRANCH   1  25
ATOM     25  C   UNL A   1      31.817  29.033  25.789  1.00  0.00     0.275 C 
BRANCH  25  26
ATOM     26  O   UNL A   1      31.695  29.833  26.975  1.00  0.00    -0.458 OA
BRANCH  26  27
ATOM     27  C   UNL A   1      32.286  31.040  26.892  1.00  0.00     0.338 C 
ATOM     28  O   UNL A   1      31.852  32.060  26.384  1.00  0.00    -0.246 OA
BRANCH  27  29
ATOM     29  C   UNL A   1      33.561  31.011  27.591  1.00  0.00     0.060 A 
ATOM     30  C   UNL A   1      34.462  32.511  28.001  1.00  0.00     0.016 A 
ATOM     31  C   UNL A   1      34.404  29.479  27.687  1.00  0.00     0.016 A 
ATOM     32  C   UNL A   1      36.414  32.337  28.512  1.00  0.00     0.010 A 
ATOM     33  C   UNL A   1      36.095  29.330  28.197  1.00  0.00     0.010 A 
ATOM     34  C   UNL A   1      37.145  30.690  28.633  1.00  0.00    -0.014 A 
BRANCH  34  35
ATOM     35  C   UNL A   1      38.408  30.389  29.445  1.00  0.00     0.031 A 
ATOM     36  C   UNL A   1      39.421  29.356  28.969  1.00  0.00     0.074 A 
ATOM     37  C   UNL A   1      38.578  30.859  30.707  1.00  0.00     0.049 A 
ATOM     38  N   UNL A   1      40.394  28.767  29.632  1.00  0.00    -0.248 NA
ATOM     39  C   UNL A   1      39.314  28.906  27.575  1.00  0.00     0.031 C 
ATOM     40  C   UNL A   1      37.738  31.831  31.384  1.00  0.00     0.029 A 
ATOM     41  N   UNL A   1      39.504  30.547  31.690  1.00  0.00    -0.354 N 
ATOM     42  C   UNL A   1      40.979  27.862  28.750  1.00  0.00     0.074 A 
ATOM     43  C   UNL A   1      40.198  27.919  27.531  1.00  0.00     0.031 C 
ATOM     44  C   UNL A   1      38.131  32.023  32.641  1.00  0.00     0.029 A 
ATOM     45  C   UNL A   1      39.262  31.166  32.900  1.00  0.00     0.049 A 
ATOM     46  H   UNL A   1      40.264  29.939  31.539  1.00  0.00     0.167 HD
ATOM     47  C   UNL A   1      42.086  27.089  28.910  1.00  0.00     0.037 A 
ATOM     48  C   UNL A   1      39.846  31.096  34.111  1.00  0.00     0.037 A 
ATOM     49  C   UNL A   1      42.915  27.077  30.093  1.00  0.00     0.049 A 
ATOM     50  C   UNL A   1      41.060  30.253  34.276  1.00  0.00     0.074 A 
ATOM     51  C   UNL A   1      44.112  26.410  30.306  1.00  0.00     0.029 A 
ATOM     52  N   UNL A   1      42.640  27.769  31.264  1.00  0.00    -0.354 N 
ATOM     53  N   UNL A   1      41.623  29.460  33.402  1.00  0.00    -0.248 NA
ATOM     54  C   UNL A   1      41.743  30.321  35.572  1.00  0.00     0.031 C 
ATOM     55  C   UNL A   1      44.540  26.669  31.614  1.00  0.00     0.029 A 
ATOM     56  C   UNL A   1      43.631  27.529  32.206  1.00  0.00     0.049 A 
ATOM     57  H   UNL A   1      41.856  28.348  31.405  1.00  0.00     0.167 HD
ATOM     58  C   UNL A   1      42.749  28.957  34.027  1.00  0.00     0.074 A 
ATOM     59  C   UNL A   1      42.793  29.542  35.352  1.00  0.00     0.031 C 
ATOM     60  C   UNL A   1      43.665  28.094  33.531  1.00  0.00     0.037 A 
BRANCH  47  61
ATOM     61  C   UNL A   1      42.497  26.208  27.755  1.00  0.00     0.064 A 
ATOM     62  C   UNL A   1      41.906  24.952  27.538  1.00  0.00     0.173 A 
ATOM     63  C   UNL A   1      43.473  26.630  26.837  1.00  0.00     0.173 A 
ATOM     64  F   UNL A   1      40.961  24.498  28.377  1.00  0.00    -0.203 F 
ATOM     65  C   UNL A   1      42.315  24.131  26.489  1.00  0.00     0.198 A 
ATOM     66  C   UNL A   1      43.854  25.821  25.766  1.00  0.00     0.198 A 
ATOM     67  F   UNL A   1      44.056  27.831  26.972  1.00  0.00    -0.203 F 
ATOM     68  F   UNL A   1      41.782  22.910  26.349  1.00  0.00    -0.200 F 
ATOM     69  C   UNL A   1      43.287  24.568  25.602  1.00  0.00     0.200 A 
ATOM     70  F   UNL A   1      44.778  26.254  24.896  1.00  0.00    -0.200 F 
ATOM     71  F   UNL A   1      43.682  23.776  24.595  1.00  0.00    -0.200 F 
ENDBRANCH  47  61
BRANCH  48  72
ATOM     72  C   UNL A   1      39.314  31.934  35.223  1.00  0.00     0.064 A 
ATOM     73  C   UNL A   1      38.525  31.363  36.230  1.00  0.00     0.173 A 
ATOM     74  C   UNL A   1      39.675  33.284  35.362  1.00  0.00     0.173 A 
ATOM     75  F   UNL A   1      38.153  30.078  36.141  1.00  0.00    -0.203 F 
ATOM     76  C   UNL A   1      38.116  32.109  37.335  1.00  0.00     0.198 A 
ATOM     77  C   UNL A   1      39.286  34.021  36.481  1.00  0.00     0.198 A 
ATOM     78  F   UNL A   1      40.451  33.871  34.441  1.00  0.00    -0.203 F 
ATOM     79  F   UNL A   1      37.353  31.539  38.278  1.00  0.00    -0.200 F 
ATOM     80  C   UNL A   1      38.505  33.433  37.465  1.00  0.00     0.200 A 
ATOM     81  F   UNL A   1      39.688  35.292  36.618  1.00  0.00    -0.200 F 
ATOM     82  F   UNL A   1      38.136  34.139  38.542  1.00  0.00    -0.200 F 
ENDBRANCH  48  72
BRANCH  60  83
ATOM     83  C   UNL A   1      44.803  27.739  34.436  1.00  0.00     0.064 A 
ATOM     84  C   UNL A   1      45.973  28.512  34.475  1.00  0.00     0.173 A 
ATOM     85  C   UNL A   1      44.728  26.609  35.264  1.00  0.00     0.173 A 
ATOM     86  F   UNL A   1      46.100  29.584  33.678  1.00  0.00    -0.203 F 
ATOM     87  C   UNL A   1      47.039  28.152  35.294  1.00  0.00     0.198 A 
ATOM     88  C   UNL A   1      45.786  26.268  36.101  1.00  0.00     0.198 A 
ATOM     89  F   UNL A   1      43.635  25.834  35.254  1.00  0.00    -0.203 F 
ATOM     90  F   UNL A   1      48.168  28.874  35.275  1.00  0.00    -0.200 F 
ATOM     91  C   UNL A   1      46.942  27.035  36.110  1.00  0.00     0.200 A 
ATOM     92  F   UNL A   1      45.692  25.191  36.891  1.00  0.00    -0.200 F 
ATOM     93  F   UNL A   1      47.970  26.690  36.896  1.00  0.00    -0.200 F 
ENDBRANCH  60  83
ENDBRANCH  34  35
ENDBRANCH  27  29
ENDBRANCH  26  27
ENDBRANCH  25  26
ENDBRANCH   1  25
TORSDOF 14
ENDMDL
MODEL 2
REMARK VINA RESULT:     -12.7      1.237      7.595
REMARK SMILES [NH3+]Cc1c(-c2ccccc2)c(C(=O)OCCOC(=O)c2ccc(-c3c4nc(c(-c5c(F)c(F)c(F)c(F)c5F)c5ccc([nH]5)c(-c5c(F)c(F)c(F)c(F)c5F)c5nc(c(-c6c(F)c(F)c(F)c(F)c6F)c6ccc3[nH]6)C=C5)C=C4)cc2)c2ccccn12
REMARK SMILES IDX 15 1 14 2 12 3 13 4 11 5 3 6 4 7 88 8 83 9 87 10 84 11 86 12
REMARK SMILES IDX 85 13 2 14 1 15 5 19 6 20 10 21 7 22 9 23 8 24 16 25 17 26
REMARK SMILES IDX 18 27 19 28 20 29 21 30 82 31 22 32 81 33 23 34 24 35 25 36
REMARK SMILES IDX 75 37 26 38 80 39 74 40 76 41 27 42 79 43 73 44 72 45 28 47
REMARK SMILES IDX 60 48 40 49 59 50 41 51 44 52 58 53 77 54 42 55 43 56 57 58
REMARK SMILES IDX 78 59 45 60 29 61 30 62 38 63 31 64 32 65 36 66 39 67 33 68
REMARK SMILES IDX 34 69 37 70 35 71 61 72 62 73 70 74 63 75 64 76 68 77 71 78
REMARK SMILES IDX 65 79 66 80 69 81 67 82 46 83 47 84 55 85 48 86 49 87 53 88
REMARK SMILES IDX 56 89 50 90 51 91 54 92 52 93
REMARK H PARENT 1 16 1 17 1 18 76 46 44 57
REMARK Flexibility Score: inf
ROOT
ATOM      1  C   UNL A   1      31.060  30.366  25.274  1.00  0.00     0.275 C 
ENDROOT
BRANCH   1   2
ATOM      2  O   UNL A   1      32.091  29.372  25.436  1.00  0.00    -0.458 OA
BRANCH   2   3
ATOM      3  C   UNL A   1      31.678  28.072  25.369  1.00  0.00     0.341 C 
ATOM      4  O   UNL A   1      31.027  27.511  26.243  1.00  0.00    -0.246 OA
BRANCH   3   5
ATOM      5  C   UNL A   1      32.182  27.369  24.197  1.00  0.00     0.093 A 
ATOM      6  C   UNL A   1      32.234  26.159  22.251  1.00  0.00     0.086 A 
ATOM      7  C   UNL A   1      31.675  27.302  22.849  1.00  0.00     0.024 A 
ATOM      8  N   UNL A   1      33.159  25.617  23.165  1.00  0.00    -0.314 N 
ATOM      9  C   UNL A   1      33.167  26.415  24.309  1.00  0.00     0.061 A 
ATOM     10  C   UNL A   1      33.932  24.439  23.136  1.00  0.00     0.092 A 
ATOM     11  C   UNL A   1      33.989  26.042  25.418  1.00  0.00     0.027 A 
ATOM     12  C   UNL A   1      34.679  24.074  24.193  1.00  0.00     0.018 A 
ATOM     13  C   UNL A   1      34.708  24.911  25.369  1.00  0.00     0.004 A 
BRANCH   6  14
ATOM     14  C   UNL A   1      31.779  25.578  20.941  1.00  0.00     0.315 C 
BRANCH  14  15
ATOM     15  N   UNL A   1      32.640  25.748  19.789  1.00  0.00    -0.353 N 
ATOM     16  H   UNL A   1      32.108  26.169  19.027  1.00  0.00     0.344 HD
ATOM     17  H   UNL A   1      32.997  24.840  19.494  1.00  0.00     0.344 HD
ATOM     18  H   UNL A   1      33.420  26.357  20.034  1.00  0.00     0.344 HD
ENDBRANCH  14  15
ENDBRANCH   6  14
BRANCH   7  19
ATOM     19  C   UNL A   1      30.441  27.976  22.378  1.00  0.00    -0.015 A 
ATOM     20  C   UNL A   1      30.387  29.733  21.917  1.00  0.00     0.009 A 
ATOM     21  C   UNL A   1      28.999  27.280  23.126  1.00  0.00     0.009 A 
ATOM     22  C   UNL A   1      28.718  30.780  22.398  1.00  0.00     0.001 A 
ATOM     23  C   UNL A   1      27.543  28.205  23.519  1.00  0.00     0.001 A 
ATOM     24  C   UNL A   1      27.366  29.920  23.204  1.00  0.00     0.000 A 
ENDBRANCH   7  19
ENDBRANCH   3   5
ENDBRANCH   2   3
ENDBRANCH   1   2
BRANCH   1  25
ATOM     25  C   UNL A   1      31.179  31.396  26.390  1.00  0.00     0.275 C 
BRANCH  25  26
ATOM     26  O   UNL A   1      32.458  32.036  26.256  1.00  0.00    -0.458 OA
BRANCH  26  27
ATOM     27  C   UNL A   1      32.761  32.882  27.259  1.00  0.00     0.338 C 
ATOM     28  O   UNL A   1      32.153  33.875  27.620  1.00  0.00    -0.246 OA
BRANCH  27  29
ATOM     29  C   UNL A   1      33.939  32.403  27.965  1.00  0.00     0.060 A 
ATOM     30  C   UNL A   1      35.387  33.436  28.222  1.00  0.00     0.016 A 
ATOM     31  C   UNL A   1      34.087  30.678  28.227  1.00  0.00     0.016 A 
ATOM     32  C   UNL A   1      37.116  32.530  28.761  1.00  0.00     0.010 A 
ATOM     33  C   UNL A   1      35.589  29.901  28.761  1.00  0.00     0.010 A 
ATOM     34  C   UNL A   1      37.117  30.748  29.058  1.00  0.00    -0.014 A 
BRANCH  34  35
ATOM     35  C   UNL A   1      38.177  30.039  29.906  1.00  0.00     0.031 A 
ATOM     36  C   UNL A   1      38.461  30.475  31.337  1.00  0.00     0.074 A 
ATOM     37  C   UNL A   1      39.046  29.146  29.367  1.00  0.00     0.049 A 
ATOM     38  N   UNL A   1      39.487  30.193  32.113  1.00  0.00    -0.248 NA
ATOM     39  C   UNL A   1      37.481  31.365  31.972  1.00  0.00     0.031 C 
ATOM     40  C   UNL A   1      38.993  28.596  28.024  1.00  0.00     0.029 A 
ATOM     41  N   UNL A   1      40.198  28.562  29.870  1.00  0.00    -0.354 N 
ATOM     42  C   UNL A   1      39.288  30.896  33.298  1.00  0.00     0.074 A 
ATOM     43  C   UNL A   1      38.087  31.684  33.108  1.00  0.00     0.031 C 
ATOM     44  C   UNL A   1      40.035  27.804  27.780  1.00  0.00     0.029 A 
ATOM     45  C   UNL A   1      40.878  27.787  28.951  1.00  0.00     0.049 A 
ATOM     46  H   UNL A   1      40.504  28.689  30.798  1.00  0.00     0.167 HD
ATOM     47  C   UNL A   1      40.001  30.861  34.456  1.00  0.00     0.037 A 
ATOM     48  C   UNL A   1      42.044  27.115  28.985  1.00  0.00     0.037 A 
ATOM     49  C   UNL A   1      41.157  30.025  34.683  1.00  0.00     0.049 A 
ATOM     50  C   UNL A   1      42.814  27.078  30.257  1.00  0.00     0.074 A 
ATOM     51  C   UNL A   1      41.877  29.842  35.854  1.00  0.00     0.029 A 
ATOM     52  N   UNL A   1      41.761  29.225  33.723  1.00  0.00    -0.354 N 
ATOM     53  N   UNL A   1      42.562  27.702  31.378  1.00  0.00    -0.248 NA
ATOM     54  C   UNL A   1      44.001  26.216  30.288  1.00  0.00     0.031 C 
ATOM     55  C   UNL A   1      42.935  28.962  35.593  1.00  0.00     0.029 A 
ATOM     56  C   UNL A   1      42.853  28.565  34.270  1.00  0.00     0.049 A 
ATOM     57  H   UNL A   1      41.457  29.137  32.791  1.00  0.00     0.167 HD
ATOM     58  C   UNL A   1      43.539  27.286  32.264  1.00  0.00     0.074 A 
ATOM     59  C   UNL A   1      44.383  26.347  31.551  1.00  0.00     0.031 C 
ATOM     60  C   UNL A   1      43.706  27.648  33.556  1.00  0.00     0.037 A 
BRANCH  47  61
ATOM     61  C   UNL A   1      39.528  31.731  35.595  1.00  0.00     0.064 A 
ATOM     62  C   UNL A   1      38.550  31.293  36.503  1.00  0.00     0.173 A 
ATOM     63  C   UNL A   1      40.075  33.009  35.801  1.00  0.00     0.173 A 
ATOM     64  F   UNL A   1      37.996  30.078  36.363  1.00  0.00    -0.203 F 
ATOM     65  C   UNL A   1      38.096  32.116  37.532  1.00  0.00     0.198 A 
ATOM     66  C   UNL A   1      39.645  33.817  36.854  1.00  0.00     0.198 A 
ATOM     67  F   UNL A   1      41.033  33.476  34.986  1.00  0.00    -0.203 F 
ATOM     68  F   UNL A   1      37.112  31.697  38.338  1.00  0.00    -0.200 F 
ATOM     69  C   UNL A   1      38.646  33.377  37.708  1.00  0.00     0.200 A 
ATOM     70  F   UNL A   1      40.193  35.026  37.037  1.00  0.00    -0.200 F 
ATOM     71  F   UNL A   1      38.206  34.169  38.696  1.00  0.00    -0.200 F 
ENDBRANCH  47  61
BRANCH  48  72
ATOM     72  C   UNL A   1      42.480  26.357  27.779  1.00  0.00     0.064 A 
ATOM     73  C   UNL A   1      43.426  26.900  26.900  1.00  0.00     0.173 A 
ATOM     74  C   UNL A   1      42.053  25.040  27.545  1.00  0.00     0.173 A 
ATOM     75  F   UNL A   1      43.864  28.155  27.081  1.00  0.00    -0.203 F 
ATOM     76  C   UNL A   1      43.928  26.158  25.832  1.00  0.00     0.198 A 
ATOM     77  C   UNL A   1      42.575  24.290  26.491  1.00  0.00     0.198 A 
ATOM     78  F   UNL A   1      41.169  24.463  28.372  1.00  0.00    -0.203 F 
ATOM     79  F   UNL A   1      44.825  26.708  25.001  1.00  0.00    -0.200 F 
ATOM     80  C   UNL A   1      43.511  24.851  25.635  1.00  0.00     0.200 A 
ATOM     81  F   UNL A   1      42.191  23.018  26.320  1.00  0.00    -0.200 F 
ATOM     82  F   UNL A   1      44.016  24.129  24.626  1.00  0.00    -0.200 F 
ENDBRANCH  48  72
BRANCH  60  83
ATOM     83  C   UNL A   1      44.849  27.013  34.283  1.00  0.00     0.064 A 
ATOM     84  C   UNL A   1      44.707  25.775  34.926  1.00  0.00     0.173 A 
ATOM     85  C   UNL A   1      46.095  27.654  34.348  1.00  0.00     0.173 A 
ATOM     86  F   UNL A   1      43.525  25.140  34.916  1.00  0.00    -0.203 F 
ATOM     87  C   UNL A   1      45.767  25.211  35.630  1.00  0.00     0.198 A 
ATOM     88  C   UNL A   1      47.160  27.074  35.031  1.00  0.00     0.198 A 
ATOM     89  F   UNL A   1      46.275  28.844  33.758  1.00  0.00    -0.203 F 
ATOM     90  F   UNL A   1      45.594  24.054  36.282  1.00  0.00    -0.200 F 
ATOM     91  C   UNL A   1      46.993  25.857  35.676  1.00  0.00     0.200 A 
ATOM     92  F   UNL A   1      48.345  27.697  35.073  1.00  0.00    -0.200 F 
ATOM     93  F   UNL A   1      48.012  25.314  36.355  1.00  0.00    -0.200 F 
ENDBRANCH  60  83
ENDBRANCH  34  35
ENDBRANCH  27  29
ENDBRANCH  26  27
ENDBRANCH  25  26
ENDBRANCH   1  25
TORSDOF 14
ENDMDL
MODEL 3
REMARK VINA RESULT:     -12.7      4.543      9.828
REMARK SMILES [NH3+]Cc1c(-c2ccccc2)c(C(=O)OCCOC(=O)c2ccc(-c3c4nc(c(-c5c(F)c(F)c(F)c(F)c5F)c5ccc([nH]5)c(-c5c(F)c(F)c(F)c(F)c5F)c5nc(c(-c6c(F)c(F)c(F)c(F)c6F)c6ccc3[nH]6)C=C5)C=C4)cc2)c2ccccn12
REMARK SMILES IDX 15 1 14 2 12 3 13 4 11 5 3 6 4 7 88 8 83 9 87 10 84 11 86 12
REMARK SMILES IDX 85 13 2 14 1 15 5 19 6 20 10 21 7 22 9 23 8 24 16 25 17 26
REMARK SMILES IDX 18 27 19 28 20 29 21 30 82 31 22 32 81 33 23 34 24 35 25 36
REMARK SMILES IDX 75 37 26 38 80 39 74 40 76 41 27 42 79 43 73 44 72 45 28 47
REMARK SMILES IDX 60 48 40 49 59 50 41 51 44 52 58 53 77 54 42 55 43 56 57 58
REMARK SMILES IDX 78 59 45 60 29 61 30 62 38 63 31 64 32 65 36 66 39 67 33 68
REMARK SMILES IDX 34 69 37 70 35 71 61 72 62 73 70 74 63 75 64 76 68 77 71 78
REMARK SMILES IDX 65 79 66 80 69 81 67 82 46 83 47 84 55 85 48 86 49 87 53 88
REMARK SMILES IDX 56 89 50 90 51 91 54 92 52 93
REMARK H PARENT 1 16 1 17 1 18 76 46 44 57
REMARK Flexibility Score: inf
ROOT
ATOM      1  C   UNL A   1      35.897  20.394  24.667  1.00  0.00     0.275 C 
ENDROOT
BRANCH   1   2
ATOM      2  O   UNL A   1      35.890  21.835  24.715  1.00  0.00    -0.458 OA
BRANCH   2   3
ATOM      3  C   UNL A   1      34.814  22.443  24.135  1.00  0.00     0.341 C 
ATOM      4  O   UNL A   1      34.753  22.753  22.951  1.00  0.00    -0.246 OA
BRANCH   3   5
ATOM      5  C   UNL A   1      33.769  22.794  25.088  1.00  0.00     0.093 A 
ATOM      6  C   UNL A   1      31.711  22.973  26.079  1.00  0.00     0.086 A 
ATOM      7  C   UNL A   1      32.625  22.047  25.549  1.00  0.00     0.024 A 
ATOM      8  N   UNL A   1      32.335  24.236  26.064  1.00  0.00    -0.314 N 
ATOM      9  C   UNL A   1      33.615  24.088  25.529  1.00  0.00     0.061 A 
ATOM     10  C   UNL A   1      31.864  25.525  26.386  1.00  0.00     0.092 A 
ATOM     11  C   UNL A   1      34.439  25.243  25.352  1.00  0.00     0.027 A 
ATOM     12  C   UNL A   1      32.629  26.612  26.188  1.00  0.00     0.018 A 
ATOM     13  C   UNL A   1      33.963  26.459  25.658  1.00  0.00     0.004 A 
BRANCH   6  14
ATOM     14  C   UNL A   1      30.287  22.650  26.438  1.00  0.00     0.315 C 
BRANCH  14  15
ATOM     15  N   UNL A   1      29.444  23.731  26.906  1.00  0.00    -0.353 N 
ATOM     16  H   UNL A   1      28.700  23.899  26.228  1.00  0.00     0.344 HD
ATOM     17  H   UNL A   1      30.004  24.577  27.013  1.00  0.00     0.344 HD
ATOM     18  H   UNL A   1      29.034  23.479  27.804  1.00  0.00     0.344 HD
ENDBRANCH  14  15
ENDBRANCH   6  14
BRANCH   7  19
ATOM     19  C   UNL A   1      32.265  20.685  25.086  1.00  0.00    -0.015 A 
ATOM     20  C   UNL A   1      32.855  19.173  25.905  1.00  0.00     0.009 A 
ATOM     21  C   UNL A   1      32.047  20.635  23.334  1.00  0.00     0.009 A 
ATOM     22  C   UNL A   1      33.317  17.586  24.731  1.00  0.00     0.001 A 
ATOM     23  C   UNL A   1      32.436  19.233  22.326  1.00  0.00     0.001 A 
ATOM     24  C   UNL A   1      33.080  17.731  22.958  1.00  0.00     0.000 A 
ENDBRANCH   7  19
ENDBRANCH   3   5
ENDBRANCH   2   3
ENDBRANCH   1   2
BRANCH   1  25
ATOM     25  C   UNL A   1      37.338  19.901  24.708  1.00  0.00     0.275 C 
BRANCH  25  26
ATOM     26  O   UNL A   1      38.010  20.606  25.763  1.00  0.00    -0.458 OA
BRANCH  26  27
ATOM     27  C   UNL A   1      39.303  20.267  25.918  1.00  0.00     0.338 C 
ATOM     28  O   UNL A   1      39.845  19.207  25.653  1.00  0.00    -0.246 OA
BRANCH  27  29
ATOM     29  C   UNL A   1      40.056  21.414  26.403  1.00  0.00     0.060 A 
ATOM     30  C   UNL A   1      41.338  21.259  27.654  1.00  0.00     0.016 A 
ATOM     31  C   UNL A   1      39.434  23.010  26.040  1.00  0.00     0.016 A 
ATOM     32  C   UNL A   1      41.956  22.942  28.595  1.00  0.00     0.010 A 
ATOM     33  C   UNL A   1      40.026  24.486  26.823  1.00  0.00     0.010 A 
ATOM     34  C   UNL A   1      41.276  24.534  28.080  1.00  0.00    -0.014 A 
BRANCH  34  35
ATOM     35  C   UNL A   1      41.973  25.871  28.346  1.00  0.00     0.031 A 
ATOM     36  C   UNL A   1      41.227  27.034  28.986  1.00  0.00     0.074 A 
ATOM     37  C   UNL A   1      43.202  26.152  27.841  1.00  0.00     0.049 A 
ATOM     38  N   UNL A   1      41.548  28.309  29.042  1.00  0.00    -0.248 NA
ATOM     39  C   UNL A   1      39.939  26.732  29.624  1.00  0.00     0.031 C 
ATOM     40  C   UNL A   1      44.093  25.218  27.175  1.00  0.00     0.029 A 
ATOM     41  N   UNL A   1      43.917  27.337  27.762  1.00  0.00    -0.354 N 
ATOM     42  C   UNL A   1      40.493  28.953  29.682  1.00  0.00     0.074 A 
ATOM     43  C   UNL A   1      39.483  27.942  29.920  1.00  0.00     0.031 C 
ATOM     44  C   UNL A   1      45.191  25.826  26.731  1.00  0.00     0.029 A 
ATOM     45  C   UNL A   1      45.098  27.229  27.055  1.00  0.00     0.049 A 
ATOM     46  H   UNL A   1      43.611  28.178  28.171  1.00  0.00     0.167 HD
ATOM     47  C   UNL A   1      40.383  30.249  30.081  1.00  0.00     0.037 A 
ATOM     48  C   UNL A   1      46.040  28.114  26.680  1.00  0.00     0.037 A 
ATOM     49  C   UNL A   1      41.411  31.250  29.915  1.00  0.00     0.049 A 
ATOM     50  C   UNL A   1      45.914  29.528  27.126  1.00  0.00     0.074 A 
ATOM     51  C   UNL A   1      41.433  32.555  30.381  1.00  0.00     0.029 A 
ATOM     52  N   UNL A   1      42.606  31.057  29.235  1.00  0.00    -0.354 N 
ATOM     53  N   UNL A   1      44.934  30.088  27.785  1.00  0.00    -0.248 NA
ATOM     54  C   UNL A   1      47.035  30.422  26.816  1.00  0.00     0.031 C 
ATOM     55  C   UNL A   1      42.621  33.161  29.953  1.00  0.00     0.029 A 
ATOM     56  C   UNL A   1      43.359  32.223  29.253  1.00  0.00     0.049 A 
ATOM     57  H   UNL A   1      42.879  30.215  28.804  1.00  0.00     0.167 HD
ATOM     58  C   UNL A   1      45.330  31.395  28.002  1.00  0.00     0.074 A 
ATOM     59  C   UNL A   1      46.645  31.541  27.411  1.00  0.00     0.031 C 
ATOM     60  C   UNL A   1      44.658  32.376  28.647  1.00  0.00     0.037 A 
BRANCH  47  61
ATOM     61  C   UNL A   1      39.109  30.659  30.779  1.00  0.00     0.064 A 
ATOM     62  C   UNL A   1      38.000  31.145  30.066  1.00  0.00     0.173 A 
ATOM     63  C   UNL A   1      38.980  30.543  32.173  1.00  0.00     0.173 A 
ATOM     64  F   UNL A   1      38.059  31.270  28.731  1.00  0.00    -0.203 F 
ATOM     65  C   UNL A   1      36.840  31.553  30.722  1.00  0.00     0.198 A 
ATOM     66  C   UNL A   1      37.804  30.919  32.823  1.00  0.00     0.198 A 
ATOM     67  F   UNL A   1      39.992  30.061  32.910  1.00  0.00    -0.203 F 
ATOM     68  F   UNL A   1      35.825  32.077  30.021  1.00  0.00    -0.200 F 
ATOM     69  C   UNL A   1      36.742  31.437  32.100  1.00  0.00     0.200 A 
ATOM     70  F   UNL A   1      37.702  30.785  34.153  1.00  0.00    -0.200 F 
ATOM     71  F   UNL A   1      35.627  31.833  32.729  1.00  0.00    -0.200 F 
ENDBRANCH  47  61
BRANCH  48  72
ATOM     72  C   UNL A   1      47.222  27.635  25.909  1.00  0.00     0.064 A 
ATOM     73  C   UNL A   1      47.222  27.672  24.509  1.00  0.00     0.173 A 
ATOM     74  C   UNL A   1      48.408  27.243  26.552  1.00  0.00     0.173 A 
ATOM     75  F   UNL A   1      46.113  28.038  23.850  1.00  0.00    -0.203 F 
ATOM     76  C   UNL A   1      48.360  27.335  23.778  1.00  0.00     0.198 A 
ATOM     77  C   UNL A   1      49.553  26.931  25.820  1.00  0.00     0.198 A 
ATOM     78  F   UNL A   1      48.470  27.217  27.891  1.00  0.00    -0.203 F 
ATOM     79  F   UNL A   1      48.327  27.369  22.439  1.00  0.00    -0.200 F 
ATOM     80  C   UNL A   1      49.528  26.975  24.435  1.00  0.00     0.200 A 
ATOM     81  F   UNL A   1      50.688  26.612  26.457  1.00  0.00    -0.200 F 
ATOM     82  F   UNL A   1      50.630  26.680  23.732  1.00  0.00    -0.200 F 
ENDBRANCH  48  72
BRANCH  60  83
ATOM     83  C   UNL A   1      45.348  33.699  28.748  1.00  0.00     0.064 A 
ATOM     84  C   UNL A   1      45.163  34.695  27.778  1.00  0.00     0.173 A 
ATOM     85  C   UNL A   1      46.212  33.971  29.819  1.00  0.00     0.173 A 
ATOM     86  F   UNL A   1      44.369  34.468  26.720  1.00  0.00    -0.203 F 
ATOM     87  C   UNL A   1      45.838  35.909  27.863  1.00  0.00     0.198 A 
ATOM     88  C   UNL A   1      46.865  35.196  29.915  1.00  0.00     0.198 A 
ATOM     89  F   UNL A   1      46.429  33.046  30.765  1.00  0.00    -0.203 F 
ATOM     90  F   UNL A   1      45.688  36.825  26.898  1.00  0.00    -0.200 F 
ATOM     91  C   UNL A   1      46.682  36.161  28.934  1.00  0.00     0.200 A 
ATOM     92  F   UNL A   1      47.678  35.440  30.950  1.00  0.00    -0.200 F 
ATOM     93  F   UNL A   1      47.333  37.329  29.014  1.00  0.00    -0.200 F 
ENDBRANCH  60  83
ENDBRANCH  34  35
ENDBRANCH  27  29
ENDBRANCH  26  27
ENDBRANCH  25  26
ENDBRANCH   1  25
TORSDOF 14
ENDMDL
