MODEL 1
REMARK VINA RESULT:     -12.2      0.000      0.000
REMARK SMILES CC(C)N(c1cc2c(cc1Cl)C=C(C(=O)OCCOC(=O)c1ccc(-c3c4nc(c(-c5c(F)c(F)c(F)c(F)c5F)c5ccc([nH]5)c(-c5c(F)c(F)c(F)c(F)c5F)c5nc(c(-c6c(F)c(F)c(F)c(F)c6F)c6ccc3[nH]6)C=C5)C=C4)cc1)[C@@H](C(F)(F)F)O2)C(C)C
REMARK SMILES IDX 17 1 16 2 14 3 15 4 13 5 5 6 6 7 10 8 7 9 9 10 11 11 8 12
REMARK SMILES IDX 90 13 12 14 85 15 4 16 2 17 1 18 3 19 91 20 92 21 93 22
REMARK SMILES IDX 86 23 87 24 88 25 89 26 18 27 19 28 20 29 21 30 22 31 23 32
REMARK SMILES IDX 84 33 24 34 83 35 25 36 26 37 27 38 77 39 28 40 82 41 76 42
REMARK SMILES IDX 78 43 29 44 81 45 75 46 74 47 30 49 62 50 42 51 61 52 43 53
REMARK SMILES IDX 46 54 60 55 79 56 44 57 45 58 59 60 80 61 47 62 31 63 32 64
REMARK SMILES IDX 40 65 33 66 34 67 38 68 41 69 35 70 36 71 39 72 37 73 63 74
REMARK SMILES IDX 64 75 72 76 65 77 66 78 70 79 73 80 67 81 68 82 71 83 69 84
REMARK SMILES IDX 48 85 49 86 57 87 50 88 51 89 55 90 58 91 52 92 53 93 56 94
REMARK SMILES IDX 54 95
REMARK H PARENT 78 48 46 59
REMARK Flexibility Score: inf
ROOT
ATOM      1  C   UNL A   1      30.942  30.357  24.654  1.00  0.00     0.275 C 
ENDROOT
BRANCH   1   2
ATOM      2  O   UNL A   1      30.166  29.277  24.088  1.00  0.00    -0.459 OA
BRANCH   2   3
ATOM      3  C   UNL A   1      30.555  28.869  22.858  1.00  0.00     0.338 C 
ATOM      4  O   UNL A   1      30.419  29.482  21.811  1.00  0.00    -0.246 OA
BRANCH   3   5
ATOM      5  C   UNL A   1      31.269  27.580  22.940  1.00  0.00     0.087 C 
ATOM      6  C   UNL A   1      32.787  22.975  24.380  1.00  0.00     0.060 A 
ATOM      7  C   UNL A   1      33.291  23.962  23.497  1.00  0.00     0.074 A 
ATOM      8  C   UNL A   1      31.551  23.248  25.009  1.00  0.00     0.065 A 
ATOM      9  C   UNL A   1      32.619  25.168  23.269  1.00  0.00     0.130 A 
ATOM     10  C   UNL A   1      30.862  24.433  24.752  1.00  0.00     0.034 A 
ATOM     11  Cl  UNL A   1      30.836  22.227  26.211  1.00  0.00    -0.082 Cl
ATOM     12  C   UNL A   1      31.406  25.395  23.901  1.00  0.00     0.019 A 
ATOM     13  O   UNL A   1      33.197  26.070  22.416  1.00  0.00    -0.475 OA
ATOM     14  C   UNL A   1      30.711  26.644  23.712  1.00  0.00     0.027 C 
ATOM     15  C   UNL A   1      32.617  27.408  22.298  1.00  0.00     0.316 C 
BRANCH   6  16
ATOM     16  N   UNL A   1      33.533  21.801  24.607  1.00  0.00    -0.365 N 
BRANCH  16  17
ATOM     17  C   UNL A   1      33.107  20.578  23.889  1.00  0.00     0.076 C 
ATOM     18  C   UNL A   1      32.544  19.513  24.828  1.00  0.00     0.030 C 
ATOM     19  C   UNL A   1      32.147  20.844  22.734  1.00  0.00     0.030 C 
ENDBRANCH  16  17
BRANCH  16  20
ATOM     20  C   UNL A   1      34.691  21.930  25.516  1.00  0.00     0.076 C 
ATOM     21  C   UNL A   1      34.307  21.788  26.987  1.00  0.00     0.030 C 
ATOM     22  C   UNL A   1      35.848  21.008  25.148  1.00  0.00     0.030 C 
ENDBRANCH  16  20
ENDBRANCH   6  16
BRANCH  15  23
ATOM     23  C   UNL A   1      33.613  28.441  22.856  1.00  0.00     0.430 C 
ATOM     24  F   UNL A   1      33.115  29.697  22.796  1.00  0.00    -0.167 F 
ATOM     25  F   UNL A   1      33.898  28.198  24.158  1.00  0.00    -0.167 F 
ATOM     26  F   UNL A   1      34.785  28.434  22.181  1.00  0.00    -0.167 F 
ENDBRANCH  15  23
ENDBRANCH   3   5
ENDBRANCH   2   3
ENDBRANCH   1   2
BRANCH   1  27
ATOM     27  C   UNL A   1      31.607  29.936  25.965  1.00  0.00     0.275 C 
BRANCH  27  28
ATOM     28  O   UNL A   1      32.967  30.407  26.005  1.00  0.00    -0.458 OA
BRANCH  28  29
ATOM     29  C   UNL A   1      33.247  31.331  26.952  1.00  0.00     0.338 C 
ATOM     30  O   UNL A   1      32.565  32.278  27.297  1.00  0.00    -0.246 OA
BRANCH  29  31
ATOM     31  C   UNL A   1      34.534  31.000  27.587  1.00  0.00     0.060 A 
ATOM     32  C   UNL A   1      35.408  31.998  28.004  1.00  0.00     0.016 A 
ATOM     33  C   UNL A   1      34.816  29.669  27.873  1.00  0.00     0.016 A 
ATOM     34  C   UNL A   1      36.579  31.643  28.687  1.00  0.00     0.010 A 
ATOM     35  C   UNL A   1      35.900  29.331  28.676  1.00  0.00     0.010 A 
ATOM     36  C   UNL A   1      36.826  30.306  29.061  1.00  0.00    -0.014 A 
BRANCH  36  37
ATOM     37  C   UNL A   1      38.056  29.912  29.812  1.00  0.00     0.031 A 
ATOM     38  C   UNL A   1      38.276  30.383  31.233  1.00  0.00     0.074 A 
ATOM     39  C   UNL A   1      39.008  29.164  29.216  1.00  0.00     0.049 A 
ATOM     40  N   UNL A   1      39.310  30.203  32.019  1.00  0.00    -0.248 NA
ATOM     41  C   UNL A   1      37.215  31.208  31.836  1.00  0.00     0.031 C 
ATOM     42  C   UNL A   1      38.980  28.705  27.826  1.00  0.00     0.029 A 
ATOM     43  N   UNL A   1      40.183  28.650  29.707  1.00  0.00    -0.354 N 
ATOM     44  C   UNL A   1      39.041  30.927  33.175  1.00  0.00     0.074 A 
ATOM     45  C   UNL A   1      37.779  31.599  32.968  1.00  0.00     0.031 C 
ATOM     46  C   UNL A   1      40.046  27.922  27.598  1.00  0.00     0.029 A 
ATOM     47  C   UNL A   1      40.856  27.857  28.810  1.00  0.00     0.049 A 
ATOM     48  H   UNL A   1      40.512  28.834  30.617  1.00  0.00     0.167 HD
ATOM     49  C   UNL A   1      39.756  30.997  34.325  1.00  0.00     0.037 A 
ATOM     50  C   UNL A   1      41.992  27.146  28.950  1.00  0.00     0.037 A 
ATOM     51  C   UNL A   1      40.966  30.261  34.574  1.00  0.00     0.049 A 
ATOM     52  C   UNL A   1      42.724  27.170  30.262  1.00  0.00     0.074 A 
ATOM     53  C   UNL A   1      41.714  30.197  35.737  1.00  0.00     0.029 A 
ATOM     54  N   UNL A   1      41.592  29.441  33.649  1.00  0.00    -0.354 N 
ATOM     55  N   UNL A   1      42.432  27.823  31.360  1.00  0.00    -0.248 NA
ATOM     56  C   UNL A   1      43.945  26.356  30.354  1.00  0.00     0.031 C 
ATOM     57  C   UNL A   1      42.805  29.351  35.509  1.00  0.00     0.029 A 
ATOM     58  C   UNL A   1      42.717  28.864  34.215  1.00  0.00     0.049 A 
ATOM     59  H   UNL A   1      41.284  29.290  32.726  1.00  0.00     0.167 HD
ATOM     60  C   UNL A   1      43.426  27.498  32.272  1.00  0.00     0.074 A 
ATOM     61  C   UNL A   1      44.313  26.563  31.611  1.00  0.00     0.031 C 
ATOM     62  C   UNL A   1      43.593  27.941  33.542  1.00  0.00     0.037 A 
BRANCH  49  63
ATOM     63  C   UNL A   1      39.223  31.874  35.423  1.00  0.00     0.064 A 
ATOM     64  C   UNL A   1      38.390  31.364  36.430  1.00  0.00     0.173 A 
ATOM     65  C   UNL A   1      39.581  33.229  35.494  1.00  0.00     0.173 A 
ATOM     66  F   UNL A   1      38.011  30.078  36.404  1.00  0.00    -0.203 F 
ATOM     67  C   UNL A   1      37.905  32.184  37.446  1.00  0.00     0.198 A 
ATOM     68  C   UNL A   1      39.121  34.039  36.530  1.00  0.00     0.198 A 
ATOM     69  F   UNL A   1      40.386  33.766  34.565  1.00  0.00    -0.203 F 
ATOM     70  F   UNL A   1      37.070  31.684  38.366  1.00  0.00    -0.200 F 
ATOM     71  C   UNL A   1      38.277  33.518  37.499  1.00  0.00     0.200 A 
ATOM     72  F   UNL A   1      39.494  35.325  36.590  1.00  0.00    -0.200 F 
ATOM     73  F   UNL A   1      37.819  34.304  38.483  1.00  0.00    -0.200 F 
ENDBRANCH  49  63
BRANCH  50  74
ATOM     74  C   UNL A   1      42.470  26.297  27.828  1.00  0.00     0.064 A 
ATOM     75  C   UNL A   1      41.936  25.015  27.630  1.00  0.00     0.173 A 
ATOM     76  C   UNL A   1      43.441  26.748  26.924  1.00  0.00     0.173 A 
ATOM     77  F   UNL A   1      41.019  24.534  28.481  1.00  0.00    -0.203 F 
ATOM     78  C   UNL A   1      42.361  24.214  26.573  1.00  0.00     0.198 A 
ATOM     79  C   UNL A   1      43.850  25.955  25.854  1.00  0.00     0.198 A 
ATOM     80  F   UNL A   1      43.978  27.968  27.070  1.00  0.00    -0.203 F 
ATOM     81  F   UNL A   1      41.857  22.982  26.424  1.00  0.00    -0.200 F 
ATOM     82  C   UNL A   1      43.312  24.687  25.682  1.00  0.00     0.200 A 
ATOM     83  F   UNL A   1      44.759  26.419  24.987  1.00  0.00    -0.200 F 
ATOM     84  F   UNL A   1      43.714  23.921  24.659  1.00  0.00    -0.200 F 
ENDBRANCH  50  74
BRANCH  62  85
ATOM     85  C   UNL A   1      44.778  27.423  34.301  1.00  0.00     0.064 A 
ATOM     86  C   UNL A   1      44.710  26.228  35.031  1.00  0.00     0.173 A 
ATOM     87  C   UNL A   1      46.005  28.101  34.260  1.00  0.00     0.173 A 
ATOM     88  F   UNL A   1      43.554  25.552  35.111  1.00  0.00    -0.203 F 
ATOM     89  C   UNL A   1      45.822  25.740  35.710  1.00  0.00     0.198 A 
ATOM     90  C   UNL A   1      47.123  27.598  34.918  1.00  0.00     0.198 A 
ATOM     91  F   UNL A   1      46.122  29.246  33.568  1.00  0.00    -0.203 F 
ATOM     92  F   UNL A   1      45.725  24.617  36.433  1.00  0.00    -0.200 F 
ATOM     93  C   UNL A   1      47.029  26.422  35.647  1.00  0.00     0.200 A 
ATOM     94  F   UNL A   1      48.290  28.251  34.849  1.00  0.00    -0.200 F 
ATOM     95  F   UNL A   1      48.102  25.947  36.296  1.00  0.00    -0.200 F 
ENDBRANCH  62  85
ENDBRANCH  36  37
ENDBRANCH  29  31
ENDBRANCH  28  29
ENDBRANCH  27  28
ENDBRANCH   1  27
TORSDOF 15
ENDMDL
MODEL 2
REMARK VINA RESULT:     -12.2      0.118      1.911
REMARK SMILES CC(C)N(c1cc2c(cc1Cl)C=C(C(=O)OCCOC(=O)c1ccc(-c3c4nc(c(-c5c(F)c(F)c(F)c(F)c5F)c5ccc([nH]5)c(-c5c(F)c(F)c(F)c(F)c5F)c5nc(c(-c6c(F)c(F)c(F)c(F)c6F)c6ccc3[nH]6)C=C5)C=C4)cc1)[C@@H](C(F)(F)F)O2)C(C)C
REMARK SMILES IDX 17 1 16 2 14 3 15 4 13 5 5 6 6 7 10 8 7 9 9 10 11 11 8 12
REMARK SMILES IDX 90 13 12 14 85 15 4 16 2 17 1 18 3 19 91 20 92 21 93 22
REMARK SMILES IDX 86 23 87 24 88 25 89 26 18 27 19 28 20 29 21 30 22 31 23 32
REMARK SMILES IDX 84 33 24 34 83 35 25 36 26 37 27 38 77 39 28 40 82 41 76 42
REMARK SMILES IDX 78 43 29 44 81 45 75 46 74 47 30 49 62 50 42 51 61 52 43 53
REMARK SMILES IDX 46 54 60 55 79 56 44 57 45 58 59 60 80 61 47 62 31 63 32 64
REMARK SMILES IDX 40 65 33 66 34 67 38 68 41 69 35 70 36 71 39 72 37 73 63 74
REMARK SMILES IDX 64 75 72 76 65 77 66 78 70 79 73 80 67 81 68 82 71 83 69 84
REMARK SMILES IDX 48 85 49 86 57 87 50 88 51 89 55 90 58 91 52 92 53 93 56 94
REMARK SMILES IDX 54 95
REMARK H PARENT 78 48 46 59
REMARK Flexibility Score: inf
ROOT
ATOM      1  C   UNL A   1      30.875  30.334  24.626  1.00  0.00     0.275 C 
ENDROOT
BRANCH   1   2
ATOM      2  O   UNL A   1      30.149  29.234  24.033  1.00  0.00    -0.459 OA
BRANCH   2   3
ATOM      3  C   UNL A   1      30.581  28.850  22.809  1.00  0.00     0.338 C 
ATOM      4  O   UNL A   1      30.478  29.482  21.770  1.00  0.00    -0.246 OA
BRANCH   3   5
ATOM      5  C   UNL A   1      31.296  27.561  22.891  1.00  0.00     0.087 C 
ATOM      6  C   UNL A   1      32.816  22.957  24.330  1.00  0.00     0.060 A 
ATOM      7  C   UNL A   1      33.321  23.945  23.450  1.00  0.00     0.074 A 
ATOM      8  C   UNL A   1      31.577  23.227  24.955  1.00  0.00     0.065 A 
ATOM      9  C   UNL A   1      32.649  25.151  23.222  1.00  0.00     0.130 A 
ATOM     10  C   UNL A   1      30.887  24.411  24.697  1.00  0.00     0.034 A 
ATOM     11  Cl  UNL A   1      30.859  22.203  26.152  1.00  0.00    -0.082 Cl
ATOM     12  C   UNL A   1      31.433  25.375  23.850  1.00  0.00     0.019 A 
ATOM     13  O   UNL A   1      33.228  26.055  22.372  1.00  0.00    -0.475 OA
ATOM     14  C   UNL A   1      30.737  26.624  23.661  1.00  0.00     0.027 C 
ATOM     15  C   UNL A   1      32.646  27.393  22.254  1.00  0.00     0.316 C 
BRANCH   6  16
ATOM     16  N   UNL A   1      33.562  21.783  24.557  1.00  0.00    -0.365 N 
BRANCH  16  17
ATOM     17  C   UNL A   1      33.111  20.549  23.876  1.00  0.00     0.076 C 
ATOM     18  C   UNL A   1      32.528  19.522  24.845  1.00  0.00     0.030 C 
ATOM     19  C   UNL A   1      32.153  20.801  22.715  1.00  0.00     0.030 C 
ENDBRANCH  16  17
BRANCH  16  20
ATOM     20  C   UNL A   1      34.747  21.923  25.431  1.00  0.00     0.076 C 
ATOM     21  C   UNL A   1      34.405  21.806  26.914  1.00  0.00     0.030 C 
ATOM     22  C   UNL A   1      35.890  20.992  25.044  1.00  0.00     0.030 C 
ENDBRANCH  16  20
ENDBRANCH   6  16
BRANCH  15  23
ATOM     23  C   UNL A   1      33.639  28.426  22.817  1.00  0.00     0.430 C 
ATOM     24  F   UNL A   1      33.153  29.685  22.728  1.00  0.00    -0.167 F 
ATOM     25  F   UNL A   1      33.895  28.201  24.129  1.00  0.00    -0.167 F 
ATOM     26  F   UNL A   1      34.826  28.399  22.167  1.00  0.00    -0.167 F 
ENDBRANCH  15  23
ENDBRANCH   3   5
ENDBRANCH   2   3
ENDBRANCH   1   2
BRANCH   1  27
ATOM     27  C   UNL A   1      31.594  29.900  25.904  1.00  0.00     0.275 C 
BRANCH  27  28
ATOM     28  O   UNL A   1      32.933  30.428  25.922  1.00  0.00    -0.458 OA
BRANCH  28  29
ATOM     29  C   UNL A   1      33.199  31.335  26.890  1.00  0.00     0.338 C 
ATOM     30  O   UNL A   1      32.503  32.264  27.255  1.00  0.00    -0.246 OA
BRANCH  29  31
ATOM     31  C   UNL A   1      34.491  31.010  27.517  1.00  0.00     0.060 A 
ATOM     32  C   UNL A   1      35.333  32.011  27.990  1.00  0.00     0.016 A 
ATOM     33  C   UNL A   1      34.810  29.675  27.739  1.00  0.00     0.016 A 
ATOM     34  C   UNL A   1      36.510  31.655  28.664  1.00  0.00     0.010 A 
ATOM     35  C   UNL A   1      35.898  29.328  28.533  1.00  0.00     0.010 A 
ATOM     36  C   UNL A   1      36.793  30.309  28.972  1.00  0.00    -0.014 A 
BRANCH  36  37
ATOM     37  C   UNL A   1      38.029  29.913  29.713  1.00  0.00     0.031 A 
ATOM     38  C   UNL A   1      38.267  30.392  31.128  1.00  0.00     0.074 A 
ATOM     39  C   UNL A   1      38.970  29.157  29.111  1.00  0.00     0.049 A 
ATOM     40  N   UNL A   1      39.309  30.212  31.904  1.00  0.00    -0.248 NA
ATOM     41  C   UNL A   1      37.218  31.226  31.737  1.00  0.00     0.031 C 
ATOM     42  C   UNL A   1      38.925  28.689  27.725  1.00  0.00     0.029 A 
ATOM     43  N   UNL A   1      40.149  28.640  29.593  1.00  0.00    -0.354 N 
ATOM     44  C   UNL A   1      39.057  30.945  33.058  1.00  0.00     0.074 A 
ATOM     45  C   UNL A   1      37.796  31.622  32.860  1.00  0.00     0.031 C 
ATOM     46  C   UNL A   1      39.984  27.898  27.490  1.00  0.00     0.029 A 
ATOM     47  C   UNL A   1      40.808  27.837  28.693  1.00  0.00     0.049 A 
ATOM     48  H   UNL A   1      40.488  28.827  30.498  1.00  0.00     0.167 HD
ATOM     49  C   UNL A   1      39.784  31.019  34.199  1.00  0.00     0.037 A 
ATOM     50  C   UNL A   1      41.941  27.121  28.826  1.00  0.00     0.037 A 
ATOM     51  C   UNL A   1      40.994  30.277  34.440  1.00  0.00     0.049 A 
ATOM     52  C   UNL A   1      42.688  27.149  30.129  1.00  0.00     0.074 A 
ATOM     53  C   UNL A   1      41.754  30.217  35.595  1.00  0.00     0.029 A 
ATOM     54  N   UNL A   1      41.605  29.448  33.513  1.00  0.00    -0.354 N 
ATOM     55  N   UNL A   1      42.412  27.811  31.226  1.00  0.00    -0.248 NA
ATOM     56  C   UNL A   1      43.905  26.329  30.213  1.00  0.00     0.031 C 
ATOM     57  C   UNL A   1      42.838  29.364  35.360  1.00  0.00     0.029 A 
ATOM     58  C   UNL A   1      42.734  28.869  34.071  1.00  0.00     0.049 A 
ATOM     59  H   UNL A   1      41.286  29.293  32.595  1.00  0.00     0.167 HD
ATOM     60  C   UNL A   1      43.413  27.486  32.130  1.00  0.00     0.074 A 
ATOM     61  C   UNL A   1      44.288  26.543  31.465  1.00  0.00     0.031 C 
ATOM     62  C   UNL A   1      43.597  27.936  33.394  1.00  0.00     0.037 A 
BRANCH  49  63
ATOM     63  C   UNL A   1      39.269  31.906  35.297  1.00  0.00     0.064 A 
ATOM     64  C   UNL A   1      39.544  33.281  35.319  1.00  0.00     0.173 A 
ATOM     65  C   UNL A   1      38.457  31.384  36.317  1.00  0.00     0.173 A 
ATOM     66  F   UNL A   1      40.321  33.829  34.372  1.00  0.00    -0.203 F 
ATOM     67  C   UNL A   1      39.057  34.096  36.338  1.00  0.00     0.198 A 
ATOM     68  C   UNL A   1      37.946  32.207  37.317  1.00  0.00     0.198 A 
ATOM     69  F   UNL A   1      38.153  30.078  36.338  1.00  0.00    -0.203 F 
ATOM     70  F   UNL A   1      39.376  35.396  36.364  1.00  0.00    -0.200 F 
ATOM     71  C   UNL A   1      38.253  33.560  37.332  1.00  0.00     0.200 A 
ATOM     72  F   UNL A   1      37.154  31.692  38.269  1.00  0.00    -0.200 F 
ATOM     73  F   UNL A   1      37.776  34.346  38.307  1.00  0.00    -0.200 F 
ENDBRANCH  49  63
BRANCH  50  74
ATOM     74  C   UNL A   1      42.402  26.262  27.704  1.00  0.00     0.064 A 
ATOM     75  C   UNL A   1      43.378  26.725  26.810  1.00  0.00     0.173 A 
ATOM     76  C   UNL A   1      41.903  24.966  27.513  1.00  0.00     0.173 A 
ATOM     77  F   UNL A   1      43.870  27.966  26.941  1.00  0.00    -0.203 F 
ATOM     78  C   UNL A   1      43.834  25.927  25.764  1.00  0.00     0.198 A 
ATOM     79  C   UNL A   1      42.375  24.160  26.480  1.00  0.00     0.198 A 
ATOM     80  F   UNL A   1      40.971  24.477  28.344  1.00  0.00    -0.203 F 
ATOM     81  F   UNL A   1      44.745  26.405  24.906  1.00  0.00    -0.200 F 
ATOM     82  C   UNL A   1      43.336  24.642  25.604  1.00  0.00     0.200 A 
ATOM     83  F   UNL A   1      41.903  22.915  26.335  1.00  0.00    -0.200 F 
ATOM     84  F   UNL A   1      43.782  23.870  24.603  1.00  0.00    -0.200 F 
ENDBRANCH  50  74
BRANCH  62  85
ATOM     85  C   UNL A   1      44.788  27.417  34.144  1.00  0.00     0.064 A 
ATOM     86  C   UNL A   1      46.009  28.106  34.137  1.00  0.00     0.173 A 
ATOM     87  C   UNL A   1      44.694  26.249  34.913  1.00  0.00     0.173 A 
ATOM     88  F   UNL A   1      46.151  29.221  33.404  1.00  0.00    -0.203 F 
ATOM     89  C   UNL A   1      47.101  27.632  34.857  1.00  0.00     0.198 A 
ATOM     90  C   UNL A   1      45.780  25.791  35.654  1.00  0.00     0.198 A 
ATOM     91  F   UNL A   1      43.543  25.559  34.957  1.00  0.00    -0.203 F 
ATOM     92  F   UNL A   1      48.270  28.285  34.806  1.00  0.00    -0.200 F 
ATOM     93  C   UNL A   1      46.983  26.480  35.620  1.00  0.00     0.200 A 
ATOM     94  F   UNL A   1      45.662  24.684  36.398  1.00  0.00    -0.200 F 
ATOM     95  F   UNL A   1      48.034  26.029  36.320  1.00  0.00    -0.200 F 
ENDBRANCH  62  85
ENDBRANCH  36  37
ENDBRANCH  29  31
ENDBRANCH  28  29
ENDBRANCH  27  28
ENDBRANCH   1  27
TORSDOF 15
ENDMDL
MODEL 3
REMARK VINA RESULT:     -12.0      4.503      9.729
REMARK SMILES CC(C)N(c1cc2c(cc1Cl)C=C(C(=O)OCCOC(=O)c1ccc(-c3c4nc(c(-c5c(F)c(F)c(F)c(F)c5F)c5ccc([nH]5)c(-c5c(F)c(F)c(F)c(F)c5F)c5nc(c(-c6c(F)c(F)c(F)c(F)c6F)c6ccc3[nH]6)C=C5)C=C4)cc1)[C@@H](C(F)(F)F)O2)C(C)C
REMARK SMILES IDX 17 1 16 2 14 3 15 4 13 5 5 6 6 7 10 8 7 9 9 10 11 11 8 12
REMARK SMILES IDX 90 13 12 14 85 15 4 16 2 17 1 18 3 19 91 20 92 21 93 22
REMARK SMILES IDX 86 23 87 24 88 25 89 26 18 27 19 28 20 29 21 30 22 31 23 32
REMARK SMILES IDX 84 33 24 34 83 35 25 36 26 37 27 38 77 39 28 40 82 41 76 42
REMARK SMILES IDX 78 43 29 44 81 45 75 46 74 47 30 49 62 50 42 51 61 52 43 53
REMARK SMILES IDX 46 54 60 55 79 56 44 57 45 58 59 60 80 61 47 62 31 63 32 64
REMARK SMILES IDX 40 65 33 66 34 67 38 68 41 69 35 70 36 71 39 72 37 73 63 74
REMARK SMILES IDX 64 75 72 76 65 77 66 78 70 79 73 80 67 81 68 82 71 83 69 84
REMARK SMILES IDX 48 85 49 86 57 87 50 88 51 89 55 90 58 91 52 92 53 93 56 94
REMARK SMILES IDX 54 95
REMARK H PARENT 78 48 46 59
REMARK Flexibility Score: inf
ROOT
ATOM      1  C   UNL A   1      35.935  19.981  25.001  1.00  0.00     0.275 C 
ENDROOT
BRANCH   1   2
ATOM      2  O   UNL A   1      34.709  20.234  24.277  1.00  0.00    -0.459 OA
BRANCH   2   3
ATOM      3  C   UNL A   1      33.579  20.180  25.018  1.00  0.00     0.338 C 
ATOM      4  O   UNL A   1      33.163  19.215  25.640  1.00  0.00    -0.246 OA
BRANCH   3   5
ATOM      5  C   UNL A   1      32.920  21.500  25.060  1.00  0.00     0.087 C 
ATOM      6  C   UNL A   1      31.271  26.122  23.838  1.00  0.00     0.060 A 
ATOM      7  C   UNL A   1      31.319  25.363  25.034  1.00  0.00     0.074 A 
ATOM      8  C   UNL A   1      31.731  25.493  22.659  1.00  0.00     0.065 A 
ATOM      9  C   UNL A   1      31.821  24.057  25.065  1.00  0.00     0.130 A 
ATOM     10  C   UNL A   1      32.195  24.178  22.683  1.00  0.00     0.034 A 
ATOM     11  Cl  UNL A   1      31.868  26.295  21.131  1.00  0.00    -0.082 Cl
ATOM     12  C   UNL A   1      32.257  23.473  23.885  1.00  0.00     0.019 A 
ATOM     13  O   UNL A   1      31.848  23.411  26.271  1.00  0.00    -0.475 OA
ATOM     14  C   UNL A   1      32.813  22.143  23.894  1.00  0.00     0.027 C 
ATOM     15  C   UNL A   1      32.532  22.121  26.372  1.00  0.00     0.316 C 
BRANCH   6  16
ATOM     16  N   UNL A   1      30.800  27.450  23.879  1.00  0.00    -0.365 N 
BRANCH  16  17
ATOM     17  C   UNL A   1      31.669  28.460  24.522  1.00  0.00     0.076 C 
ATOM     18  C   UNL A   1      31.774  28.267  26.034  1.00  0.00     0.030 C 
ATOM     19  C   UNL A   1      33.055  28.571  23.894  1.00  0.00     0.030 C 
ENDBRANCH  16  17
BRANCH  16  20
ATOM     20  C   UNL A   1      29.492  27.697  23.235  1.00  0.00     0.076 C 
ATOM     21  C   UNL A   1      28.358  26.900  23.875  1.00  0.00     0.030 C 
ATOM     22  C   UNL A   1      29.146  29.177  23.127  1.00  0.00     0.030 C 
ENDBRANCH  16  20
ENDBRANCH   6  16
BRANCH  15  23
ATOM     23  C   UNL A   1      33.766  22.274  27.279  1.00  0.00     0.430 C 
ATOM     24  F   UNL A   1      33.505  23.061  28.348  1.00  0.00    -0.167 F 
ATOM     25  F   UNL A   1      34.170  21.077  27.770  1.00  0.00    -0.167 F 
ATOM     26  F   UNL A   1      34.818  22.813  26.622  1.00  0.00    -0.167 F 
ENDBRANCH  15  23
ENDBRANCH   3   5
ENDBRANCH   2   3
ENDBRANCH   1   2
BRANCH   1  27
ATOM     27  C   UNL A   1      37.019  20.995  24.630  1.00  0.00     0.275 C 
BRANCH  27  28
ATOM     28  O   UNL A   1      37.506  21.654  25.813  1.00  0.00    -0.458 OA
BRANCH  28  29
ATOM     29  C   UNL A   1      38.802  21.431  26.126  1.00  0.00     0.338 C 
ATOM     30  O   UNL A   1      39.435  20.399  25.995  1.00  0.00    -0.246 OA
BRANCH  29  31
ATOM     31  C   UNL A   1      39.402  22.678  26.628  1.00  0.00     0.060 A 
ATOM     32  C   UNL A   1      40.504  22.656  27.477  1.00  0.00     0.016 A 
ATOM     33  C   UNL A   1      38.924  23.891  26.146  1.00  0.00     0.016 A 
ATOM     34  C   UNL A   1      41.101  23.865  27.857  1.00  0.00     0.010 A 
ATOM     35  C   UNL A   1      39.607  25.076  26.404  1.00  0.00     0.010 A 
ATOM     36  C   UNL A   1      40.681  25.091  27.301  1.00  0.00    -0.014 A 
BRANCH  36  37
ATOM     37  C   UNL A   1      41.323  26.387  27.673  1.00  0.00     0.031 A 
ATOM     38  C   UNL A   1      42.730  26.709  27.221  1.00  0.00     0.074 A 
ATOM     39  C   UNL A   1      40.669  27.271  28.456  1.00  0.00     0.049 A 
ATOM     40  N   UNL A   1      43.479  27.748  27.503  1.00  0.00    -0.248 NA
ATOM     41  C   UNL A   1      43.408  25.707  26.380  1.00  0.00     0.031 C 
ATOM     42  C   UNL A   1      39.343  27.068  29.040  1.00  0.00     0.029 A 
ATOM     43  N   UNL A   1      41.030  28.524  28.888  1.00  0.00    -0.354 N 
ATOM     44  C   UNL A   1      44.715  27.499  26.918  1.00  0.00     0.074 A 
ATOM     45  C   UNL A   1      44.641  26.186  26.318  1.00  0.00     0.031 C 
ATOM     46  C   UNL A   1      38.972  28.181  29.692  1.00  0.00     0.029 A 
ATOM     47  C   UNL A   1      40.051  29.161  29.611  1.00  0.00     0.049 A 
ATOM     48  H   UNL A   1      41.908  28.927  28.699  1.00  0.00     0.167 HD
ATOM     49  C   UNL A   1      45.804  28.303  26.845  1.00  0.00     0.037 A 
ATOM     50  C   UNL A   1      40.018  30.401  30.137  1.00  0.00     0.037 A 
ATOM     51  C   UNL A   1      45.857  29.645  27.360  1.00  0.00     0.049 A 
ATOM     52  C   UNL A   1      41.205  31.307  29.974  1.00  0.00     0.074 A 
ATOM     53  C   UNL A   1      46.883  30.568  27.259  1.00  0.00     0.029 A 
ATOM     54  N   UNL A   1      44.828  30.263  28.053  1.00  0.00    -0.354 N 
ATOM     55  N   UNL A   1      42.348  31.073  29.378  1.00  0.00    -0.248 NA
ATOM     56  C   UNL A   1      41.095  32.654  30.555  1.00  0.00     0.031 C 
ATOM     57  C   UNL A   1      46.481  31.741  27.908  1.00  0.00     0.029 A 
ATOM     58  C   UNL A   1      45.193  31.557  28.384  1.00  0.00     0.049 A 
ATOM     59  H   UNL A   1      43.966  29.844  28.276  1.00  0.00     0.167 HD
ATOM     60  C   UNL A   1      43.091  32.237  29.507  1.00  0.00     0.074 A 
ATOM     61  C   UNL A   1      42.259  33.191  30.211  1.00  0.00     0.031 C 
ATOM     62  C   UNL A   1      44.355  32.492  29.089  1.00  0.00     0.037 A 
BRANCH  49  63
ATOM     63  C   UNL A   1      47.022  27.764  26.148  1.00  0.00     0.064 A 
ATOM     64  C   UNL A   1      47.142  27.801  24.750  1.00  0.00     0.173 A 
ATOM     65  C   UNL A   1      48.097  27.243  26.884  1.00  0.00     0.173 A 
ATOM     66  F   UNL A   1      46.140  28.282  23.999  1.00  0.00    -0.203 F 
ATOM     67  C   UNL A   1      48.277  27.304  24.114  1.00  0.00     0.198 A 
ATOM     68  C   UNL A   1      49.243  26.777  26.246  1.00  0.00     0.198 A 
ATOM     69  F   UNL A   1      48.040  27.196  28.224  1.00  0.00    -0.203 F 
ATOM     70  F   UNL A   1      48.345  27.304  22.776  1.00  0.00    -0.200 F 
ATOM     71  C   UNL A   1      49.329  26.800  24.862  1.00  0.00     0.200 A 
ATOM     72  F   UNL A   1      50.267  26.304  26.970  1.00  0.00    -0.200 F 
ATOM     73  F   UNL A   1      50.425  26.331  24.248  1.00  0.00    -0.200 F 
ENDBRANCH  49  63
BRANCH  50  74
ATOM     74  C   UNL A   1      38.785  30.877  30.818  1.00  0.00     0.064 A 
ATOM     75  C   UNL A   1      38.661  30.781  32.211  1.00  0.00     0.173 A 
ATOM     76  C   UNL A   1      37.726  31.454  30.104  1.00  0.00     0.173 A 
ATOM     77  F   UNL A   1      39.641  30.218  32.933  1.00  0.00    -0.203 F 
ATOM     78  C   UNL A   1      37.519  31.238  32.865  1.00  0.00     0.198 A 
ATOM     79  C   UNL A   1      36.594  31.932  30.762  1.00  0.00     0.198 A 
ATOM     80  F   UNL A   1      37.800  31.572  28.771  1.00  0.00    -0.203 F 
ATOM     81  F   UNL A   1      37.414  31.107  34.194  1.00  0.00    -0.200 F 
ATOM     82  C   UNL A   1      36.490  31.820  32.141  1.00  0.00     0.200 A 
ATOM     83  F   UNL A   1      35.607  32.505  30.061  1.00  0.00    -0.200 F 
ATOM     84  F   UNL A   1      35.396  32.269  32.771  1.00  0.00    -0.200 F 
ENDBRANCH  50  74
BRANCH  62  85
ATOM     85  C   UNL A   1      44.916  33.852  29.380  1.00  0.00     0.064 A 
ATOM     86  C   UNL A   1      44.739  34.919  28.487  1.00  0.00     0.173 A 
ATOM     87  C   UNL A   1      45.595  34.102  30.581  1.00  0.00     0.173 A 
ATOM     88  F   UNL A   1      44.108  34.723  27.319  1.00  0.00    -0.203 F 
ATOM     89  C   UNL A   1      45.239  36.184  28.778  1.00  0.00     0.198 A 
ATOM     90  C   UNL A   1      46.071  35.375  30.880  1.00  0.00     0.198 A 
ATOM     91  F   UNL A   1      45.783  33.115  31.470  1.00  0.00    -0.203 F 
ATOM     92  F   UNL A   1      45.092  37.180  27.894  1.00  0.00    -0.200 F 
ATOM     93  C   UNL A   1      45.898  36.413  29.976  1.00  0.00     0.200 A 
ATOM     94  F   UNL A   1      46.699  35.598  32.043  1.00  0.00    -0.200 F 
ATOM     95  F   UNL A   1      46.373  37.634  30.258  1.00  0.00    -0.200 F 
ENDBRANCH  62  85
ENDBRANCH  36  37
ENDBRANCH  29  31
ENDBRANCH  28  29
ENDBRANCH  27  28
ENDBRANCH   1  27
TORSDOF 15
ENDMDL
