MODEL 1
REMARK VINA RESULT:     -12.4      0.000      0.000
REMARK SMILES CCOc1ccccc1NC(=O)[C@H]1[C@@H]2C=C[C@@H]([C@@H]3C[C@H]23)[C@@H]1C(=O)OCCOC(=O)c1ccc(-c2c3nc(c(-c4c(F)c(F)c(F)c(F)c4F)c4ccc([nH]4)c(-c4c(F)c(F)c(F)c(F)c4F)c4nc(c(-c5c(F)c(F)c(F)c(F)c5F)c5ccc2[nH]5)C=C4)C=C3)cc1
REMARK SMILES IDX 25 1 24 2 22 3 23 4 21 5 13 6 14 7 15 8 20 9 17 10 16 11
REMARK SMILES IDX 18 12 19 13 11 14 10 15 12 17 9 18 4 19 5 20 6 21 8 22 7 23
REMARK SMILES IDX 3 24 2 25 1 26 26 27 27 28 28 29 29 30 30 31 31 32 92 33
REMARK SMILES IDX 32 34 91 35 33 36 34 37 35 38 85 39 36 40 90 41 84 42 86 43
REMARK SMILES IDX 37 44 89 45 83 46 82 47 38 49 70 50 50 51 69 52 51 53 54 54
REMARK SMILES IDX 68 55 87 56 52 57 53 58 67 60 88 61 55 62 39 63 40 64 48 65
REMARK SMILES IDX 41 66 42 67 46 68 49 69 43 70 44 71 47 72 45 73 71 74 72 75
REMARK SMILES IDX 80 76 73 77 74 78 78 79 81 80 75 81 76 82 79 83 77 84 56 85
REMARK SMILES IDX 57 86 65 87 58 88 59 89 63 90 66 91 60 92 61 93 64 94 62 95
REMARK H PARENT 10 16 86 48 54 59
REMARK Flexibility Score: inf
ROOT
ATOM      1  C   UNL A   1      31.202  29.131  24.910  1.00  0.00     0.274 C 
ENDROOT
BRANCH   1   2
ATOM      2  O   UNL A   1      31.861  28.954  23.635  1.00  0.00    -0.462 OA
BRANCH   2   3
ATOM      3  C   UNL A   1      32.825  27.989  23.587  1.00  0.00     0.310 C 
ATOM      4  O   UNL A   1      33.990  28.196  23.273  1.00  0.00    -0.252 OA
BRANCH   3   5
ATOM      5  C   UNL A   1      32.247  26.619  23.929  1.00  0.00     0.119 C 
ATOM      6  C   UNL A   1      33.390  25.559  24.178  1.00  0.00     0.101 C 
ATOM      7  C   UNL A   1      33.147  24.347  23.216  1.00  0.00     0.028 C 
ATOM      8  C   UNL A   1      33.142  24.917  21.786  1.00  0.00    -0.026 C 
ATOM      9  C   UNL A   1      31.754  23.727  23.404  1.00  0.00     0.001 C 
ATOM     10  C   UNL A   1      31.316  26.126  22.776  1.00  0.00     0.030 C 
ATOM     11  C   UNL A   1      32.204  25.854  21.564  1.00  0.00    -0.026 C 
ATOM     12  C   UNL A   1      30.671  24.772  23.127  1.00  0.00     0.001 C 
ATOM     13  C   UNL A   1      30.713  24.052  24.446  1.00  0.00     0.009 C 
BRANCH   6  14
ATOM     14  C   UNL A   1      33.479  25.157  25.654  1.00  0.00     0.229 C 
ATOM     15  N   UNL A   1      34.144  24.059  26.097  1.00  0.00    -0.323 N 
ATOM     16  H   UNL A   1      33.756  23.707  26.931  1.00  0.00     0.170 HD
ATOM     17  O   UNL A   1      32.902  25.813  26.529  1.00  0.00    -0.274 OA
BRANCH  15  18
ATOM     18  C   UNL A   1      35.242  23.298  25.670  1.00  0.00     0.083 A 
ATOM     19  C   UNL A   1      34.986  21.966  25.292  1.00  0.00     0.142 A 
ATOM     20  C   UNL A   1      36.016  21.077  24.979  1.00  0.00     0.048 A 
ATOM     21  C   UNL A   1      37.334  21.511  25.064  1.00  0.00     0.004 A 
ATOM     22  C   UNL A   1      36.564  23.712  25.755  1.00  0.00     0.030 A 
ATOM     23  C   UNL A   1      37.603  22.818  25.469  1.00  0.00     0.002 A 
BRANCH  19  24
ATOM     24  O   UNL A   1      33.702  21.488  25.376  1.00  0.00    -0.492 OA
BRANCH  24  25
ATOM     25  C   UNL A   1      33.604  20.123  24.955  1.00  0.00     0.226 C 
ATOM     26  C   UNL A   1      32.530  20.035  23.885  1.00  0.00     0.049 C 
ENDBRANCH  24  25
ENDBRANCH  19  24
ENDBRANCH  15  18
ENDBRANCH   6  14
ENDBRANCH   3   5
ENDBRANCH   2   3
ENDBRANCH   1   2
BRANCH   1  27
ATOM     27  C   UNL A   1      31.659  30.435  25.560  1.00  0.00     0.275 C 
BRANCH  27  28
ATOM     28  O   UNL A   1      32.822  30.173  26.363  1.00  0.00    -0.458 OA
BRANCH  28  29
ATOM     29  C   UNL A   1      33.300  31.240  27.049  1.00  0.00     0.338 C 
ATOM     30  O   UNL A   1      32.718  32.290  27.255  1.00  0.00    -0.246 OA
BRANCH  29  31
ATOM     31  C   UNL A   1      34.632  30.914  27.626  1.00  0.00     0.060 A 
ATOM     32  C   UNL A   1      34.941  29.605  27.987  1.00  0.00     0.016 A 
ATOM     33  C   UNL A   1      35.531  31.936  27.950  1.00  0.00     0.016 A 
ATOM     34  C   UNL A   1      36.058  29.345  28.776  1.00  0.00     0.010 A 
ATOM     35  C   UNL A   1      36.724  31.643  28.633  1.00  0.00     0.010 A 
ATOM     36  C   UNL A   1      36.985  30.343  29.089  1.00  0.00    -0.014 A 
BRANCH  36  37
ATOM     37  C   UNL A   1      38.175  29.989  29.924  1.00  0.00     0.031 A 
ATOM     38  C   UNL A   1      39.245  29.072  29.391  1.00  0.00     0.074 A 
ATOM     39  C   UNL A   1      38.367  30.577  31.125  1.00  0.00     0.049 A 
ATOM     40  N   UNL A   1      40.330  28.627  29.977  1.00  0.00    -0.248 NA
ATOM     41  C   UNL A   1      39.096  28.616  28.003  1.00  0.00     0.031 C 
ATOM     42  C   UNL A   1      37.488  31.576  31.734  1.00  0.00     0.029 A 
ATOM     43  N   UNL A   1      39.381  30.433  32.043  1.00  0.00    -0.354 N 
ATOM     44  C   UNL A   1      40.987  27.852  29.029  1.00  0.00     0.074 A 
ATOM     45  C   UNL A   1      40.182  27.879  27.829  1.00  0.00     0.031 C 
ATOM     46  C   UNL A   1      38.014  31.979  32.899  1.00  0.00     0.029 A 
ATOM     47  C   UNL A   1      39.210  31.190  33.177  1.00  0.00     0.049 A 
ATOM     48  H   UNL A   1      40.156  29.843  31.900  1.00  0.00     0.167 HD
ATOM     49  C   UNL A   1      42.147  27.166  29.147  1.00  0.00     0.037 A 
ATOM     50  C   UNL A   1      39.892  31.204  34.339  1.00  0.00     0.037 A 
ATOM     51  C   UNL A   1      42.925  27.077  30.352  1.00  0.00     0.049 A 
ATOM     52  C   UNL A   1      41.054  30.267  34.519  1.00  0.00     0.074 A 
ATOM     53  C   UNL A   1      44.065  26.329  30.593  1.00  0.00     0.029 A 
ATOM     54  N   UNL A   1      42.629  27.748  31.528  1.00  0.00    -0.354 N 
ATOM     55  N   UNL A   1      41.629  29.484  33.642  1.00  0.00    -0.248 NA
ATOM     56  C   UNL A   1      41.636  30.187  35.867  1.00  0.00     0.031 C 
ATOM     57  C   UNL A   1      44.424  26.503  31.934  1.00  0.00     0.029 A 
ATOM     58  C   UNL A   1      43.536  27.395  32.512  1.00  0.00     0.049 A 
ATOM     59  H   UNL A   1      41.884  28.380  31.645  1.00  0.00     0.167 HD
ATOM     60  C   UNL A   1      42.639  28.822  34.325  1.00  0.00     0.074 A 
ATOM     61  C   UNL A   1      42.615  29.312  35.687  1.00  0.00     0.031 C 
ATOM     62  C   UNL A   1      43.501  27.883  33.865  1.00  0.00     0.037 A 
BRANCH  49  63
ATOM     63  C   UNL A   1      42.606  26.386  27.954  1.00  0.00     0.064 A 
ATOM     64  C   UNL A   1      42.177  25.071  27.724  1.00  0.00     0.173 A 
ATOM     65  C   UNL A   1      43.470  26.973  27.017  1.00  0.00     0.173 A 
ATOM     66  F   UNL A   1      41.369  24.461  28.604  1.00  0.00    -0.203 F 
ATOM     67  C   UNL A   1      42.605  24.369  26.601  1.00  0.00     0.198 A 
ATOM     68  C   UNL A   1      43.883  26.273  25.888  1.00  0.00     0.198 A 
ATOM     69  F   UNL A   1      43.914  28.226  27.202  1.00  0.00    -0.203 F 
ATOM     70  F   UNL A   1      42.208  23.102  26.413  1.00  0.00    -0.200 F 
ATOM     71  C   UNL A   1      43.453  24.971  25.681  1.00  0.00     0.200 A 
ATOM     72  F   UNL A   1      44.703  26.856  25.003  1.00  0.00    -0.200 F 
ATOM     73  F   UNL A   1      43.864  24.292  24.601  1.00  0.00    -0.200 F 
ENDBRANCH  49  63
BRANCH  50  74
ATOM     74  C   UNL A   1      39.429  32.062  35.463  1.00  0.00     0.064 A 
ATOM     75  C   UNL A   1      39.901  33.372  35.623  1.00  0.00     0.173 A 
ATOM     76  C   UNL A   1      38.518  31.576  36.415  1.00  0.00     0.173 A 
ATOM     77  F   UNL A   1      40.799  33.871  34.763  1.00  0.00    -0.203 F 
ATOM     78  C   UNL A   1      39.480  34.160  36.694  1.00  0.00     0.198 A 
ATOM     79  C   UNL A   1      38.074  32.376  37.464  1.00  0.00     0.198 A 
ATOM     80  F   UNL A   1      38.049  30.323  36.318  1.00  0.00    -0.203 F 
ATOM     81  F   UNL A   1      39.979  35.394  36.851  1.00  0.00    -0.200 F 
ATOM     82  C   UNL A   1      38.560  33.666  37.607  1.00  0.00     0.200 A 
ATOM     83  F   UNL A   1      37.177  31.895  38.336  1.00  0.00    -0.200 F 
ATOM     84  F   UNL A   1      38.151  34.426  38.631  1.00  0.00    -0.200 F 
ENDBRANCH  50  74
BRANCH  62  85
ATOM     85  C   UNL A   1      44.498  27.328  34.838  1.00  0.00     0.064 A 
ATOM     86  C   UNL A   1      45.725  27.968  35.069  1.00  0.00     0.173 A 
ATOM     87  C   UNL A   1      44.206  26.173  35.576  1.00  0.00     0.173 A 
ATOM     88  F   UNL A   1      46.054  29.067  34.375  1.00  0.00    -0.203 F 
ATOM     89  C   UNL A   1      46.631  27.458  35.994  1.00  0.00     0.198 A 
ATOM     90  C   UNL A   1      45.104  25.680  36.518  1.00  0.00     0.198 A 
ATOM     91  F   UNL A   1      43.043  25.529  35.394  1.00  0.00    -0.203 F 
ATOM     92  F   UNL A   1      47.814  28.063  36.173  1.00  0.00    -0.200 F 
ATOM     93  C   UNL A   1      46.318  26.319  36.722  1.00  0.00     0.200 A 
ATOM     94  F   UNL A   1      44.796  24.587  37.228  1.00  0.00    -0.200 F 
ATOM     95  F   UNL A   1      47.190  25.835  37.617  1.00  0.00    -0.200 F 
ENDBRANCH  62  85
ENDBRANCH  36  37
ENDBRANCH  29  31
ENDBRANCH  28  29
ENDBRANCH  27  28
ENDBRANCH   1  27
TORSDOF 15
ENDMDL
MODEL 2
REMARK VINA RESULT:     -12.3      0.323      1.943
REMARK SMILES CCOc1ccccc1NC(=O)[C@H]1[C@@H]2C=C[C@@H]([C@@H]3C[C@H]23)[C@@H]1C(=O)OCCOC(=O)c1ccc(-c2c3nc(c(-c4c(F)c(F)c(F)c(F)c4F)c4ccc([nH]4)c(-c4c(F)c(F)c(F)c(F)c4F)c4nc(c(-c5c(F)c(F)c(F)c(F)c5F)c5ccc2[nH]5)C=C4)C=C3)cc1
REMARK SMILES IDX 25 1 24 2 22 3 23 4 21 5 13 6 14 7 15 8 20 9 17 10 16 11
REMARK SMILES IDX 18 12 19 13 11 14 10 15 12 17 9 18 4 19 5 20 6 21 8 22 7 23
REMARK SMILES IDX 3 24 2 25 1 26 26 27 27 28 28 29 29 30 30 31 31 32 92 33
REMARK SMILES IDX 32 34 91 35 33 36 34 37 35 38 85 39 36 40 90 41 84 42 86 43
REMARK SMILES IDX 37 44 89 45 83 46 82 47 38 49 70 50 50 51 69 52 51 53 54 54
REMARK SMILES IDX 68 55 87 56 52 57 53 58 67 60 88 61 55 62 39 63 40 64 48 65
REMARK SMILES IDX 41 66 42 67 46 68 49 69 43 70 44 71 47 72 45 73 71 74 72 75
REMARK SMILES IDX 80 76 73 77 74 78 78 79 81 80 75 81 76 82 79 83 77 84 56 85
REMARK SMILES IDX 57 86 65 87 58 88 59 89 63 90 66 91 60 92 61 93 64 94 62 95
REMARK H PARENT 10 16 86 48 54 59
REMARK Flexibility Score: inf
ROOT
ATOM      1  C   UNL A   1      31.609  28.808  25.281  1.00  0.00     0.274 C 
ENDROOT
BRANCH   1   2
ATOM      2  O   UNL A   1      32.219  28.957  23.979  1.00  0.00    -0.462 OA
BRANCH   2   3
ATOM      3  C   UNL A   1      32.982  27.909  23.551  1.00  0.00     0.310 C 
ATOM      4  O   UNL A   1      34.030  28.030  22.931  1.00  0.00    -0.252 OA
BRANCH   3   5
ATOM      5  C   UNL A   1      32.331  26.576  23.907  1.00  0.00     0.119 C 
ATOM      6  C   UNL A   1      33.415  25.454  24.150  1.00  0.00     0.101 C 
ATOM      7  C   UNL A   1      33.094  24.253  23.198  1.00  0.00     0.028 C 
ATOM      8  C   UNL A   1      33.107  24.814  21.764  1.00  0.00    -0.026 C 
ATOM      9  C   UNL A   1      31.670  23.713  23.403  1.00  0.00     0.001 C 
ATOM     10  C   UNL A   1      31.362  26.130  22.765  1.00  0.00     0.030 C 
ATOM     11  C   UNL A   1      32.221  25.802  21.546  1.00  0.00    -0.026 C 
ATOM     12  C   UNL A   1      30.646  24.816  23.131  1.00  0.00     0.001 C 
ATOM     13  C   UNL A   1      30.660  24.102  24.453  1.00  0.00     0.009 C 
BRANCH   6  14
ATOM     14  C   UNL A   1      33.496  25.055  25.627  1.00  0.00     0.229 C 
ATOM     15  N   UNL A   1      34.182  23.974  26.080  1.00  0.00    -0.323 N 
ATOM     16  H   UNL A   1      33.793  23.614  26.909  1.00  0.00     0.170 HD
ATOM     17  O   UNL A   1      32.892  25.697  26.495  1.00  0.00    -0.274 OA
BRANCH  15  18
ATOM     18  C   UNL A   1      35.304  23.240  25.666  1.00  0.00     0.083 A 
ATOM     19  C   UNL A   1      35.087  21.897  25.300  1.00  0.00     0.142 A 
ATOM     20  C   UNL A   1      36.142  21.035  25.001  1.00  0.00     0.048 A 
ATOM     21  C   UNL A   1      37.447  21.505  25.090  1.00  0.00     0.004 A 
ATOM     22  C   UNL A   1      36.613  23.691  25.756  1.00  0.00     0.030 A 
ATOM     23  C   UNL A   1      37.678  22.823  25.484  1.00  0.00     0.002 A 
BRANCH  19  24
ATOM     24  O   UNL A   1      33.815  21.385  25.380  1.00  0.00    -0.492 OA
BRANCH  24  25
ATOM     25  C   UNL A   1      33.730  20.064  24.837  1.00  0.00     0.226 C 
ATOM     26  C   UNL A   1      32.528  20.012  23.909  1.00  0.00     0.049 C 
ENDBRANCH  24  25
ENDBRANCH  19  24
ENDBRANCH  15  18
ENDBRANCH   6  14
ENDBRANCH   3   5
ENDBRANCH   2   3
ENDBRANCH   1   2
BRANCH   1  27
ATOM     27  C   UNL A   1      31.774  30.094  26.087  1.00  0.00     0.275 C 
BRANCH  27  28
ATOM     28  O   UNL A   1      33.165  30.455  26.109  1.00  0.00    -0.458 OA
BRANCH  28  29
ATOM     29  C   UNL A   1      33.516  31.338  27.076  1.00  0.00     0.338 C 
ATOM     30  O   UNL A   1      32.840  32.260  27.496  1.00  0.00    -0.246 OA
BRANCH  29  31
ATOM     31  C   UNL A   1      34.837  30.961  27.649  1.00  0.00     0.060 A 
ATOM     32  C   UNL A   1      35.107  29.637  27.980  1.00  0.00     0.016 A 
ATOM     33  C   UNL A   1      35.762  31.950  27.998  1.00  0.00     0.016 A 
ATOM     34  C   UNL A   1      36.214  29.327  28.766  1.00  0.00     0.010 A 
ATOM     35  C   UNL A   1      36.945  31.608  28.678  1.00  0.00     0.010 A 
ATOM     36  C   UNL A   1      37.168  30.291  29.106  1.00  0.00    -0.014 A 
BRANCH  36  37
ATOM     37  C   UNL A   1      38.344  29.886  29.935  1.00  0.00     0.031 A 
ATOM     38  C   UNL A   1      39.400  28.967  29.378  1.00  0.00     0.074 A 
ATOM     39  C   UNL A   1      38.538  30.426  31.157  1.00  0.00     0.049 A 
ATOM     40  N   UNL A   1      40.472  28.480  29.954  1.00  0.00    -0.248 NA
ATOM     41  C   UNL A   1      39.253  28.563  27.973  1.00  0.00     0.031 C 
ATOM     42  C   UNL A   1      37.673  31.420  31.796  1.00  0.00     0.029 A 
ATOM     43  N   UNL A   1      39.542  30.230  32.077  1.00  0.00    -0.354 N 
ATOM     44  C   UNL A   1      41.121  27.728  28.984  1.00  0.00     0.074 A 
ATOM     45  C   UNL A   1      40.326  27.812  27.780  1.00  0.00     0.031 C 
ATOM     46  C   UNL A   1      38.199  31.771  32.978  1.00  0.00     0.029 A 
ATOM     47  C   UNL A   1      39.377  30.950  33.236  1.00  0.00     0.049 A 
ATOM     48  H   UNL A   1      40.307  29.631  31.919  1.00  0.00     0.167 HD
ATOM     49  C   UNL A   1      42.267  27.015  29.086  1.00  0.00     0.037 A 
ATOM     50  C   UNL A   1      40.050  30.910  34.402  1.00  0.00     0.037 A 
ATOM     51  C   UNL A   1      43.034  26.869  30.292  1.00  0.00     0.049 A 
ATOM     52  C   UNL A   1      41.193  29.944  34.557  1.00  0.00     0.074 A 
ATOM     53  C   UNL A   1      44.157  26.091  30.514  1.00  0.00     0.029 A 
ATOM     54  N   UNL A   1      42.742  27.503  31.489  1.00  0.00    -0.354 N 
ATOM     55  N   UNL A   1      41.759  29.182  33.656  1.00  0.00    -0.248 NA
ATOM     56  C   UNL A   1      41.763  29.805  35.905  1.00  0.00     0.031 C 
ATOM     57  C   UNL A   1      44.510  26.210  31.863  1.00  0.00     0.029 A 
ATOM     58  C   UNL A   1      43.635  27.098  32.466  1.00  0.00     0.049 A 
ATOM     59  H   UNL A   1      42.009  28.145  31.623  1.00  0.00     0.167 HD
ATOM     60  C   UNL A   1      42.751  28.476  34.323  1.00  0.00     0.074 A 
ATOM     61  C   UNL A   1      42.726  28.918  35.701  1.00  0.00     0.031 C 
ATOM     62  C   UNL A   1      43.599  27.538  33.835  1.00  0.00     0.037 A 
BRANCH  49  63
ATOM     63  C   UNL A   1      42.720  26.269  27.868  1.00  0.00     0.064 A 
ATOM     64  C   UNL A   1      43.662  26.810  26.981  1.00  0.00     0.173 A 
ATOM     65  C   UNL A   1      42.218  24.987  27.599  1.00  0.00     0.173 A 
ATOM     66  F   UNL A   1      44.151  28.042  27.186  1.00  0.00    -0.203 F 
ATOM     67  C   UNL A   1      44.079  26.095  25.863  1.00  0.00     0.198 A 
ATOM     68  C   UNL A   1      42.650  24.269  26.489  1.00  0.00     0.198 A 
ATOM     69  F   UNL A   1      41.309  24.434  28.416  1.00  0.00    -0.203 F 
ATOM     70  F   UNL A   1      44.957  26.640  25.009  1.00  0.00    -0.200 F 
ATOM     71  C   UNL A   1      43.578  24.823  25.620  1.00  0.00     0.200 A 
ATOM     72  F   UNL A   1      42.163  23.043  26.255  1.00  0.00    -0.200 F 
ATOM     73  F   UNL A   1      43.980  24.137  24.541  1.00  0.00    -0.200 F 
ENDBRANCH  49  63
BRANCH  50  74
ATOM     74  C   UNL A   1      39.595  31.736  35.553  1.00  0.00     0.064 A 
ATOM     75  C   UNL A   1      38.590  31.289  36.420  1.00  0.00     0.173 A 
ATOM     76  C   UNL A   1      40.147  33.005  35.793  1.00  0.00     0.173 A 
ATOM     77  F   UNL A   1      38.005  30.101  36.212  1.00  0.00    -0.203 F 
ATOM     78  C   UNL A   1      38.153  32.081  37.481  1.00  0.00     0.198 A 
ATOM     79  C   UNL A   1      39.733  33.780  36.874  1.00  0.00     0.198 A 
ATOM     80  F   UNL A   1      41.101  33.489  34.983  1.00  0.00    -0.203 F 
ATOM     81  F   UNL A   1      37.159  31.650  38.271  1.00  0.00    -0.200 F 
ATOM     82  C   UNL A   1      38.731  33.321  37.713  1.00  0.00     0.200 A 
ATOM     83  F   UNL A   1      40.304  34.972  37.097  1.00  0.00    -0.200 F 
ATOM     84  F   UNL A   1      38.316  34.077  38.738  1.00  0.00    -0.200 F 
ENDBRANCH  50  74
BRANCH  62  85
ATOM     85  C   UNL A   1      44.577  26.930  34.795  1.00  0.00     0.064 A 
ATOM     86  C   UNL A   1      44.291  25.733  35.467  1.00  0.00     0.173 A 
ATOM     87  C   UNL A   1      45.828  27.525  35.011  1.00  0.00     0.173 A 
ATOM     88  F   UNL A   1      43.102  25.135  35.303  1.00  0.00    -0.203 F 
ATOM     89  C   UNL A   1      45.217  25.163  36.335  1.00  0.00     0.198 A 
ATOM     90  C   UNL A   1      46.761  26.940  35.861  1.00  0.00     0.198 A 
ATOM     91  F   UNL A   1      46.150  28.668  34.387  1.00  0.00    -0.203 F 
ATOM     92  F   UNL A   1      44.910  24.038  36.996  1.00  0.00    -0.200 F 
ATOM     93  C   UNL A   1      46.454  25.763  36.526  1.00  0.00     0.200 A 
ATOM     94  F   UNL A   1      47.959  27.515  36.036  1.00  0.00    -0.200 F 
ATOM     95  F   UNL A   1      47.346  25.208  37.357  1.00  0.00    -0.200 F 
ENDBRANCH  62  85
ENDBRANCH  36  37
ENDBRANCH  29  31
ENDBRANCH  28  29
ENDBRANCH  27  28
ENDBRANCH   1  27
TORSDOF 15
ENDMDL
MODEL 3
REMARK VINA RESULT:     -12.1      4.165      9.766
REMARK SMILES CCOc1ccccc1NC(=O)[C@H]1[C@@H]2C=C[C@@H]([C@@H]3C[C@H]23)[C@@H]1C(=O)OCCOC(=O)c1ccc(-c2c3nc(c(-c4c(F)c(F)c(F)c(F)c4F)c4ccc([nH]4)c(-c4c(F)c(F)c(F)c(F)c4F)c4nc(c(-c5c(F)c(F)c(F)c(F)c5F)c5ccc2[nH]5)C=C4)C=C3)cc1
REMARK SMILES IDX 25 1 24 2 22 3 23 4 21 5 13 6 14 7 15 8 20 9 17 10 16 11
REMARK SMILES IDX 18 12 19 13 11 14 10 15 12 17 9 18 4 19 5 20 6 21 8 22 7 23
REMARK SMILES IDX 3 24 2 25 1 26 26 27 27 28 28 29 29 30 30 31 31 32 92 33
REMARK SMILES IDX 32 34 91 35 33 36 34 37 35 38 85 39 36 40 90 41 84 42 86 43
REMARK SMILES IDX 37 44 89 45 83 46 82 47 38 49 70 50 50 51 69 52 51 53 54 54
REMARK SMILES IDX 68 55 87 56 52 57 53 58 67 60 88 61 55 62 39 63 40 64 48 65
REMARK SMILES IDX 41 66 42 67 46 68 49 69 43 70 44 71 47 72 45 73 71 74 72 75
REMARK SMILES IDX 80 76 73 77 74 78 78 79 81 80 75 81 76 82 79 83 77 84 56 85
REMARK SMILES IDX 57 86 65 87 58 88 59 89 63 90 66 91 60 92 61 93 64 94 62 95
REMARK H PARENT 10 16 86 48 54 59
REMARK Flexibility Score: inf
ROOT
ATOM      1  C   UNL A   1      35.805  20.664  25.373  1.00  0.00     0.274 C 
ENDROOT
BRANCH   1   2
ATOM      2  O   UNL A   1      35.340  21.741  24.528  1.00  0.00    -0.462 OA
BRANCH   2   3
ATOM      3  C   UNL A   1      34.988  22.895  25.167  1.00  0.00     0.310 C 
ATOM      4  O   UNL A   1      35.608  23.376  26.107  1.00  0.00    -0.252 OA
BRANCH   3   5
ATOM      5  C   UNL A   1      33.701  23.472  24.586  1.00  0.00     0.119 C 
ATOM      6  C   UNL A   1      33.418  24.922  25.145  1.00  0.00     0.101 C 
ATOM      7  C   UNL A   1      31.989  24.926  25.785  1.00  0.00     0.028 C 
ATOM      8  C   UNL A   1      31.993  23.840  26.876  1.00  0.00    -0.026 C 
ATOM      9  C   UNL A   1      30.905  24.487  24.788  1.00  0.00     0.001 C 
ATOM     10  C   UNL A   1      32.494  22.538  24.919  1.00  0.00     0.030 C 
ATOM     11  C   UNL A   1      32.275  22.604  26.429  1.00  0.00    -0.026 C 
ATOM     12  C   UNL A   1      31.193  23.069  24.290  1.00  0.00     0.001 C 
ATOM     13  C   UNL A   1      31.045  24.202  23.313  1.00  0.00     0.009 C 
BRANCH   6  14
ATOM     14  C   UNL A   1      33.606  25.993  24.065  1.00  0.00     0.229 C 
ATOM     15  N   UNL A   1      33.288  27.301  24.237  1.00  0.00    -0.323 N 
ATOM     16  H   UNL A   1      33.046  27.735  23.387  1.00  0.00     0.170 HD
ATOM     17  O   UNL A   1      34.033  25.697  22.942  1.00  0.00    -0.274 OA
BRANCH  15  18
ATOM     18  C   UNL A   1      33.215  28.192  25.318  1.00  0.00     0.083 A 
ATOM     19  C   UNL A   1      31.945  28.716  25.628  1.00  0.00     0.142 A 
ATOM     20  C   UNL A   1      31.773  29.710  26.593  1.00  0.00     0.048 A 
ATOM     21  C   UNL A   1      32.888  30.215  27.251  1.00  0.00     0.004 A 
ATOM     22  C   UNL A   1      34.318  28.712  25.981  1.00  0.00     0.030 A 
ATOM     23  C   UNL A   1      34.155  29.729  26.930  1.00  0.00     0.002 A 
BRANCH  19  24
ATOM     24  O   UNL A   1      30.869  28.345  24.860  1.00  0.00    -0.492 OA
BRANCH  24  25
ATOM     25  C   UNL A   1      30.545  29.329  23.873  1.00  0.00     0.226 C 
ATOM     26  C   UNL A   1      29.840  28.630  22.724  1.00  0.00     0.049 C 
ENDBRANCH  24  25
ENDBRANCH  19  24
ENDBRANCH  15  18
ENDBRANCH   6  14
ENDBRANCH   3   5
ENDBRANCH   2   3
ENDBRANCH   1   2
BRANCH   1  27
ATOM     27  C   UNL A   1      37.238  20.289  25.002  1.00  0.00     0.275 C 
BRANCH  27  28
ATOM     28  O   UNL A   1      38.097  21.410  25.269  1.00  0.00    -0.458 OA
BRANCH  28  29
ATOM     29  C   UNL A   1      39.115  21.164  26.129  1.00  0.00     0.338 C 
ATOM     30  O   UNL A   1      39.600  20.076  26.387  1.00  0.00    -0.246 OA
BRANCH  29  31
ATOM     31  C   UNL A   1      39.653  22.447  26.657  1.00  0.00     0.060 A 
ATOM     32  C   UNL A   1      39.171  23.661  26.176  1.00  0.00     0.016 A 
ATOM     33  C   UNL A   1      40.746  22.449  27.530  1.00  0.00     0.016 A 
ATOM     34  C   UNL A   1      39.856  24.841  26.455  1.00  0.00     0.010 A 
ATOM     35  C   UNL A   1      41.350  23.660  27.910  1.00  0.00     0.010 A 
ATOM     36  C   UNL A   1      40.934  24.874  27.344  1.00  0.00    -0.014 A 
BRANCH  36  37
ATOM     37  C   UNL A   1      41.611  26.180  27.614  1.00  0.00     0.031 A 
ATOM     38  C   UNL A   1      40.918  27.258  28.406  1.00  0.00     0.074 A 
ATOM     39  C   UNL A   1      42.897  26.371  27.250  1.00  0.00     0.049 A 
ATOM     40  N   UNL A   1      41.331  28.464  28.713  1.00  0.00    -0.248 NA
ATOM     41  C   UNL A   1      39.595  26.931  28.955  1.00  0.00     0.031 C 
ATOM     42  C   UNL A   1      43.749  25.385  26.582  1.00  0.00     0.029 A 
ATOM     43  N   UNL A   1      43.724  27.459  27.412  1.00  0.00    -0.354 N 
ATOM     44  C   UNL A   1      40.327  29.026  29.492  1.00  0.00     0.074 A 
ATOM     45  C   UNL A   1      39.279  28.038  29.610  1.00  0.00     0.031 C 
ATOM     46  C   UNL A   1      44.978  25.896  26.424  1.00  0.00     0.029 A 
ATOM     47  C   UNL A   1      44.978  27.282  26.877  1.00  0.00     0.049 A 
ATOM     48  H   UNL A   1      43.444  28.285  27.868  1.00  0.00     0.167 HD
ATOM     49  C   UNL A   1      40.271  30.260  30.046  1.00  0.00     0.037 A 
ATOM     50  C   UNL A   1      45.993  28.152  26.705  1.00  0.00     0.037 A 
ATOM     51  C   UNL A   1      41.274  31.274  29.885  1.00  0.00     0.049 A 
ATOM     52  C   UNL A   1      45.817  29.580  27.140  1.00  0.00     0.074 A 
ATOM     53  C   UNL A   1      41.260  32.585  30.332  1.00  0.00     0.029 A 
ATOM     54  N   UNL A   1      42.468  31.096  29.204  1.00  0.00    -0.354 N 
ATOM     55  N   UNL A   1      44.836  30.125  27.813  1.00  0.00    -0.248 NA
ATOM     56  C   UNL A   1      46.876  30.525  26.753  1.00  0.00     0.031 C 
ATOM     57  C   UNL A   1      42.420  33.216  29.870  1.00  0.00     0.029 A 
ATOM     58  C   UNL A   1      43.177  32.285  29.178  1.00  0.00     0.049 A 
ATOM     59  H   UNL A   1      42.766  30.251  28.799  1.00  0.00     0.167 HD
ATOM     60  C   UNL A   1      45.157  31.470  27.935  1.00  0.00     0.074 A 
ATOM     61  C   UNL A   1      46.437  31.656  27.285  1.00  0.00     0.031 C 
ATOM     62  C   UNL A   1      44.447  32.462  28.524  1.00  0.00     0.037 A 
BRANCH  49  63
ATOM     63  C   UNL A   1      39.037  30.606  30.821  1.00  0.00     0.064 A 
ATOM     64  C   UNL A   1      38.973  30.450  32.213  1.00  0.00     0.173 A 
ATOM     65  C   UNL A   1      37.911  31.121  30.161  1.00  0.00     0.173 A 
ATOM     66  F   UNL A   1      40.017  29.940  32.883  1.00  0.00    -0.203 F 
ATOM     67  C   UNL A   1      37.820  30.790  32.915  1.00  0.00     0.198 A 
ATOM     68  C   UNL A   1      36.766  31.475  30.868  1.00  0.00     0.198 A 
ATOM     69  F   UNL A   1      37.924  31.278  28.828  1.00  0.00    -0.203 F 
ATOM     70  F   UNL A   1      37.766  30.606  34.242  1.00  0.00    -0.200 F 
ATOM     71  C   UNL A   1      36.720  31.307  32.244  1.00  0.00     0.200 A 
ATOM     72  F   UNL A   1      35.706  31.971  30.218  1.00  0.00    -0.200 F 
ATOM     73  F   UNL A   1      35.612  31.634  32.923  1.00  0.00    -0.200 F 
ENDBRANCH  49  63
BRANCH  50  74
ATOM     74  C   UNL A   1      47.228  27.722  25.994  1.00  0.00     0.064 A 
ATOM     75  C   UNL A   1      48.358  27.283  26.696  1.00  0.00     0.173 A 
ATOM     76  C   UNL A   1      47.306  27.765  24.593  1.00  0.00     0.173 A 
ATOM     77  F   UNL A   1      48.347  27.259  28.036  1.00  0.00    -0.203 F 
ATOM     78  C   UNL A   1      49.519  26.906  26.023  1.00  0.00     0.198 A 
ATOM     79  C   UNL A   1      48.455  27.356  23.921  1.00  0.00     0.198 A 
ATOM     80  F   UNL A   1      46.259  28.195  23.873  1.00  0.00    -0.203 F 
ATOM     81  F   UNL A   1      50.602  26.532  26.718  1.00  0.00    -0.200 F 
ATOM     82  C   UNL A   1      49.564  26.934  24.636  1.00  0.00     0.200 A 
ATOM     83  F   UNL A   1      48.487  27.376  22.581  1.00  0.00    -0.200 F 
ATOM     84  F   UNL A   1      50.677  26.564  23.990  1.00  0.00    -0.200 F 
ENDBRANCH  50  74
BRANCH  62  85
ATOM     85  C   UNL A   1      45.039  33.839  28.502  1.00  0.00     0.064 A 
ATOM     86  C   UNL A   1      44.711  34.758  27.494  1.00  0.00     0.173 A 
ATOM     87  C   UNL A   1      45.907  34.258  29.520  1.00  0.00     0.173 A 
ATOM     88  F   UNL A   1      43.898  34.397  26.492  1.00  0.00    -0.203 F 
ATOM     89  C   UNL A   1      45.247  36.042  27.498  1.00  0.00     0.198 A 
ATOM     90  C   UNL A   1      46.421  35.550  29.535  1.00  0.00     0.198 A 
ATOM     91  F   UNL A   1      46.246  33.417  30.509  1.00  0.00    -0.203 F 
ATOM     92  F   UNL A   1      44.951  36.893  26.506  1.00  0.00    -0.200 F 
ATOM     93  C   UNL A   1      46.096  36.440  28.522  1.00  0.00     0.200 A 
ATOM     94  F   UNL A   1      47.232  35.937  30.530  1.00  0.00    -0.200 F 
ATOM     95  F   UNL A   1      46.604  37.680  28.527  1.00  0.00    -0.200 F 
ENDBRANCH  62  85
ENDBRANCH  36  37
ENDBRANCH  29  31
ENDBRANCH  28  29
ENDBRANCH  27  28
ENDBRANCH   1  27
TORSDOF 15
ENDMDL
