MODEL 1
REMARK VINA RESULT:     -10.7      0.000      0.000
REMARK SMILES C[C@H](SC1CCOCC1)c1ccc(C(=O)OCCOC(=O)c2ccc(-c3c4nc(c(-c5c(F)c(F)c(F)c(F)c5F)c5ccc([nH]5)c(-c5c(F)c(F)c(F)c(F)c5F)c5nc(c(-c6c(F)c(F)c(F)c(F)c6F)c6ccc3[nH]6)C=C5)C=C4)cc2)o1
REMARK SMILES IDX 17 1 16 2 14 3 15 4 13 5 10 6 11 7 85 8 12 9 2 10 1 11 3 12
REMARK SMILES IDX 4 13 5 14 9 15 6 16 8 17 7 18 18 19 19 20 20 21 21 22 22 23
REMARK SMILES IDX 23 24 84 25 24 26 83 27 25 28 26 29 27 30 77 31 28 32 82 33
REMARK SMILES IDX 76 34 78 35 29 36 81 37 75 38 74 39 30 41 62 42 42 43 61 44
REMARK SMILES IDX 43 45 46 46 60 47 79 48 44 49 45 50 59 52 80 53 47 54 31 55
REMARK SMILES IDX 32 56 40 57 33 58 34 59 38 60 41 61 35 62 36 63 39 64 37 65
REMARK SMILES IDX 63 66 64 67 72 68 65 69 66 70 70 71 73 72 67 73 68 74 71 75
REMARK SMILES IDX 69 76 48 77 49 78 57 79 50 80 51 81 55 82 58 83 52 84 53 85
REMARK SMILES IDX 56 86 54 87
REMARK H PARENT 78 40 46 51
REMARK Flexibility Score: inf
ROOT
ATOM      1  C   UNL A   1      33.978  35.062  28.477  1.00  0.00     0.275 C 
ENDROOT
BRANCH   1   2
ATOM      2  O   UNL A   1      34.039  33.700  28.942  1.00  0.00    -0.456 OA
BRANCH   2   3
ATOM      3  C   UNL A   1      35.185  33.037  28.606  1.00  0.00     0.374 C 
ATOM      4  O   UNL A   1      36.305  33.514  28.717  1.00  0.00    -0.242 OA
BRANCH   3   5
ATOM      5  C   UNL A   1      34.892  31.705  28.135  1.00  0.00     0.211 A 
ATOM      6  C   UNL A   1      33.504  30.134  27.422  1.00  0.00     0.117 A 
ATOM      7  C   UNL A   1      34.739  29.534  27.569  1.00  0.00     0.048 A 
ATOM      8  O   UNL A   1      33.609  31.454  27.726  1.00  0.00    -0.453 OA
ATOM      9  C   UNL A   1      35.633  30.545  28.011  1.00  0.00     0.058 A 
BRANCH   6  10
ATOM     10  C   UNL A   1      32.170  29.630  26.979  1.00  0.00     0.110 C 
ATOM     11  C   UNL A   1      31.785  28.278  27.583  1.00  0.00     0.028 C 
BRANCH  10  12
ATOM     12  S   UNL A   1      31.844  29.803  25.171  1.00  0.00    -0.147 SA
BRANCH  12  13
ATOM     13  C   UNL A   1      32.114  28.138  24.409  1.00  0.00     0.052 C 
ATOM     14  C   UNL A   1      33.566  27.736  24.217  1.00  0.00     0.043 C 
ATOM     15  C   UNL A   1      31.253  27.903  23.165  1.00  0.00     0.043 C 
ATOM     16  C   UNL A   1      33.658  26.373  23.561  1.00  0.00     0.161 C 
ATOM     17  C   UNL A   1      31.558  26.566  22.497  1.00  0.00     0.161 C 
ATOM     18  O   UNL A   1      32.953  26.349  22.331  1.00  0.00    -0.381 OA
ENDBRANCH  12  13
ENDBRANCH  10  12
ENDBRANCH   6  10
ENDBRANCH   3   5
ENDBRANCH   2   3
ENDBRANCH   1   2
BRANCH   1  19
ATOM     19  C   UNL A   1      32.975  35.914  29.270  1.00  0.00     0.275 C 
BRANCH  19  20
ATOM     20  O   UNL A   1      32.417  35.214  30.400  1.00  0.00    -0.458 OA
BRANCH  20  21
ATOM     21  C   UNL A   1      32.745  35.718  31.615  1.00  0.00     0.338 C 
ATOM     22  O   UNL A   1      32.154  36.602  32.215  1.00  0.00    -0.246 OA
BRANCH  21  23
ATOM     23  C   UNL A   1      33.857  34.952  32.219  1.00  0.00     0.060 A 
ATOM     24  C   UNL A   1      35.137  35.505  32.129  1.00  0.00     0.016 A 
ATOM     25  C   UNL A   1      33.679  33.699  32.817  1.00  0.00     0.016 A 
ATOM     26  C   UNL A   1      36.236  34.824  32.651  1.00  0.00     0.010 A 
ATOM     27  C   UNL A   1      34.790  33.005  33.325  1.00  0.00     0.010 A 
ATOM     28  C   UNL A   1      36.073  33.567  33.248  1.00  0.00    -0.014 A 
BRANCH  28  29
ATOM     29  C   UNL A   1      37.288  32.854  33.718  1.00  0.00     0.031 A 
ATOM     30  C   UNL A   1      37.997  31.921  32.785  1.00  0.00     0.074 A 
ATOM     31  C   UNL A   1      37.823  33.135  34.921  1.00  0.00     0.049 A 
ATOM     32  N   UNL A   1      39.116  31.265  32.958  1.00  0.00    -0.248 NA
ATOM     33  C   UNL A   1      37.354  31.690  31.483  1.00  0.00     0.031 C 
ATOM     34  C   UNL A   1      37.241  34.047  35.898  1.00  0.00     0.029 A 
ATOM     35  N   UNL A   1      38.999  32.729  35.503  1.00  0.00    -0.354 N 
ATOM     36  C   UNL A   1      39.298  30.521  31.801  1.00  0.00     0.074 A 
ATOM     37  C   UNL A   1      38.186  30.825  30.924  1.00  0.00     0.031 C 
ATOM     38  C   UNL A   1      38.108  34.217  36.910  1.00  0.00     0.029 A 
ATOM     39  C   UNL A   1      39.265  33.350  36.700  1.00  0.00     0.049 A 
ATOM     40  H   UNL A   1      39.594  32.056  35.100  1.00  0.00     0.167 HD
ATOM     41  C   UNL A   1      40.286  29.640  31.516  1.00  0.00     0.037 A 
ATOM     42  C   UNL A   1      40.314  33.220  37.536  1.00  0.00     0.037 A 
ATOM     43  C   UNL A   1      41.372  29.321  32.404  1.00  0.00     0.049 A 
ATOM     44  C   UNL A   1      41.383  32.209  37.206  1.00  0.00     0.074 A 
ATOM     45  C   UNL A   1      42.392  28.403  32.228  1.00  0.00     0.029 A 
ATOM     46  N   UNL A   1      41.571  29.905  33.647  1.00  0.00    -0.354 N 
ATOM     47  N   UNL A   1      41.529  31.479  36.127  1.00  0.00    -0.248 NA
ATOM     48  C   UNL A   1      42.408  31.971  38.233  1.00  0.00     0.031 C 
ATOM     49  C   UNL A   1      43.179  28.395  33.386  1.00  0.00     0.029 A 
ATOM     50  C   UNL A   1      42.684  29.350  34.259  1.00  0.00     0.049 A 
ATOM     51  H   UNL A   1      41.006  30.611  34.037  1.00  0.00     0.167 HD
ATOM     52  C   UNL A   1      42.652  30.691  36.348  1.00  0.00     0.074 A 
ATOM     53  C   UNL A   1      43.175  31.064  37.645  1.00  0.00     0.031 C 
ATOM     54  C   UNL A   1      43.188  29.729  35.556  1.00  0.00     0.037 A 
BRANCH  41  55
ATOM     55  C   UNL A   1      40.175  28.894  30.219  1.00  0.00     0.064 A 
ATOM     56  C   UNL A   1      39.498  27.671  30.119  1.00  0.00     0.173 A 
ATOM     57  C   UNL A   1      40.777  29.410  29.061  1.00  0.00     0.173 A 
ATOM     58  F   UNL A   1      38.925  27.125  31.203  1.00  0.00    -0.203 F 
ATOM     59  C   UNL A   1      39.454  26.975  28.913  1.00  0.00     0.198 A 
ATOM     60  C   UNL A   1      40.708  28.726  27.852  1.00  0.00     0.198 A 
ATOM     61  F   UNL A   1      41.438  30.576  29.105  1.00  0.00    -0.203 F 
ATOM     62  F   UNL A   1      38.852  25.779  28.852  1.00  0.00    -0.200 F 
ATOM     63  C   UNL A   1      40.057  27.503  27.781  1.00  0.00     0.200 A 
ATOM     64  F   UNL A   1      41.284  29.242  26.758  1.00  0.00    -0.200 F 
ATOM     65  F   UNL A   1      40.020  26.829  26.623  1.00  0.00    -0.200 F 
ENDBRANCH  41  55
BRANCH  42  66
ATOM     66  C   UNL A   1      40.396  34.026  38.785  1.00  0.00     0.064 A 
ATOM     67  C   UNL A   1      39.699  33.640  39.941  1.00  0.00     0.173 A 
ATOM     68  C   UNL A   1      41.139  35.215  38.846  1.00  0.00     0.173 A 
ATOM     69  F   UNL A   1      38.945  32.531  39.930  1.00  0.00    -0.203 F 
ATOM     70  C   UNL A   1      39.735  34.416  41.101  1.00  0.00     0.198 A 
ATOM     71  C   UNL A   1      41.204  35.969  40.016  1.00  0.00     0.198 A 
ATOM     72  F   UNL A   1      41.810  35.642  37.767  1.00  0.00    -0.203 F 
ATOM     73  F   UNL A   1      39.017  34.050  42.171  1.00  0.00    -0.200 F 
ATOM     74  C   UNL A   1      40.496  35.574  41.139  1.00  0.00     0.200 A 
ATOM     75  F   UNL A   1      41.949  37.083  40.050  1.00  0.00    -0.200 F 
ATOM     76  F   UNL A   1      40.534  36.318  42.254  1.00  0.00    -0.200 F 
ENDBRANCH  42  66
BRANCH  54  77
ATOM     77  C   UNL A   1      44.405  29.014  36.070  1.00  0.00     0.064 A 
ATOM     78  C   UNL A   1      44.304  27.792  36.752  1.00  0.00     0.173 A 
ATOM     79  C   UNL A   1      45.688  29.533  35.838  1.00  0.00     0.173 A 
ATOM     80  F   UNL A   1      43.101  27.261  37.012  1.00  0.00    -0.203 F 
ATOM     81  C   UNL A   1      45.443  27.127  37.201  1.00  0.00     0.198 A 
ATOM     82  C   UNL A   1      46.824  28.851  36.263  1.00  0.00     0.198 A 
ATOM     83  F   UNL A   1      45.839  30.695  35.185  1.00  0.00    -0.203 F 
ATOM     84  F   UNL A   1      45.321  25.983  37.888  1.00  0.00    -0.200 F 
ATOM     85  C   UNL A   1      46.701  27.653  36.949  1.00  0.00     0.200 A 
ATOM     86  F   UNL A   1      48.040  29.353  36.006  1.00  0.00    -0.200 F 
ATOM     87  F   UNL A   1      47.796  27.007  37.374  1.00  0.00    -0.200 F 
ENDBRANCH  54  77
ENDBRANCH  28  29
ENDBRANCH  21  23
ENDBRANCH  20  21
ENDBRANCH  19  20
ENDBRANCH   1  19
TORSDOF 14
ENDMDL
MODEL 2
REMARK VINA RESULT:     -10.5      0.701      7.520
REMARK SMILES C[C@H](SC1CCOCC1)c1ccc(C(=O)OCCOC(=O)c2ccc(-c3c4nc(c(-c5c(F)c(F)c(F)c(F)c5F)c5ccc([nH]5)c(-c5c(F)c(F)c(F)c(F)c5F)c5nc(c(-c6c(F)c(F)c(F)c(F)c6F)c6ccc3[nH]6)C=C5)C=C4)cc2)o1
REMARK SMILES IDX 17 1 16 2 14 3 15 4 13 5 10 6 11 7 85 8 12 9 2 10 1 11 3 12
REMARK SMILES IDX 4 13 5 14 9 15 6 16 8 17 7 18 18 19 19 20 20 21 21 22 22 23
REMARK SMILES IDX 23 24 84 25 24 26 83 27 25 28 26 29 27 30 77 31 28 32 82 33
REMARK SMILES IDX 76 34 78 35 29 36 81 37 75 38 74 39 30 41 62 42 42 43 61 44
REMARK SMILES IDX 43 45 46 46 60 47 79 48 44 49 45 50 59 52 80 53 47 54 31 55
REMARK SMILES IDX 32 56 40 57 33 58 34 59 38 60 41 61 35 62 36 63 39 64 37 65
REMARK SMILES IDX 63 66 64 67 72 68 65 69 66 70 70 71 73 72 67 73 68 74 71 75
REMARK SMILES IDX 69 76 48 77 49 78 57 79 50 80 51 81 55 82 58 83 52 84 53 85
REMARK SMILES IDX 56 86 54 87
REMARK H PARENT 78 40 46 51
REMARK Flexibility Score: inf
ROOT
ATOM      1  C   UNL A   1      33.820  35.357  28.765  1.00  0.00     0.275 C 
ENDROOT
BRANCH   1   2
ATOM      2  O   UNL A   1      33.989  33.988  29.180  1.00  0.00    -0.456 OA
BRANCH   2   3
ATOM      3  C   UNL A   1      35.174  33.423  28.800  1.00  0.00     0.374 C 
ATOM      4  O   UNL A   1      36.265  33.949  28.969  1.00  0.00    -0.242 OA
BRANCH   3   5
ATOM      5  C   UNL A   1      34.961  32.125  28.206  1.00  0.00     0.211 A 
ATOM      6  C   UNL A   1      33.694  30.600  27.222  1.00  0.00     0.117 A 
ATOM      7  C   UNL A   1      34.909  29.999  27.478  1.00  0.00     0.048 A 
ATOM      8  O   UNL A   1      33.741  31.896  27.626  1.00  0.00    -0.453 OA
ATOM      9  C   UNL A   1      35.728  30.981  28.095  1.00  0.00     0.058 A 
BRANCH   6  10
ATOM     10  C   UNL A   1      32.431  30.121  26.584  1.00  0.00     0.110 C 
ATOM     11  C   UNL A   1      31.379  31.215  26.391  1.00  0.00     0.028 C 
BRANCH  10  12
ATOM     12  S   UNL A   1      31.789  28.524  27.250  1.00  0.00    -0.147 SA
BRANCH  12  13
ATOM     13  C   UNL A   1      32.170  27.218  25.995  1.00  0.00     0.052 C 
ATOM     14  C   UNL A   1      33.646  26.920  25.792  1.00  0.00     0.043 C 
ATOM     15  C   UNL A   1      31.406  27.410  24.683  1.00  0.00     0.043 C 
ATOM     16  C   UNL A   1      33.831  25.860  24.724  1.00  0.00     0.161 C 
ATOM     17  C   UNL A   1      31.804  26.381  23.630  1.00  0.00     0.161 C 
ATOM     18  O   UNL A   1      33.214  26.247  23.508  1.00  0.00    -0.381 OA
ENDBRANCH  12  13
ENDBRANCH  10  12
ENDBRANCH   6  10
ENDBRANCH   3   5
ENDBRANCH   2   3
ENDBRANCH   1   2
BRANCH   1  19
ATOM     19  C   UNL A   1      32.803  36.116  29.631  1.00  0.00     0.275 C 
BRANCH  19  20
ATOM     20  O   UNL A   1      32.331  35.340  30.751  1.00  0.00    -0.458 OA
BRANCH  20  21
ATOM     21  C   UNL A   1      32.750  35.763  31.968  1.00  0.00     0.338 C 
ATOM     22  O   UNL A   1      32.181  36.567  32.690  1.00  0.00    -0.246 OA
BRANCH  21  23
ATOM     23  C   UNL A   1      33.946  35.010  32.404  1.00  0.00     0.060 A 
ATOM     24  C   UNL A   1      35.190  35.619  32.214  1.00  0.00     0.016 A 
ATOM     25  C   UNL A   1      33.877  33.718  32.938  1.00  0.00     0.016 A 
ATOM     26  C   UNL A   1      36.361  34.955  32.574  1.00  0.00     0.010 A 
ATOM     27  C   UNL A   1      35.060  33.042  33.283  1.00  0.00     0.010 A 
ATOM     28  C   UNL A   1      36.307  33.660  33.107  1.00  0.00    -0.014 A 
BRANCH  28  29
ATOM     29  C   UNL A   1      37.588  32.970  33.402  1.00  0.00     0.031 A 
ATOM     30  C   UNL A   1      38.224  33.148  34.747  1.00  0.00     0.074 A 
ATOM     31  C   UNL A   1      38.111  32.095  32.524  1.00  0.00     0.049 A 
ATOM     32  N   UNL A   1      39.290  32.575  35.245  1.00  0.00    -0.248 NA
ATOM     33  C   UNL A   1      37.572  34.106  35.652  1.00  0.00     0.031 C 
ATOM     34  C   UNL A   1      37.566  31.817  31.200  1.00  0.00     0.029 A 
ATOM     35  N   UNL A   1      39.181  31.239  32.630  1.00  0.00    -0.354 N 
ATOM     36  C   UNL A   1      39.456  33.123  36.508  1.00  0.00     0.074 A 
ATOM     37  C   UNL A   1      38.367  34.056  36.711  1.00  0.00     0.031 C 
ATOM     38  C   UNL A   1      38.233  30.785  30.658  1.00  0.00     0.029 A 
ATOM     39  C   UNL A   1      39.317  30.392  31.556  1.00  0.00     0.049 A 
ATOM     40  H   UNL A   1      39.791  31.234  33.402  1.00  0.00     0.167 HD
ATOM     41  C   UNL A   1      40.447  32.890  37.401  1.00  0.00     0.037 A 
ATOM     42  C   UNL A   1      40.224  29.423  31.319  1.00  0.00     0.037 A 
ATOM     43  C   UNL A   1      41.543  31.984  37.181  1.00  0.00     0.049 A 
ATOM     44  C   UNL A   1      41.334  29.209  32.317  1.00  0.00     0.074 A 
ATOM     45  C   UNL A   1      42.625  31.720  38.002  1.00  0.00     0.029 A 
ATOM     46  N   UNL A   1      41.701  31.199  36.047  1.00  0.00    -0.354 N 
ATOM     47  N   UNL A   1      41.508  29.759  33.495  1.00  0.00    -0.248 NA
ATOM     48  C   UNL A   1      42.399  28.272  31.931  1.00  0.00     0.031 C 
ATOM     49  C   UNL A   1      43.464  30.814  37.343  1.00  0.00     0.029 A 
ATOM     50  C   UNL A   1      42.876  30.468  36.137  1.00  0.00     0.049 A 
ATOM     51  H   UNL A   1      41.071  31.165  35.292  1.00  0.00     0.167 HD
ATOM     52  C   UNL A   1      42.701  29.244  33.984  1.00  0.00     0.074 A 
ATOM     53  C   UNL A   1      43.188  28.305  32.996  1.00  0.00     0.031 C 
ATOM     54  C   UNL A   1      43.348  29.541  35.139  1.00  0.00     0.037 A 
BRANCH  41  55
ATOM     55  C   UNL A   1      40.431  33.707  38.659  1.00  0.00     0.064 A 
ATOM     56  C   UNL A   1      39.633  33.366  39.760  1.00  0.00     0.173 A 
ATOM     57  C   UNL A   1      41.219  34.866  38.751  1.00  0.00     0.173 A 
ATOM     58  F   UNL A   1      38.846  32.280  39.712  1.00  0.00    -0.203 F 
ATOM     59  C   UNL A   1      39.600  34.172  40.895  1.00  0.00     0.198 A 
ATOM     60  C   UNL A   1      41.204  35.654  39.897  1.00  0.00     0.198 A 
ATOM     61  F   UNL A   1      41.998  35.237  37.724  1.00  0.00    -0.203 F 
ATOM     62  F   UNL A   1      38.787  33.859  41.914  1.00  0.00    -0.200 F 
ATOM     63  C   UNL A   1      40.387  35.313  40.964  1.00  0.00     0.200 A 
ATOM     64  F   UNL A   1      41.970  36.751  39.964  1.00  0.00    -0.200 F 
ATOM     65  F   UNL A   1      40.348  36.091  42.055  1.00  0.00    -0.200 F 
ENDBRANCH  41  55
BRANCH  42  66
ATOM     66  C   UNL A   1      40.159  28.608  30.074  1.00  0.00     0.064 A 
ATOM     67  C   UNL A   1      39.490  27.375  30.052  1.00  0.00     0.173 A 
ATOM     68  C   UNL A   1      40.789  29.023  28.891  1.00  0.00     0.173 A 
ATOM     69  F   UNL A   1      38.899  26.912  31.164  1.00  0.00    -0.203 F 
ATOM     70  C   UNL A   1      39.465  26.586  28.901  1.00  0.00     0.198 A 
ATOM     71  C   UNL A   1      40.731  28.252  27.732  1.00  0.00     0.198 A 
ATOM     72  F   UNL A   1      41.458  30.185  28.859  1.00  0.00    -0.203 F 
ATOM     73  F   UNL A   1      38.864  25.389  28.925  1.00  0.00    -0.200 F 
ATOM     74  C   UNL A   1      40.077  27.031  27.739  1.00  0.00     0.200 A 
ATOM     75  F   UNL A   1      41.317  28.692  26.609  1.00  0.00    -0.200 F 
ATOM     76  F   UNL A   1      40.050  26.276  26.632  1.00  0.00    -0.200 F 
ENDBRANCH  42  66
BRANCH  54  77
ATOM     77  C   UNL A   1      44.651  28.839  35.398  1.00  0.00     0.064 A 
ATOM     78  C   UNL A   1      45.876  29.395  34.997  1.00  0.00     0.173 A 
ATOM     79  C   UNL A   1      44.679  27.621  36.093  1.00  0.00     0.173 A 
ATOM     80  F   UNL A   1      45.902  30.550  34.317  1.00  0.00    -0.203 F 
ATOM     81  C   UNL A   1      47.078  28.747  35.266  1.00  0.00     0.198 A 
ATOM     82  C   UNL A   1      45.885  26.990  36.385  1.00  0.00     0.198 A 
ATOM     83  F   UNL A   1      43.536  27.050  36.503  1.00  0.00    -0.203 F 
ATOM     84  F   UNL A   1      48.233  29.274  34.837  1.00  0.00    -0.200 F 
ATOM     85  C   UNL A   1      47.082  27.550  35.966  1.00  0.00     0.200 A 
ATOM     86  F   UNL A   1      45.888  25.841  37.074  1.00  0.00    -0.200 F 
ATOM     87  F   UNL A   1      48.241  26.931  36.231  1.00  0.00    -0.200 F 
ENDBRANCH  54  77
ENDBRANCH  28  29
ENDBRANCH  21  23
ENDBRANCH  20  21
ENDBRANCH  19  20
ENDBRANCH   1  19
TORSDOF 14
ENDMDL
MODEL 3
REMARK VINA RESULT:     -10.5      2.427      8.178
REMARK SMILES C[C@H](SC1CCOCC1)c1ccc(C(=O)OCCOC(=O)c2ccc(-c3c4nc(c(-c5c(F)c(F)c(F)c(F)c5F)c5ccc([nH]5)c(-c5c(F)c(F)c(F)c(F)c5F)c5nc(c(-c6c(F)c(F)c(F)c(F)c6F)c6ccc3[nH]6)C=C5)C=C4)cc2)o1
REMARK SMILES IDX 17 1 16 2 14 3 15 4 13 5 10 6 11 7 85 8 12 9 2 10 1 11 3 12
REMARK SMILES IDX 4 13 5 14 9 15 6 16 8 17 7 18 18 19 19 20 20 21 21 22 22 23
REMARK SMILES IDX 23 24 84 25 24 26 83 27 25 28 26 29 27 30 77 31 28 32 82 33
REMARK SMILES IDX 76 34 78 35 29 36 81 37 75 38 74 39 30 41 62 42 42 43 61 44
REMARK SMILES IDX 43 45 46 46 60 47 79 48 44 49 45 50 59 52 80 53 47 54 31 55
REMARK SMILES IDX 32 56 40 57 33 58 34 59 38 60 41 61 35 62 36 63 39 64 37 65
REMARK SMILES IDX 63 66 64 67 72 68 65 69 66 70 70 71 73 72 67 73 68 74 71 75
REMARK SMILES IDX 69 76 48 77 49 78 57 79 50 80 51 81 55 82 58 83 52 84 53 85
REMARK SMILES IDX 56 86 54 87
REMARK H PARENT 78 40 46 51
REMARK Flexibility Score: inf
ROOT
ATOM      1  C   UNL A   1      31.815  31.284  26.659  1.00  0.00     0.275 C 
ENDROOT
BRANCH   1   2
ATOM      2  O   UNL A   1      32.632  30.495  27.544  1.00  0.00    -0.456 OA
BRANCH   2   3
ATOM      3  C   UNL A   1      33.300  29.469  26.936  1.00  0.00     0.374 C 
ATOM      4  O   UNL A   1      34.516  29.343  26.954  1.00  0.00    -0.242 OA
BRANCH   3   5
ATOM      5  C   UNL A   1      32.379  28.555  26.305  1.00  0.00     0.211 A 
ATOM      6  C   UNL A   1      31.113  27.899  24.611  1.00  0.00     0.117 A 
ATOM      7  C   UNL A   1      30.855  27.035  25.655  1.00  0.00     0.048 A 
ATOM      8  O   UNL A   1      32.064  28.792  24.993  1.00  0.00    -0.453 OA
ATOM      9  C   UNL A   1      31.678  27.446  26.737  1.00  0.00     0.058 A 
BRANCH   6  10
ATOM     10  C   UNL A   1      30.597  27.996  23.213  1.00  0.00     0.110 C 
ATOM     11  C   UNL A   1      31.586  28.622  22.227  1.00  0.00     0.028 C 
BRANCH  10  12
ATOM     12  S   UNL A   1      28.860  28.606  23.074  1.00  0.00    -0.147 SA
BRANCH  12  13
ATOM     13  C   UNL A   1      28.942  30.335  22.422  1.00  0.00     0.052 C 
ATOM     14  C   UNL A   1      28.797  31.433  23.462  1.00  0.00     0.043 C 
ATOM     15  C   UNL A   1      28.061  30.551  21.189  1.00  0.00     0.043 C 
ATOM     16  C   UNL A   1      28.851  32.798  22.805  1.00  0.00     0.161 C 
ATOM     17  C   UNL A   1      28.068  32.004  20.723  1.00  0.00     0.161 C 
ATOM     18  O   UNL A   1      27.865  32.918  21.793  1.00  0.00    -0.381 OA
ENDBRANCH  12  13
ENDBRANCH  10  12
ENDBRANCH   6  10
ENDBRANCH   3   5
ENDBRANCH   2   3
ENDBRANCH   1   2
BRANCH   1  19
ATOM     19  C   UNL A   1      31.783  32.769  27.049  1.00  0.00     0.275 C 
BRANCH  19  20
ATOM     20  O   UNL A   1      33.092  33.374  27.057  1.00  0.00    -0.458 OA
BRANCH  20  21
ATOM     21  C   UNL A   1      33.463  33.942  28.231  1.00  0.00     0.338 C 
ATOM     22  O   UNL A   1      32.819  34.753  28.877  1.00  0.00    -0.246 OA
BRANCH  21  23
ATOM     23  C   UNL A   1      34.718  33.341  28.732  1.00  0.00     0.060 A 
ATOM     24  C   UNL A   1      34.607  32.192  29.520  1.00  0.00     0.016 A 
ATOM     25  C   UNL A   1      35.977  33.901  28.491  1.00  0.00     0.016 A 
ATOM     26  C   UNL A   1      35.746  31.589  30.050  1.00  0.00     0.010 A 
ATOM     27  C   UNL A   1      37.123  33.303  29.041  1.00  0.00     0.010 A 
ATOM     28  C   UNL A   1      37.013  32.142  29.820  1.00  0.00    -0.014 A 
BRANCH  28  29
ATOM     29  C   UNL A   1      38.184  31.502  30.471  1.00  0.00     0.031 A 
ATOM     30  C   UNL A   1      38.439  31.748  31.926  1.00  0.00     0.074 A 
ATOM     31  C   UNL A   1      38.936  30.610  29.800  1.00  0.00     0.049 A 
ATOM     32  N   UNL A   1      39.347  31.226  32.711  1.00  0.00    -0.248 NA
ATOM     33  C   UNL A   1      37.554  32.720  32.586  1.00  0.00     0.031 C 
ATOM     34  C   UNL A   1      38.764  30.266  28.393  1.00  0.00     0.029 A 
ATOM     35  N   UNL A   1      39.955  29.791  30.221  1.00  0.00    -0.354 N 
ATOM     36  C   UNL A   1      39.165  31.826  33.948  1.00  0.00     0.074 A 
ATOM     37  C   UNL A   1      38.043  32.734  33.817  1.00  0.00     0.031 C 
ATOM     38  C   UNL A   1      39.569  29.235  28.092  1.00  0.00     0.029 A 
ATOM     39  C   UNL A   1      40.386  28.908  29.258  1.00  0.00     0.049 A 
ATOM     40  H   UNL A   1      40.341  29.833  31.125  1.00  0.00     0.167 HD
ATOM     41  C   UNL A   1      39.890  31.657  35.079  1.00  0.00     0.037 A 
ATOM     42  C   UNL A   1      41.341  27.958  29.311  1.00  0.00     0.037 A 
ATOM     43  C   UNL A   1      41.022  30.776  35.194  1.00  0.00     0.049 A 
ATOM     44  C   UNL A   1      42.153  27.815  30.574  1.00  0.00     0.074 A 
ATOM     45  C   UNL A   1      41.854  30.575  36.281  1.00  0.00     0.029 A 
ATOM     46  N   UNL A   1      41.488  29.954  34.178  1.00  0.00    -0.354 N 
ATOM     47  N   UNL A   1      42.000  28.414  31.730  1.00  0.00    -0.248 NA
ATOM     48  C   UNL A   1      43.299  26.896  30.522  1.00  0.00     0.031 C 
ATOM     49  C   UNL A   1      42.854  29.670  35.905  1.00  0.00     0.029 A 
ATOM     50  C   UNL A   1      42.611  29.262  34.604  1.00  0.00     0.049 A 
ATOM     51  H   UNL A   1      41.080  29.873  33.285  1.00  0.00     0.167 HD
ATOM     52  C   UNL A   1      43.032  27.953  32.537  1.00  0.00     0.074 A 
ATOM     53  C   UNL A   1      43.779  26.992  31.754  1.00  0.00     0.031 C 
ATOM     54  C   UNL A   1      43.346  28.312  33.807  1.00  0.00     0.037 A 
BRANCH  41  55
ATOM     55  C   UNL A   1      39.529  32.520  36.251  1.00  0.00     0.064 A 
ATOM     56  C   UNL A   1      38.520  32.163  37.157  1.00  0.00     0.173 A 
ATOM     57  C   UNL A   1      40.196  33.739  36.456  1.00  0.00     0.173 A 
ATOM     58  F   UNL A   1      37.838  31.020  36.992  1.00  0.00    -0.203 F 
ATOM     59  C   UNL A   1      38.171  33.009  38.207  1.00  0.00     0.198 A 
ATOM     60  C   UNL A   1      39.863  34.568  37.522  1.00  0.00     0.198 A 
ATOM     61  F   UNL A   1      41.167  34.127  35.616  1.00  0.00    -0.203 F 
ATOM     62  F   UNL A   1      37.164  32.676  39.028  1.00  0.00    -0.200 F 
ATOM     63  C   UNL A   1      38.843  34.209  38.390  1.00  0.00     0.200 A 
ATOM     64  F   UNL A   1      40.520  35.722  37.700  1.00  0.00    -0.200 F 
ATOM     65  F   UNL A   1      38.501  35.024  39.397  1.00  0.00    -0.200 F 
ENDBRANCH  41  55
BRANCH  42  66
ATOM     66  C   UNL A   1      41.621  27.096  28.130  1.00  0.00     0.064 A 
ATOM     67  C   UNL A   1      40.941  25.882  27.943  1.00  0.00     0.173 A 
ATOM     68  C   UNL A   1      42.595  27.443  27.181  1.00  0.00     0.173 A 
ATOM     69  F   UNL A   1      40.024  25.483  28.837  1.00  0.00    -0.203 F 
ATOM     70  C   UNL A   1      41.231  25.049  26.862  1.00  0.00     0.198 A 
ATOM     71  C   UNL A   1      42.858  26.627  26.082  1.00  0.00     0.198 A 
ATOM     72  F   UNL A   1      43.289  28.582  27.317  1.00  0.00    -0.203 F 
ATOM     73  F   UNL A   1      40.603  23.872  26.739  1.00  0.00    -0.200 F 
ATOM     74  C   UNL A   1      42.183  25.427  25.928  1.00  0.00     0.200 A 
ATOM     75  F   UNL A   1      43.772  27.003  25.177  1.00  0.00    -0.200 F 
ATOM     76  F   UNL A   1      42.460  24.629  24.888  1.00  0.00    -0.200 F 
ENDBRANCH  42  66
BRANCH  54  77
ATOM     77  C   UNL A   1      44.548  27.660  34.429  1.00  0.00     0.064 A 
ATOM     78  C   UNL A   1      44.450  26.435  35.107  1.00  0.00     0.173 A 
ATOM     79  C   UNL A   1      45.818  28.244  34.308  1.00  0.00     0.173 A 
ATOM     80  F   UNL A   1      43.256  25.844  35.263  1.00  0.00    -0.203 F 
ATOM     81  C   UNL A   1      45.576  25.829  35.657  1.00  0.00     0.198 A 
ATOM     82  C   UNL A   1      46.946  27.621  34.834  1.00  0.00     0.198 A 
ATOM     83  F   UNL A   1      45.968  29.411  33.665  1.00  0.00    -0.203 F 
ATOM     84  F   UNL A   1      45.453  24.681  36.337  1.00  0.00    -0.200 F 
ATOM     85  C   UNL A   1      46.824  26.418  35.513  1.00  0.00     0.200 A 
ATOM     86  F   UNL A   1      48.153  28.183  34.683  1.00  0.00    -0.200 F 
ATOM     87  F   UNL A   1      47.908  25.829  36.036  1.00  0.00    -0.200 F 
ENDBRANCH  54  77
ENDBRANCH  28  29
ENDBRANCH  21  23
ENDBRANCH  20  21
ENDBRANCH  19  20
ENDBRANCH   1  19
TORSDOF 14
ENDMDL
