MODEL 1
REMARK VINA RESULT:     -10.6      0.000      0.000
REMARK SMILES CN(C)c1cccc(C(C)(C)C(=O)OCCOC(=O)c2ccc(-c3c4nc(c(-c5c(F)c(F)c(F)c(F)c5F)c5ccc([nH]5)c(-c5c(F)c(F)c(F)c(F)c5F)c5nc(c(-c6c(F)c(F)c(F)c(F)c6F)c6ccc3[nH]6)C=C5)C=C4)cc2)c1
REMARK SMILES IDX 15 1 14 2 12 3 13 4 9 5 10 6 11 7 8 8 4 9 5 10 83 11 6 12
REMARK SMILES IDX 7 13 2 14 1 15 3 16 16 17 17 18 18 19 19 20 20 21 21 22
REMARK SMILES IDX 82 23 22 24 81 25 23 26 24 27 25 28 75 29 26 30 80 31 74 32
REMARK SMILES IDX 76 33 27 34 79 35 73 36 72 37 28 39 60 40 40 41 59 42 41 43
REMARK SMILES IDX 44 44 58 45 77 46 42 47 43 48 57 50 78 51 45 52 29 53 30 54
REMARK SMILES IDX 38 55 31 56 32 57 36 58 39 59 33 60 34 61 37 62 35 63 61 64
REMARK SMILES IDX 62 65 70 66 63 67 64 68 68 69 71 70 65 71 66 72 69 73 67 74
REMARK SMILES IDX 46 75 47 76 55 77 48 78 49 79 53 80 56 81 50 82 51 83 54 84
REMARK SMILES IDX 52 85
REMARK H PARENT 76 38 44 49
REMARK Flexibility Score: inf
ROOT
ATOM      1  C   UNL A   1      42.283  18.391  26.135  1.00  0.00     0.274 C 
ENDROOT
BRANCH   1   2
ATOM      2  O   UNL A   1      41.650  19.669  25.950  1.00  0.00    -0.461 OA
BRANCH   2   3
ATOM      3  C   UNL A   1      41.167  20.265  27.075  1.00  0.00     0.316 C 
ATOM      4  O   UNL A   1      40.745  19.638  28.041  1.00  0.00    -0.251 OA
BRANCH   3   5
ATOM      5  C   UNL A   1      41.265  21.809  27.014  1.00  0.00     0.087 C 
ATOM      6  C   UNL A   1      42.221  22.136  25.846  1.00  0.00     0.028 C 
ATOM      7  C   UNL A   1      41.904  22.335  28.318  1.00  0.00     0.028 C 
BRANCH   5   8
ATOM      8  C   UNL A   1      39.914  22.498  26.735  1.00  0.00    -0.029 A 
ATOM      9  C   UNL A   1      37.727  22.537  25.565  1.00  0.00     0.036 A 
ATOM     10  C   UNL A   1      37.489  23.797  26.127  1.00  0.00     0.026 A 
ATOM     11  C   UNL A   1      38.950  21.918  25.887  1.00  0.00     0.030 A 
ATOM     12  C   UNL A   1      38.417  24.402  26.977  1.00  0.00     0.002 A 
ATOM     13  C   UNL A   1      39.620  23.761  27.272  1.00  0.00     0.005 A 
BRANCH   9  14
ATOM     14  N   UNL A   1      36.798  21.918  24.738  1.00  0.00    -0.378 N 
ATOM     15  C   UNL A   1      36.226  22.633  23.608  1.00  0.00     0.143 C 
ATOM     16  C   UNL A   1      36.203  20.657  25.151  1.00  0.00     0.143 C 
ENDBRANCH   9  14
ENDBRANCH   5   8
ENDBRANCH   3   5
ENDBRANCH   2   3
ENDBRANCH   1   2
BRANCH   1  17
ATOM     17  C   UNL A   1      43.723  18.451  25.622  1.00  0.00     0.275 C 
BRANCH  17  18
ATOM     18  O   UNL A   1      43.799  19.263  24.433  1.00  0.00    -0.458 OA
BRANCH  18  19
ATOM     19  C   UNL A   1      45.052  19.662  24.097  1.00  0.00     0.338 C 
ATOM     20  O   UNL A   1      45.879  19.038  23.456  1.00  0.00    -0.246 OA
BRANCH  19  21
ATOM     21  C   UNL A   1      45.254  21.060  24.519  1.00  0.00     0.060 A 
ATOM     22  C   UNL A   1      45.738  21.281  25.808  1.00  0.00     0.016 A 
ATOM     23  C   UNL A   1      44.938  22.141  23.689  1.00  0.00     0.016 A 
ATOM     24  C   UNL A   1      45.940  22.583  26.262  1.00  0.00     0.010 A 
ATOM     25  C   UNL A   1      45.110  23.450  24.161  1.00  0.00     0.010 A 
ATOM     26  C   UNL A   1      45.617  23.678  25.450  1.00  0.00    -0.014 A 
BRANCH  26  27
ATOM     27  C   UNL A   1      45.757  25.044  26.017  1.00  0.00     0.031 A 
ATOM     28  C   UNL A   1      47.035  25.795  25.812  1.00  0.00     0.074 A 
ATOM     29  C   UNL A   1      44.724  25.642  26.638  1.00  0.00     0.049 A 
ATOM     30  N   UNL A   1      47.350  27.008  26.187  1.00  0.00    -0.248 NA
ATOM     31  C   UNL A   1      48.111  25.079  25.110  1.00  0.00     0.031 C 
ATOM     32  C   UNL A   1      43.438  25.010  26.895  1.00  0.00     0.029 A 
ATOM     33  N   UNL A   1      44.570  26.916  27.128  1.00  0.00    -0.354 N 
ATOM     34  C   UNL A   1      48.676  27.179  25.826  1.00  0.00     0.074 A 
ATOM     35  C   UNL A   1      49.092  25.969  25.149  1.00  0.00     0.031 C 
ATOM     36  C   UNL A   1      42.592  25.919  27.404  1.00  0.00     0.029 A 
ATOM     37  C   UNL A   1      43.292  27.189  27.560  1.00  0.00     0.049 A 
ATOM     38  H   UNL A   1      45.303  27.572  27.165  1.00  0.00     0.167 HD
ATOM     39  C   UNL A   1      49.485  28.232  26.089  1.00  0.00     0.037 A 
ATOM     40  C   UNL A   1      42.753  28.335  28.024  1.00  0.00     0.037 A 
ATOM     41  C   UNL A   1      49.067  29.427  26.771  1.00  0.00     0.049 A 
ATOM     42  C   UNL A   1      43.658  29.523  28.226  1.00  0.00     0.074 A 
ATOM     43  C   UNL A   1      49.827  30.526  27.132  1.00  0.00     0.029 A 
ATOM     44  N   UNL A   1      47.771  29.679  27.199  1.00  0.00    -0.354 N 
ATOM     45  N   UNL A   1      44.924  29.663  27.913  1.00  0.00    -0.248 NA
ATOM     46  C   UNL A   1      43.074  30.696  28.893  1.00  0.00     0.031 C 
ATOM     47  C   UNL A   1      48.999  31.425  27.814  1.00  0.00     0.029 A 
ATOM     48  C   UNL A   1      47.713  30.909  27.834  1.00  0.00     0.049 A 
ATOM     49  H   UNL A   1      47.006  29.072  27.070  1.00  0.00     0.167 HD
ATOM     50  C   UNL A   1      45.293  30.919  28.373  1.00  0.00     0.074 A 
ATOM     51  C   UNL A   1      44.102  31.532  28.923  1.00  0.00     0.031 C 
ATOM     52  C   UNL A   1      46.518  31.497  28.381  1.00  0.00     0.037 A 
BRANCH  39  53
ATOM     53  C   UNL A   1      50.932  28.077  25.738  1.00  0.00     0.064 A 
ATOM     54  C   UNL A   1      51.417  28.298  24.442  1.00  0.00     0.173 A 
ATOM     55  C   UNL A   1      51.846  27.685  26.729  1.00  0.00     0.173 A 
ATOM     56  F   UNL A   1      50.578  28.648  23.457  1.00  0.00    -0.203 F 
ATOM     57  C   UNL A   1      52.765  28.110  24.146  1.00  0.00     0.198 A 
ATOM     58  C   UNL A   1      53.196  27.523  26.434  1.00  0.00     0.198 A 
ATOM     59  F   UNL A   1      51.428  27.456  27.982  1.00  0.00    -0.203 F 
ATOM     60  F   UNL A   1      53.203  28.278  22.890  1.00  0.00    -0.200 F 
ATOM     61  C   UNL A   1      53.653  27.727  25.142  1.00  0.00     0.200 A 
ATOM     62  F   UNL A   1      54.051  27.159  27.399  1.00  0.00    -0.200 F 
ATOM     63  F   UNL A   1      54.949  27.543  24.853  1.00  0.00    -0.200 F 
ENDBRANCH  39  53
BRANCH  40  64
ATOM     64  C   UNL A   1      41.303  28.432  28.354  1.00  0.00     0.064 A 
ATOM     65  C   UNL A   1      40.391  28.958  27.422  1.00  0.00     0.173 A 
ATOM     66  C   UNL A   1      40.799  28.063  29.609  1.00  0.00     0.173 A 
ATOM     67  F   UNL A   1      40.821  29.353  26.215  1.00  0.00    -0.203 F 
ATOM     68  C   UNL A   1      39.046  29.134  27.744  1.00  0.00     0.198 A 
ATOM     69  C   UNL A   1      39.447  28.203  29.916  1.00  0.00     0.198 A 
ATOM     70  F   UNL A   1      41.622  27.565  30.544  1.00  0.00    -0.203 F 
ATOM     71  F   UNL A   1      38.215  29.699  26.858  1.00  0.00    -0.200 F 
ATOM     72  C   UNL A   1      38.573  28.750  28.988  1.00  0.00     0.200 A 
ATOM     73  F   UNL A   1      38.991  27.816  31.116  1.00  0.00    -0.200 F 
ATOM     74  F   UNL A   1      37.281  28.920  29.300  1.00  0.00    -0.200 F 
ENDBRANCH  40  64
BRANCH  52  75
ATOM     75  C   UNL A   1      46.633  32.848  29.024  1.00  0.00     0.064 A 
ATOM     76  C   UNL A   1      46.453  34.025  28.280  1.00  0.00     0.173 A 
ATOM     77  C   UNL A   1      46.878  32.968  30.399  1.00  0.00     0.173 A 
ATOM     78  F   UNL A   1      46.232  33.962  26.959  1.00  0.00    -0.203 F 
ATOM     79  C   UNL A   1      46.538  35.274  28.888  1.00  0.00     0.198 A 
ATOM     80  C   UNL A   1      46.935  34.219  31.008  1.00  0.00     0.198 A 
ATOM     81  F   UNL A   1      47.052  31.872  31.153  1.00  0.00    -0.203 F 
ATOM     82  F   UNL A   1      46.405  36.386  28.152  1.00  0.00    -0.200 F 
ATOM     83  C   UNL A   1      46.770  35.370  30.252  1.00  0.00     0.200 A 
ATOM     84  F   UNL A   1      47.149  34.310  32.328  1.00  0.00    -0.200 F 
ATOM     85  F   UNL A   1      46.843  36.573  30.837  1.00  0.00    -0.200 F 
ENDBRANCH  52  75
ENDBRANCH  26  27
ENDBRANCH  19  21
ENDBRANCH  18  19
ENDBRANCH  17  18
ENDBRANCH   1  17
TORSDOF 13
ENDMDL
MODEL 2
REMARK VINA RESULT:     -10.5      0.569      7.529
REMARK SMILES CN(C)c1cccc(C(C)(C)C(=O)OCCOC(=O)c2ccc(-c3c4nc(c(-c5c(F)c(F)c(F)c(F)c5F)c5ccc([nH]5)c(-c5c(F)c(F)c(F)c(F)c5F)c5nc(c(-c6c(F)c(F)c(F)c(F)c6F)c6ccc3[nH]6)C=C5)C=C4)cc2)c1
REMARK SMILES IDX 15 1 14 2 12 3 13 4 9 5 10 6 11 7 8 8 4 9 5 10 83 11 6 12
REMARK SMILES IDX 7 13 2 14 1 15 3 16 16 17 17 18 18 19 19 20 20 21 21 22
REMARK SMILES IDX 82 23 22 24 81 25 23 26 24 27 25 28 75 29 26 30 80 31 74 32
REMARK SMILES IDX 76 33 27 34 79 35 73 36 72 37 28 39 60 40 40 41 59 42 41 43
REMARK SMILES IDX 44 44 58 45 77 46 42 47 43 48 57 50 78 51 45 52 29 53 30 54
REMARK SMILES IDX 38 55 31 56 32 57 36 58 39 59 33 60 34 61 37 62 35 63 61 64
REMARK SMILES IDX 62 65 70 66 63 67 64 68 68 69 71 70 65 71 66 72 69 73 67 74
REMARK SMILES IDX 46 75 47 76 55 77 48 78 49 79 53 80 56 81 50 82 51 83 54 84
REMARK SMILES IDX 52 85
REMARK H PARENT 76 38 44 49
REMARK Flexibility Score: inf
ROOT
ATOM      1  C   UNL A   1      42.314  18.453  26.120  1.00  0.00     0.274 C 
ENDROOT
BRANCH   1   2
ATOM      2  O   UNL A   1      41.714  19.746  25.926  1.00  0.00    -0.461 OA
BRANCH   2   3
ATOM      3  C   UNL A   1      41.206  20.342  27.039  1.00  0.00     0.316 C 
ATOM      4  O   UNL A   1      40.778  19.715  28.003  1.00  0.00    -0.251 OA
BRANCH   3   5
ATOM      5  C   UNL A   1      41.284  21.886  26.969  1.00  0.00     0.087 C 
ATOM      6  C   UNL A   1      42.201  22.220  25.773  1.00  0.00     0.028 C 
ATOM      7  C   UNL A   1      41.953  22.427  28.253  1.00  0.00     0.028 C 
BRANCH   5   8
ATOM      8  C   UNL A   1      39.917  22.558  26.726  1.00  0.00    -0.029 A 
ATOM      9  C   UNL A   1      37.691  22.558  25.631  1.00  0.00     0.036 A 
ATOM     10  C   UNL A   1      37.459  23.824  26.182  1.00  0.00     0.026 A 
ATOM     11  C   UNL A   1      38.931  21.956  25.920  1.00  0.00     0.030 A 
ATOM     12  C   UNL A   1      38.409  24.450  26.992  1.00  0.00     0.002 A 
ATOM     13  C   UNL A   1      39.628  23.826  27.255  1.00  0.00     0.005 A 
BRANCH   9  14
ATOM     14  N   UNL A   1      36.741  21.918  24.845  1.00  0.00    -0.378 N 
ATOM     15  C   UNL A   1      36.447  20.507  25.047  1.00  0.00     0.143 C 
ATOM     16  C   UNL A   1      36.232  22.583  23.656  1.00  0.00     0.143 C 
ENDBRANCH   9  14
ENDBRANCH   5   8
ENDBRANCH   3   5
ENDBRANCH   2   3
ENDBRANCH   1   2
BRANCH   1  17
ATOM     17  C   UNL A   1      43.752  18.469  25.599  1.00  0.00     0.275 C 
BRANCH  17  18
ATOM     18  O   UNL A   1      43.865  19.352  24.465  1.00  0.00    -0.458 OA
BRANCH  18  19
ATOM     19  C   UNL A   1      45.124  19.785  24.206  1.00  0.00     0.338 C 
ATOM     20  O   UNL A   1      45.985  19.213  23.561  1.00  0.00    -0.246 OA
BRANCH  19  21
ATOM     21  C   UNL A   1      45.289  21.157  24.722  1.00  0.00     0.060 A 
ATOM     22  C   UNL A   1      45.130  22.209  23.821  1.00  0.00     0.016 A 
ATOM     23  C   UNL A   1      45.634  21.414  26.054  1.00  0.00     0.016 A 
ATOM     24  C   UNL A   1      45.284  23.525  24.254  1.00  0.00     0.010 A 
ATOM     25  C   UNL A   1      45.821  22.737  26.478  1.00  0.00     0.010 A 
ATOM     26  C   UNL A   1      45.641  23.801  25.580  1.00  0.00    -0.014 A 
BRANCH  26  27
ATOM     27  C   UNL A   1      45.890  25.214  25.966  1.00  0.00     0.031 A 
ATOM     28  C   UNL A   1      44.820  25.976  26.684  1.00  0.00     0.074 A 
ATOM     29  C   UNL A   1      47.088  25.788  25.749  1.00  0.00     0.049 A 
ATOM     30  N   UNL A   1      44.846  27.201  27.143  1.00  0.00    -0.248 NA
ATOM     31  C   UNL A   1      43.545  25.274  26.896  1.00  0.00     0.031 C 
ATOM     32  C   UNL A   1      48.197  25.146  25.061  1.00  0.00     0.029 A 
ATOM     33  N   UNL A   1      47.590  27.012  26.118  1.00  0.00    -0.354 N 
ATOM     34  C   UNL A   1      43.575  27.440  27.641  1.00  0.00     0.074 A 
ATOM     35  C   UNL A   1      42.818  26.215  27.482  1.00  0.00     0.031 C 
ATOM     36  C   UNL A   1      49.281  25.934  25.137  1.00  0.00     0.029 A 
ATOM     37  C   UNL A   1      48.929  27.165  25.836  1.00  0.00     0.049 A 
ATOM     38  H   UNL A   1      47.045  27.713  26.543  1.00  0.00     0.167 HD
ATOM     39  C   UNL A   1      43.073  28.597  28.132  1.00  0.00     0.037 A 
ATOM     40  C   UNL A   1      49.769  28.181  26.115  1.00  0.00     0.037 A 
ATOM     41  C   UNL A   1      43.829  29.813  28.278  1.00  0.00     0.049 A 
ATOM     42  C   UNL A   1      49.203  29.428  26.745  1.00  0.00     0.074 A 
ATOM     43  C   UNL A   1      43.395  31.051  28.716  1.00  0.00     0.029 A 
ATOM     44  N   UNL A   1      45.179  29.941  27.986  1.00  0.00    -0.354 N 
ATOM     45  N   UNL A   1      47.988  29.658  27.180  1.00  0.00    -0.248 NA
ATOM     46  C   UNL A   1      50.112  30.577  26.876  1.00  0.00     0.031 C 
ATOM     47  C   UNL A   1      44.473  31.941  28.650  1.00  0.00     0.029 A 
ATOM     48  C   UNL A   1      45.591  31.244  28.220  1.00  0.00     0.049 A 
ATOM     49  H   UNL A   1      45.759  29.215  27.660  1.00  0.00     0.167 HD
ATOM     50  C   UNL A   1      47.978  30.980  27.602  1.00  0.00     0.074 A 
ATOM     51  C   UNL A   1      49.326  31.483  27.440  1.00  0.00     0.031 C 
ATOM     52  C   UNL A   1      46.936  31.726  28.043  1.00  0.00     0.037 A 
BRANCH  39  53
ATOM     53  C   UNL A   1      41.607  28.624  28.434  1.00  0.00     0.064 A 
ATOM     54  C   UNL A   1      40.654  29.006  27.482  1.00  0.00     0.173 A 
ATOM     55  C   UNL A   1      41.157  28.270  29.715  1.00  0.00     0.173 A 
ATOM     56  F   UNL A   1      41.037  29.379  26.252  1.00  0.00    -0.203 F 
ATOM     57  C   UNL A   1      39.300  29.053  27.809  1.00  0.00     0.198 A 
ATOM     58  C   UNL A   1      39.803  28.294  30.031  1.00  0.00     0.198 A 
ATOM     59  F   UNL A   1      42.034  27.903  30.662  1.00  0.00    -0.203 F 
ATOM     60  F   UNL A   1      38.406  29.469  26.901  1.00  0.00    -0.200 F 
ATOM     61  C   UNL A   1      38.876  28.693  29.081  1.00  0.00     0.200 A 
ATOM     62  F   UNL A   1      39.397  27.940  31.258  1.00  0.00    -0.200 F 
ATOM     63  F   UNL A   1      37.574  28.742  29.395  1.00  0.00    -0.200 F 
ENDBRANCH  39  53
BRANCH  40  64
ATOM     64  C   UNL A   1      51.223  28.097  25.795  1.00  0.00     0.064 A 
ATOM     65  C   UNL A   1      51.678  28.296  24.481  1.00  0.00     0.173 A 
ATOM     66  C   UNL A   1      52.180  27.763  26.764  1.00  0.00     0.173 A 
ATOM     67  F   UNL A   1      50.804  28.589  23.507  1.00  0.00    -0.203 F 
ATOM     68  C   UNL A   1      53.023  28.138  24.147  1.00  0.00     0.198 A 
ATOM     69  C   UNL A   1      53.530  27.645  26.438  1.00  0.00     0.198 A 
ATOM     70  F   UNL A   1      51.805  27.551  28.034  1.00  0.00    -0.203 F 
ATOM     71  F   UNL A   1      53.415  28.269  22.873  1.00  0.00    -0.200 F 
ATOM     72  C   UNL A   1      53.949  27.819  25.127  1.00  0.00     0.200 A 
ATOM     73  F   UNL A   1      54.424  27.351  27.392  1.00  0.00    -0.200 F 
ATOM     74  F   UNL A   1      55.241  27.666  24.808  1.00  0.00    -0.200 F 
ENDBRANCH  40  64
BRANCH  52  75
ATOM     75  C   UNL A   1      47.211  33.167  28.358  1.00  0.00     0.064 A 
ATOM     76  C   UNL A   1      47.079  34.163  27.378  1.00  0.00     0.173 A 
ATOM     77  C   UNL A   1      47.564  33.561  29.656  1.00  0.00     0.173 A 
ATOM     78  F   UNL A   1      46.758  33.833  26.118  1.00  0.00    -0.203 F 
ATOM     79  C   UNL A   1      47.313  35.501  27.682  1.00  0.00     0.198 A 
ATOM     80  C   UNL A   1      47.770  34.904  29.962  1.00  0.00     0.198 A 
ATOM     81  F   UNL A   1      47.698  32.647  30.628  1.00  0.00    -0.203 F 
ATOM     82  F   UNL A   1      47.222  36.430  26.722  1.00  0.00    -0.200 F 
ATOM     83  C   UNL A   1      47.650  35.871  28.976  1.00  0.00     0.200 A 
ATOM     84  F   UNL A   1      48.086  35.262  31.215  1.00  0.00    -0.200 F 
ATOM     85  F   UNL A   1      47.867  37.160  29.269  1.00  0.00    -0.200 F 
ENDBRANCH  52  75
ENDBRANCH  26  27
ENDBRANCH  19  21
ENDBRANCH  18  19
ENDBRANCH  17  18
ENDBRANCH   1  17
TORSDOF 13
ENDMDL
MODEL 3
REMARK VINA RESULT:     -10.4      6.932     12.044
REMARK SMILES CN(C)c1cccc(C(C)(C)C(=O)OCCOC(=O)c2ccc(-c3c4nc(c(-c5c(F)c(F)c(F)c(F)c5F)c5ccc([nH]5)c(-c5c(F)c(F)c(F)c(F)c5F)c5nc(c(-c6c(F)c(F)c(F)c(F)c6F)c6ccc3[nH]6)C=C5)C=C4)cc2)c1
REMARK SMILES IDX 15 1 14 2 12 3 13 4 9 5 10 6 11 7 8 8 4 9 5 10 83 11 6 12
REMARK SMILES IDX 7 13 2 14 1 15 3 16 16 17 17 18 18 19 19 20 20 21 21 22
REMARK SMILES IDX 82 23 22 24 81 25 23 26 24 27 25 28 75 29 26 30 80 31 74 32
REMARK SMILES IDX 76 33 27 34 79 35 73 36 72 37 28 39 60 40 40 41 59 42 41 43
REMARK SMILES IDX 44 44 58 45 77 46 42 47 43 48 57 50 78 51 45 52 29 53 30 54
REMARK SMILES IDX 38 55 31 56 32 57 36 58 39 59 33 60 34 61 37 62 35 63 61 64
REMARK SMILES IDX 62 65 70 66 63 67 64 68 68 69 71 70 65 71 66 72 69 73 67 74
REMARK SMILES IDX 46 75 47 76 55 77 48 78 49 79 53 80 56 81 50 82 51 83 54 84
REMARK SMILES IDX 52 85
REMARK H PARENT 76 38 44 49
REMARK Flexibility Score: inf
ROOT
ATOM      1  C   UNL A   1      31.744  29.070  26.575  1.00  0.00     0.274 C 
ENDROOT
BRANCH   1   2
ATOM      2  O   UNL A   1      32.220  28.324  25.440  1.00  0.00    -0.461 OA
BRANCH   2   3
ATOM      3  C   UNL A   1      31.418  27.311  25.012  1.00  0.00     0.316 C 
ATOM      4  O   UNL A   1      31.006  26.421  25.749  1.00  0.00    -0.251 OA
BRANCH   3   5
ATOM      5  C   UNL A   1      31.045  27.445  23.516  1.00  0.00     0.087 C 
ATOM      6  C   UNL A   1      30.902  26.006  22.975  1.00  0.00     0.028 C 
ATOM      7  C   UNL A   1      32.204  28.130  22.757  1.00  0.00     0.028 C 
BRANCH   5   8
ATOM      8  C   UNL A   1      29.710  28.180  23.279  1.00  0.00    -0.029 A 
ATOM      9  C   UNL A   1      28.476  30.253  22.705  1.00  0.00     0.036 A 
ATOM     10  C   UNL A   1      27.280  29.567  22.952  1.00  0.00     0.026 A 
ATOM     11  C   UNL A   1      29.671  29.531  22.882  1.00  0.00     0.030 A 
ATOM     12  C   UNL A   1      27.278  28.226  23.341  1.00  0.00     0.002 A 
ATOM     13  C   UNL A   1      28.481  27.542  23.509  1.00  0.00     0.005 A 
BRANCH   9  14
ATOM     14  N   UNL A   1      28.485  31.580  22.293  1.00  0.00    -0.378 N 
ATOM     15  C   UNL A   1      28.249  31.921  20.899  1.00  0.00     0.143 C 
ATOM     16  C   UNL A   1      28.986  32.604  23.196  1.00  0.00     0.143 C 
ENDBRANCH   9  14
ENDBRANCH   5   8
ENDBRANCH   3   5
ENDBRANCH   2   3
ENDBRANCH   1   2
BRANCH   1  17
ATOM     17  C   UNL A   1      31.686  30.558  26.225  1.00  0.00     0.275 C 
BRANCH  17  18
ATOM     18  O   UNL A   1      33.015  31.113  26.172  1.00  0.00    -0.458 OA
BRANCH  18  19
ATOM     19  C   UNL A   1      33.318  31.958  27.191  1.00  0.00     0.338 C 
ATOM     20  O   UNL A   1      32.622  32.849  27.645  1.00  0.00    -0.246 OA
BRANCH  19  21
ATOM     21  C   UNL A   1      34.606  31.564  27.790  1.00  0.00     0.060 A 
ATOM     22  C   UNL A   1      34.729  30.254  28.252  1.00  0.00     0.016 A 
ATOM     23  C   UNL A   1      35.665  32.467  27.938  1.00  0.00     0.016 A 
ATOM     24  C   UNL A   1      35.922  29.831  28.836  1.00  0.00     0.010 A 
ATOM     25  C   UNL A   1      36.852  32.048  28.556  1.00  0.00     0.010 A 
ATOM     26  C   UNL A   1      36.989  30.725  29.004  1.00  0.00    -0.014 A 
BRANCH  26  27
ATOM     27  C   UNL A   1      38.200  30.251  29.721  1.00  0.00     0.031 A 
ATOM     28  C   UNL A   1      38.365  30.574  31.173  1.00  0.00     0.074 A 
ATOM     29  C   UNL A   1      39.106  29.471  29.103  1.00  0.00     0.049 A 
ATOM     30  N   UNL A   1      39.323  30.226  31.993  1.00  0.00    -0.248 NA
ATOM     31  C   UNL A   1      37.324  31.418  31.779  1.00  0.00     0.031 C 
ATOM     32  C   UNL A   1      39.050  29.096  27.699  1.00  0.00     0.029 A 
ATOM     33  N   UNL A   1      40.221  28.821  29.576  1.00  0.00    -0.354 N 
ATOM     34  C   UNL A   1      39.037  30.858  33.192  1.00  0.00     0.074 A 
ATOM     35  C   UNL A   1      37.786  31.564  33.013  1.00  0.00     0.031 C 
ATOM     36  C   UNL A   1      40.022  28.206  27.439  1.00  0.00     0.029 A 
ATOM     37  C   UNL A   1      40.806  27.988  28.649  1.00  0.00     0.049 A 
ATOM     38  H   UNL A   1      40.567  28.940  30.490  1.00  0.00     0.167 HD
ATOM     39  C   UNL A   1      39.785  30.889  34.320  1.00  0.00     0.037 A 
ATOM     40  C   UNL A   1      41.850  27.144  28.771  1.00  0.00     0.037 A 
ATOM     41  C   UNL A   1      41.033  30.193  34.486  1.00  0.00     0.049 A 
ATOM     42  C   UNL A   1      42.616  27.132  30.069  1.00  0.00     0.074 A 
ATOM     43  C   UNL A   1      41.890  30.206  35.573  1.00  0.00     0.029 A 
ATOM     44  N   UNL A   1      41.603  29.358  33.537  1.00  0.00    -0.354 N 
ATOM     45  N   UNL A   1      42.357  27.764  31.189  1.00  0.00    -0.248 NA
ATOM     46  C   UNL A   1      43.848  26.331  30.106  1.00  0.00     0.031 C 
ATOM     47  C   UNL A   1      43.000  29.410  35.263  1.00  0.00     0.029 A 
ATOM     48  C   UNL A   1      42.809  28.862  34.005  1.00  0.00     0.049 A 
ATOM     49  H   UNL A   1      41.209  29.148  32.658  1.00  0.00     0.167 HD
ATOM     50  C   UNL A   1      43.407  27.464  32.046  1.00  0.00     0.074 A 
ATOM     51  C   UNL A   1      44.270  26.537  31.345  1.00  0.00     0.031 C 
ATOM     52  C   UNL A   1      43.658  27.946  33.287  1.00  0.00     0.037 A 
BRANCH  39  53
ATOM     53  C   UNL A   1      39.323  31.802  35.413  1.00  0.00     0.064 A 
ATOM     54  C   UNL A   1      38.500  31.363  36.458  1.00  0.00     0.173 A 
ATOM     55  C   UNL A   1      39.710  33.151  35.397  1.00  0.00     0.173 A 
ATOM     56  F   UNL A   1      38.083  30.089  36.501  1.00  0.00    -0.203 F 
ATOM     57  C   UNL A   1      38.061  32.250  37.439  1.00  0.00     0.198 A 
ATOM     58  C   UNL A   1      39.290  34.028  36.392  1.00  0.00     0.198 A 
ATOM     59  F   UNL A   1      40.493  33.619  34.413  1.00  0.00    -0.203 F 
ATOM     60  F   UNL A   1      37.234  31.824  38.403  1.00  0.00    -0.200 F 
ATOM     61  C   UNL A   1      38.460  33.579  37.407  1.00  0.00     0.200 A 
ATOM     62  F   UNL A   1      39.682  35.309  36.362  1.00  0.00    -0.200 F 
ATOM     63  F   UNL A   1      38.034  34.431  38.350  1.00  0.00    -0.200 F 
ENDBRANCH  39  53
BRANCH  40  64
ATOM     64  C   UNL A   1      42.264  26.255  27.649  1.00  0.00     0.064 A 
ATOM     65  C   UNL A   1      41.692  24.980  27.499  1.00  0.00     0.173 A 
ATOM     66  C   UNL A   1      43.267  26.621  26.740  1.00  0.00     0.173 A 
ATOM     67  F   UNL A   1      40.748  24.565  28.356  1.00  0.00    -0.203 F 
ATOM     68  C   UNL A   1      42.127  24.102  26.506  1.00  0.00     0.198 A 
ATOM     69  C   UNL A   1      43.673  25.758  25.724  1.00  0.00     0.198 A 
ATOM     70  F   UNL A   1      43.858  27.820  26.838  1.00  0.00    -0.203 F 
ATOM     71  F   UNL A   1      41.608  22.869  26.431  1.00  0.00    -0.200 F 
ATOM     72  C   UNL A   1      43.112  24.494  25.615  1.00  0.00     0.200 A 
ATOM     73  F   UNL A   1      44.616  26.148  24.855  1.00  0.00    -0.200 F 
ATOM     74  F   UNL A   1      43.531  23.652  24.662  1.00  0.00    -0.200 F 
ENDBRANCH  40  64
BRANCH  52  75
ATOM     75  C   UNL A   1      44.926  27.499  33.952  1.00  0.00     0.064 A 
ATOM     76  C   UNL A   1      46.126  28.205  33.780  1.00  0.00     0.173 A 
ATOM     77  C   UNL A   1      44.933  26.384  34.803  1.00  0.00     0.173 A 
ATOM     78  F   UNL A   1      46.173  29.269  32.964  1.00  0.00    -0.203 F 
ATOM     79  C   UNL A   1      47.294  27.798  34.418  1.00  0.00     0.198 A 
ATOM     80  C   UNL A   1      46.097  25.996  35.461  1.00  0.00     0.198 A 
ATOM     81  F   UNL A   1      43.810  25.679  35.003  1.00  0.00    -0.203 F 
ATOM     82  F   UNL A   1      48.438  28.462  34.206  1.00  0.00    -0.200 F 
ATOM     83  C   UNL A   1      47.276  26.699  35.264  1.00  0.00     0.200 A 
ATOM     84  F   UNL A   1      46.077  24.940  36.286  1.00  0.00    -0.200 F 
ATOM     85  F   UNL A   1      48.399  26.313  35.884  1.00  0.00    -0.200 F 
ENDBRANCH  52  75
ENDBRANCH  26  27
ENDBRANCH  19  21
ENDBRANCH  18  19
ENDBRANCH  17  18
ENDBRANCH   1  17
TORSDOF 13
ENDMDL
