MODEL 1
REMARK VINA RESULT:     -12.5      0.000      0.000
REMARK SMILES O=C(OCCOC(=O)[C@@H]1CCn2c(C(=O)c3ccccc3)ccc21)c1ccc(-c2c3nc(c(-c4c(F)c(F)c(F)c(F)c4F)c4ccc([nH]4)c(-c4c(F)c(F)c(F)c(F)c4F)c4nc(c(-c5c(F)c(F)c(F)c(F)c5F)c5ccc2[nH]5)C=C4)C=C3)cc1
REMARK SMILES IDX 4 1 3 2 2 3 1 4 25 5 26 6 87 7 27 8 86 9 28 10 29 11 30 12
REMARK SMILES IDX 80 13 31 14 85 15 79 16 81 17 32 18 84 19 78 20 77 21 33 23
REMARK SMILES IDX 65 24 45 25 64 26 46 27 49 28 63 29 82 30 47 31 48 32 62 34
REMARK SMILES IDX 83 35 50 36 34 37 35 38 43 39 36 40 37 41 41 42 44 43 38 44
REMARK SMILES IDX 39 45 42 46 40 47 66 48 67 49 75 50 68 51 69 52 73 53 76 54
REMARK SMILES IDX 70 55 71 56 74 57 72 58 51 59 52 60 60 61 53 62 54 63 58 64
REMARK SMILES IDX 61 65 55 66 56 67 59 68 57 69 5 70 6 71 7 72 8 73 9 74 10 75
REMARK SMILES IDX 24 76 11 77 12 78 23 79 13 80 22 81 14 82 15 83 16 84 17 85
REMARK SMILES IDX 21 86 18 87 20 88 19 89
REMARK H PARENT 81 22 49 33
REMARK Flexibility Score: inf
ROOT
ATOM      1  C   UNL A   1      31.777  29.717  26.744  1.00  0.00     0.275 C 
ENDROOT
BRANCH   1   2
ATOM      2  O   UNL A   1      32.799  30.678  26.439  1.00  0.00    -0.458 OA
BRANCH   2   3
ATOM      3  C   UNL A   1      33.512  31.461  27.279  1.00  0.00     0.338 C 
ATOM      4  O   UNL A   1      33.119  32.609  27.484  1.00  0.00    -0.246 OA
BRANCH   3   5
ATOM      5  C   UNL A   1      34.860  31.088  27.830  1.00  0.00     0.060 A 
ATOM      6  C   UNL A   1      35.963  31.929  28.001  1.00  0.00     0.016 A 
ATOM      7  C   UNL A   1      34.968  29.768  28.315  1.00  0.00     0.016 A 
ATOM      8  C   UNL A   1      37.089  31.521  28.726  1.00  0.00     0.010 A 
ATOM      9  C   UNL A   1      36.071  29.365  29.072  1.00  0.00     0.010 A 
ATOM     10  C   UNL A   1      37.136  30.251  29.297  1.00  0.00    -0.014 A 
BRANCH  10  11
ATOM     11  C   UNL A   1      38.358  29.792  29.993  1.00  0.00     0.031 A 
ATOM     12  C   UNL A   1      38.570  30.301  31.385  1.00  0.00     0.074 A 
ATOM     13  C   UNL A   1      39.248  28.962  29.414  1.00  0.00     0.049 A 
ATOM     14  N   UNL A   1      39.582  30.135  32.191  1.00  0.00    -0.248 NA
ATOM     15  C   UNL A   1      37.501  31.160  31.924  1.00  0.00     0.031 C 
ATOM     16  C   UNL A   1      39.147  28.401  28.066  1.00  0.00     0.029 A 
ATOM     17  N   UNL A   1      40.428  28.445  29.893  1.00  0.00    -0.354 N 
ATOM     18  C   UNL A   1      39.278  30.890  33.313  1.00  0.00     0.074 A 
ATOM     19  C   UNL A   1      38.049  31.597  33.041  1.00  0.00     0.031 C 
ATOM     20  C   UNL A   1      40.218  27.623  27.826  1.00  0.00     0.029 A 
ATOM     21  C   UNL A   1      41.088  27.635  28.998  1.00  0.00     0.049 A 
ATOM     22  H   UNL A   1      40.769  28.637  30.796  1.00  0.00     0.167 HD
ATOM     23  C   UNL A   1      39.935  30.949  34.492  1.00  0.00     0.037 A 
ATOM     24  C   UNL A   1      42.261  26.982  29.125  1.00  0.00     0.037 A 
ATOM     25  C   UNL A   1      41.133  30.212  34.761  1.00  0.00     0.049 A 
ATOM     26  C   UNL A   1      42.999  27.079  30.439  1.00  0.00     0.074 A 
ATOM     27  C   UNL A   1      41.880  30.167  35.921  1.00  0.00     0.029 A 
ATOM     28  N   UNL A   1      41.758  29.383  33.839  1.00  0.00    -0.354 N 
ATOM     29  N   UNL A   1      42.673  27.747  31.523  1.00  0.00    -0.248 NA
ATOM     30  C   UNL A   1      44.255  26.325  30.559  1.00  0.00     0.031 C 
ATOM     31  C   UNL A   1      42.987  29.346  35.685  1.00  0.00     0.029 A 
ATOM     32  C   UNL A   1      42.898  28.835  34.397  1.00  0.00     0.049 A 
ATOM     33  H   UNL A   1      41.439  29.210  32.924  1.00  0.00     0.167 HD
ATOM     34  C   UNL A   1      43.661  27.468  32.459  1.00  0.00     0.074 A 
ATOM     35  C   UNL A   1      44.594  26.562  31.819  1.00  0.00     0.031 C 
ATOM     36  C   UNL A   1      43.789  27.916  33.733  1.00  0.00     0.037 A 
BRANCH  23  37
ATOM     37  C   UNL A   1      39.352  31.860  35.531  1.00  0.00     0.064 A 
ATOM     38  C   UNL A   1      39.752  33.203  35.642  1.00  0.00     0.173 A 
ATOM     39  C   UNL A   1      38.476  31.354  36.500  1.00  0.00     0.173 A 
ATOM     40  F   UNL A   1      40.617  33.725  34.758  1.00  0.00    -0.203 F 
ATOM     41  C   UNL A   1      39.359  33.979  36.728  1.00  0.00     0.198 A 
ATOM     42  C   UNL A   1      38.049  32.148  37.562  1.00  0.00     0.198 A 
ATOM     43  F   UNL A   1      38.065  30.078  36.442  1.00  0.00    -0.203 F 
ATOM     44  F   UNL A   1      39.849  35.218  36.875  1.00  0.00    -0.200 F 
ATOM     45  C   UNL A   1      38.509  33.451  37.687  1.00  0.00     0.200 A 
ATOM     46  F   UNL A   1      37.225  31.638  38.486  1.00  0.00    -0.200 F 
ATOM     47  F   UNL A   1      38.155  34.189  38.749  1.00  0.00    -0.200 F 
ENDBRANCH  23  37
BRANCH  24  48
ATOM     48  C   UNL A   1      42.804  26.165  28.002  1.00  0.00     0.064 A 
ATOM     49  C   UNL A   1      43.633  26.731  27.021  1.00  0.00     0.173 A 
ATOM     50  C   UNL A   1      42.480  24.806  27.865  1.00  0.00     0.173 A 
ATOM     51  F   UNL A   1      43.958  28.029  27.091  1.00  0.00    -0.203 F 
ATOM     52  C   UNL A   1      44.090  25.981  25.937  1.00  0.00     0.198 A 
ATOM     53  C   UNL A   1      42.959  24.050  26.794  1.00  0.00     0.198 A 
ATOM     54  F   UNL A   1      41.693  24.209  28.774  1.00  0.00    -0.203 F 
ATOM     55  F   UNL A   1      44.837  26.564  24.989  1.00  0.00    -0.200 F 
ATOM     56  C   UNL A   1      43.755  24.640  25.826  1.00  0.00     0.200 A 
ATOM     57  F   UNL A   1      42.641  22.752  26.697  1.00  0.00    -0.200 F 
ATOM     58  F   UNL A   1      44.193  23.922  24.782  1.00  0.00    -0.200 F 
ENDBRANCH  24  48
BRANCH  36  59
ATOM     59  C   UNL A   1      44.948  27.407  34.538  1.00  0.00     0.064 A 
ATOM     60  C   UNL A   1      46.154  28.118  34.621  1.00  0.00     0.173 A 
ATOM     61  C   UNL A   1      44.803  26.256  35.327  1.00  0.00     0.173 A 
ATOM     62  F   UNL A   1      46.342  29.218  33.876  1.00  0.00    -0.203 F 
ATOM     63  C   UNL A   1      47.176  27.689  35.462  1.00  0.00     0.198 A 
ATOM     64  C   UNL A   1      45.814  25.850  36.191  1.00  0.00     0.198 A 
ATOM     65  F   UNL A   1      43.664  25.549  35.289  1.00  0.00    -0.203 F 
ATOM     66  F   UNL A   1      48.331  28.367  35.509  1.00  0.00    -0.200 F 
ATOM     67  C   UNL A   1      47.000  26.566  36.258  1.00  0.00     0.200 A 
ATOM     68  F   UNL A   1      45.634  24.777  36.974  1.00  0.00    -0.200 F 
ATOM     69  F   UNL A   1      47.974  26.174  37.090  1.00  0.00    -0.200 F 
ENDBRANCH  36  59
ENDBRANCH  10  11
ENDBRANCH   3   5
ENDBRANCH   2   3
ENDBRANCH   1   2
BRANCH   1  70
ATOM     70  C   UNL A   1      32.260  28.265  26.648  1.00  0.00     0.274 C 
BRANCH  70  71
ATOM     71  O   UNL A   1      33.203  28.035  25.582  1.00  0.00    -0.462 OA
BRANCH  71  72
ATOM     72  C   UNL A   1      33.101  26.838  24.912  1.00  0.00     0.315 C 
ATOM     73  O   UNL A   1      33.622  25.794  25.289  1.00  0.00    -0.251 OA
BRANCH  72  74
ATOM     74  C   UNL A   1      32.277  27.029  23.643  1.00  0.00     0.148 C 
ATOM     75  C   UNL A   1      32.387  28.481  23.163  1.00  0.00     0.043 C 
ATOM     76  C   UNL A   1      30.804  26.906  23.802  1.00  0.00     0.033 A 
ATOM     77  C   UNL A   1      31.025  28.938  22.656  1.00  0.00     0.124 C 
ATOM     78  N   UNL A   1      30.135  27.973  23.259  1.00  0.00    -0.341 N 
ATOM     79  C   UNL A   1      29.879  26.033  24.295  1.00  0.00     0.025 A 
ATOM     80  C   UNL A   1      28.792  27.883  23.436  1.00  0.00     0.090 A 
ATOM     81  C   UNL A   1      28.616  26.648  24.069  1.00  0.00     0.032 A 
BRANCH  80  82
ATOM     82  C   UNL A   1      27.732  28.832  23.118  1.00  0.00     0.209 C 
ATOM     83  O   UNL A   1      26.542  28.575  23.299  1.00  0.00    -0.287 OA
BRANCH  82  84
ATOM     84  C   UNL A   1      28.018  30.193  22.603  1.00  0.00     0.024 A 
ATOM     85  C   UNL A   1      28.176  31.232  23.529  1.00  0.00     0.012 A 
ATOM     86  C   UNL A   1      28.023  30.473  21.233  1.00  0.00     0.012 A 
ATOM     87  C   UNL A   1      28.370  32.542  23.086  1.00  0.00     0.001 A 
ATOM     88  C   UNL A   1      28.229  31.785  20.793  1.00  0.00     0.001 A 
ATOM     89  C   UNL A   1      28.402  32.816  21.720  1.00  0.00     0.000 A 
ENDBRANCH  82  84
ENDBRANCH  80  82
ENDBRANCH  72  74
ENDBRANCH  71  72
ENDBRANCH  70  71
ENDBRANCH   1  70
TORSDOF 13
ENDMDL
MODEL 2
REMARK VINA RESULT:     -12.5      2.156      4.090
REMARK SMILES O=C(OCCOC(=O)[C@@H]1CCn2c(C(=O)c3ccccc3)ccc21)c1ccc(-c2c3nc(c(-c4c(F)c(F)c(F)c(F)c4F)c4ccc([nH]4)c(-c4c(F)c(F)c(F)c(F)c4F)c4nc(c(-c5c(F)c(F)c(F)c(F)c5F)c5ccc2[nH]5)C=C4)C=C3)cc1
REMARK SMILES IDX 4 1 3 2 2 3 1 4 25 5 26 6 87 7 27 8 86 9 28 10 29 11 30 12
REMARK SMILES IDX 80 13 31 14 85 15 79 16 81 17 32 18 84 19 78 20 77 21 33 23
REMARK SMILES IDX 65 24 45 25 64 26 46 27 49 28 63 29 82 30 47 31 48 32 62 34
REMARK SMILES IDX 83 35 50 36 34 37 35 38 43 39 36 40 37 41 41 42 44 43 38 44
REMARK SMILES IDX 39 45 42 46 40 47 66 48 67 49 75 50 68 51 69 52 73 53 76 54
REMARK SMILES IDX 70 55 71 56 74 57 72 58 51 59 52 60 60 61 53 62 54 63 58 64
REMARK SMILES IDX 61 65 55 66 56 67 59 68 57 69 5 70 6 71 7 72 8 73 9 74 10 75
REMARK SMILES IDX 24 76 11 77 12 78 23 79 13 80 22 81 14 82 15 83 16 84 17 85
REMARK SMILES IDX 21 86 18 87 20 88 19 89
REMARK H PARENT 81 22 49 33
REMARK Flexibility Score: inf
ROOT
ATOM      1  C   UNL A   1      31.405  32.171  26.838  1.00  0.00     0.275 C 
ENDROOT
BRANCH   1   2
ATOM      2  O   UNL A   1      32.504  33.093  26.801  1.00  0.00    -0.458 OA
BRANCH   2   3
ATOM      3  C   UNL A   1      33.255  33.566  27.822  1.00  0.00     0.338 C 
ATOM      4  O   UNL A   1      32.959  34.656  28.310  1.00  0.00    -0.246 OA
BRANCH   3   5
ATOM      5  C   UNL A   1      34.545  32.940  28.272  1.00  0.00     0.060 A 
ATOM      6  C   UNL A   1      35.817  33.522  28.254  1.00  0.00     0.016 A 
ATOM      7  C   UNL A   1      34.422  31.668  28.868  1.00  0.00     0.016 A 
ATOM      8  C   UNL A   1      36.904  32.924  28.901  1.00  0.00     0.010 A 
ATOM      9  C   UNL A   1      35.492  31.082  29.549  1.00  0.00     0.010 A 
ATOM     10  C   UNL A   1      36.742  31.720  29.583  1.00  0.00    -0.014 A 
BRANCH  10  11
ATOM     11  C   UNL A   1      37.908  31.049  30.198  1.00  0.00     0.031 A 
ATOM     12  C   UNL A   1      38.204  31.390  31.626  1.00  0.00     0.074 A 
ATOM     13  C   UNL A   1      38.679  30.177  29.518  1.00  0.00     0.049 A 
ATOM     14  N   UNL A   1      39.200  31.023  32.384  1.00  0.00    -0.248 NA
ATOM     15  C   UNL A   1      37.259  32.317  32.273  1.00  0.00     0.031 C 
ATOM     16  C   UNL A   1      38.486  29.767  28.126  1.00  0.00     0.029 A 
ATOM     17  N   UNL A   1      39.792  29.476  29.913  1.00  0.00    -0.354 N 
ATOM     18  C   UNL A   1      39.011  31.697  33.580  1.00  0.00     0.074 A 
ATOM     19  C   UNL A   1      37.876  32.572  33.412  1.00  0.00     0.031 C 
ATOM     20  C   UNL A   1      39.448  28.891  27.783  1.00  0.00     0.029 A 
ATOM     21  C   UNL A   1      40.332  28.683  28.927  1.00  0.00     0.049 A 
ATOM     22  H   UNL A   1      40.170  29.535  30.820  1.00  0.00     0.167 HD
ATOM     23  C   UNL A   1      39.689  31.560  34.740  1.00  0.00     0.037 A 
ATOM     24  C   UNL A   1      41.416  27.881  28.958  1.00  0.00     0.037 A 
ATOM     25  C   UNL A   1      40.791  30.658  34.905  1.00  0.00     0.049 A 
ATOM     26  C   UNL A   1      42.182  27.758  30.254  1.00  0.00     0.074 A 
ATOM     27  C   UNL A   1      41.544  30.410  36.033  1.00  0.00     0.029 A 
ATOM     28  N   UNL A   1      41.293  29.853  33.891  1.00  0.00    -0.354 N 
ATOM     29  N   UNL A   1      41.959  28.352  31.405  1.00  0.00    -0.248 NA
ATOM     30  C   UNL A   1      43.336  26.848  30.266  1.00  0.00     0.031 C 
ATOM     31  C   UNL A   1      42.536  29.486  35.690  1.00  0.00     0.029 A 
ATOM     32  C   UNL A   1      42.364  29.118  34.362  1.00  0.00     0.049 A 
ATOM     33  H   UNL A   1      40.939  29.811  32.973  1.00  0.00     0.167 HD
ATOM     34  C   UNL A   1      42.920  27.864  32.282  1.00  0.00     0.074 A 
ATOM     35  C   UNL A   1      43.723  26.918  31.533  1.00  0.00     0.031 C 
ATOM     36  C   UNL A   1      43.124  28.166  33.589  1.00  0.00     0.037 A 
BRANCH  23  37
ATOM     37  C   UNL A   1      39.241  32.429  35.878  1.00  0.00     0.064 A 
ATOM     38  C   UNL A   1      39.819  33.688  36.115  1.00  0.00     0.173 A 
ATOM     39  C   UNL A   1      38.311  31.948  36.808  1.00  0.00     0.173 A 
ATOM     40  F   UNL A   1      40.741  34.178  35.271  1.00  0.00    -0.203 F 
ATOM     41  C   UNL A   1      39.541  34.395  37.281  1.00  0.00     0.198 A 
ATOM     42  C   UNL A   1      38.002  32.679  37.953  1.00  0.00     0.198 A 
ATOM     43  F   UNL A   1      37.731  30.751  36.631  1.00  0.00    -0.203 F 
ATOM     44  F   UNL A   1      40.195  35.535  37.542  1.00  0.00    -0.200 F 
ATOM     45  C   UNL A   1      38.634  33.889  38.199  1.00  0.00     0.200 A 
ATOM     46  F   UNL A   1      37.122  32.191  38.838  1.00  0.00    -0.200 F 
ATOM     47  F   UNL A   1      38.390  34.555  39.336  1.00  0.00    -0.200 F 
ENDBRANCH  23  37
BRANCH  24  48
ATOM     48  C   UNL A   1      41.836  27.117  27.747  1.00  0.00     0.064 A 
ATOM     49  C   UNL A   1      41.348  25.826  27.494  1.00  0.00     0.173 A 
ATOM     50  C   UNL A   1      42.760  27.648  26.834  1.00  0.00     0.173 A 
ATOM     51  F   UNL A   1      40.479  25.262  28.344  1.00  0.00    -0.203 F 
ATOM     52  C   UNL A   1      41.788  25.088  26.394  1.00  0.00     0.198 A 
ATOM     53  C   UNL A   1      43.180  26.919  25.721  1.00  0.00     0.198 A 
ATOM     54  F   UNL A   1      43.259  28.879  27.023  1.00  0.00    -0.203 F 
ATOM     55  F   UNL A   1      41.343  23.837  26.208  1.00  0.00    -0.200 F 
ATOM     56  C   UNL A   1      42.701  25.636  25.507  1.00  0.00     0.200 A 
ATOM     57  F   UNL A   1      44.055  27.458  24.860  1.00  0.00    -0.200 F 
ATOM     58  F   UNL A   1      43.125  24.925  24.453  1.00  0.00    -0.200 F 
ENDBRANCH  24  48
BRANCH  36  59
ATOM     59  C   UNL A   1      44.223  27.444  34.309  1.00  0.00     0.064 A 
ATOM     60  C   UNL A   1      45.502  28.000  34.445  1.00  0.00     0.173 A 
ATOM     61  C   UNL A   1      43.953  26.235  34.969  1.00  0.00     0.173 A 
ATOM     62  F   UNL A   1      45.810  29.148  33.822  1.00  0.00    -0.203 F 
ATOM     63  C   UNL A   1      46.475  27.368  35.212  1.00  0.00     0.198 A 
ATOM     64  C   UNL A   1      44.918  25.624  35.763  1.00  0.00     0.198 A 
ATOM     65  F   UNL A   1      42.740  25.670  34.877  1.00  0.00    -0.203 F 
ATOM     66  F   UNL A   1      47.701  27.902  35.310  1.00  0.00    -0.200 F 
ATOM     67  C   UNL A   1      46.178  26.189  35.883  1.00  0.00     0.200 A 
ATOM     68  F   UNL A   1      44.622  24.497  36.427  1.00  0.00    -0.200 F 
ATOM     69  F   UNL A   1      47.107  25.599  36.647  1.00  0.00    -0.200 F 
ENDBRANCH  36  59
ENDBRANCH  10  11
ENDBRANCH   3   5
ENDBRANCH   2   3
ENDBRANCH   1   2
BRANCH   1  70
ATOM     70  C   UNL A   1      31.840  30.703  26.767  1.00  0.00     0.274 C 
BRANCH  70  71
ATOM     71  O   UNL A   1      32.691  30.403  25.643  1.00  0.00    -0.462 OA
BRANCH  71  72
ATOM     72  C   UNL A   1      32.223  29.475  24.742  1.00  0.00     0.315 C 
ATOM     73  O   UNL A   1      31.034  29.257  24.535  1.00  0.00    -0.251 OA
BRANCH  72  74
ATOM     74  C   UNL A   1      33.398  28.763  24.081  1.00  0.00     0.148 C 
ATOM     75  C   UNL A   1      33.089  28.507  22.601  1.00  0.00     0.043 C 
ATOM     76  C   UNL A   1      33.660  27.376  24.547  1.00  0.00     0.033 A 
ATOM     77  C   UNL A   1      33.614  27.131  22.217  1.00  0.00     0.124 C 
ATOM     78  N   UNL A   1      33.767  26.492  23.503  1.00  0.00    -0.341 N 
ATOM     79  C   UNL A   1      33.870  26.688  25.706  1.00  0.00     0.025 A 
ATOM     80  C   UNL A   1      33.969  25.217  23.927  1.00  0.00     0.090 A 
ATOM     81  C   UNL A   1      34.060  25.333  25.318  1.00  0.00     0.032 A 
BRANCH  80  82
ATOM     82  C   UNL A   1      34.029  23.971  23.173  1.00  0.00     0.209 C 
ATOM     83  O   UNL A   1      33.696  23.900  21.991  1.00  0.00    -0.287 OA
BRANCH  82  84
ATOM     84  C   UNL A   1      34.545  22.713  23.765  1.00  0.00     0.024 A 
ATOM     85  C   UNL A   1      33.628  21.696  24.060  1.00  0.00     0.012 A 
ATOM     86  C   UNL A   1      35.887  22.569  24.131  1.00  0.00     0.012 A 
ATOM     87  C   UNL A   1      34.058  20.525  24.687  1.00  0.00     0.001 A 
ATOM     88  C   UNL A   1      36.315  21.390  24.750  1.00  0.00     0.001 A 
ATOM     89  C   UNL A   1      35.401  20.371  25.027  1.00  0.00     0.000 A 
ENDBRANCH  82  84
ENDBRANCH  80  82
ENDBRANCH  72  74
ENDBRANCH  71  72
ENDBRANCH  70  71
ENDBRANCH   1  70
TORSDOF 13
ENDMDL
MODEL 3
REMARK VINA RESULT:     -12.4      3.930      7.271
REMARK SMILES O=C(OCCOC(=O)[C@@H]1CCn2c(C(=O)c3ccccc3)ccc21)c1ccc(-c2c3nc(c(-c4c(F)c(F)c(F)c(F)c4F)c4ccc([nH]4)c(-c4c(F)c(F)c(F)c(F)c4F)c4nc(c(-c5c(F)c(F)c(F)c(F)c5F)c5ccc2[nH]5)C=C4)C=C3)cc1
REMARK SMILES IDX 4 1 3 2 2 3 1 4 25 5 26 6 87 7 27 8 86 9 28 10 29 11 30 12
REMARK SMILES IDX 80 13 31 14 85 15 79 16 81 17 32 18 84 19 78 20 77 21 33 23
REMARK SMILES IDX 65 24 45 25 64 26 46 27 49 28 63 29 82 30 47 31 48 32 62 34
REMARK SMILES IDX 83 35 50 36 34 37 35 38 43 39 36 40 37 41 41 42 44 43 38 44
REMARK SMILES IDX 39 45 42 46 40 47 66 48 67 49 75 50 68 51 69 52 73 53 76 54
REMARK SMILES IDX 70 55 71 56 74 57 72 58 51 59 52 60 60 61 53 62 54 63 58 64
REMARK SMILES IDX 61 65 55 66 56 67 59 68 57 69 5 70 6 71 7 72 8 73 9 74 10 75
REMARK SMILES IDX 24 76 11 77 12 78 23 79 13 80 22 81 14 82 15 83 16 84 17 85
REMARK SMILES IDX 21 86 18 87 20 88 19 89
REMARK H PARENT 81 22 49 33
REMARK Flexibility Score: inf
ROOT
ATOM      1  C   UNL A   1      34.277  33.336  28.019  1.00  0.00     0.275 C 
ENDROOT
BRANCH   1   2
ATOM      2  O   UNL A   1      33.667  32.044  27.886  1.00  0.00    -0.458 OA
BRANCH   2   3
ATOM      3  C   UNL A   1      34.253  30.833  27.742  1.00  0.00     0.338 C 
ATOM      4  O   UNL A   1      33.617  29.937  27.189  1.00  0.00    -0.246 OA
BRANCH   3   5
ATOM      5  C   UNL A   1      35.557  30.454  28.386  1.00  0.00     0.060 A 
ATOM      6  C   UNL A   1      35.736  29.829  29.624  1.00  0.00     0.016 A 
ATOM      7  C   UNL A   1      36.704  30.666  27.593  1.00  0.00     0.016 A 
ATOM      8  C   UNL A   1      36.983  29.328  30.017  1.00  0.00     0.010 A 
ATOM      9  C   UNL A   1      37.944  30.135  27.961  1.00  0.00     0.010 A 
ATOM     10  C   UNL A   1      38.086  29.444  29.175  1.00  0.00    -0.014 A 
BRANCH  10  11
ATOM     11  C   UNL A   1      39.418  28.988  29.624  1.00  0.00     0.031 A 
ATOM     12  C   UNL A   1      40.096  29.817  30.670  1.00  0.00     0.074 A 
ATOM     13  C   UNL A   1      40.010  27.885  29.122  1.00  0.00     0.049 A 
ATOM     14  N   UNL A   1      41.290  29.705  31.183  1.00  0.00    -0.248 NA
ATOM     15  C   UNL A   1      39.326  30.968  31.175  1.00  0.00     0.031 C 
ATOM     16  C   UNL A   1      39.446  26.999  28.103  1.00  0.00     0.029 A 
ATOM     17  N   UNL A   1      41.231  27.321  29.404  1.00  0.00    -0.354 N 
ATOM     18  C   UNL A   1      41.417  30.784  32.044  1.00  0.00     0.074 A 
ATOM     19  C   UNL A   1      40.230  31.593  31.904  1.00  0.00     0.031 C 
ATOM     20  C   UNL A   1      40.318  26.008  27.843  1.00  0.00     0.029 A 
ATOM     21  C   UNL A   1      41.508  26.191  28.670  1.00  0.00     0.049 A 
ATOM     22  H   UNL A   1      41.851  27.692  30.072  1.00  0.00     0.167 HD
ATOM     23  C   UNL A   1      42.410  31.050  32.920  1.00  0.00     0.037 A 
ATOM     24  C   UNL A   1      42.601  25.401  28.677  1.00  0.00     0.037 A 
ATOM     25  C   UNL A   1      43.564  30.216  33.076  1.00  0.00     0.049 A 
ATOM     26  C   UNL A   1      43.716  25.727  29.642  1.00  0.00     0.074 A 
ATOM     27  C   UNL A   1      44.627  30.364  33.943  1.00  0.00     0.029 A 
ATOM     28  N   UNL A   1      43.798  29.067  32.334  1.00  0.00    -0.354 N 
ATOM     29  N   UNL A   1      43.802  26.716  30.502  1.00  0.00    -0.248 NA
ATOM     30  C   UNL A   1      44.877  24.826  29.652  1.00  0.00     0.031 C 
ATOM     31  C   UNL A   1      45.531  29.327  33.692  1.00  0.00     0.029 A 
ATOM     32  C   UNL A   1      45.003  28.502  32.708  1.00  0.00     0.049 A 
ATOM     33  H   UNL A   1      43.196  28.706  31.643  1.00  0.00     0.167 HD
ATOM     34  C   UNL A   1      45.004  26.538  31.175  1.00  0.00     0.074 A 
ATOM     35  C   UNL A   1      45.611  25.340  30.630  1.00  0.00     0.031 C 
ATOM     36  C   UNL A   1      45.561  27.292  32.156  1.00  0.00     0.037 A 
BRANCH  23  37
ATOM     37  C   UNL A   1      42.260  32.302  33.733  1.00  0.00     0.064 A 
ATOM     38  C   UNL A   1      41.678  32.284  35.013  1.00  0.00     0.173 A 
ATOM     39  C   UNL A   1      42.590  33.546  33.179  1.00  0.00     0.173 A 
ATOM     40  F   UNL A   1      41.312  31.120  35.572  1.00  0.00    -0.203 F 
ATOM     41  C   UNL A   1      41.361  33.469  35.670  1.00  0.00     0.198 A 
ATOM     42  C   UNL A   1      42.310  34.728  33.860  1.00  0.00     0.198 A 
ATOM     43  F   UNL A   1      43.145  33.619  31.960  1.00  0.00    -0.203 F 
ATOM     44  F   UNL A   1      40.698  33.428  36.834  1.00  0.00    -0.200 F 
ATOM     45  C   UNL A   1      41.676  34.689  35.094  1.00  0.00     0.200 A 
ATOM     46  F   UNL A   1      42.619  35.907  33.304  1.00  0.00    -0.200 F 
ATOM     47  F   UNL A   1      41.343  35.830  35.714  1.00  0.00    -0.200 F 
ENDBRANCH  23  37
BRANCH  24  48
ATOM     48  C   UNL A   1      42.695  24.221  27.770  1.00  0.00     0.064 A 
ATOM     49  C   UNL A   1      42.386  22.928  28.219  1.00  0.00     0.173 A 
ATOM     50  C   UNL A   1      43.130  24.356  26.442  1.00  0.00     0.173 A 
ATOM     51  F   UNL A   1      41.986  22.739  29.484  1.00  0.00    -0.203 F 
ATOM     52  C   UNL A   1      42.534  21.817  27.387  1.00  0.00     0.198 A 
ATOM     53  C   UNL A   1      43.253  23.247  25.604  1.00  0.00     0.198 A 
ATOM     54  F   UNL A   1      43.437  25.568  25.956  1.00  0.00    -0.203 F 
ATOM     55  F   UNL A   1      42.281  20.590  27.862  1.00  0.00    -0.200 F 
ATOM     56  C   UNL A   1      42.965  21.977  26.080  1.00  0.00     0.200 A 
ATOM     57  F   UNL A   1      43.660  23.409  24.337  1.00  0.00    -0.200 F 
ATOM     58  F   UNL A   1      43.110  20.909  25.283  1.00  0.00    -0.200 F 
ENDBRANCH  24  48
BRANCH  36  59
ATOM     59  C   UNL A   1      46.864  26.830  32.738  1.00  0.00     0.064 A 
ATOM     60  C   UNL A   1      48.093  27.289  32.243  1.00  0.00     0.173 A 
ATOM     61  C   UNL A   1      46.873  26.011  33.876  1.00  0.00     0.173 A 
ATOM     62  F   UNL A   1      48.134  28.065  31.150  1.00  0.00    -0.203 F 
ATOM     63  C   UNL A   1      49.286  26.939  32.867  1.00  0.00     0.198 A 
ATOM     64  C   UNL A   1      48.065  25.691  34.517  1.00  0.00     0.198 A 
ATOM     65  F   UNL A   1      45.721  25.556  34.392  1.00  0.00    -0.203 F 
ATOM     66  F   UNL A   1      50.453  27.367  32.365  1.00  0.00    -0.200 F 
ATOM     67  C   UNL A   1      49.271  26.154  34.012  1.00  0.00     0.200 A 
ATOM     68  F   UNL A   1      48.047  24.950  35.634  1.00  0.00    -0.200 F 
ATOM     69  F   UNL A   1      50.419  25.845  34.628  1.00  0.00    -0.200 F 
ENDBRANCH  36  59
ENDBRANCH  10  11
ENDBRANCH   3   5
ENDBRANCH   2   3
ENDBRANCH   1   2
BRANCH   1  70
ATOM     70  C   UNL A   1      33.265  34.485  28.063  1.00  0.00     0.274 C 
BRANCH  70  71
ATOM     71  O   UNL A   1      32.618  34.641  29.342  1.00  0.00    -0.462 OA
BRANCH  71  72
ATOM     72  C   UNL A   1      33.013  35.712  30.110  1.00  0.00     0.315 C 
ATOM     73  O   UNL A   1      33.217  36.836  29.666  1.00  0.00    -0.251 OA
BRANCH  72  74
ATOM     74  C   UNL A   1      33.175  35.271  31.560  1.00  0.00     0.148 C 
ATOM     75  C   UNL A   1      33.578  36.469  32.428  1.00  0.00     0.043 C 
ATOM     76  C   UNL A   1      34.304  34.345  31.833  1.00  0.00     0.033 A 
ATOM     77  C   UNL A   1      34.611  36.012  33.450  1.00  0.00     0.124 C 
ATOM     78  N   UNL A   1      35.088  34.777  32.873  1.00  0.00    -0.341 N 
ATOM     79  C   UNL A   1      34.804  33.153  31.395  1.00  0.00     0.025 A 
ATOM     80  C   UNL A   1      36.143  33.953  33.101  1.00  0.00     0.090 A 
ATOM     81  C   UNL A   1      35.960  32.909  32.188  1.00  0.00     0.032 A 
BRANCH  80  82
ATOM     82  C   UNL A   1      37.265  34.089  34.021  1.00  0.00     0.209 C 
ATOM     83  O   UNL A   1      38.084  35.003  33.929  1.00  0.00    -0.287 OA
BRANCH  82  84
ATOM     84  C   UNL A   1      37.470  33.164  35.161  1.00  0.00     0.024 A 
ATOM     85  C   UNL A   1      37.297  33.664  36.458  1.00  0.00     0.012 A 
ATOM     86  C   UNL A   1      37.930  31.857  34.973  1.00  0.00     0.012 A 
ATOM     87  C   UNL A   1      37.553  32.849  37.563  1.00  0.00     0.001 A 
ATOM     88  C   UNL A   1      38.175  31.041  36.083  1.00  0.00     0.001 A 
ATOM     89  C   UNL A   1      37.986  31.538  37.374  1.00  0.00     0.000 A 
ENDBRANCH  82  84
ENDBRANCH  80  82
ENDBRANCH  72  74
ENDBRANCH  71  72
ENDBRANCH  70  71
ENDBRANCH   1  70
TORSDOF 13
ENDMDL
