MODEL 1
REMARK VINA RESULT:     -11.6      0.000      0.000
REMARK SMILES Cc1ccc(F)cc1NC(=O)c1nn(C)cc1C(=O)OCCOC(=O)c1ccc(-c2c3nc(c(-c4c(F)c(F)c(F)c(F)c4F)c4ccc([nH]4)c(-c4c(F)c(F)c(F)c(F)c4F)c4nc(c(-c5c(F)c(F)c(F)c(F)c5F)c5ccc2[nH]5)C=C4)C=C3)cc1
REMARK SMILES IDX 21 1 20 2 18 3 19 4 17 5 12 6 13 7 14 8 16 9 15 10 10 11
REMARK SMILES IDX 9 12 11 14 8 15 1 16 2 17 3 18 4 19 7 20 5 21 6 22 22 23
REMARK SMILES IDX 23 24 24 25 25 26 26 27 27 28 88 29 28 30 87 31 29 32 30 33
REMARK SMILES IDX 31 34 81 35 32 36 86 37 80 38 82 39 33 40 85 41 79 42 78 43
REMARK SMILES IDX 34 45 66 46 46 47 65 48 47 49 50 50 64 51 83 52 48 53 49 54
REMARK SMILES IDX 63 56 84 57 51 58 35 59 36 60 44 61 37 62 38 63 42 64 45 65
REMARK SMILES IDX 39 66 40 67 43 68 41 69 67 70 68 71 76 72 69 73 70 74 74 75
REMARK SMILES IDX 77 76 71 77 72 78 75 79 73 80 52 81 53 82 61 83 54 84 55 85
REMARK SMILES IDX 59 86 62 87 56 88 57 89 60 90 58 91
REMARK H PARENT 9 13 82 44 50 55
REMARK Flexibility Score: inf
ROOT
ATOM      1  C   UNL A   1      40.723  21.308  26.724  1.00  0.00     0.275 C 
ENDROOT
BRANCH   1   2
ATOM      2  O   UNL A   1      41.688  21.151  25.676  1.00  0.00    -0.458 OA
BRANCH   2   3
ATOM      3  C   UNL A   1      42.209  19.898  25.599  1.00  0.00     0.342 C 
ATOM      4  O   UNL A   1      41.561  18.873  25.774  1.00  0.00    -0.246 OA
BRANCH   3   5
ATOM      5  C   UNL A   1      43.644  19.891  25.400  1.00  0.00     0.111 A 
ATOM      6  C   UNL A   1      44.542  20.856  24.850  1.00  0.00     0.165 A 
ATOM      7  N   UNL A   1      45.806  20.387  24.858  1.00  0.00    -0.167 NA
ATOM      8  N   UNL A   1      45.724  19.176  25.406  1.00  0.00    -0.274 N 
ATOM      9  C   UNL A   1      44.460  18.824  25.747  1.00  0.00     0.125 A 
ATOM     10  C   UNL A   1      46.922  18.390  25.570  1.00  0.00     0.173 C 
BRANCH   6  11
ATOM     11  C   UNL A   1      44.298  22.138  24.193  1.00  0.00     0.277 C 
ATOM     12  N   UNL A   1      44.034  23.323  24.861  1.00  0.00    -0.320 N 
ATOM     13  H   UNL A   1      43.638  24.011  24.279  1.00  0.00     0.170 HD
ATOM     14  O   UNL A   1      44.367  22.203  22.962  1.00  0.00    -0.267 OA
BRANCH  12  15
ATOM     15  C   UNL A   1      44.205  23.759  26.191  1.00  0.00     0.047 A 
ATOM     16  C   UNL A   1      46.740  24.106  25.813  1.00  0.00     0.046 C 
ATOM     17  C   UNL A   1      45.507  24.068  26.667  1.00  0.00    -0.027 A 
ATOM     18  C   UNL A   1      45.699  24.435  28.010  1.00  0.00     0.008 A 
ATOM     19  C   UNL A   1      44.623  24.514  28.880  1.00  0.00     0.039 A 
ATOM     20  C   UNL A   1      43.144  23.838  27.088  1.00  0.00     0.065 A 
ATOM     21  C   UNL A   1      43.357  24.229  28.406  1.00  0.00     0.125 A 
ATOM     22  F   UNL A   1      42.309  24.319  29.233  1.00  0.00    -0.207 F 
ENDBRANCH  12  15
ENDBRANCH   6  11
ENDBRANCH   3   5
ENDBRANCH   2   3
ENDBRANCH   1   2
BRANCH   1  23
ATOM     23  C   UNL A   1      39.327  21.388  26.126  1.00  0.00     0.275 C 
BRANCH  23  24
ATOM     24  O   UNL A   1      38.931  22.636  25.523  1.00  0.00    -0.458 OA
BRANCH  24  25
ATOM     25  C   UNL A   1      38.159  23.575  26.117  1.00  0.00     0.338 C 
ATOM     26  O   UNL A   1      36.996  23.850  25.891  1.00  0.00    -0.246 OA
BRANCH  25  27
ATOM     27  C   UNL A   1      39.106  24.404  26.911  1.00  0.00     0.060 A 
ATOM     28  C   UNL A   1      38.903  24.549  28.286  1.00  0.00     0.016 A 
ATOM     29  C   UNL A   1      39.978  25.265  26.246  1.00  0.00     0.016 A 
ATOM     30  C   UNL A   1      39.363  25.705  28.940  1.00  0.00     0.010 A 
ATOM     31  C   UNL A   1      40.403  26.417  26.889  1.00  0.00     0.010 A 
ATOM     32  C   UNL A   1      39.997  26.701  28.204  1.00  0.00    -0.014 A 
BRANCH  32  33
ATOM     33  C   UNL A   1      40.451  27.986  28.746  1.00  0.00     0.031 A 
ATOM     34  C   UNL A   1      39.463  29.089  28.774  1.00  0.00     0.074 A 
ATOM     35  C   UNL A   1      41.514  28.107  29.584  1.00  0.00     0.049 A 
ATOM     36  N   UNL A   1      39.729  30.299  29.143  1.00  0.00    -0.248 NA
ATOM     37  C   UNL A   1      38.074  28.888  28.375  1.00  0.00     0.031 C 
ATOM     38  C   UNL A   1      41.509  28.946  30.784  1.00  0.00     0.029 A 
ATOM     39  N   UNL A   1      42.832  27.638  29.514  1.00  0.00    -0.354 N 
ATOM     40  C   UNL A   1      38.524  30.910  29.366  1.00  0.00     0.074 A 
ATOM     41  C   UNL A   1      37.530  30.038  28.776  1.00  0.00     0.031 C 
ATOM     42  C   UNL A   1      42.760  29.128  31.212  1.00  0.00     0.029 A 
ATOM     43  C   UNL A   1      43.656  28.513  30.257  1.00  0.00     0.049 A 
ATOM     44  H   UNL A   1      43.132  26.835  29.029  1.00  0.00     0.167 HD
ATOM     45  C   UNL A   1      38.438  32.007  30.169  1.00  0.00     0.037 A 
ATOM     46  C   UNL A   1      44.871  29.024  29.914  1.00  0.00     0.037 A 
ATOM     47  C   UNL A   1      39.716  32.411  30.747  1.00  0.00     0.049 A 
ATOM     48  C   UNL A   1      44.881  30.536  29.834  1.00  0.00     0.074 A 
ATOM     49  C   UNL A   1      40.306  32.293  31.995  1.00  0.00     0.029 A 
ATOM     50  N   UNL A   1      40.728  32.823  29.902  1.00  0.00    -0.354 N 
ATOM     51  N   UNL A   1      43.977  31.318  30.348  1.00  0.00    -0.248 NA
ATOM     52  C   UNL A   1      45.831  31.259  28.986  1.00  0.00     0.031 C 
ATOM     53  C   UNL A   1      41.659  32.724  31.898  1.00  0.00     0.029 A 
ATOM     54  C   UNL A   1      41.903  33.083  30.585  1.00  0.00     0.049 A 
ATOM     55  H   UNL A   1      40.626  32.920  28.928  1.00  0.00     0.167 HD
ATOM     56  C   UNL A   1      44.064  32.545  29.736  1.00  0.00     0.074 A 
ATOM     57  C   UNL A   1      45.263  32.470  28.923  1.00  0.00     0.031 C 
ATOM     58  C   UNL A   1      43.082  33.490  29.835  1.00  0.00     0.037 A 
BRANCH  45  59
ATOM     59  C   UNL A   1      37.101  32.536  30.602  1.00  0.00     0.064 A 
ATOM     60  C   UNL A   1      36.341  33.392  29.784  1.00  0.00     0.173 A 
ATOM     61  C   UNL A   1      36.544  32.249  31.863  1.00  0.00     0.173 A 
ATOM     62  F   UNL A   1      36.714  33.679  28.532  1.00  0.00    -0.203 F 
ATOM     63  C   UNL A   1      35.173  34.004  30.239  1.00  0.00     0.198 A 
ATOM     64  C   UNL A   1      35.415  32.915  32.343  1.00  0.00     0.198 A 
ATOM     65  F   UNL A   1      37.089  31.316  32.659  1.00  0.00    -0.203 F 
ATOM     66  F   UNL A   1      34.489  34.816  29.421  1.00  0.00    -0.200 F 
ATOM     67  C   UNL A   1      34.734  33.800  31.533  1.00  0.00     0.200 A 
ATOM     68  F   UNL A   1      35.004  32.705  33.602  1.00  0.00    -0.200 F 
ATOM     69  F   UNL A   1      33.653  34.444  31.991  1.00  0.00    -0.200 F 
ENDBRANCH  45  59
BRANCH  46  70
ATOM     70  C   UNL A   1      45.695  28.155  29.063  1.00  0.00     0.064 A 
ATOM     71  C   UNL A   1      45.530  28.232  27.673  1.00  0.00     0.173 A 
ATOM     72  C   UNL A   1      46.856  27.572  29.570  1.00  0.00     0.173 A 
ATOM     73  F   UNL A   1      44.389  28.713  27.154  1.00  0.00    -0.203 F 
ATOM     74  C   UNL A   1      46.574  27.893  26.822  1.00  0.00     0.198 A 
ATOM     75  C   UNL A   1      47.903  27.248  28.720  1.00  0.00     0.198 A 
ATOM     76  F   UNL A   1      47.027  27.463  30.896  1.00  0.00    -0.203 F 
ATOM     77  F   UNL A   1      46.445  28.072  25.500  1.00  0.00    -0.200 F 
ATOM     78  C   UNL A   1      47.776  27.445  27.351  1.00  0.00     0.200 A 
ATOM     79  F   UNL A   1      49.060  26.831  29.243  1.00  0.00    -0.200 F 
ATOM     80  F   UNL A   1      48.822  27.239  26.540  1.00  0.00    -0.200 F 
ENDBRANCH  46  70
BRANCH  58  81
ATOM     81  C   UNL A   1      43.147  34.825  29.128  1.00  0.00     0.064 A 
ATOM     82  C   UNL A   1      43.092  34.938  27.728  1.00  0.00     0.173 A 
ATOM     83  C   UNL A   1      43.324  36.043  29.823  1.00  0.00     0.173 A 
ATOM     84  F   UNL A   1      43.072  33.846  26.948  1.00  0.00    -0.203 F 
ATOM     85  C   UNL A   1      43.079  36.177  27.082  1.00  0.00     0.198 A 
ATOM     86  C   UNL A   1      43.375  37.276  29.172  1.00  0.00     0.198 A 
ATOM     87  F   UNL A   1      43.432  36.093  31.155  1.00  0.00    -0.203 F 
ATOM     88  F   UNL A   1      42.927  36.231  25.751  1.00  0.00    -0.200 F 
ATOM     89  C   UNL A   1      43.219  37.346  27.804  1.00  0.00     0.200 A 
ATOM     90  F   UNL A   1      43.561  38.394  29.887  1.00  0.00    -0.200 F 
ATOM     91  F   UNL A   1      43.214  38.534  27.186  1.00  0.00    -0.200 F 
ENDBRANCH  58  81
ENDBRANCH  32  33
ENDBRANCH  25  27
ENDBRANCH  24  25
ENDBRANCH  23  24
ENDBRANCH   1  23
TORSDOF 13
ENDMDL
MODEL 2
REMARK VINA RESULT:     -11.3      4.865     10.957
REMARK SMILES Cc1ccc(F)cc1NC(=O)c1nn(C)cc1C(=O)OCCOC(=O)c1ccc(-c2c3nc(c(-c4c(F)c(F)c(F)c(F)c4F)c4ccc([nH]4)c(-c4c(F)c(F)c(F)c(F)c4F)c4nc(c(-c5c(F)c(F)c(F)c(F)c5F)c5ccc2[nH]5)C=C4)C=C3)cc1
REMARK SMILES IDX 21 1 20 2 18 3 19 4 17 5 12 6 13 7 14 8 16 9 15 10 10 11
REMARK SMILES IDX 9 12 11 14 8 15 1 16 2 17 3 18 4 19 7 20 5 21 6 22 22 23
REMARK SMILES IDX 23 24 24 25 25 26 26 27 27 28 88 29 28 30 87 31 29 32 30 33
REMARK SMILES IDX 31 34 81 35 32 36 86 37 80 38 82 39 33 40 85 41 79 42 78 43
REMARK SMILES IDX 34 45 66 46 46 47 65 48 47 49 50 50 64 51 83 52 48 53 49 54
REMARK SMILES IDX 63 56 84 57 51 58 35 59 36 60 44 61 37 62 38 63 42 64 45 65
REMARK SMILES IDX 39 66 40 67 43 68 41 69 67 70 68 71 76 72 69 73 70 74 74 75
REMARK SMILES IDX 77 76 71 77 72 78 75 79 73 80 52 81 53 82 61 83 54 84 55 85
REMARK SMILES IDX 59 86 62 87 56 88 57 89 60 90 58 91
REMARK H PARENT 9 13 82 44 50 55
REMARK Flexibility Score: inf
ROOT
ATOM      1  C   UNL A   1      34.160  29.191  27.570  1.00  0.00     0.275 C 
ENDROOT
BRANCH   1   2
ATOM      2  O   UNL A   1      33.569  28.241  26.674  1.00  0.00    -0.458 OA
BRANCH   2   3
ATOM      3  C   UNL A   1      32.258  27.991  26.932  1.00  0.00     0.342 C 
ATOM      4  O   UNL A   1      31.792  27.871  28.059  1.00  0.00    -0.246 OA
BRANCH   3   5
ATOM      5  C   UNL A   1      31.476  27.763  25.734  1.00  0.00     0.111 A 
ATOM      6  C   UNL A   1      30.673  26.662  25.308  1.00  0.00     0.165 A 
ATOM      7  N   UNL A   1      30.144  26.903  24.091  1.00  0.00    -0.167 NA
ATOM      8  N   UNL A   1      30.579  28.117  23.758  1.00  0.00    -0.274 N 
ATOM      9  C   UNL A   1      31.379  28.679  24.697  1.00  0.00     0.125 A 
ATOM     10  C   UNL A   1      30.185  28.688  22.493  1.00  0.00     0.173 C 
BRANCH   6  11
ATOM     11  C   UNL A   1      30.460  25.338  25.890  1.00  0.00     0.277 C 
ATOM     12  N   UNL A   1      31.244  24.229  25.619  1.00  0.00    -0.320 N 
ATOM     13  H   UNL A   1      30.812  23.382  25.876  1.00  0.00     0.170 HD
ATOM     14  O   UNL A   1      29.552  25.184  26.712  1.00  0.00    -0.267 OA
BRANCH  12  15
ATOM     15  C   UNL A   1      32.523  24.045  25.055  1.00  0.00     0.047 A 
ATOM     16  C   UNL A   1      31.511  22.828  23.010  1.00  0.00     0.046 C 
ATOM     17  C   UNL A   1      32.659  23.316  23.843  1.00  0.00    -0.027 A 
ATOM     18  C   UNL A   1      33.935  23.066  23.310  1.00  0.00     0.008 A 
ATOM     19  C   UNL A   1      35.071  23.536  23.947  1.00  0.00     0.039 A 
ATOM     20  C   UNL A   1      33.681  24.498  25.679  1.00  0.00     0.065 A 
ATOM     21  C   UNL A   1      34.931  24.259  25.117  1.00  0.00     0.125 A 
ATOM     22  F   UNL A   1      36.021  24.733  25.732  1.00  0.00    -0.207 F 
ENDBRANCH  12  15
ENDBRANCH   6  11
ENDBRANCH   3   5
ENDBRANCH   2   3
ENDBRANCH   1   2
BRANCH   1  23
ATOM     23  C   UNL A   1      33.840  30.603  27.102  1.00  0.00     0.275 C 
BRANCH  23  24
ATOM     24  O   UNL A   1      33.236  31.500  28.055  1.00  0.00    -0.458 OA
BRANCH  24  25
ATOM     25  C   UNL A   1      33.505  32.823  28.155  1.00  0.00     0.338 C 
ATOM     26  O   UNL A   1      32.966  33.748  27.577  1.00  0.00    -0.246 OA
BRANCH  25  27
ATOM     27  C   UNL A   1      34.789  32.898  28.901  1.00  0.00     0.060 A 
ATOM     28  C   UNL A   1      35.932  33.375  28.253  1.00  0.00     0.016 A 
ATOM     29  C   UNL A   1      34.915  32.213  30.109  1.00  0.00     0.016 A 
ATOM     30  C   UNL A   1      37.202  32.944  28.672  1.00  0.00     0.010 A 
ATOM     31  C   UNL A   1      36.168  31.767  30.499  1.00  0.00     0.010 A 
ATOM     32  C   UNL A   1      37.305  32.030  29.715  1.00  0.00    -0.014 A 
BRANCH  32  33
ATOM     33  C   UNL A   1      38.558  31.439  30.196  1.00  0.00     0.031 A 
ATOM     34  C   UNL A   1      38.942  30.125  29.631  1.00  0.00     0.074 A 
ATOM     35  C   UNL A   1      39.559  32.169  30.756  1.00  0.00     0.049 A 
ATOM     36  N   UNL A   1      39.969  29.439  30.009  1.00  0.00    -0.248 NA
ATOM     37  C   UNL A   1      38.165  29.487  28.573  1.00  0.00     0.031 C 
ATOM     38  C   UNL A   1      40.975  31.989  30.431  1.00  0.00     0.029 A 
ATOM     39  N   UNL A   1      39.574  33.116  31.789  1.00  0.00    -0.354 N 
ATOM     40  C   UNL A   1      40.181  28.493  29.040  1.00  0.00     0.074 A 
ATOM     41  C   UNL A   1      38.982  28.490  28.229  1.00  0.00     0.031 C 
ATOM     42  C   UNL A   1      41.729  32.590  31.353  1.00  0.00     0.029 A 
ATOM     43  C   UNL A   1      40.855  33.101  32.386  1.00  0.00     0.049 A 
ATOM     44  H   UNL A   1      38.822  33.693  32.053  1.00  0.00     0.167 HD
ATOM     45  C   UNL A   1      41.404  27.911  28.893  1.00  0.00     0.037 A 
ATOM     46  C   UNL A   1      41.169  33.114  33.712  1.00  0.00     0.037 A 
ATOM     47  C   UNL A   1      42.407  28.410  29.829  1.00  0.00     0.049 A 
ATOM     48  C   UNL A   1      41.942  31.889  34.154  1.00  0.00     0.074 A 
ATOM     49  C   UNL A   1      43.483  29.278  29.738  1.00  0.00     0.029 A 
ATOM     50  N   UNL A   1      42.216  28.205  31.182  1.00  0.00    -0.354 N 
ATOM     51  N   UNL A   1      42.555  31.064  33.356  1.00  0.00    -0.248 NA
ATOM     52  C   UNL A   1      41.904  31.409  35.536  1.00  0.00     0.031 C 
ATOM     53  C   UNL A   1      43.983  29.517  31.049  1.00  0.00     0.029 A 
ATOM     54  C   UNL A   1      43.197  28.813  31.943  1.00  0.00     0.049 A 
ATOM     55  H   UNL A   1      41.469  27.687  31.559  1.00  0.00     0.167 HD
ATOM     56  C   UNL A   1      42.767  29.885  34.028  1.00  0.00     0.074 A 
ATOM     57  C   UNL A   1      42.380  30.164  35.398  1.00  0.00     0.031 C 
ATOM     58  C   UNL A   1      43.121  28.727  33.394  1.00  0.00     0.037 A 
BRANCH  45  59
ATOM     59  C   UNL A   1      41.704  27.055  27.696  1.00  0.00     0.064 A 
ATOM     60  C   UNL A   1      41.544  25.658  27.723  1.00  0.00     0.173 A 
ATOM     61  C   UNL A   1      42.205  27.585  26.492  1.00  0.00     0.173 A 
ATOM     62  F   UNL A   1      41.001  25.034  28.775  1.00  0.00    -0.203 F 
ATOM     63  C   UNL A   1      41.962  24.845  26.669  1.00  0.00     0.198 A 
ATOM     64  C   UNL A   1      42.687  26.769  25.467  1.00  0.00     0.198 A 
ATOM     65  F   UNL A   1      42.240  28.910  26.286  1.00  0.00    -0.203 F 
ATOM     66  F   UNL A   1      41.792  23.519  26.748  1.00  0.00    -0.200 F 
ATOM     67  C   UNL A   1      42.574  25.397  25.561  1.00  0.00     0.200 A 
ATOM     68  F   UNL A   1      43.279  27.323  24.399  1.00  0.00    -0.200 F 
ATOM     69  F   UNL A   1      43.039  24.610  24.582  1.00  0.00    -0.200 F 
ENDBRANCH  45  59
BRANCH  46  70
ATOM     70  C   UNL A   1      40.219  33.835  34.570  1.00  0.00     0.064 A 
ATOM     71  C   UNL A   1      39.176  33.111  35.164  1.00  0.00     0.173 A 
ATOM     72  C   UNL A   1      40.553  35.084  35.092  1.00  0.00     0.173 A 
ATOM     73  F   UNL A   1      38.776  31.944  34.635  1.00  0.00    -0.203 F 
ATOM     74  C   UNL A   1      38.604  33.551  36.351  1.00  0.00     0.198 A 
ATOM     75  C   UNL A   1      39.992  35.515  36.286  1.00  0.00     0.198 A 
ATOM     76  F   UNL A   1      41.531  35.807  34.527  1.00  0.00    -0.203 F 
ATOM     77  F   UNL A   1      37.682  32.800  36.969  1.00  0.00    -0.200 F 
ATOM     78  C   UNL A   1      39.046  34.730  36.934  1.00  0.00     0.200 A 
ATOM     79  F   UNL A   1      40.437  36.644  36.844  1.00  0.00    -0.200 F 
ATOM     80  F   UNL A   1      38.585  35.088  38.139  1.00  0.00    -0.200 F 
ENDBRANCH  46  70
BRANCH  58  81
ATOM     81  C   UNL A   1      43.312  27.414  34.119  1.00  0.00     0.064 A 
ATOM     82  C   UNL A   1      44.585  26.875  34.376  1.00  0.00     0.173 A 
ATOM     83  C   UNL A   1      42.225  26.614  34.537  1.00  0.00     0.173 A 
ATOM     84  F   UNL A   1      45.693  27.465  33.901  1.00  0.00    -0.203 F 
ATOM     85  C   UNL A   1      44.760  25.698  35.109  1.00  0.00     0.198 A 
ATOM     86  C   UNL A   1      42.400  25.407  35.214  1.00  0.00     0.198 A 
ATOM     87  F   UNL A   1      40.954  26.975  34.327  1.00  0.00    -0.203 F 
ATOM     88  F   UNL A   1      45.997  25.280  35.409  1.00  0.00    -0.200 F 
ATOM     89  C   UNL A   1      43.667  24.966  35.530  1.00  0.00     0.200 A 
ATOM     90  F   UNL A   1      41.328  24.686  35.569  1.00  0.00    -0.200 F 
ATOM     91  F   UNL A   1      43.833  23.834  36.226  1.00  0.00    -0.200 F 
ENDBRANCH  58  81
ENDBRANCH  32  33
ENDBRANCH  25  27
ENDBRANCH  24  25
ENDBRANCH  23  24
ENDBRANCH   1  23
TORSDOF 13
ENDMDL
MODEL 3
REMARK VINA RESULT:     -11.2      4.418     12.223
REMARK SMILES Cc1ccc(F)cc1NC(=O)c1nn(C)cc1C(=O)OCCOC(=O)c1ccc(-c2c3nc(c(-c4c(F)c(F)c(F)c(F)c4F)c4ccc([nH]4)c(-c4c(F)c(F)c(F)c(F)c4F)c4nc(c(-c5c(F)c(F)c(F)c(F)c5F)c5ccc2[nH]5)C=C4)C=C3)cc1
REMARK SMILES IDX 21 1 20 2 18 3 19 4 17 5 12 6 13 7 14 8 16 9 15 10 10 11
REMARK SMILES IDX 9 12 11 14 8 15 1 16 2 17 3 18 4 19 7 20 5 21 6 22 22 23
REMARK SMILES IDX 23 24 24 25 25 26 26 27 27 28 88 29 28 30 87 31 29 32 30 33
REMARK SMILES IDX 31 34 81 35 32 36 86 37 80 38 82 39 33 40 85 41 79 42 78 43
REMARK SMILES IDX 34 45 66 46 46 47 65 48 47 49 50 50 64 51 83 52 48 53 49 54
REMARK SMILES IDX 63 56 84 57 51 58 35 59 36 60 44 61 37 62 38 63 42 64 45 65
REMARK SMILES IDX 39 66 40 67 43 68 41 69 67 70 68 71 76 72 69 73 70 74 74 75
REMARK SMILES IDX 77 76 71 77 72 78 75 79 73 80 52 81 53 82 61 83 54 84 55 85
REMARK SMILES IDX 59 86 62 87 56 88 57 89 60 90 58 91
REMARK H PARENT 9 13 82 44 50 55
REMARK Flexibility Score: inf
ROOT
ATOM      1  C   UNL A   1      35.169  34.499  28.794  1.00  0.00     0.275 C 
ENDROOT
BRANCH   1   2
ATOM      2  O   UNL A   1      33.988  34.031  29.459  1.00  0.00    -0.458 OA
BRANCH   2   3
ATOM      3  C   UNL A   1      33.147  35.028  29.840  1.00  0.00     0.342 C 
ATOM      4  O   UNL A   1      32.260  35.487  29.130  1.00  0.00    -0.246 OA
BRANCH   3   5
ATOM      5  C   UNL A   1      33.474  35.583  31.138  1.00  0.00     0.111 A 
ATOM      6  C   UNL A   1      33.839  34.975  32.378  1.00  0.00     0.165 A 
ATOM      7  N   UNL A   1      34.035  35.911  33.327  1.00  0.00    -0.167 NA
ATOM      8  N   UNL A   1      33.819  37.075  32.717  1.00  0.00    -0.274 N 
ATOM      9  C   UNL A   1      33.478  36.942  31.410  1.00  0.00     0.125 A 
ATOM     10  C   UNL A   1      33.953  38.302  33.463  1.00  0.00     0.173 C 
BRANCH   6  11
ATOM     11  C   UNL A   1      33.895  33.572  32.786  1.00  0.00     0.277 C 
ATOM     12  N   UNL A   1      34.985  32.741  32.586  1.00  0.00    -0.320 N 
ATOM     13  H   UNL A   1      34.760  31.787  32.674  1.00  0.00     0.170 HD
ATOM     14  O   UNL A   1      32.933  33.085  33.388  1.00  0.00    -0.267 OA
BRANCH  12  15
ATOM     15  C   UNL A   1      36.344  32.960  32.282  1.00  0.00     0.047 A 
ATOM     16  C   UNL A   1      36.759  33.996  34.615  1.00  0.00     0.046 C 
ATOM     17  C   UNL A   1      37.177  33.621  33.224  1.00  0.00    -0.027 A 
ATOM     18  C   UNL A   1      38.515  33.908  32.903  1.00  0.00     0.008 A 
ATOM     19  C   UNL A   1      39.041  33.540  31.676  1.00  0.00     0.039 A 
ATOM     20  C   UNL A   1      36.896  32.609  31.054  1.00  0.00     0.065 A 
ATOM     21  C   UNL A   1      38.230  32.882  30.771  1.00  0.00     0.125 A 
ATOM     22  F   UNL A   1      38.733  32.505  29.589  1.00  0.00    -0.207 F 
ENDBRANCH  12  15
ENDBRANCH   6  11
ENDBRANCH   3   5
ENDBRANCH   2   3
ENDBRANCH   1   2
BRANCH   1  23
ATOM     23  C   UNL A   1      35.446  33.632  27.575  1.00  0.00     0.275 C 
BRANCH  23  24
ATOM     24  O   UNL A   1      35.993  32.318  27.803  1.00  0.00    -0.458 OA
BRANCH  24  25
ATOM     25  C   UNL A   1      35.279  31.167  27.797  1.00  0.00     0.338 C 
ATOM     26  O   UNL A   1      34.070  31.030  27.797  1.00  0.00    -0.246 OA
BRANCH  25  27
ATOM     27  C   UNL A   1      36.272  30.098  28.082  1.00  0.00     0.060 A 
ATOM     28  C   UNL A   1      36.310  29.518  29.353  1.00  0.00     0.016 A 
ATOM     29  C   UNL A   1      37.340  29.910  27.205  1.00  0.00     0.016 A 
ATOM     30  C   UNL A   1      37.513  28.977  29.837  1.00  0.00     0.010 A 
ATOM     31  C   UNL A   1      38.532  29.403  27.697  1.00  0.00     0.010 A 
ATOM     32  C   UNL A   1      38.659  29.045  29.051  1.00  0.00    -0.014 A 
BRANCH  32  33
ATOM     33  C   UNL A   1      39.992  28.594  29.466  1.00  0.00     0.031 A 
ATOM     34  C   UNL A   1      40.392  27.226  29.064  1.00  0.00     0.074 A 
ATOM     35  C   UNL A   1      40.999  29.447  29.789  1.00  0.00     0.049 A 
ATOM     36  N   UNL A   1      41.496  26.654  29.418  1.00  0.00    -0.248 NA
ATOM     37  C   UNL A   1      39.547  26.396  28.212  1.00  0.00     0.031 C 
ATOM     38  C   UNL A   1      42.380  29.281  29.332  1.00  0.00     0.029 A 
ATOM     39  N   UNL A   1      41.067  30.543  30.658  1.00  0.00    -0.354 N 
ATOM     40  C   UNL A   1      41.660  25.579  28.585  1.00  0.00     0.074 A 
ATOM     41  C   UNL A   1      40.382  25.395  27.929  1.00  0.00     0.031 C 
ATOM     42  C   UNL A   1      43.191  30.053  30.058  1.00  0.00     0.029 A 
ATOM     43  C   UNL A   1      42.404  30.679  31.098  1.00  0.00     0.049 A 
ATOM     44  H   UNL A   1      40.314  31.120  30.919  1.00  0.00     0.167 HD
ATOM     45  C   UNL A   1      42.893  25.037  28.386  1.00  0.00     0.037 A 
ATOM     46  C   UNL A   1      42.859  30.914  32.360  1.00  0.00     0.037 A 
ATOM     47  C   UNL A   1      43.958  25.720  29.112  1.00  0.00     0.049 A 
ATOM     48  C   UNL A   1      43.749  29.809  32.888  1.00  0.00     0.074 A 
ATOM     49  C   UNL A   1      44.962  26.610  28.766  1.00  0.00     0.029 A 
ATOM     50  N   UNL A   1      43.929  25.721  30.493  1.00  0.00    -0.354 N 
ATOM     51  N   UNL A   1      44.323  28.897  32.158  1.00  0.00    -0.248 NA
ATOM     52  C   UNL A   1      43.892  29.550  34.322  1.00  0.00     0.031 C 
ATOM     53  C   UNL A   1      45.585  27.075  29.959  1.00  0.00     0.029 A 
ATOM     54  C   UNL A   1      44.946  26.485  31.035  1.00  0.00     0.049 A 
ATOM     55  H   UNL A   1      43.261  25.236  31.029  1.00  0.00     0.167 HD
ATOM     56  C   UNL A   1      44.679  27.849  32.970  1.00  0.00     0.074 A 
ATOM     57  C   UNL A   1      44.427  28.322  34.318  1.00  0.00     0.031 C 
ATOM     58  C   UNL A   1      45.034  26.623  32.481  1.00  0.00     0.037 A 
BRANCH  45  59
ATOM     59  C   UNL A   1      43.115  24.018  27.304  1.00  0.00     0.064 A 
ATOM     60  C   UNL A   1      42.765  22.666  27.474  1.00  0.00     0.173 A 
ATOM     61  C   UNL A   1      43.723  24.337  26.075  1.00  0.00     0.173 A 
ATOM     62  F   UNL A   1      42.107  22.243  28.559  1.00  0.00    -0.203 F 
ATOM     63  C   UNL A   1      43.105  21.691  26.536  1.00  0.00     0.198 A 
ATOM     64  C   UNL A   1      44.125  23.354  25.170  1.00  0.00     0.198 A 
ATOM     65  F   UNL A   1      43.946  25.614  25.730  1.00  0.00    -0.203 F 
ATOM     66  F   UNL A   1      42.753  20.416  26.749  1.00  0.00    -0.200 F 
ATOM     67  C   UNL A   1      43.823  22.028  25.405  1.00  0.00     0.200 A 
ATOM     68  F   UNL A   1      44.822  23.700  24.078  1.00  0.00    -0.200 F 
ATOM     69  F   UNL A   1      44.209  21.081  24.541  1.00  0.00    -0.200 F 
ENDBRANCH  45  59
BRANCH  46  70
ATOM     70  C   UNL A   1      41.964  31.716  33.205  1.00  0.00     0.064 A 
ATOM     71  C   UNL A   1      40.995  31.052  33.971  1.00  0.00     0.173 A 
ATOM     72  C   UNL A   1      42.306  33.026  33.543  1.00  0.00     0.173 A 
ATOM     73  F   UNL A   1      40.586  29.823  33.622  1.00  0.00    -0.203 F 
ATOM     74  C   UNL A   1      40.513  31.623  35.141  1.00  0.00     0.198 A 
ATOM     75  C   UNL A   1      41.835  33.589  34.721  1.00  0.00     0.198 A 
ATOM     76  F   UNL A   1      43.211  33.692  32.812  1.00  0.00    -0.203 F 
ATOM     77  F   UNL A   1      39.668  30.936  35.923  1.00  0.00    -0.200 F 
ATOM     78  C   UNL A   1      40.970  32.872  35.538  1.00  0.00     0.200 A 
ATOM     79  F   UNL A   1      42.293  34.785  35.099  1.00  0.00    -0.200 F 
ATOM     80  F   UNL A   1      40.601  33.366  36.727  1.00  0.00    -0.200 F 
ENDBRANCH  46  70
BRANCH  58  81
ATOM     81  C   UNL A   1      45.384  25.450  33.368  1.00  0.00     0.064 A 
ATOM     82  C   UNL A   1      44.414  24.757  34.115  1.00  0.00     0.173 A 
ATOM     83  C   UNL A   1      46.713  25.007  33.550  1.00  0.00     0.173 A 
ATOM     84  F   UNL A   1      43.138  25.172  34.142  1.00  0.00    -0.203 F 
ATOM     85  C   UNL A   1      44.730  23.628  34.876  1.00  0.00     0.198 A 
ATOM     86  C   UNL A   1      47.035  23.918  34.361  1.00  0.00     0.198 A 
ATOM     87  F   UNL A   1      47.748  25.592  32.937  1.00  0.00    -0.203 F 
ATOM     88  F   UNL A   1      43.752  22.947  35.490  1.00  0.00    -0.200 F 
ATOM     89  C   UNL A   1      46.040  23.208  34.998  1.00  0.00     0.200 A 
ATOM     90  F   UNL A   1      48.317  23.557  34.506  1.00  0.00    -0.200 F 
ATOM     91  F   UNL A   1      46.345  22.131  35.733  1.00  0.00    -0.200 F 
ENDBRANCH  58  81
ENDBRANCH  32  33
ENDBRANCH  25  27
ENDBRANCH  24  25
ENDBRANCH  23  24
ENDBRANCH   1  23
TORSDOF 13
ENDMDL
