MODEL 1
REMARK VINA RESULT:     -13.1      0.000      0.000
REMARK SMILES Cc1ccc(C(=O)OCCOC(=O)c2ccc(-c3c4nc(c(-c5c(F)c(F)c(F)c(F)c5F)c5ccc([nH]5)c(-c5c(F)c(F)c(F)c(F)c5F)c5nc(c(-c6c(F)c(F)c(F)c(F)c6F)c6ccc3[nH]6)C=C5)C=C4)cc2)cc1NC(=O)c1ccc(Br)o1
REMARK SMILES IDX 9 1 8 2 6 3 7 4 5 5 1 6 2 7 3 8 78 9 4 10 77 11 79 12 80 13
REMARK SMILES IDX 81 15 82 16 83 17 87 18 84 19 85 20 86 21 10 22 11 23 12 24
REMARK SMILES IDX 13 25 14 26 15 27 76 28 16 29 75 30 17 31 18 32 19 33 69 34
REMARK SMILES IDX 20 35 74 36 68 37 70 38 21 39 73 40 67 41 66 42 22 44 54 45
REMARK SMILES IDX 34 46 53 47 35 48 38 49 52 50 71 51 36 52 37 53 51 55 72 56
REMARK SMILES IDX 39 57 23 58 24 59 32 60 25 61 26 62 30 63 33 64 27 65 28 66
REMARK SMILES IDX 31 67 29 68 55 69 56 70 64 71 57 72 58 73 62 74 65 75 59 76
REMARK SMILES IDX 60 77 63 78 61 79 40 80 41 81 49 82 42 83 43 84 47 85 50 86
REMARK SMILES IDX 44 87 45 88 48 89 46 90
REMARK H PARENT 79 14 70 43 38 54
REMARK Flexibility Score: inf
ROOT
ATOM      1  C   UNL A   1      32.694  30.494  27.296  1.00  0.00     0.275 C 
ENDROOT
BRANCH   1   2
ATOM      2  O   UNL A   1      31.930  29.341  26.908  1.00  0.00    -0.458 OA
BRANCH   2   3
ATOM      3  C   UNL A   1      31.627  29.344  25.592  1.00  0.00     0.338 C 
ATOM      4  O   UNL A   1      31.057  30.236  24.979  1.00  0.00    -0.246 OA
BRANCH   3   5
ATOM      5  C   UNL A   1      31.837  28.066  24.911  1.00  0.00     0.062 A 
ATOM      6  C   UNL A   1      30.534  24.167  23.676  1.00  0.00     0.046 C 
ATOM      7  C   UNL A   1      31.042  25.494  24.173  1.00  0.00    -0.027 A 
ATOM      8  C   UNL A   1      31.104  26.540  23.221  1.00  0.00     0.006 A 
ATOM      9  C   UNL A   1      31.395  25.765  25.510  1.00  0.00     0.045 A 
ATOM     10  C   UNL A   1      31.448  27.838  23.599  1.00  0.00     0.016 A 
ATOM     11  C   UNL A   1      31.922  27.014  25.814  1.00  0.00     0.042 A 
BRANCH   9  12
ATOM     12  N   UNL A   1      31.186  24.828  26.543  1.00  0.00    -0.319 N 
ATOM     13  C   UNL A   1      31.761  23.577  26.761  1.00  0.00     0.291 C 
ATOM     14  H   UNL A   1      30.526  25.102  27.220  1.00  0.00     0.170 HD
ATOM     15  O   UNL A   1      31.235  22.850  27.604  1.00  0.00    -0.265 OA
BRANCH  13  16
ATOM     16  C   UNL A   1      32.988  23.205  26.078  1.00  0.00     0.193 A 
ATOM     17  C   UNL A   1      33.266  22.214  25.154  1.00  0.00     0.057 A 
ATOM     18  O   UNL A   1      34.148  23.870  26.387  1.00  0.00    -0.444 OA
ATOM     19  C   UNL A   1      34.663  22.260  24.909  1.00  0.00     0.059 A 
ATOM     20  C   UNL A   1      35.157  23.269  25.700  1.00  0.00     0.170 A 
ATOM     21  Br  UNL A   1      36.964  23.704  25.851  1.00  0.00    -0.008 Br
ENDBRANCH  13  16
ENDBRANCH   9  12
ENDBRANCH   3   5
ENDBRANCH   2   3
ENDBRANCH   1   2
BRANCH   1  22
ATOM     22  C   UNL A   1      34.204  30.327  27.096  1.00  0.00     0.275 C 
BRANCH  22  23
ATOM     23  O   UNL A   1      35.111  30.284  28.233  1.00  0.00    -0.458 OA
BRANCH  23  24
ATOM     24  C   UNL A   1      36.324  30.870  28.306  1.00  0.00     0.338 C 
ATOM     25  O   UNL A   1      36.497  32.071  28.119  1.00  0.00    -0.246 OA
BRANCH  24  26
ATOM     26  C   UNL A   1      37.461  29.976  28.558  1.00  0.00     0.060 A 
ATOM     27  C   UNL A   1      37.364  29.030  29.597  1.00  0.00     0.016 A 
ATOM     28  C   UNL A   1      38.559  30.004  27.702  1.00  0.00     0.016 A 
ATOM     29  C   UNL A   1      38.331  28.047  29.734  1.00  0.00     0.010 A 
ATOM     30  C   UNL A   1      39.439  28.960  27.738  1.00  0.00     0.010 A 
ATOM     31  C   UNL A   1      39.359  28.040  28.798  1.00  0.00    -0.014 A 
BRANCH  31  32
ATOM     32  C   UNL A   1      40.631  27.394  29.044  1.00  0.00     0.031 A 
ATOM     33  C   UNL A   1      40.849  26.006  28.629  1.00  0.00     0.074 A 
ATOM     34  C   UNL A   1      41.530  28.348  29.375  1.00  0.00     0.049 A 
ATOM     35  N   UNL A   1      41.783  25.234  29.049  1.00  0.00    -0.248 NA
ATOM     36  C   UNL A   1      39.952  25.324  27.701  1.00  0.00     0.031 C 
ATOM     37  C   UNL A   1      42.971  28.424  29.303  1.00  0.00     0.029 A 
ATOM     38  N   UNL A   1      41.171  29.568  29.992  1.00  0.00    -0.354 N 
ATOM     39  C   UNL A   1      41.873  24.196  28.136  1.00  0.00     0.074 A 
ATOM     40  C   UNL A   1      40.602  24.179  27.464  1.00  0.00     0.031 C 
ATOM     41  C   UNL A   1      43.381  29.395  30.148  1.00  0.00     0.029 A 
ATOM     42  C   UNL A   1      42.204  29.871  30.874  1.00  0.00     0.049 A 
ATOM     43  H   UNL A   1      40.355  30.095  29.832  1.00  0.00     0.167 HD
ATOM     44  C   UNL A   1      43.110  23.673  27.880  1.00  0.00     0.037 A 
ATOM     45  C   UNL A   1      41.941  29.669  32.201  1.00  0.00     0.037 A 
ATOM     46  C   UNL A   1      44.088  24.378  28.710  1.00  0.00     0.049 A 
ATOM     47  C   UNL A   1      42.750  28.494  32.692  1.00  0.00     0.074 A 
ATOM     48  C   UNL A   1      44.894  25.470  28.428  1.00  0.00     0.029 A 
ATOM     49  N   UNL A   1      43.991  24.303  30.095  1.00  0.00    -0.354 N 
ATOM     50  N   UNL A   1      42.998  27.416  31.992  1.00  0.00    -0.248 NA
ATOM     51  C   UNL A   1      43.454  28.529  33.965  1.00  0.00     0.031 C 
ATOM     52  C   UNL A   1      45.206  26.105  29.658  1.00  0.00     0.029 A 
ATOM     53  C   UNL A   1      44.567  25.419  30.678  1.00  0.00     0.049 A 
ATOM     54  H   UNL A   1      43.573  23.563  30.591  1.00  0.00     0.167 HD
ATOM     55  C   UNL A   1      43.958  26.685  32.640  1.00  0.00     0.074 A 
ATOM     56  C   UNL A   1      44.181  27.403  33.884  1.00  0.00     0.031 C 
ATOM     57  C   UNL A   1      44.568  25.578  32.119  1.00  0.00     0.037 A 
BRANCH  44  58
ATOM     58  C   UNL A   1      43.513  22.847  26.669  1.00  0.00     0.064 A 
ATOM     59  C   UNL A   1      43.170  21.474  26.603  1.00  0.00     0.173 A 
ATOM     60  C   UNL A   1      44.244  23.314  25.560  1.00  0.00     0.173 A 
ATOM     61  F   UNL A   1      42.396  20.898  27.531  1.00  0.00    -0.203 F 
ATOM     62  C   UNL A   1      43.600  20.629  25.576  1.00  0.00     0.198 A 
ATOM     63  C   UNL A   1      44.692  22.462  24.538  1.00  0.00     0.198 A 
ATOM     64  F   UNL A   1      44.511  24.614  25.395  1.00  0.00    -0.203 F 
ATOM     65  F   UNL A   1      43.254  19.333  25.594  1.00  0.00    -0.200 F 
ATOM     66  C   UNL A   1      44.379  21.118  24.552  1.00  0.00     0.200 A 
ATOM     67  F   UNL A   1      45.428  22.958  23.532  1.00  0.00    -0.200 F 
ATOM     68  F   UNL A   1      44.804  20.305  23.574  1.00  0.00    -0.200 F 
ENDBRANCH  44  58
BRANCH  45  69
ATOM     69  C   UNL A   1      40.525  30.001  32.602  1.00  0.00     0.064 A 
ATOM     70  C   UNL A   1      40.070  31.334  32.447  1.00  0.00     0.173 A 
ATOM     71  C   UNL A   1      39.542  29.039  32.869  1.00  0.00     0.173 A 
ATOM     72  F   UNL A   1      40.951  32.318  32.194  1.00  0.00    -0.203 F 
ATOM     73  C   UNL A   1      38.713  31.666  32.451  1.00  0.00     0.198 A 
ATOM     74  C   UNL A   1      38.179  29.381  32.897  1.00  0.00     0.198 A 
ATOM     75  F   UNL A   1      39.874  27.751  33.026  1.00  0.00    -0.203 F 
ATOM     76  F   UNL A   1      38.330  32.923  32.180  1.00  0.00    -0.200 F 
ATOM     77  C   UNL A   1      37.767  30.685  32.666  1.00  0.00     0.200 A 
ATOM     78  F   UNL A   1      37.254  28.423  33.062  1.00  0.00    -0.200 F 
ATOM     79  F   UNL A   1      36.459  30.977  32.593  1.00  0.00    -0.200 F 
ENDBRANCH  45  69
BRANCH  57  80
ATOM     80  C   UNL A   1      45.328  24.567  32.933  1.00  0.00     0.064 A 
ATOM     81  C   UNL A   1      46.611  24.811  33.445  1.00  0.00     0.173 A 
ATOM     82  C   UNL A   1      44.697  23.385  33.390  1.00  0.00     0.173 A 
ATOM     83  F   UNL A   1      47.256  25.960  33.197  1.00  0.00    -0.203 F 
ATOM     84  C   UNL A   1      47.249  23.903  34.285  1.00  0.00     0.198 A 
ATOM     85  C   UNL A   1      45.304  22.524  34.297  1.00  0.00     0.198 A 
ATOM     86  F   UNL A   1      43.456  23.047  33.004  1.00  0.00    -0.203 F 
ATOM     87  F   UNL A   1      48.500  24.151  34.695  1.00  0.00    -0.200 F 
ATOM     88  C   UNL A   1      46.591  22.770  34.725  1.00  0.00     0.200 A 
ATOM     89  F   UNL A   1      44.623  21.471  34.772  1.00  0.00    -0.200 F 
ATOM     90  F   UNL A   1      47.188  21.930  35.578  1.00  0.00    -0.200 F 
ENDBRANCH  57  80
ENDBRANCH  31  32
ENDBRANCH  24  26
ENDBRANCH  23  24
ENDBRANCH  22  23
ENDBRANCH   1  22
TORSDOF 13
ENDMDL
MODEL 2
REMARK VINA RESULT:     -13.0      3.532      9.846
REMARK SMILES Cc1ccc(C(=O)OCCOC(=O)c2ccc(-c3c4nc(c(-c5c(F)c(F)c(F)c(F)c5F)c5ccc([nH]5)c(-c5c(F)c(F)c(F)c(F)c5F)c5nc(c(-c6c(F)c(F)c(F)c(F)c6F)c6ccc3[nH]6)C=C5)C=C4)cc2)cc1NC(=O)c1ccc(Br)o1
REMARK SMILES IDX 9 1 8 2 6 3 7 4 5 5 1 6 2 7 3 8 78 9 4 10 77 11 79 12 80 13
REMARK SMILES IDX 81 15 82 16 83 17 87 18 84 19 85 20 86 21 10 22 11 23 12 24
REMARK SMILES IDX 13 25 14 26 15 27 76 28 16 29 75 30 17 31 18 32 19 33 69 34
REMARK SMILES IDX 20 35 74 36 68 37 70 38 21 39 73 40 67 41 66 42 22 44 54 45
REMARK SMILES IDX 34 46 53 47 35 48 38 49 52 50 71 51 36 52 37 53 51 55 72 56
REMARK SMILES IDX 39 57 23 58 24 59 32 60 25 61 26 62 30 63 33 64 27 65 28 66
REMARK SMILES IDX 31 67 29 68 55 69 56 70 64 71 57 72 58 73 62 74 65 75 59 76
REMARK SMILES IDX 60 77 63 78 61 79 40 80 41 81 49 82 42 83 43 84 47 85 50 86
REMARK SMILES IDX 44 87 45 88 48 89 46 90
REMARK H PARENT 79 14 70 43 38 54
REMARK Flexibility Score: inf
ROOT
ATOM      1  C   UNL A   1      36.752  21.544  25.523  1.00  0.00     0.275 C 
ENDROOT
BRANCH   1   2
ATOM      2  O   UNL A   1      35.855  22.664  25.561  1.00  0.00    -0.458 OA
BRANCH   2   3
ATOM      3  C   UNL A   1      34.860  22.496  26.459  1.00  0.00     0.338 C 
ATOM      4  O   UNL A   1      34.633  21.487  27.112  1.00  0.00    -0.246 OA
BRANCH   3   5
ATOM      5  C   UNL A   1      33.865  23.569  26.480  1.00  0.00     0.062 A 
ATOM      6  C   UNL A   1      30.884  26.016  24.595  1.00  0.00     0.046 C 
ATOM      7  C   UNL A   1      31.987  25.229  25.251  1.00  0.00    -0.027 A 
ATOM      8  C   UNL A   1      31.584  24.207  26.144  1.00  0.00     0.006 A 
ATOM      9  C   UNL A   1      33.360  25.405  24.990  1.00  0.00     0.045 A 
ATOM     10  C   UNL A   1      32.517  23.342  26.717  1.00  0.00     0.016 A 
ATOM     11  C   UNL A   1      34.274  24.660  25.725  1.00  0.00     0.042 A 
BRANCH   9  12
ATOM     12  N   UNL A   1      33.823  26.275  23.980  1.00  0.00    -0.319 N 
ATOM     13  C   UNL A   1      33.789  27.666  23.899  1.00  0.00     0.291 C 
ATOM     14  H   UNL A   1      34.237  25.827  23.208  1.00  0.00     0.170 HD
ATOM     15  O   UNL A   1      34.042  28.176  22.806  1.00  0.00    -0.265 OA
BRANCH  13  16
ATOM     16  C   UNL A   1      33.556  28.466  25.088  1.00  0.00     0.193 A 
ATOM     17  C   UNL A   1      33.923  28.285  26.409  1.00  0.00     0.057 A 
ATOM     18  O   UNL A   1      32.792  29.602  24.985  1.00  0.00    -0.444 OA
ATOM     19  C   UNL A   1      33.334  29.343  27.149  1.00  0.00     0.059 A 
ATOM     20  C   UNL A   1      32.639  30.104  26.240  1.00  0.00     0.170 A 
ATOM     21  Br  UNL A   1      31.584  31.577  26.684  1.00  0.00    -0.008 Br
ENDBRANCH  13  16
ENDBRANCH   9  12
ENDBRANCH   3   5
ENDBRANCH   2   3
ENDBRANCH   1   2
BRANCH   1  22
ATOM     22  C   UNL A   1      38.225  21.929  25.695  1.00  0.00     0.275 C 
BRANCH  22  23
ATOM     23  O   UNL A   1      38.604  23.248  26.180  1.00  0.00    -0.458 OA
BRANCH  23  24
ATOM     24  C   UNL A   1      39.693  23.540  26.922  1.00  0.00     0.338 C 
ATOM     25  O   UNL A   1      40.540  22.703  27.223  1.00  0.00    -0.246 OA
BRANCH  24  26
ATOM     26  C   UNL A   1      39.787  24.918  27.419  1.00  0.00     0.060 A 
ATOM     27  C   UNL A   1      40.208  25.932  26.536  1.00  0.00     0.016 A 
ATOM     28  C   UNL A   1      39.355  25.213  28.710  1.00  0.00     0.016 A 
ATOM     29  C   UNL A   1      40.119  27.262  26.913  1.00  0.00     0.010 A 
ATOM     30  C   UNL A   1      39.131  26.520  29.038  1.00  0.00     0.010 A 
ATOM     31  C   UNL A   1      39.586  27.527  28.169  1.00  0.00    -0.014 A 
BRANCH  31  32
ATOM     32  C   UNL A   1      39.824  28.772  28.869  1.00  0.00     0.031 A 
ATOM     33  C   UNL A   1      38.845  29.859  28.799  1.00  0.00     0.074 A 
ATOM     34  C   UNL A   1      40.835  28.575  29.744  1.00  0.00     0.049 A 
ATOM     35  N   UNL A   1      39.063  31.086  29.100  1.00  0.00    -0.248 NA
ATOM     36  C   UNL A   1      37.487  29.650  28.307  1.00  0.00     0.031 C 
ATOM     37  C   UNL A   1      41.230  29.229  30.970  1.00  0.00     0.029 A 
ATOM     38  N   UNL A   1      41.853  27.614  29.546  1.00  0.00    -0.354 N 
ATOM     39  C   UNL A   1      37.820  31.672  29.283  1.00  0.00     0.074 A 
ATOM     40  C   UNL A   1      36.900  30.821  28.577  1.00  0.00     0.031 C 
ATOM     41  C   UNL A   1      42.528  28.932  31.203  1.00  0.00     0.029 A 
ATOM     42  C   UNL A   1      43.020  28.180  30.049  1.00  0.00     0.049 A 
ATOM     43  H   UNL A   1      41.755  26.724  29.135  1.00  0.00     0.167 HD
ATOM     44  C   UNL A   1      37.703  32.640  30.241  1.00  0.00     0.037 A 
ATOM     45  C   UNL A   1      43.919  28.628  29.121  1.00  0.00     0.037 A 
ATOM     46  C   UNL A   1      39.016  32.841  30.855  1.00  0.00     0.049 A 
ATOM     47  C   UNL A   1      43.954  30.137  29.155  1.00  0.00     0.074 A 
ATOM     48  C   UNL A   1      39.574  32.293  31.999  1.00  0.00     0.029 A 
ATOM     49  N   UNL A   1      40.075  33.292  30.073  1.00  0.00    -0.354 N 
ATOM     50  N   UNL A   1      42.910  30.901  29.349  1.00  0.00    -0.248 NA
ATOM     51  C   UNL A   1      45.209  30.873  29.113  1.00  0.00     0.031 C 
ATOM     52  C   UNL A   1      40.985  32.336  31.854  1.00  0.00     0.029 A 
ATOM     53  C   UNL A   1      41.281  32.881  30.616  1.00  0.00     0.049 A 
ATOM     54  H   UNL A   1      39.982  33.826  29.253  1.00  0.00     0.167 HD
ATOM     55  C   UNL A   1      43.341  32.182  29.572  1.00  0.00     0.074 A 
ATOM     56  C   UNL A   1      44.781  32.118  29.376  1.00  0.00     0.031 C 
ATOM     57  C   UNL A   1      42.532  33.213  29.962  1.00  0.00     0.037 A 
BRANCH  44  58
ATOM     58  C   UNL A   1      36.417  33.121  30.892  1.00  0.00     0.064 A 
ATOM     59  C   UNL A   1      35.559  34.009  30.196  1.00  0.00     0.173 A 
ATOM     60  C   UNL A   1      35.970  32.780  32.183  1.00  0.00     0.173 A 
ATOM     61  F   UNL A   1      35.791  34.356  28.923  1.00  0.00    -0.203 F 
ATOM     62  C   UNL A   1      34.420  34.577  30.772  1.00  0.00     0.198 A 
ATOM     63  C   UNL A   1      34.836  33.366  32.769  1.00  0.00     0.198 A 
ATOM     64  F   UNL A   1      36.581  31.838  32.909  1.00  0.00    -0.203 F 
ATOM     65  F   UNL A   1      33.669  35.429  30.057  1.00  0.00    -0.200 F 
ATOM     66  C   UNL A   1      34.067  34.272  32.067  1.00  0.00     0.200 A 
ATOM     67  F   UNL A   1      34.489  33.038  34.022  1.00  0.00    -0.200 F 
ATOM     68  F   UNL A   1      32.982  34.827  32.624  1.00  0.00    -0.200 F 
ENDBRANCH  44  58
BRANCH  45  69
ATOM     69  C   UNL A   1      44.005  27.767  27.886  1.00  0.00     0.064 A 
ATOM     70  C   UNL A   1      44.411  26.416  28.027  1.00  0.00     0.173 A 
ATOM     71  C   UNL A   1      43.464  28.123  26.644  1.00  0.00     0.173 A 
ATOM     72  F   UNL A   1      44.946  25.995  29.186  1.00  0.00    -0.203 F 
ATOM     73  C   UNL A   1      44.190  25.461  27.032  1.00  0.00     0.198 A 
ATOM     74  C   UNL A   1      43.265  27.165  25.636  1.00  0.00     0.198 A 
ATOM     75  F   UNL A   1      43.047  29.375  26.416  1.00  0.00    -0.203 F 
ATOM     76  F   UNL A   1      44.483  24.173  27.263  1.00  0.00    -0.200 F 
ATOM     77  C   UNL A   1      43.606  25.835  25.839  1.00  0.00     0.200 A 
ATOM     78  F   UNL A   1      42.658  27.515  24.491  1.00  0.00    -0.200 F 
ATOM     79  F   UNL A   1      43.315  24.914  24.908  1.00  0.00    -0.200 F 
ENDBRANCH  45  69
BRANCH  57  80
ATOM     80  C   UNL A   1      42.898  34.667  29.851  1.00  0.00     0.064 A 
ATOM     81  C   UNL A   1      43.313  35.433  30.951  1.00  0.00     0.173 A 
ATOM     82  C   UNL A   1      43.032  35.285  28.584  1.00  0.00     0.173 A 
ATOM     83  F   UNL A   1      43.365  34.915  32.185  1.00  0.00    -0.203 F 
ATOM     84  C   UNL A   1      43.749  36.747  30.805  1.00  0.00     0.198 A 
ATOM     85  C   UNL A   1      43.550  36.566  28.435  1.00  0.00     0.198 A 
ATOM     86  F   UNL A   1      42.703  34.651  27.447  1.00  0.00    -0.203 F 
ATOM     87  F   UNL A   1      44.072  37.459  31.893  1.00  0.00    -0.200 F 
ATOM     88  C   UNL A   1      43.885  37.307  29.548  1.00  0.00     0.200 A 
ATOM     89  F   UNL A   1      43.746  37.065  27.207  1.00  0.00    -0.200 F 
ATOM     90  F   UNL A   1      44.360  38.550  29.410  1.00  0.00    -0.200 F 
ENDBRANCH  57  80
ENDBRANCH  31  32
ENDBRANCH  24  26
ENDBRANCH  23  24
ENDBRANCH  22  23
ENDBRANCH   1  22
TORSDOF 13
ENDMDL
MODEL 3
REMARK VINA RESULT:     -13.0      3.840      9.987
REMARK SMILES Cc1ccc(C(=O)OCCOC(=O)c2ccc(-c3c4nc(c(-c5c(F)c(F)c(F)c(F)c5F)c5ccc([nH]5)c(-c5c(F)c(F)c(F)c(F)c5F)c5nc(c(-c6c(F)c(F)c(F)c(F)c6F)c6ccc3[nH]6)C=C5)C=C4)cc2)cc1NC(=O)c1ccc(Br)o1
REMARK SMILES IDX 9 1 8 2 6 3 7 4 5 5 1 6 2 7 3 8 78 9 4 10 77 11 79 12 80 13
REMARK SMILES IDX 81 15 82 16 83 17 87 18 84 19 85 20 86 21 10 22 11 23 12 24
REMARK SMILES IDX 13 25 14 26 15 27 76 28 16 29 75 30 17 31 18 32 19 33 69 34
REMARK SMILES IDX 20 35 74 36 68 37 70 38 21 39 73 40 67 41 66 42 22 44 54 45
REMARK SMILES IDX 34 46 53 47 35 48 38 49 52 50 71 51 36 52 37 53 51 55 72 56
REMARK SMILES IDX 39 57 23 58 24 59 32 60 25 61 26 62 30 63 33 64 27 65 28 66
REMARK SMILES IDX 31 67 29 68 55 69 56 70 64 71 57 72 58 73 62 74 65 75 59 76
REMARK SMILES IDX 60 77 63 78 61 79 40 80 41 81 49 82 42 83 43 84 47 85 50 86
REMARK SMILES IDX 44 87 45 88 48 89 46 90
REMARK H PARENT 79 14 70 43 38 54
REMARK Flexibility Score: inf
ROOT
ATOM      1  C   UNL A   1      37.563  21.825  25.024  1.00  0.00     0.275 C 
ENDROOT
BRANCH   1   2
ATOM      2  O   UNL A   1      36.395  21.469  25.780  1.00  0.00    -0.458 OA
BRANCH   2   3
ATOM      3  C   UNL A   1      35.460  22.444  25.771  1.00  0.00     0.338 C 
ATOM      4  O   UNL A   1      35.388  23.390  26.544  1.00  0.00    -0.246 OA
BRANCH   3   5
ATOM      5  C   UNL A   1      34.335  22.207  24.866  1.00  0.00     0.062 A 
ATOM      6  C   UNL A   1      30.733  23.443  22.885  1.00  0.00     0.046 C 
ATOM      7  C   UNL A   1      31.945  22.959  23.635  1.00  0.00    -0.027 A 
ATOM      8  C   UNL A   1      33.153  22.888  22.901  1.00  0.00     0.006 A 
ATOM      9  C   UNL A   1      31.961  22.637  25.007  1.00  0.00     0.045 A 
ATOM     10  C   UNL A   1      34.358  22.565  23.526  1.00  0.00     0.016 A 
ATOM     11  C   UNL A   1      33.132  22.130  25.555  1.00  0.00     0.042 A 
BRANCH   9  12
ATOM     12  N   UNL A   1      30.843  22.859  25.840  1.00  0.00    -0.319 N 
ATOM     13  C   UNL A   1      30.412  24.015  26.487  1.00  0.00     0.291 C 
ATOM     14  H   UNL A   1      30.276  22.068  25.987  1.00  0.00     0.170 HD
ATOM     15  O   UNL A   1      29.540  23.891  27.348  1.00  0.00    -0.265 OA
BRANCH  13  16
ATOM     16  C   UNL A   1      30.915  25.316  26.080  1.00  0.00     0.193 A 
ATOM     17  C   UNL A   1      31.963  26.088  26.547  1.00  0.00     0.057 A 
ATOM     18  O   UNL A   1      30.254  26.003  25.093  1.00  0.00    -0.444 OA
ATOM     19  C   UNL A   1      31.923  27.312  25.831  1.00  0.00     0.059 A 
ATOM     20  C   UNL A   1      30.853  27.220  24.975  1.00  0.00     0.170 A 
ATOM     21  Br  UNL A   1      30.272  28.597  23.859  1.00  0.00    -0.008 Br
ENDBRANCH  13  16
ENDBRANCH   9  12
ENDBRANCH   3   5
ENDBRANCH   2   3
ENDBRANCH   1   2
BRANCH   1  22
ATOM     22  C   UNL A   1      38.791  22.121  25.892  1.00  0.00     0.275 C 
BRANCH  22  23
ATOM     23  O   UNL A   1      38.966  23.420  26.525  1.00  0.00    -0.458 OA
BRANCH  23  24
ATOM     24  C   UNL A   1      40.029  23.811  27.256  1.00  0.00     0.338 C 
ATOM     25  O   UNL A   1      40.919  23.040  27.606  1.00  0.00    -0.246 OA
BRANCH  24  26
ATOM     26  C   UNL A   1      40.042  25.217  27.681  1.00  0.00     0.060 A 
ATOM     27  C   UNL A   1      40.341  26.212  26.730  1.00  0.00     0.016 A 
ATOM     28  C   UNL A   1      39.650  25.545  28.977  1.00  0.00     0.016 A 
ATOM     29  C   UNL A   1      40.170  27.549  27.046  1.00  0.00     0.010 A 
ATOM     30  C   UNL A   1      39.343  26.847  29.253  1.00  0.00     0.010 A 
ATOM     31  C   UNL A   1      39.678  27.839  28.314  1.00  0.00    -0.014 A 
BRANCH  31  32
ATOM     32  C   UNL A   1      39.853  29.132  28.940  1.00  0.00     0.031 A 
ATOM     33  C   UNL A   1      38.794  30.142  28.862  1.00  0.00     0.074 A 
ATOM     34  C   UNL A   1      40.912  29.054  29.776  1.00  0.00     0.049 A 
ATOM     35  N   UNL A   1      38.934  31.396  29.092  1.00  0.00    -0.248 NA
ATOM     36  C   UNL A   1      37.436  29.811  28.443  1.00  0.00     0.031 C 
ATOM     37  C   UNL A   1      41.310  29.799  30.950  1.00  0.00     0.029 A 
ATOM     38  N   UNL A   1      41.988  28.159  29.580  1.00  0.00    -0.354 N 
ATOM     39  C   UNL A   1      37.661  31.900  29.303  1.00  0.00     0.074 A 
ATOM     40  C   UNL A   1      36.776  30.950  28.683  1.00  0.00     0.031 C 
ATOM     41  C   UNL A   1      42.634  29.607  31.137  1.00  0.00     0.029 A 
ATOM     42  C   UNL A   1      43.131  28.833  30.000  1.00  0.00     0.049 A 
ATOM     43  H   UNL A   1      41.939  27.244  29.217  1.00  0.00     0.167 HD
ATOM     44  C   UNL A   1      37.513  32.907  30.216  1.00  0.00     0.037 A 
ATOM     45  C   UNL A   1      43.955  29.295  29.010  1.00  0.00     0.037 A 
ATOM     46  C   UNL A   1      38.833  33.233  30.758  1.00  0.00     0.049 A 
ATOM     47  C   UNL A   1      43.880  30.802  28.968  1.00  0.00     0.074 A 
ATOM     48  C   UNL A   1      39.477  32.786  31.901  1.00  0.00     0.029 A 
ATOM     49  N   UNL A   1      39.822  33.716  29.908  1.00  0.00    -0.354 N 
ATOM     50  N   UNL A   1      42.791  31.499  29.172  1.00  0.00    -0.248 NA
ATOM     51  C   UNL A   1      45.074  31.622  28.833  1.00  0.00     0.031 C 
ATOM     52  C   UNL A   1      40.874  32.922  31.690  1.00  0.00     0.029 A 
ATOM     53  C   UNL A   1      41.076  33.421  30.414  1.00  0.00     0.049 A 
ATOM     54  H   UNL A   1      39.654  34.199  29.067  1.00  0.00     0.167 HD
ATOM     55  C   UNL A   1      43.136  32.817  29.312  1.00  0.00     0.074 A 
ATOM     56  C   UNL A   1      44.567  32.846  29.054  1.00  0.00     0.031 C 
ATOM     57  C   UNL A   1      42.271  33.806  29.688  1.00  0.00     0.037 A 
BRANCH  44  58
ATOM     58  C   UNL A   1      36.223  33.328  30.901  1.00  0.00     0.064 A 
ATOM     59  C   UNL A   1      35.321  34.197  30.239  1.00  0.00     0.173 A 
ATOM     60  C   UNL A   1      35.816  32.947  32.194  1.00  0.00     0.173 A 
ATOM     61  F   UNL A   1      35.515  34.575  28.969  1.00  0.00    -0.203 F 
ATOM     62  C   UNL A   1      34.173  34.712  30.848  1.00  0.00     0.198 A 
ATOM     63  C   UNL A   1      34.673  33.480  32.813  1.00  0.00     0.198 A 
ATOM     64  F   UNL A   1      36.475  32.015  32.889  1.00  0.00    -0.203 F 
ATOM     65  F   UNL A   1      33.378  35.549  30.165  1.00  0.00    -0.200 F 
ATOM     66  C   UNL A   1      33.858  34.370  32.144  1.00  0.00     0.200 A 
ATOM     67  F   UNL A   1      34.364  33.116  34.066  1.00  0.00    -0.200 F 
ATOM     68  F   UNL A   1      32.766  34.875  32.732  1.00  0.00    -0.200 F 
ENDBRANCH  44  58
BRANCH  45  69
ATOM     69  C   UNL A   1      44.052  28.378  27.817  1.00  0.00     0.064 A 
ATOM     70  C   UNL A   1      44.593  27.080  27.999  1.00  0.00     0.173 A 
ATOM     71  C   UNL A   1      43.407  28.613  26.596  1.00  0.00     0.173 A 
ATOM     72  F   UNL A   1      45.233  26.776  29.142  1.00  0.00    -0.203 F 
ATOM     73  C   UNL A   1      44.408  26.056  27.068  1.00  0.00     0.198 A 
ATOM     74  C   UNL A   1      43.243  27.586  25.650  1.00  0.00     0.198 A 
ATOM     75  F   UNL A   1      42.859  29.806  26.333  1.00  0.00    -0.203 F 
ATOM     76  F   UNL A   1      44.836  24.815  27.344  1.00  0.00    -0.200 F 
ATOM     77  C   UNL A   1      43.722  26.307  25.898  1.00  0.00     0.200 A 
ATOM     78  F   UNL A   1      42.540  27.814  24.531  1.00  0.00    -0.200 F 
ATOM     79  F   UNL A   1      43.468  25.312  25.034  1.00  0.00    -0.200 F 
ENDBRANCH  45  69
BRANCH  57  80
ATOM     80  C   UNL A   1      42.524  35.276  29.489  1.00  0.00     0.064 A 
ATOM     81  C   UNL A   1      43.408  36.011  30.292  1.00  0.00     0.173 A 
ATOM     82  C   UNL A   1      42.026  35.947  28.346  1.00  0.00     0.173 A 
ATOM     83  F   UNL A   1      44.053  35.445  31.322  1.00  0.00    -0.203 F 
ATOM     84  C   UNL A   1      43.708  37.343  30.021  1.00  0.00     0.198 A 
ATOM     85  C   UNL A   1      42.396  37.249  28.032  1.00  0.00     0.198 A 
ATOM     86  F   UNL A   1      41.197  35.349  27.476  1.00  0.00    -0.203 F 
ATOM     87  F   UNL A   1      44.507  38.021  30.855  1.00  0.00    -0.200 F 
ATOM     88  C   UNL A   1      43.217  37.956  28.884  1.00  0.00     0.200 A 
ATOM     89  F   UNL A   1      41.972  37.803  26.887  1.00  0.00    -0.200 F 
ATOM     90  F   UNL A   1      43.555  39.219  28.598  1.00  0.00    -0.200 F 
ENDBRANCH  57  80
ENDBRANCH  31  32
ENDBRANCH  24  26
ENDBRANCH  23  24
ENDBRANCH  22  23
ENDBRANCH   1  22
TORSDOF 13
ENDMDL
