MODEL 1
REMARK VINA RESULT:     -10.0      0.000      0.000
REMARK SMILES C[C@H](SCC[NH3+])c1ccc(C(=O)OCCOC(=O)c2ccc(-c3c4nc(c(-c5c(F)c(F)c(F)c(F)c5F)c5ccc([nH]5)c(-c5c(F)c(F)c(F)c(F)c5F)c5nc(c(-c6c(F)c(F)c(F)c(F)c6F)c6ccc3[nH]6)C=C5)C=C4)cc2)o1
REMARK SMILES IDX 13 1 11 2 12 3 10 4 7 5 8 6 82 7 9 8 2 9 1 10 3 11 4 12 5 13
REMARK SMILES IDX 6 14 14 18 15 19 16 20 17 21 18 22 19 23 20 24 81 25 21 26
REMARK SMILES IDX 80 27 22 28 23 29 24 30 74 31 25 32 79 33 73 34 75 35 26 36
REMARK SMILES IDX 78 37 72 38 71 39 27 41 59 42 39 43 58 44 40 45 43 46 57 47
REMARK SMILES IDX 76 48 41 49 42 50 56 52 77 53 44 54 28 55 29 56 37 57 30 58
REMARK SMILES IDX 31 59 35 60 38 61 32 62 33 63 36 64 34 65 60 66 61 67 69 68
REMARK SMILES IDX 62 69 63 70 67 71 70 72 64 73 65 74 68 75 66 76 45 77 46 78
REMARK SMILES IDX 54 79 47 80 48 81 52 82 55 83 49 84 50 85 53 86 51 87
REMARK H PARENT 6 15 6 16 6 17 75 40 43 51
REMARK Flexibility Score: inf
ROOT
ATOM      1  O   UNL A   1      34.017  33.751  28.914  1.00  0.00    -0.456 OA
ENDROOT
BRANCH   1   2
ATOM      2  C   UNL A   1      35.203  33.140  28.616  1.00  0.00     0.374 C 
ATOM      3  O   UNL A   1      36.304  33.636  28.813  1.00  0.00    -0.242 OA
BRANCH   2   4
ATOM      4  C   UNL A   1      34.962  31.809  28.112  1.00  0.00     0.211 A 
ATOM      5  C   UNL A   1      33.688  30.252  27.190  1.00  0.00     0.117 A 
ATOM      6  C   UNL A   1      34.949  29.706  27.313  1.00  0.00     0.048 A 
ATOM      7  O   UNL A   1      33.681  31.499  27.742  1.00  0.00    -0.453 OA
ATOM      8  C   UNL A   1      35.776  30.719  27.865  1.00  0.00     0.058 A 
BRANCH   5   9
ATOM      9  C   UNL A   1      32.385  29.812  26.611  1.00  0.00     0.110 C 
ATOM     10  C   UNL A   1      31.836  28.618  27.397  1.00  0.00     0.028 C 
BRANCH   9  11
ATOM     11  S   UNL A   1      32.461  29.333  24.837  1.00  0.00    -0.145 SA
BRANCH  11  12
ATOM     12  C   UNL A   1      30.717  29.494  24.297  1.00  0.00     0.131 C 
BRANCH  12  13
ATOM     13  C   UNL A   1      30.436  29.216  22.817  1.00  0.00     0.269 C 
BRANCH  13  14
ATOM     14  N   UNL A   1      31.472  29.707  21.921  1.00  0.00    -0.357 N 
ATOM     15  H   UNL A   1      32.389  29.518  22.325  1.00  0.00     0.344 HD
ATOM     16  H   UNL A   1      31.359  30.713  21.789  1.00  0.00     0.344 HD
ATOM     17  H   UNL A   1      31.393  29.236  21.019  1.00  0.00     0.344 HD
ENDBRANCH  13  14
ENDBRANCH  12  13
ENDBRANCH  11  12
ENDBRANCH   9  11
ENDBRANCH   5   9
ENDBRANCH   2   4
ENDBRANCH   1   2
BRANCH   1  18
ATOM     18  C   UNL A   1      33.931  35.144  28.561  1.00  0.00     0.275 C 
BRANCH  18  19
ATOM     19  C   UNL A   1      32.884  35.875  29.407  1.00  0.00     0.275 C 
BRANCH  19  20
ATOM     20  O   UNL A   1      32.469  35.076  30.532  1.00  0.00    -0.458 OA
BRANCH  20  21
ATOM     21  C   UNL A   1      32.715  35.608  31.751  1.00  0.00     0.338 C 
ATOM     22  O   UNL A   1      32.074  36.469  32.328  1.00  0.00    -0.246 OA
BRANCH  21  23
ATOM     23  C   UNL A   1      33.886  34.945  32.345  1.00  0.00     0.060 A 
ATOM     24  C   UNL A   1      35.130  35.562  32.231  1.00  0.00     0.016 A 
ATOM     25  C   UNL A   1      33.781  33.669  32.903  1.00  0.00     0.016 A 
ATOM     26  C   UNL A   1      36.283  34.893  32.632  1.00  0.00     0.010 A 
ATOM     27  C   UNL A   1      34.940  33.008  33.333  1.00  0.00     0.010 A 
ATOM     28  C   UNL A   1      36.204  33.603  33.175  1.00  0.00    -0.014 A 
BRANCH  28  29
ATOM     29  C   UNL A   1      37.453  32.878  33.526  1.00  0.00     0.031 A 
ATOM     30  C   UNL A   1      38.131  33.120  34.847  1.00  0.00     0.074 A 
ATOM     31  C   UNL A   1      37.956  31.961  32.678  1.00  0.00     0.049 A 
ATOM     32  N   UNL A   1      39.252  32.621  35.308  1.00  0.00    -0.248 NA
ATOM     33  C   UNL A   1      37.461  34.044  35.774  1.00  0.00     0.031 C 
ATOM     34  C   UNL A   1      37.371  31.598  31.388  1.00  0.00     0.029 A 
ATOM     35  N   UNL A   1      39.065  31.159  32.781  1.00  0.00    -0.354 N 
ATOM     36  C   UNL A   1      39.438  33.192  36.560  1.00  0.00     0.074 A 
ATOM     37  C   UNL A   1      38.317  34.080  36.787  1.00  0.00     0.031 C 
ATOM     38  C   UNL A   1      38.111  30.627  30.830  1.00  0.00     0.029 A 
ATOM     39  C   UNL A   1      39.250  30.339  31.696  1.00  0.00     0.049 A 
ATOM     40  H   UNL A   1      39.670  31.171  33.558  1.00  0.00     0.167 HD
ATOM     41  C   UNL A   1      40.450  32.993  37.438  1.00  0.00     0.037 A 
ATOM     42  C   UNL A   1      40.238  29.468  31.418  1.00  0.00     0.037 A 
ATOM     43  C   UNL A   1      41.549  32.087  37.229  1.00  0.00     0.049 A 
ATOM     44  C   UNL A   1      41.368  29.293  32.392  1.00  0.00     0.074 A 
ATOM     45  C   UNL A   1      42.610  31.804  38.074  1.00  0.00     0.029 A 
ATOM     46  N   UNL A   1      41.726  31.309  36.094  1.00  0.00    -0.354 N 
ATOM     47  N   UNL A   1      41.546  29.857  33.561  1.00  0.00    -0.248 NA
ATOM     48  C   UNL A   1      42.442  28.369  32.001  1.00  0.00     0.031 C 
ATOM     49  C   UNL A   1      43.446  30.881  37.436  1.00  0.00     0.029 A 
ATOM     50  C   UNL A   1      42.887  30.561  36.209  1.00  0.00     0.049 A 
ATOM     51  H   UNL A   1      41.117  31.292  35.321  1.00  0.00     0.167 HD
ATOM     52  C   UNL A   1      42.744  29.356  34.048  1.00  0.00     0.074 A 
ATOM     53  C   UNL A   1      43.243  28.426  33.057  1.00  0.00     0.031 C 
ATOM     54  C   UNL A   1      43.376  29.647  35.211  1.00  0.00     0.037 A 
BRANCH  41  55
ATOM     55  C   UNL A   1      40.435  33.797  38.704  1.00  0.00     0.064 A 
ATOM     56  C   UNL A   1      39.734  33.373  39.841  1.00  0.00     0.173 A 
ATOM     57  C   UNL A   1      41.167  34.993  38.789  1.00  0.00     0.173 A 
ATOM     58  F   UNL A   1      39.010  32.245  39.804  1.00  0.00    -0.203 F 
ATOM     59  C   UNL A   1      39.751  34.125  41.013  1.00  0.00     0.198 A 
ATOM     60  C   UNL A   1      41.198  35.731  39.968  1.00  0.00     0.198 A 
ATOM     61  F   UNL A   1      41.857  35.440  37.729  1.00  0.00    -0.203 F 
ATOM     62  F   UNL A   1      39.045  33.719  42.077  1.00  0.00    -0.200 F 
ATOM     63  C   UNL A   1      40.486  35.300  41.078  1.00  0.00     0.200 A 
ATOM     64  F   UNL A   1      41.916  36.861  40.031  1.00  0.00    -0.200 F 
ATOM     65  F   UNL A   1      40.504  36.021  42.207  1.00  0.00    -0.200 F 
ENDBRANCH  41  55
BRANCH  42  66
ATOM     66  C   UNL A   1      40.205  28.707  30.144  1.00  0.00     0.064 A 
ATOM     67  C   UNL A   1      39.556  27.469  30.062  1.00  0.00     0.173 A 
ATOM     68  C   UNL A   1      40.803  29.213  28.981  1.00  0.00     0.173 A 
ATOM     69  F   UNL A   1      38.994  26.934  31.156  1.00  0.00    -0.203 F 
ATOM     70  C   UNL A   1      39.507  26.763  28.862  1.00  0.00     0.198 A 
ATOM     71  C   UNL A   1      40.733  28.519  27.777  1.00  0.00     0.198 A 
ATOM     72  F   UNL A   1      41.439  30.394  29.012  1.00  0.00    -0.203 F 
ATOM     73  F   UNL A   1      38.906  25.567  28.814  1.00  0.00    -0.200 F 
ATOM     74  C   UNL A   1      40.088  27.292  27.719  1.00  0.00     0.200 A 
ATOM     75  F   UNL A   1      41.287  29.038  26.672  1.00  0.00    -0.200 F 
ATOM     76  F   UNL A   1      40.032  26.618  26.562  1.00  0.00    -0.200 F 
ENDBRANCH  42  66
BRANCH  54  77
ATOM     77  C   UNL A   1      44.673  28.943  35.476  1.00  0.00     0.064 A 
ATOM     78  C   UNL A   1      44.709  27.701  36.124  1.00  0.00     0.173 A 
ATOM     79  C   UNL A   1      45.887  29.503  35.052  1.00  0.00     0.173 A 
ATOM     80  F   UNL A   1      43.575  27.135  36.562  1.00  0.00    -0.203 F 
ATOM     81  C   UNL A   1      45.919  27.051  36.356  1.00  0.00     0.198 A 
ATOM     82  C   UNL A   1      47.093  28.841  35.267  1.00  0.00     0.198 A 
ATOM     83  F   UNL A   1      45.903  30.688  34.425  1.00  0.00    -0.203 F 
ATOM     84  F   UNL A   1      45.935  25.882  37.011  1.00  0.00    -0.200 F 
ATOM     85  C   UNL A   1      47.108  27.619  35.923  1.00  0.00     0.200 A 
ATOM     86  F   UNL A   1      48.241  29.387  34.843  1.00  0.00    -0.200 F 
ATOM     87  F   UNL A   1      48.271  26.992  36.147  1.00  0.00    -0.200 F 
ENDBRANCH  54  77
ENDBRANCH  28  29
ENDBRANCH  21  23
ENDBRANCH  20  21
ENDBRANCH  19  20
ENDBRANCH  18  19
ENDBRANCH   1  18
TORSDOF 16
ENDMDL
MODEL 2
REMARK VINA RESULT:      -9.7      6.132     11.193
REMARK SMILES C[C@H](SCC[NH3+])c1ccc(C(=O)OCCOC(=O)c2ccc(-c3c4nc(c(-c5c(F)c(F)c(F)c(F)c5F)c5ccc([nH]5)c(-c5c(F)c(F)c(F)c(F)c5F)c5nc(c(-c6c(F)c(F)c(F)c(F)c6F)c6ccc3[nH]6)C=C5)C=C4)cc2)o1
REMARK SMILES IDX 13 1 11 2 12 3 10 4 7 5 8 6 82 7 9 8 2 9 1 10 3 11 4 12 5 13
REMARK SMILES IDX 6 14 14 18 15 19 16 20 17 21 18 22 19 23 20 24 81 25 21 26
REMARK SMILES IDX 80 27 22 28 23 29 24 30 74 31 25 32 79 33 73 34 75 35 26 36
REMARK SMILES IDX 78 37 72 38 71 39 27 41 59 42 39 43 58 44 40 45 43 46 57 47
REMARK SMILES IDX 76 48 41 49 42 50 56 52 77 53 44 54 28 55 29 56 37 57 30 58
REMARK SMILES IDX 31 59 35 60 38 61 32 62 33 63 36 64 34 65 60 66 61 67 69 68
REMARK SMILES IDX 62 69 63 70 67 71 70 72 64 73 65 74 68 75 66 76 45 77 46 78
REMARK SMILES IDX 54 79 47 80 48 81 52 82 55 83 49 84 50 85 53 86 51 87
REMARK H PARENT 6 15 6 16 6 17 75 40 43 51
REMARK Flexibility Score: inf
ROOT
ATOM      1  O   UNL A   1      41.544  19.569  25.466  1.00  0.00    -0.456 OA
ENDROOT
BRANCH   1   2
ATOM      2  C   UNL A   1      42.663  18.830  25.731  1.00  0.00     0.374 C 
ATOM      3  O   UNL A   1      42.653  17.716  26.238  1.00  0.00    -0.242 OA
BRANCH   2   4
ATOM      4  C   UNL A   1      43.839  19.522  25.256  1.00  0.00     0.211 A 
ATOM      5  C   UNL A   1      44.954  21.346  24.685  1.00  0.00     0.117 A 
ATOM      6  C   UNL A   1      45.848  20.297  24.606  1.00  0.00     0.048 A 
ATOM      7  O   UNL A   1      43.720  20.863  25.007  1.00  0.00    -0.453 OA
ATOM      8  C   UNL A   1      45.143  19.135  25.013  1.00  0.00     0.058 A 
BRANCH   5   9
ATOM      9  C   UNL A   1      45.026  22.826  24.510  1.00  0.00     0.110 C 
ATOM     10  C   UNL A   1      46.481  23.265  24.326  1.00  0.00     0.028 C 
BRANCH   9  11
ATOM     11  S   UNL A   1      44.316  23.794  25.903  1.00  0.00    -0.145 SA
BRANCH  11  12
ATOM     12  C   UNL A   1      43.736  25.326  25.080  1.00  0.00     0.131 C 
BRANCH  12  13
ATOM     13  C   UNL A   1      44.560  26.591  25.340  1.00  0.00     0.269 C 
BRANCH  13  14
ATOM     14  N   UNL A   1      43.867  27.823  24.998  1.00  0.00    -0.357 N 
ATOM     15  H   UNL A   1      43.939  28.482  25.773  1.00  0.00     0.344 HD
ATOM     16  H   UNL A   1      42.883  27.621  24.814  1.00  0.00     0.344 HD
ATOM     17  H   UNL A   1      44.290  28.232  24.163  1.00  0.00     0.344 HD
ENDBRANCH  13  14
ENDBRANCH  12  13
ENDBRANCH  11  12
ENDBRANCH   9  11
ENDBRANCH   5   9
ENDBRANCH   2   4
ENDBRANCH   1   2
BRANCH   1  18
ATOM     18  C   UNL A   1      40.696  19.835  26.598  1.00  0.00     0.275 C 
BRANCH  18  19
ATOM     19  C   UNL A   1      40.880  21.267  27.114  1.00  0.00     0.275 C 
BRANCH  19  20
ATOM     20  O   UNL A   1      40.542  22.235  26.101  1.00  0.00    -0.458 OA
BRANCH  20  21
ATOM     21  C   UNL A   1      39.335  22.828  26.238  1.00  0.00     0.338 C 
ATOM     22  O   UNL A   1      38.243  22.361  25.964  1.00  0.00    -0.246 OA
BRANCH  21  23
ATOM     23  C   UNL A   1      39.510  24.159  26.840  1.00  0.00     0.060 A 
ATOM     24  C   UNL A   1      40.163  25.143  26.101  1.00  0.00     0.016 A 
ATOM     25  C   UNL A   1      39.143  24.400  28.165  1.00  0.00     0.016 A 
ATOM     26  C   UNL A   1      40.495  26.359  26.693  1.00  0.00     0.010 A 
ATOM     27  C   UNL A   1      39.452  25.635  28.751  1.00  0.00     0.010 A 
ATOM     28  C   UNL A   1      40.156  26.615  28.029  1.00  0.00    -0.014 A 
BRANCH  28  29
ATOM     29  C   UNL A   1      40.587  27.888  28.663  1.00  0.00     0.031 A 
ATOM     30  C   UNL A   1      42.032  28.116  29.014  1.00  0.00     0.074 A 
ATOM     31  C   UNL A   1      39.687  28.866  28.879  1.00  0.00     0.049 A 
ATOM     32  N   UNL A   1      42.587  29.139  29.617  1.00  0.00    -0.248 NA
ATOM     33  C   UNL A   1      42.979  27.055  28.639  1.00  0.00     0.031 C 
ATOM     34  C   UNL A   1      38.266  28.791  28.542  1.00  0.00     0.029 A 
ATOM     35  N   UNL A   1      39.837  30.118  29.422  1.00  0.00    -0.354 N 
ATOM     36  C   UNL A   1      43.937  28.833  29.721  1.00  0.00     0.074 A 
ATOM     37  C   UNL A   1      44.120  27.526  29.124  1.00  0.00     0.031 C 
ATOM     38  C   UNL A   1      37.678  29.955  28.861  1.00  0.00     0.029 A 
ATOM     39  C   UNL A   1      38.669  30.835  29.474  1.00  0.00     0.049 A 
ATOM     40  H   UNL A   1      40.700  30.466  29.743  1.00  0.00     0.167 HD
ATOM     41  C   UNL A   1      44.932  29.575  30.265  1.00  0.00     0.037 A 
ATOM     42  C   UNL A   1      38.416  32.058  29.978  1.00  0.00     0.037 A 
ATOM     43  C   UNL A   1      44.761  30.888  30.829  1.00  0.00     0.049 A 
ATOM     44  C   UNL A   1      39.531  32.844  30.608  1.00  0.00     0.074 A 
ATOM     45  C   UNL A   1      45.716  31.723  31.384  1.00  0.00     0.029 A 
ATOM     46  N   UNL A   1      43.551  31.561  30.907  1.00  0.00    -0.354 N 
ATOM     47  N   UNL A   1      40.798  32.534  30.724  1.00  0.00    -0.248 NA
ATOM     48  C   UNL A   1      39.174  34.146  31.190  1.00  0.00     0.031 C 
ATOM     49  C   UNL A   1      45.080  32.888  31.827  1.00  0.00     0.029 A 
ATOM     50  C   UNL A   1      43.733  32.793  31.516  1.00  0.00     0.049 A 
ATOM     51  H   UNL A   1      42.690  31.215  30.579  1.00  0.00     0.167 HD
ATOM     52  C   UNL A   1      41.392  33.599  31.385  1.00  0.00     0.074 A 
ATOM     53  C   UNL A   1      40.351  34.575  31.628  1.00  0.00     0.031 C 
ATOM     54  C   UNL A   1      42.685  33.750  31.760  1.00  0.00     0.037 A 
BRANCH  41  55
ATOM     55  C   UNL A   1      46.304  28.969  30.304  1.00  0.00     0.064 A 
ATOM     56  C   UNL A   1      47.222  29.149  29.260  1.00  0.00     0.173 A 
ATOM     57  C   UNL A   1      46.716  28.227  31.423  1.00  0.00     0.173 A 
ATOM     58  F   UNL A   1      46.870  29.838  28.164  1.00  0.00    -0.203 F 
ATOM     59  C   UNL A   1      48.497  28.594  29.326  1.00  0.00     0.198 A 
ATOM     60  C   UNL A   1      47.999  27.693  31.494  1.00  0.00     0.198 A 
ATOM     61  F   UNL A   1      45.875  28.029  32.449  1.00  0.00    -0.203 F 
ATOM     62  F   UNL A   1      49.347  28.749  28.301  1.00  0.00    -0.200 F 
ATOM     63  C   UNL A   1      48.887  27.871  30.445  1.00  0.00     0.200 A 
ATOM     64  F   UNL A   1      48.376  27.001  32.579  1.00  0.00    -0.200 F 
ATOM     65  F   UNL A   1      50.116  27.341  30.508  1.00  0.00    -0.200 F 
ENDBRANCH  41  55
BRANCH  42  66
ATOM     66  C   UNL A   1      37.037  32.602  29.921  1.00  0.00     0.064 A 
ATOM     67  C   UNL A   1      36.572  33.268  28.779  1.00  0.00     0.173 A 
ATOM     68  C   UNL A   1      36.151  32.448  30.997  1.00  0.00     0.173 A 
ATOM     69  F   UNL A   1      37.394  33.462  27.737  1.00  0.00    -0.203 F 
ATOM     70  C   UNL A   1      35.271  33.762  28.717  1.00  0.00     0.198 A 
ATOM     71  C   UNL A   1      34.844  32.920  30.924  1.00  0.00     0.198 A 
ATOM     72  F   UNL A   1      36.552  31.820  32.113  1.00  0.00    -0.203 F 
ATOM     73  F   UNL A   1      34.859  34.421  27.626  1.00  0.00    -0.200 F 
ATOM     74  C   UNL A   1      34.406  33.580  29.786  1.00  0.00     0.200 A 
ATOM     75  F   UNL A   1      34.007  32.734  31.955  1.00  0.00    -0.200 F 
ATOM     76  F   UNL A   1      33.151  34.046  29.721  1.00  0.00    -0.200 F 
ENDBRANCH  42  66
BRANCH  54  77
ATOM     77  C   UNL A   1      43.045  35.022  32.467  1.00  0.00     0.064 A 
ATOM     78  C   UNL A   1      42.960  35.129  33.862  1.00  0.00     0.173 A 
ATOM     79  C   UNL A   1      43.507  36.133  31.746  1.00  0.00     0.173 A 
ATOM     80  F   UNL A   1      42.508  34.098  34.592  1.00  0.00    -0.203 F 
ATOM     81  C   UNL A   1      43.307  36.311  34.511  1.00  0.00     0.198 A 
ATOM     82  C   UNL A   1      43.873  37.307  32.400  1.00  0.00     0.198 A 
ATOM     83  F   UNL A   1      43.609  36.077  30.411  1.00  0.00    -0.203 F 
ATOM     84  F   UNL A   1      43.182  36.405  35.841  1.00  0.00    -0.200 F 
ATOM     85  C   UNL A   1      43.768  37.397  33.780  1.00  0.00     0.200 A 
ATOM     86  F   UNL A   1      44.324  38.352  31.693  1.00  0.00    -0.200 F 
ATOM     87  F   UNL A   1      44.102  38.533  34.406  1.00  0.00    -0.200 F 
ENDBRANCH  54  77
ENDBRANCH  28  29
ENDBRANCH  21  23
ENDBRANCH  20  21
ENDBRANCH  19  20
ENDBRANCH  18  19
ENDBRANCH   1  18
TORSDOF 16
ENDMDL
MODEL 3
REMARK VINA RESULT:      -9.7      3.517      8.964
REMARK SMILES C[C@H](SCC[NH3+])c1ccc(C(=O)OCCOC(=O)c2ccc(-c3c4nc(c(-c5c(F)c(F)c(F)c(F)c5F)c5ccc([nH]5)c(-c5c(F)c(F)c(F)c(F)c5F)c5nc(c(-c6c(F)c(F)c(F)c(F)c6F)c6ccc3[nH]6)C=C5)C=C4)cc2)o1
REMARK SMILES IDX 13 1 11 2 12 3 10 4 7 5 8 6 82 7 9 8 2 9 1 10 3 11 4 12 5 13
REMARK SMILES IDX 6 14 14 18 15 19 16 20 17 21 18 22 19 23 20 24 81 25 21 26
REMARK SMILES IDX 80 27 22 28 23 29 24 30 74 31 25 32 79 33 73 34 75 35 26 36
REMARK SMILES IDX 78 37 72 38 71 39 27 41 59 42 39 43 58 44 40 45 43 46 57 47
REMARK SMILES IDX 76 48 41 49 42 50 56 52 77 53 44 54 28 55 29 56 37 57 30 58
REMARK SMILES IDX 31 59 35 60 38 61 32 62 33 63 36 64 34 65 60 66 61 67 69 68
REMARK SMILES IDX 62 69 63 70 67 71 70 72 64 73 65 74 68 75 66 76 45 77 46 78
REMARK SMILES IDX 54 79 47 80 48 81 52 82 55 83 49 84 50 85 53 86 51 87
REMARK H PARENT 6 15 6 16 6 17 75 40 43 51
REMARK Flexibility Score: inf
ROOT
ATOM      1  O   UNL A   1      32.338  28.443  24.453  1.00  0.00    -0.456 OA
ENDROOT
BRANCH   1   2
ATOM      2  C   UNL A   1      32.065  27.221  23.906  1.00  0.00     0.374 C 
ATOM      3  O   UNL A   1      31.209  27.021  23.054  1.00  0.00    -0.242 OA
BRANCH   2   4
ATOM      4  C   UNL A   1      32.979  26.229  24.422  1.00  0.00     0.211 A 
ATOM      5  C   UNL A   1      33.985  24.259  24.367  1.00  0.00     0.117 A 
ATOM      6  C   UNL A   1      34.550  24.960  25.412  1.00  0.00     0.048 A 
ATOM      7  O   UNL A   1      32.982  25.002  23.816  1.00  0.00    -0.453 OA
ATOM      8  C   UNL A   1      33.935  26.239  25.421  1.00  0.00     0.058 A 
BRANCH   5   9
ATOM      9  C   UNL A   1      34.211  22.931  23.725  1.00  0.00     0.110 C 
ATOM     10  C   UNL A   1      32.936  22.464  23.018  1.00  0.00     0.028 C 
BRANCH   9  11
ATOM     11  S   UNL A   1      34.734  21.603  24.883  1.00  0.00    -0.145 SA
BRANCH  11  12
ATOM     12  C   UNL A   1      33.137  20.970  25.525  1.00  0.00     0.131 C 
BRANCH  12  13
ATOM     13  C   UNL A   1      32.832  19.494  25.251  1.00  0.00     0.269 C 
BRANCH  13  14
ATOM     14  N   UNL A   1      32.823  18.666  26.448  1.00  0.00    -0.357 N 
ATOM     15  H   UNL A   1      31.860  18.439  26.697  1.00  0.00     0.344 HD
ATOM     16  H   UNL A   1      33.263  19.172  27.216  1.00  0.00     0.344 HD
ATOM     17  H   UNL A   1      33.340  17.804  26.269  1.00  0.00     0.344 HD
ENDBRANCH  13  14
ENDBRANCH  12  13
ENDBRANCH  11  12
ENDBRANCH   9  11
ENDBRANCH   5   9
ENDBRANCH   2   4
ENDBRANCH   1   2
BRANCH   1  18
ATOM     18  C   UNL A   1      31.203  29.310  24.633  1.00  0.00     0.275 C 
BRANCH  18  19
ATOM     19  C   UNL A   1      31.480  30.388  25.685  1.00  0.00     0.275 C 
BRANCH  19  20
ATOM     20  O   UNL A   1      32.840  30.320  26.159  1.00  0.00    -0.458 OA
BRANCH  20  21
ATOM     21  C   UNL A   1      33.229  31.333  26.966  1.00  0.00     0.338 C 
ATOM     22  O   UNL A   1      32.612  32.349  27.233  1.00  0.00    -0.246 OA
BRANCH  21  23
ATOM     23  C   UNL A   1      34.538  31.012  27.556  1.00  0.00     0.060 A 
ATOM     24  C   UNL A   1      34.801  29.691  27.913  1.00  0.00     0.016 A 
ATOM     25  C   UNL A   1      35.452  32.021  27.865  1.00  0.00     0.016 A 
ATOM     26  C   UNL A   1      35.957  29.375  28.623  1.00  0.00     0.010 A 
ATOM     27  C   UNL A   1      36.629  31.697  28.553  1.00  0.00     0.010 A 
ATOM     28  C   UNL A   1      36.878  30.375  28.963  1.00  0.00    -0.014 A 
BRANCH  28  29
ATOM     29  C   UNL A   1      38.067  30.027  29.785  1.00  0.00     0.031 A 
ATOM     30  C   UNL A   1      39.145  29.135  29.230  1.00  0.00     0.074 A 
ATOM     31  C   UNL A   1      38.207  30.552  31.016  1.00  0.00     0.049 A 
ATOM     32  N   UNL A   1      40.227  28.682  29.812  1.00  0.00    -0.248 NA
ATOM     33  C   UNL A   1      38.986  28.696  27.835  1.00  0.00     0.031 C 
ATOM     34  C   UNL A   1      37.259  31.466  31.654  1.00  0.00     0.029 A 
ATOM     35  N   UNL A   1      39.206  30.403  31.946  1.00  0.00    -0.354 N 
ATOM     36  C   UNL A   1      40.861  27.881  28.871  1.00  0.00     0.074 A 
ATOM     37  C   UNL A   1      40.039  27.906  27.678  1.00  0.00     0.031 C 
ATOM     38  C   UNL A   1      37.734  31.817  32.859  1.00  0.00     0.029 A 
ATOM     39  C   UNL A   1      38.989  31.112  33.100  1.00  0.00     0.049 A 
ATOM     40  H   UNL A   1      40.001  29.842  31.798  1.00  0.00     0.167 HD
ATOM     41  C   UNL A   1      42.019  27.190  28.992  1.00  0.00     0.037 A 
ATOM     42  C   UNL A   1      39.708  31.172  34.237  1.00  0.00     0.037 A 
ATOM     43  C   UNL A   1      42.854  27.189  30.164  1.00  0.00     0.049 A 
ATOM     44  C   UNL A   1      40.971  30.367  34.357  1.00  0.00     0.074 A 
ATOM     45  C   UNL A   1      44.058  26.535  30.368  1.00  0.00     0.029 A 
ATOM     46  N   UNL A   1      42.575  27.882  31.332  1.00  0.00    -0.354 N 
ATOM     47  N   UNL A   1      41.546  29.594  33.470  1.00  0.00    -0.248 NA
ATOM     48  C   UNL A   1      41.677  30.433  35.645  1.00  0.00     0.031 C 
ATOM     49  C   UNL A   1      44.490  26.806  31.672  1.00  0.00     0.029 A 
ATOM     50  C   UNL A   1      43.573  27.657  32.267  1.00  0.00     0.049 A 
ATOM     51  H   UNL A   1      41.784  28.450  31.477  1.00  0.00     0.167 HD
ATOM     52  C   UNL A   1      42.681  29.086  34.086  1.00  0.00     0.074 A 
ATOM     53  C   UNL A   1      42.726  29.653  35.417  1.00  0.00     0.031 C 
ATOM     54  C   UNL A   1      43.600  28.222  33.591  1.00  0.00     0.037 A 
BRANCH  41  55
ATOM     55  C   UNL A   1      42.444  26.345  27.827  1.00  0.00     0.064 A 
ATOM     56  C   UNL A   1      41.943  25.050  27.631  1.00  0.00     0.173 A 
ATOM     57  C   UNL A   1      43.338  26.857  26.873  1.00  0.00     0.173 A 
ATOM     58  F   UNL A   1      41.097  24.513  28.523  1.00  0.00    -0.203 F 
ATOM     59  C   UNL A   1      42.336  24.291  26.532  1.00  0.00     0.198 A 
ATOM     60  C   UNL A   1      43.711  26.102  25.765  1.00  0.00     0.198 A 
ATOM     61  F   UNL A   1      43.843  28.091  27.014  1.00  0.00    -0.203 F 
ATOM     62  F   UNL A   1      41.873  23.042  26.383  1.00  0.00    -0.200 F 
ATOM     63  C   UNL A   1      43.215  24.819  25.597  1.00  0.00     0.200 A 
ATOM     64  F   UNL A   1      44.555  26.617  24.859  1.00  0.00    -0.200 F 
ATOM     65  F   UNL A   1      43.589  24.088  24.538  1.00  0.00    -0.200 F 
ENDBRANCH  41  55
BRANCH  42  66
ATOM     66  C   UNL A   1      39.233  32.017  35.360  1.00  0.00     0.064 A 
ATOM     67  C   UNL A   1      38.454  31.476  36.390  1.00  0.00     0.173 A 
ATOM     68  C   UNL A   1      39.568  33.377  35.436  1.00  0.00     0.173 A 
ATOM     69  F   UNL A   1      38.087  30.186  36.344  1.00  0.00    -0.203 F 
ATOM     70  C   UNL A   1      38.024  32.265  37.455  1.00  0.00     0.198 A 
ATOM     71  C   UNL A   1      39.159  34.158  36.512  1.00  0.00     0.198 A 
ATOM     72  F   UNL A   1      40.311  33.941  34.471  1.00  0.00    -0.203 F 
ATOM     73  F   UNL A   1      37.254  31.731  38.413  1.00  0.00    -0.200 F 
ATOM     74  C   UNL A   1      38.384  33.603  37.519  1.00  0.00     0.200 A 
ATOM     75  F   UNL A   1      39.517  35.449  36.577  1.00  0.00    -0.200 F 
ATOM     76  F   UNL A   1      37.980  34.358  38.550  1.00  0.00    -0.200 F 
ENDBRANCH  42  66
BRANCH  54  77
ATOM     77  C   UNL A   1      44.736  27.845  34.494  1.00  0.00     0.064 A 
ATOM     78  C   UNL A   1      45.916  28.601  34.535  1.00  0.00     0.173 A 
ATOM     79  C   UNL A   1      44.632  26.735  35.345  1.00  0.00     0.173 A 
ATOM     80  F   UNL A   1      46.066  29.661  33.727  1.00  0.00    -0.203 F 
ATOM     81  C   UNL A   1      46.961  28.248  35.385  1.00  0.00     0.198 A 
ATOM     82  C   UNL A   1      45.671  26.397  36.208  1.00  0.00     0.198 A 
ATOM     83  F   UNL A   1      43.522  25.983  35.343  1.00  0.00    -0.203 F 
ATOM     84  F   UNL A   1      48.095  28.962  35.382  1.00  0.00    -0.200 F 
ATOM     85  C   UNL A   1      46.836  27.151  36.224  1.00  0.00     0.200 A 
ATOM     86  F   UNL A   1      45.547  25.341  37.023  1.00  0.00    -0.200 F 
ATOM     87  F   UNL A   1      47.842  26.813  37.041  1.00  0.00    -0.200 F 
ENDBRANCH  54  77
ENDBRANCH  28  29
ENDBRANCH  21  23
ENDBRANCH  20  21
ENDBRANCH  19  20
ENDBRANCH  18  19
ENDBRANCH   1  18
TORSDOF 16
ENDMDL
