MODEL 1
REMARK VINA RESULT:     -14.1      0.000      0.000
REMARK SMILES Cc1cccc(-c2cc(C[C@]3(C(=O)OCCOC(=O)c4ccc(-c5c6nc(c(-c7c(F)c(F)c(F)c(F)c7F)c7ccc([nH]7)c(-c7c(F)c(F)c(F)c(F)c7F)c7nc(c(-c8c(F)c(F)c(F)c(F)c8F)c8ccc5[nH]8)C=C7)C=C6)cc4)CCCN(C(=O)C(C)C)C3)on2)c1
REMARK SMILES IDX 15 1 14 2 12 3 13 4 11 5 83 6 92 7 84 8 86 9 85 10 10 11
REMARK SMILES IDX 9 12 7 13 8 14 94 15 93 16 6 17 1 18 2 19 3 20 95 21 4 22
REMARK SMILES IDX 5 23 87 24 88 25 89 26 90 27 91 28 16 29 17 30 18 31 19 32
REMARK SMILES IDX 20 33 21 34 82 35 22 36 81 37 23 38 24 39 25 40 75 41 26 42
REMARK SMILES IDX 80 43 74 44 76 45 27 46 79 47 73 48 72 49 28 51 60 52 40 53
REMARK SMILES IDX 59 54 41 55 44 56 58 57 77 58 42 59 43 60 57 62 78 63 45 64
REMARK SMILES IDX 29 65 30 66 38 67 31 68 32 69 36 70 39 71 33 72 34 73 37 74
REMARK SMILES IDX 35 75 61 76 62 77 70 78 63 79 64 80 68 81 71 82 65 83 66 84
REMARK SMILES IDX 69 85 67 86 46 87 47 88 55 89 48 90 49 91 53 92 56 93 50 94
REMARK SMILES IDX 51 95 54 96 52 97
REMARK H PARENT 76 50 44 61
REMARK Flexibility Score: inf
ROOT
ATOM      1  C   UNL A   1      32.370  29.045  27.083  1.00  0.00     0.274 C 
ENDROOT
BRANCH   1   2
ATOM      2  O   UNL A   1      32.858  27.682  27.010  1.00  0.00    -0.462 OA
BRANCH   2   3
ATOM      3  C   UNL A   1      31.918  26.824  26.495  1.00  0.00     0.314 C 
ATOM      4  O   UNL A   1      30.761  26.831  26.909  1.00  0.00    -0.252 OA
BRANCH   3   5
ATOM      5  C   UNL A   1      32.433  25.737  25.512  1.00  0.00     0.093 C 
ATOM      6  C   UNL A   1      33.976  25.871  25.581  1.00  0.00     0.023 C 
ATOM      7  C   UNL A   1      31.905  24.420  26.163  1.00  0.00     0.138 C 
ATOM      8  C   UNL A   1      34.751  24.565  25.444  1.00  0.00     0.023 C 
ATOM      9  N   UNL A   1      32.751  23.283  25.890  1.00  0.00    -0.341 N 
ATOM     10  C   UNL A   1      34.125  23.490  26.321  1.00  0.00     0.119 C 
BRANCH   5  11
ATOM     11  C   UNL A   1      31.867  25.853  24.053  1.00  0.00     0.099 C 
BRANCH  11  12
ATOM     12  C   UNL A   1      30.885  26.956  23.687  1.00  0.00     0.138 A 
ATOM     13  C   UNL A   1      29.669  28.731  23.012  1.00  0.00     0.114 A 
ATOM     14  C   UNL A   1      31.001  28.273  23.267  1.00  0.00     0.077 A 
ATOM     15  N   UNL A   1      28.811  27.715  23.212  1.00  0.00    -0.080 NA
ATOM     16  O   UNL A   1      29.566  26.618  23.606  1.00  0.00    -0.361 OA
BRANCH  13  17
ATOM     17  C   UNL A   1      29.194  30.099  22.704  1.00  0.00     0.004 A 
ATOM     18  C   UNL A   1      27.794  32.288  19.874  1.00  0.00     0.044 C 
ATOM     19  C   UNL A   1      28.339  31.835  21.199  1.00  0.00    -0.050 A 
ATOM     20  C   UNL A   1      28.392  32.778  22.233  1.00  0.00     0.003 A 
ATOM     21  C   UNL A   1      28.765  30.502  21.431  1.00  0.00     0.014 A 
ATOM     22  C   UNL A   1      28.788  32.389  23.499  1.00  0.00     0.001 A 
ATOM     23  C   UNL A   1      29.147  31.059  23.725  1.00  0.00     0.010 A 
ENDBRANCH  13  17
ENDBRANCH  11  12
ENDBRANCH   5  11
BRANCH   9  24
ATOM     24  C   UNL A   1      32.190  22.177  25.288  1.00  0.00     0.225 C 
ATOM     25  O   UNL A   1      31.174  21.647  25.753  1.00  0.00    -0.275 OA
BRANCH  24  26
ATOM     26  C   UNL A   1      32.821  21.558  24.051  1.00  0.00     0.072 C 
ATOM     27  C   UNL A   1      32.526  20.081  23.837  1.00  0.00     0.018 C 
ATOM     28  C   UNL A   1      32.536  22.401  22.821  1.00  0.00     0.018 C 
ENDBRANCH  24  26
ENDBRANCH   9  24
ENDBRANCH   3   5
ENDBRANCH   2   3
ENDBRANCH   1   2
BRANCH   1  29
ATOM     29  C   UNL A   1      33.423  30.155  27.246  1.00  0.00     0.275 C 
BRANCH  29  30
ATOM     30  O   UNL A   1      34.839  29.859  27.219  1.00  0.00    -0.458 OA
BRANCH  30  31
ATOM     31  C   UNL A   1      35.799  30.455  27.966  1.00  0.00     0.338 C 
ATOM     32  O   UNL A   1      35.663  31.541  28.470  1.00  0.00    -0.246 OA
BRANCH  31  33
ATOM     33  C   UNL A   1      37.042  29.679  28.132  1.00  0.00     0.060 A 
ATOM     34  C   UNL A   1      37.997  29.774  27.112  1.00  0.00     0.016 A 
ATOM     35  C   UNL A   1      37.305  29.000  29.318  1.00  0.00     0.016 A 
ATOM     36  C   UNL A   1      39.280  29.291  27.321  1.00  0.00     0.010 A 
ATOM     37  C   UNL A   1      38.592  28.584  29.562  1.00  0.00     0.010 A 
ATOM     38  C   UNL A   1      39.565  28.722  28.559  1.00  0.00    -0.014 A 
BRANCH  38  39
ATOM     39  C   UNL A   1      40.735  27.892  28.757  1.00  0.00     0.031 A 
ATOM     40  C   UNL A   1      40.757  26.459  28.440  1.00  0.00     0.074 A 
ATOM     41  C   UNL A   1      41.771  28.652  29.166  1.00  0.00     0.049 A 
ATOM     42  N   UNL A   1      41.519  25.610  29.039  1.00  0.00    -0.248 NA
ATOM     43  C   UNL A   1      39.882  25.823  27.454  1.00  0.00     0.031 C 
ATOM     44  C   UNL A   1      43.192  28.395  29.241  1.00  0.00     0.029 A 
ATOM     45  N   UNL A   1      41.617  29.905  29.796  1.00  0.00    -0.354 N 
ATOM     46  C   UNL A   1      41.505  24.456  28.281  1.00  0.00     0.074 A 
ATOM     47  C   UNL A   1      40.345  24.565  27.437  1.00  0.00     0.031 C 
ATOM     48  C   UNL A   1      43.725  29.258  30.130  1.00  0.00     0.029 A 
ATOM     49  C   UNL A   1      42.615  29.964  30.764  1.00  0.00     0.049 A 
ATOM     50  H   UNL A   1      40.944  30.594  29.593  1.00  0.00     0.167 HD
ATOM     51  C   UNL A   1      42.619  23.668  28.270  1.00  0.00     0.037 A 
ATOM     52  C   UNL A   1      42.248  29.859  32.075  1.00  0.00     0.037 A 
ATOM     53  C   UNL A   1      43.638  24.267  29.124  1.00  0.00     0.049 A 
ATOM     54  C   UNL A   1      42.875  28.644  32.709  1.00  0.00     0.074 A 
ATOM     55  C   UNL A   1      44.675  25.137  28.828  1.00  0.00     0.029 A 
ATOM     56  N   UNL A   1      43.416  24.363  30.491  1.00  0.00    -0.354 N 
ATOM     57  N   UNL A   1      43.075  27.504  32.103  1.00  0.00    -0.248 NA
ATOM     58  C   UNL A   1      43.414  28.680  34.057  1.00  0.00     0.031 C 
ATOM     59  C   UNL A   1      45.085  25.759  30.033  1.00  0.00     0.029 A 
ATOM     60  C   UNL A   1      44.287  25.275  31.056  1.00  0.00     0.049 A 
ATOM     61  H   UNL A   1      42.736  23.855  30.987  1.00  0.00     0.167 HD
ATOM     62  C   UNL A   1      43.847  26.697  32.910  1.00  0.00     0.074 A 
ATOM     63  C   UNL A   1      44.020  27.484  34.120  1.00  0.00     0.031 C 
ATOM     64  C   UNL A   1      44.313  25.476  32.496  1.00  0.00     0.037 A 
BRANCH  51  65
ATOM     65  C   UNL A   1      42.929  22.614  27.227  1.00  0.00     0.064 A 
ATOM     66  C   UNL A   1      42.258  21.368  27.241  1.00  0.00     0.173 A 
ATOM     67  C   UNL A   1      43.879  22.759  26.201  1.00  0.00     0.173 A 
ATOM     68  F   UNL A   1      41.273  21.107  28.107  1.00  0.00    -0.203 F 
ATOM     69  C   UNL A   1      42.578  20.326  26.367  1.00  0.00     0.198 A 
ATOM     70  C   UNL A   1      44.219  21.704  25.340  1.00  0.00     0.198 A 
ATOM     71  F   UNL A   1      44.484  23.934  25.978  1.00  0.00    -0.203 F 
ATOM     72  F   UNL A   1      41.917  19.162  26.452  1.00  0.00    -0.200 F 
ATOM     73  C   UNL A   1      43.575  20.485  25.431  1.00  0.00     0.200 A 
ATOM     74  F   UNL A   1      45.178  21.876  24.419  1.00  0.00    -0.200 F 
ATOM     75  F   UNL A   1      43.900  19.476  24.611  1.00  0.00    -0.200 F 
ENDBRANCH  51  65
BRANCH  52  76
ATOM     76  C   UNL A   1      40.895  30.414  32.424  1.00  0.00     0.064 A 
ATOM     77  C   UNL A   1      39.811  29.528  32.633  1.00  0.00     0.173 A 
ATOM     78  C   UNL A   1      40.679  31.753  32.778  1.00  0.00     0.173 A 
ATOM     79  F   UNL A   1      39.932  28.230  32.303  1.00  0.00    -0.203 F 
ATOM     80  C   UNL A   1      38.628  29.932  33.252  1.00  0.00     0.198 A 
ATOM     81  C   UNL A   1      39.482  32.161  33.384  1.00  0.00     0.198 A 
ATOM     82  F   UNL A   1      41.645  32.665  32.612  1.00  0.00    -0.203 F 
ATOM     83  F   UNL A   1      37.676  29.030  33.533  1.00  0.00    -0.200 F 
ATOM     84  C   UNL A   1      38.468  31.250  33.638  1.00  0.00     0.200 A 
ATOM     85  F   UNL A   1      39.343  33.428  33.801  1.00  0.00    -0.200 F 
ATOM     86  F   UNL A   1      37.371  31.630  34.308  1.00  0.00    -0.200 F 
ENDBRANCH  52  76
BRANCH  64  87
ATOM     87  C   UNL A   1      44.941  24.360  33.325  1.00  0.00     0.064 A 
ATOM     88  C   UNL A   1      44.307  23.166  33.689  1.00  0.00     0.173 A 
ATOM     89  C   UNL A   1      46.320  24.422  33.687  1.00  0.00     0.173 A 
ATOM     90  F   UNL A   1      43.047  22.893  33.340  1.00  0.00    -0.203 F 
ATOM     91  C   UNL A   1      44.968  22.148  34.388  1.00  0.00     0.198 A 
ATOM     92  C   UNL A   1      46.995  23.373  34.310  1.00  0.00     0.198 A 
ATOM     93  F   UNL A   1      47.088  25.490  33.431  1.00  0.00    -0.203 F 
ATOM     94  F   UNL A   1      44.286  21.053  34.750  1.00  0.00    -0.200 F 
ATOM     95  C   UNL A   1      46.313  22.240  34.677  1.00  0.00     0.200 A 
ATOM     96  F   UNL A   1      48.314  23.471  34.530  1.00  0.00    -0.200 F 
ATOM     97  F   UNL A   1      46.951  21.235  35.288  1.00  0.00    -0.200 F 
ENDBRANCH  64  87
ENDBRANCH  38  39
ENDBRANCH  31  33
ENDBRANCH  30  31
ENDBRANCH  29  30
ENDBRANCH   1  29
TORSDOF 16
ENDMDL
MODEL 2
REMARK VINA RESULT:     -13.9      1.326      4.856
REMARK SMILES Cc1cccc(-c2cc(C[C@]3(C(=O)OCCOC(=O)c4ccc(-c5c6nc(c(-c7c(F)c(F)c(F)c(F)c7F)c7ccc([nH]7)c(-c7c(F)c(F)c(F)c(F)c7F)c7nc(c(-c8c(F)c(F)c(F)c(F)c8F)c8ccc5[nH]8)C=C7)C=C6)cc4)CCCN(C(=O)C(C)C)C3)on2)c1
REMARK SMILES IDX 15 1 14 2 12 3 13 4 11 5 83 6 92 7 84 8 86 9 85 10 10 11
REMARK SMILES IDX 9 12 7 13 8 14 94 15 93 16 6 17 1 18 2 19 3 20 95 21 4 22
REMARK SMILES IDX 5 23 87 24 88 25 89 26 90 27 91 28 16 29 17 30 18 31 19 32
REMARK SMILES IDX 20 33 21 34 82 35 22 36 81 37 23 38 24 39 25 40 75 41 26 42
REMARK SMILES IDX 80 43 74 44 76 45 27 46 79 47 73 48 72 49 28 51 60 52 40 53
REMARK SMILES IDX 59 54 41 55 44 56 58 57 77 58 42 59 43 60 57 62 78 63 45 64
REMARK SMILES IDX 29 65 30 66 38 67 31 68 32 69 36 70 39 71 33 72 34 73 37 74
REMARK SMILES IDX 35 75 61 76 62 77 70 78 63 79 64 80 68 81 71 82 65 83 66 84
REMARK SMILES IDX 69 85 67 86 46 87 47 88 55 89 48 90 49 91 53 92 56 93 50 94
REMARK SMILES IDX 51 95 54 96 52 97
REMARK H PARENT 76 50 44 61
REMARK Flexibility Score: inf
ROOT
ATOM      1  C   UNL A   1      33.080  30.141  26.239  1.00  0.00     0.274 C 
ENDROOT
BRANCH   1   2
ATOM      2  O   UNL A   1      31.698  29.710  26.322  1.00  0.00    -0.462 OA
BRANCH   2   3
ATOM      3  C   UNL A   1      31.532  28.421  25.880  1.00  0.00     0.314 C 
ATOM      4  O   UNL A   1      31.875  27.466  26.572  1.00  0.00    -0.252 OA
BRANCH   3   5
ATOM      5  C   UNL A   1      31.071  28.246  24.407  1.00  0.00     0.093 C 
ATOM      6  C   UNL A   1      30.119  27.023  24.456  1.00  0.00     0.023 C 
ATOM      7  C   UNL A   1      30.326  29.588  24.127  1.00  0.00     0.138 C 
ATOM      8  C   UNL A   1      28.938  27.077  23.494  1.00  0.00     0.023 C 
ATOM      9  N   UNL A   1      29.264  29.448  23.159  1.00  0.00    -0.341 N 
ATOM     10  C   UNL A   1      28.281  28.448  23.546  1.00  0.00     0.119 C 
BRANCH   5  11
ATOM     11  C   UNL A   1      32.238  28.079  23.372  1.00  0.00     0.099 C 
BRANCH  11  12
ATOM     12  C   UNL A   1      32.968  26.752  23.232  1.00  0.00     0.138 A 
ATOM     13  C   UNL A   1      33.969  24.733  23.317  1.00  0.00     0.114 A 
ATOM     14  C   UNL A   1      33.454  25.802  24.119  1.00  0.00     0.077 A 
ATOM     15  N   UNL A   1      33.743  25.009  22.021  1.00  0.00    -0.080 NA
ATOM     16  O   UNL A   1      33.107  26.243  21.975  1.00  0.00    -0.361 OA
BRANCH  13  17
ATOM     17  C   UNL A   1      34.750  23.546  23.733  1.00  0.00     0.004 A 
ATOM     18  C   UNL A   1      34.393  19.900  24.890  1.00  0.00     0.044 C 
ATOM     19  C   UNL A   1      34.972  21.240  24.536  1.00  0.00    -0.050 A 
ATOM     20  C   UNL A   1      36.365  21.378  24.591  1.00  0.00     0.003 A 
ATOM     21  C   UNL A   1      34.166  22.334  24.131  1.00  0.00     0.014 A 
ATOM     22  C   UNL A   1      36.957  22.557  24.177  1.00  0.00     0.001 A 
ATOM     23  C   UNL A   1      36.152  23.604  23.724  1.00  0.00     0.010 A 
ENDBRANCH  13  17
ENDBRANCH  11  12
ENDBRANCH   5  11
BRANCH   9  24
ATOM     24  C   UNL A   1      29.294  30.242  22.034  1.00  0.00     0.225 C 
ATOM     25  O   UNL A   1      30.091  30.016  21.115  1.00  0.00    -0.275 OA
BRANCH  24  26
ATOM     26  C   UNL A   1      28.366  31.440  21.900  1.00  0.00     0.072 C 
ATOM     27  C   UNL A   1      28.801  32.691  22.650  1.00  0.00     0.018 C 
ATOM     28  C   UNL A   1      28.040  31.710  20.443  1.00  0.00     0.018 C 
ENDBRANCH  24  26
ENDBRANCH   9  24
ENDBRANCH   3   5
ENDBRANCH   2   3
ENDBRANCH   1   2
BRANCH   1  29
ATOM     29  C   UNL A   1      33.722  30.682  27.528  1.00  0.00     0.275 C 
BRANCH  29  30
ATOM     30  O   UNL A   1      34.981  30.160  28.018  1.00  0.00    -0.458 OA
BRANCH  30  31
ATOM     31  C   UNL A   1      36.141  30.848  28.142  1.00  0.00     0.338 C 
ATOM     32  O   UNL A   1      36.201  32.051  28.113  1.00  0.00    -0.246 OA
BRANCH  31  33
ATOM     33  C   UNL A   1      37.348  30.021  28.324  1.00  0.00     0.060 A 
ATOM     34  C   UNL A   1      37.367  29.149  29.420  1.00  0.00     0.016 A 
ATOM     35  C   UNL A   1      38.356  30.010  27.364  1.00  0.00     0.016 A 
ATOM     36  C   UNL A   1      38.341  28.165  29.501  1.00  0.00     0.010 A 
ATOM     37  C   UNL A   1      39.280  28.994  27.398  1.00  0.00     0.010 A 
ATOM     38  C   UNL A   1      39.273  28.087  28.470  1.00  0.00    -0.014 A 
BRANCH  38  39
ATOM     39  C   UNL A   1      40.508  27.348  28.623  1.00  0.00     0.031 A 
ATOM     40  C   UNL A   1      40.614  25.910  28.349  1.00  0.00     0.074 A 
ATOM     41  C   UNL A   1      41.510  28.192  28.945  1.00  0.00     0.049 A 
ATOM     42  N   UNL A   1      41.468  25.138  28.927  1.00  0.00    -0.248 NA
ATOM     43  C   UNL A   1      39.732  25.181  27.437  1.00  0.00     0.031 C 
ATOM     44  C   UNL A   1      42.947  28.037  28.943  1.00  0.00     0.029 A 
ATOM     45  N   UNL A   1      41.303  29.452  29.545  1.00  0.00    -0.354 N 
ATOM     46  C   UNL A   1      41.493  23.959  28.207  1.00  0.00     0.074 A 
ATOM     47  C   UNL A   1      40.282  23.958  27.430  1.00  0.00     0.031 C 
ATOM     48  C   UNL A   1      43.468  28.966  29.772  1.00  0.00     0.029 A 
ATOM     49  C   UNL A   1      42.349  29.614  30.450  1.00  0.00     0.049 A 
ATOM     50  H   UNL A   1      40.572  30.085  29.362  1.00  0.00     0.167 HD
ATOM     51  C   UNL A   1      42.659  23.251  28.153  1.00  0.00     0.037 A 
ATOM     52  C   UNL A   1      42.065  29.529  31.783  1.00  0.00     0.037 A 
ATOM     53  C   UNL A   1      43.679  23.948  28.926  1.00  0.00     0.049 A 
ATOM     54  C   UNL A   1      42.814  28.383  32.415  1.00  0.00     0.074 A 
ATOM     55  C   UNL A   1      44.633  24.878  28.542  1.00  0.00     0.029 A 
ATOM     56  N   UNL A   1      43.530  24.076  30.300  1.00  0.00    -0.354 N 
ATOM     57  N   UNL A   1      43.059  27.240  31.833  1.00  0.00    -0.248 NA
ATOM     58  C   UNL A   1      43.425  28.504  33.726  1.00  0.00     0.031 C 
ATOM     59  C   UNL A   1      45.066  25.568  29.701  1.00  0.00     0.029 A 
ATOM     60  C   UNL A   1      44.365  25.066  30.784  1.00  0.00     0.049 A 
ATOM     61  H   UNL A   1      42.917  23.540  30.852  1.00  0.00     0.167 HD
ATOM     62  C   UNL A   1      43.932  26.517  32.617  1.00  0.00     0.074 A 
ATOM     63  C   UNL A   1      44.117  27.356  33.789  1.00  0.00     0.031 C 
ATOM     64  C   UNL A   1      44.460  25.317  32.213  1.00  0.00     0.037 A 
BRANCH  51  65
ATOM     65  C   UNL A   1      42.982  22.186  27.126  1.00  0.00     0.064 A 
ATOM     66  C   UNL A   1      42.296  20.947  27.132  1.00  0.00     0.173 A 
ATOM     67  C   UNL A   1      43.960  22.311  26.124  1.00  0.00     0.173 A 
ATOM     68  F   UNL A   1      41.285  20.706  27.974  1.00  0.00    -0.203 F 
ATOM     69  C   UNL A   1      42.625  19.895  26.274  1.00  0.00     0.198 A 
ATOM     70  C   UNL A   1      44.309  21.245  25.280  1.00  0.00     0.198 A 
ATOM     71  F   UNL A   1      44.585  23.477  25.909  1.00  0.00    -0.203 F 
ATOM     72  F   UNL A   1      41.948  18.740  26.350  1.00  0.00    -0.200 F 
ATOM     73  C   UNL A   1      43.648  20.035  25.363  1.00  0.00     0.200 A 
ATOM     74  F   UNL A   1      45.294  21.399  24.383  1.00  0.00    -0.200 F 
ATOM     75  F   UNL A   1      43.981  19.016  24.559  1.00  0.00    -0.200 F 
ENDBRANCH  51  65
BRANCH  52  76
ATOM     76  C   UNL A   1      40.699  30.001  32.195  1.00  0.00     0.064 A 
ATOM     77  C   UNL A   1      40.307  31.332  31.910  1.00  0.00     0.173 A 
ATOM     78  C   UNL A   1      39.691  29.140  32.649  1.00  0.00     0.173 A 
ATOM     79  F   UNL A   1      41.218  32.224  31.487  1.00  0.00    -0.203 F 
ATOM     80  C   UNL A   1      38.976  31.745  31.975  1.00  0.00     0.198 A 
ATOM     81  C   UNL A   1      38.356  29.563  32.731  1.00  0.00     0.198 A 
ATOM     82  F   UNL A   1      39.968  27.865  32.947  1.00  0.00    -0.203 F 
ATOM     83  F   UNL A   1      38.639  32.983  31.585  1.00  0.00    -0.200 F 
ATOM     84  C   UNL A   1      37.997  30.855  32.377  1.00  0.00     0.200 A 
ATOM     85  F   UNL A   1      37.398  28.689  33.075  1.00  0.00    -0.200 F 
ATOM     86  F   UNL A   1      36.707  31.218  32.363  1.00  0.00    -0.200 F 
ENDBRANCH  52  76
BRANCH  64  87
ATOM     87  C   UNL A   1      45.212  24.278  33.037  1.00  0.00     0.064 A 
ATOM     88  C   UNL A   1      46.509  24.428  33.544  1.00  0.00     0.173 A 
ATOM     89  C   UNL A   1      44.554  23.086  33.464  1.00  0.00     0.173 A 
ATOM     90  F   UNL A   1      47.232  25.530  33.333  1.00  0.00    -0.203 F 
ATOM     91  C   UNL A   1      47.111  23.464  34.361  1.00  0.00     0.198 A 
ATOM     92  C   UNL A   1      45.127  22.168  34.343  1.00  0.00     0.198 A 
ATOM     93  F   UNL A   1      43.313  22.765  33.074  1.00  0.00    -0.203 F 
ATOM     94  F   UNL A   1      48.374  23.648  34.768  1.00  0.00    -0.200 F 
ATOM     95  C   UNL A   1      46.416  22.349  34.778  1.00  0.00     0.200 A 
ATOM     96  F   UNL A   1      44.407  21.122  34.773  1.00  0.00    -0.200 F 
ATOM     97  F   UNL A   1      46.979  21.464  35.611  1.00  0.00    -0.200 F 
ENDBRANCH  64  87
ENDBRANCH  38  39
ENDBRANCH  31  33
ENDBRANCH  30  31
ENDBRANCH  29  30
ENDBRANCH   1  29
TORSDOF 16
ENDMDL
MODEL 3
REMARK VINA RESULT:     -13.8      3.781      9.527
REMARK SMILES Cc1cccc(-c2cc(C[C@]3(C(=O)OCCOC(=O)c4ccc(-c5c6nc(c(-c7c(F)c(F)c(F)c(F)c7F)c7ccc([nH]7)c(-c7c(F)c(F)c(F)c(F)c7F)c7nc(c(-c8c(F)c(F)c(F)c(F)c8F)c8ccc5[nH]8)C=C7)C=C6)cc4)CCCN(C(=O)C(C)C)C3)on2)c1
REMARK SMILES IDX 15 1 14 2 12 3 13 4 11 5 83 6 92 7 84 8 86 9 85 10 10 11
REMARK SMILES IDX 9 12 7 13 8 14 94 15 93 16 6 17 1 18 2 19 3 20 95 21 4 22
REMARK SMILES IDX 5 23 87 24 88 25 89 26 90 27 91 28 16 29 17 30 18 31 19 32
REMARK SMILES IDX 20 33 21 34 82 35 22 36 81 37 23 38 24 39 25 40 75 41 26 42
REMARK SMILES IDX 80 43 74 44 76 45 27 46 79 47 73 48 72 49 28 51 60 52 40 53
REMARK SMILES IDX 59 54 41 55 44 56 58 57 77 58 42 59 43 60 57 62 78 63 45 64
REMARK SMILES IDX 29 65 30 66 38 67 31 68 32 69 36 70 39 71 33 72 34 73 37 74
REMARK SMILES IDX 35 75 61 76 62 77 70 78 63 79 64 80 68 81 71 82 65 83 66 84
REMARK SMILES IDX 69 85 67 86 46 87 47 88 55 89 48 90 49 91 53 92 56 93 50 94
REMARK SMILES IDX 51 95 54 96 52 97
REMARK H PARENT 76 50 44 61
REMARK Flexibility Score: inf
ROOT
ATOM      1  C   UNL A   1      36.703  22.482  25.086  1.00  0.00     0.274 C 
ENDROOT
BRANCH   1   2
ATOM      2  O   UNL A   1      35.299  22.827  24.974  1.00  0.00    -0.462 OA
BRANCH   2   3
ATOM      3  C   UNL A   1      35.022  23.485  23.801  1.00  0.00     0.314 C 
ATOM      4  O   UNL A   1      35.742  23.352  22.815  1.00  0.00    -0.252 OA
BRANCH   3   5
ATOM      5  C   UNL A   1      33.876  24.534  23.846  1.00  0.00     0.093 C 
ATOM      6  C   UNL A   1      32.611  23.694  24.161  1.00  0.00     0.023 C 
ATOM      7  C   UNL A   1      34.310  25.451  25.032  1.00  0.00     0.138 C 
ATOM      8  C   UNL A   1      31.572  24.383  25.038  1.00  0.00     0.023 C 
ATOM      9  N   UNL A   1      33.188  26.047  25.718  1.00  0.00    -0.341 N 
ATOM     10  C   UNL A   1      32.249  25.057  26.223  1.00  0.00     0.119 C 
BRANCH   5  11
ATOM     11  C   UNL A   1      33.734  25.403  22.548  1.00  0.00     0.099 C 
BRANCH  11  12
ATOM     12  C   UNL A   1      32.792  26.597  22.512  1.00  0.00     0.138 A 
ATOM     13  C   UNL A   1      31.188  28.180  22.589  1.00  0.00     0.114 A 
ATOM     14  C   UNL A   1      31.421  26.768  22.638  1.00  0.00     0.077 A 
ATOM     15  N   UNL A   1      32.369  28.816  22.500  1.00  0.00    -0.080 NA
ATOM     16  O   UNL A   1      33.355  27.838  22.475  1.00  0.00    -0.361 OA
BRANCH  13  17
ATOM     17  C   UNL A   1      29.904  28.913  22.510  1.00  0.00     0.004 A 
ATOM     18  C   UNL A   1      28.288  32.117  21.141  1.00  0.00     0.044 C 
ATOM     19  C   UNL A   1      28.504  30.820  21.866  1.00  0.00    -0.050 A 
ATOM     20  C   UNL A   1      27.401  30.247  22.510  1.00  0.00     0.003 A 
ATOM     21  C   UNL A   1      29.761  30.162  21.889  1.00  0.00     0.014 A 
ATOM     22  C   UNL A   1      27.520  29.004  23.104  1.00  0.00     0.001 A 
ATOM     23  C   UNL A   1      28.749  28.342  23.066  1.00  0.00     0.010 A 
ENDBRANCH  13  17
ENDBRANCH  11  12
ENDBRANCH   5  11
BRANCH   9  24
ATOM     24  C   UNL A   1      33.136  27.420  25.822  1.00  0.00     0.225 C 
ATOM     25  O   UNL A   1      34.134  28.114  25.589  1.00  0.00    -0.275 OA
BRANCH  24  26
ATOM     26  C   UNL A   1      31.858  28.122  26.254  1.00  0.00     0.072 C 
ATOM     27  C   UNL A   1      31.546  28.052  27.742  1.00  0.00     0.018 C 
ATOM     28  C   UNL A   1      31.809  29.537  25.707  1.00  0.00     0.018 C 
ENDBRANCH  24  26
ENDBRANCH   9  24
ENDBRANCH   3   5
ENDBRANCH   2   3
ENDBRANCH   1   2
BRANCH   1  29
ATOM     29  C   UNL A   1      37.611  23.485  25.819  1.00  0.00     0.275 C 
BRANCH  29  30
ATOM     30  O   UNL A   1      38.653  23.037  26.719  1.00  0.00    -0.458 OA
BRANCH  30  31
ATOM     31  C   UNL A   1      39.874  23.602  26.878  1.00  0.00     0.338 C 
ATOM     32  O   UNL A   1      40.900  23.060  26.550  1.00  0.00    -0.246 OA
BRANCH  31  33
ATOM     33  C   UNL A   1      39.873  24.946  27.484  1.00  0.00     0.060 A 
ATOM     34  C   UNL A   1      40.258  26.017  26.667  1.00  0.00     0.016 A 
ATOM     35  C   UNL A   1      39.374  25.149  28.767  1.00  0.00     0.016 A 
ATOM     36  C   UNL A   1      40.029  27.319  27.084  1.00  0.00     0.010 A 
ATOM     37  C   UNL A   1      39.077  26.432  29.158  1.00  0.00     0.010 A 
ATOM     38  C   UNL A   1      39.417  27.507  28.320  1.00  0.00    -0.014 A 
BRANCH  38  39
ATOM     39  C   UNL A   1      39.449  28.789  28.992  1.00  0.00     0.031 A 
ATOM     40  C   UNL A   1      38.467  29.848  28.734  1.00  0.00     0.074 A 
ATOM     41  C   UNL A   1      40.428  28.794  29.920  1.00  0.00     0.049 A 
ATOM     42  N   UNL A   1      38.720  31.103  28.879  1.00  0.00    -0.248 NA
ATOM     43  C   UNL A   1      37.114  29.608  28.230  1.00  0.00     0.031 C 
ATOM     44  C   UNL A   1      40.711  29.682  31.026  1.00  0.00     0.029 A 
ATOM     45  N   UNL A   1      41.546  27.933  29.878  1.00  0.00    -0.354 N 
ATOM     46  C   UNL A   1      37.506  31.761  28.861  1.00  0.00     0.074 A 
ATOM     47  C   UNL A   1      36.577  30.836  28.269  1.00  0.00     0.031 C 
ATOM     48  C   UNL A   1      42.016  29.546  31.345  1.00  0.00     0.029 A 
ATOM     49  C   UNL A   1      42.622  28.693  30.327  1.00  0.00     0.049 A 
ATOM     50  H   UNL A   1      41.560  26.992  29.591  1.00  0.00     0.167 HD
ATOM     51  C   UNL A   1      37.373  32.908  29.589  1.00  0.00     0.037 A 
ATOM     52  C   UNL A   1      43.561  29.082  29.415  1.00  0.00     0.037 A 
ATOM     53  C   UNL A   1      38.634  33.197  30.261  1.00  0.00     0.049 A 
ATOM     54  C   UNL A   1      43.624  30.585  29.324  1.00  0.00     0.074 A 
ATOM     55  C   UNL A   1      39.088  32.859  31.527  1.00  0.00     0.029 A 
ATOM     56  N   UNL A   1      39.757  33.510  29.508  1.00  0.00    -0.354 N 
ATOM     57  N   UNL A   1      42.596  31.384  29.427  1.00  0.00    -0.248 NA
ATOM     58  C   UNL A   1      44.889  31.289  29.210  1.00  0.00     0.031 C 
ATOM     59  C   UNL A   1      40.499  32.976  31.534  1.00  0.00     0.029 A 
ATOM     60  C   UNL A   1      40.902  33.373  30.270  1.00  0.00     0.049 A 
ATOM     61  H   UNL A   1      39.741  33.789  28.565  1.00  0.00     0.167 HD
ATOM     62  C   UNL A   1      43.044  32.684  29.502  1.00  0.00     0.074 A 
ATOM     63  C   UNL A   1      44.485  32.561  29.354  1.00  0.00     0.031 C 
ATOM     64  C   UNL A   1      42.199  33.741  29.727  1.00  0.00     0.037 A 
BRANCH  51  65
ATOM     65  C   UNL A   1      36.055  33.529  30.000  1.00  0.00     0.064 A 
ATOM     66  C   UNL A   1      35.218  34.145  29.039  1.00  0.00     0.173 A 
ATOM     67  C   UNL A   1      35.565  33.567  31.317  1.00  0.00     0.173 A 
ATOM     68  F   UNL A   1      35.509  34.123  27.733  1.00  0.00    -0.203 F 
ATOM     69  C   UNL A   1      34.044  34.821  29.379  1.00  0.00     0.198 A 
ATOM     70  C   UNL A   1      34.399  34.268  31.663  1.00  0.00     0.198 A 
ATOM     71  F   UNL A   1      36.179  32.900  32.304  1.00  0.00    -0.203 F 
ATOM     72  F   UNL A   1      33.310  35.402  28.418  1.00  0.00    -0.200 F 
ATOM     73  C   UNL A   1      33.645  34.904  30.695  1.00  0.00     0.200 A 
ATOM     74  F   UNL A   1      34.010  34.326  32.945  1.00  0.00    -0.200 F 
ATOM     75  F   UNL A   1      32.533  35.575  31.023  1.00  0.00    -0.200 F 
ENDBRANCH  51  65
BRANCH  52  76
ATOM     76  C   UNL A   1      43.795  28.136  28.270  1.00  0.00     0.064 A 
ATOM     77  C   UNL A   1      43.189  28.396  27.018  1.00  0.00     0.173 A 
ATOM     78  C   UNL A   1      44.762  27.122  28.294  1.00  0.00     0.173 A 
ATOM     79  F   UNL A   1      42.240  29.342  26.914  1.00  0.00    -0.203 F 
ATOM     80  C   UNL A   1      43.598  27.757  25.846  1.00  0.00     0.198 A 
ATOM     81  C   UNL A   1      45.158  26.467  27.119  1.00  0.00     0.198 A 
ATOM     82  F   UNL A   1      45.386  26.803  29.435  1.00  0.00    -0.203 F 
ATOM     83  F   UNL A   1      43.074  28.121  24.666  1.00  0.00    -0.200 F 
ATOM     84  C   UNL A   1      44.592  26.797  25.896  1.00  0.00     0.200 A 
ATOM     85  F   UNL A   1      46.155  25.571  27.157  1.00  0.00    -0.200 F 
ATOM     86  F   UNL A   1      45.050  26.238  24.767  1.00  0.00    -0.200 F 
ENDBRANCH  52  76
BRANCH  64  87
ATOM     87  C   UNL A   1      42.474  35.234  29.579  1.00  0.00     0.064 A 
ATOM     88  C   UNL A   1      43.327  35.986  30.397  1.00  0.00     0.173 A 
ATOM     89  C   UNL A   1      41.949  35.956  28.466  1.00  0.00     0.173 A 
ATOM     90  F   UNL A   1      43.989  35.445  31.423  1.00  0.00    -0.203 F 
ATOM     91  C   UNL A   1      43.596  37.339  30.158  1.00  0.00     0.198 A 
ATOM     92  C   UNL A   1      42.283  37.279  28.186  1.00  0.00     0.198 A 
ATOM     93  F   UNL A   1      41.107  35.406  27.580  1.00  0.00    -0.203 F 
ATOM     94  F   UNL A   1      44.380  38.011  31.012  1.00  0.00    -0.200 F 
ATOM     95  C   UNL A   1      43.095  37.978  29.044  1.00  0.00     0.200 A 
ATOM     96  F   UNL A   1      41.823  37.857  27.067  1.00  0.00    -0.200 F 
ATOM     97  F   UNL A   1      43.408  39.254  28.789  1.00  0.00    -0.200 F 
ENDBRANCH  64  87
ENDBRANCH  38  39
ENDBRANCH  31  33
ENDBRANCH  30  31
ENDBRANCH  29  30
ENDBRANCH   1  29
TORSDOF 16
ENDMDL
