MODEL 1
REMARK VINA RESULT:     -11.2      0.000      0.000
REMARK SMILES COc1ccc(/C=C2\SC(=O)N(CC(=O)N[C@H](C)C(=O)OCCOC(=O)c3ccc(-c4c5nc(c(-c6c(F)c(F)c(F)c(F)c6F)c6ccc([nH]6)c(-c6c(F)c(F)c(F)c(F)c6F)c6nc(c(-c7c(F)c(F)c(F)c(F)c7F)c7ccc4[nH]7)C=C6)C=C5)cc3)C2=O)cc1OC
REMARK SMILES IDX 21 1 19 2 20 3 17 4 18 5 16 6 14 7 15 8 13 10 12 11 7 12
REMARK SMILES IDX 8 13 9 14 90 15 10 16 91 17 11 18 6 19 3 20 4 21 93 22 5 23
REMARK SMILES IDX 92 24 2 25 1 26 94 27 95 28 22 29 23 30 24 31 25 32 26 33
REMARK SMILES IDX 27 34 28 35 89 36 29 37 88 38 30 39 31 40 32 41 82 42 33 43
REMARK SMILES IDX 87 44 81 45 83 46 34 47 86 48 80 49 79 50 35 52 67 53 47 54
REMARK SMILES IDX 66 55 48 56 51 57 65 58 84 59 49 60 50 61 64 63 85 64 52 65
REMARK SMILES IDX 36 66 37 67 45 68 38 69 39 70 43 71 46 72 40 73 41 74 44 75
REMARK SMILES IDX 42 76 68 77 69 78 77 79 70 80 71 81 75 82 78 83 72 84 73 85
REMARK SMILES IDX 76 86 74 87 53 88 54 89 62 90 55 91 56 92 60 93 63 94 57 95
REMARK SMILES IDX 58 96 61 97 59 98
REMARK H PARENT 16 9 83 51 51 62
REMARK Flexibility Score: inf
ROOT
ATOM      1  O   UNL A   1      32.782  34.914  30.206  1.00  0.00    -0.461 OA
ENDROOT
BRANCH   1   2
ATOM      2  C   UNL A   1      32.734  36.070  30.913  1.00  0.00     0.328 C 
ATOM      3  O   UNL A   1      32.912  37.185  30.432  1.00  0.00    -0.250 OA
BRANCH   2   4
ATOM      4  C   UNL A   1      32.497  35.854  32.418  1.00  0.00     0.189 C 
ATOM      5  C   UNL A   1      31.057  36.016  32.892  1.00  0.00     0.043 C 
BRANCH   4   6
ATOM      6  N   UNL A   1      33.047  34.548  32.773  1.00  0.00    -0.341 N 
ATOM      7  C   UNL A   1      34.282  34.217  33.234  1.00  0.00     0.240 C 
ATOM      8  O   UNL A   1      34.449  33.061  33.627  1.00  0.00    -0.273 OA
ATOM      9  H   UNL A   1      32.428  33.791  32.659  1.00  0.00     0.164 HD
BRANCH   7  10
ATOM     10  C   UNL A   1      35.403  35.254  33.343  1.00  0.00     0.229 C 
BRANCH  10  11
ATOM     11  N   UNL A   1      36.712  34.729  33.000  1.00  0.00    -0.259 N 
ATOM     12  C   UNL A   1      39.029  33.887  30.438  1.00  0.00     0.029 C 
ATOM     13  C   UNL A   1      38.408  33.876  31.627  1.00  0.00     0.083 C 
ATOM     14  S   UNL A   1      39.015  33.623  33.209  1.00  0.00    -0.022 SA
ATOM     15  C   UNL A   1      36.987  34.314  31.715  1.00  0.00     0.268 C 
ATOM     16  C   UNL A   1      37.655  34.456  33.938  1.00  0.00     0.294 C 
ATOM     17  O   UNL A   1      36.221  34.326  30.772  1.00  0.00    -0.268 OA
ATOM     18  O   UNL A   1      37.614  34.742  35.139  1.00  0.00    -0.261 OA
BRANCH  12  19
ATOM     19  C   UNL A   1      40.456  33.733  30.108  1.00  0.00    -0.020 A 
ATOM     20  C   UNL A   1      43.207  33.151  29.420  1.00  0.00     0.160 A 
ATOM     21  C   UNL A   1      42.356  32.192  29.968  1.00  0.00     0.051 A 
ATOM     22  C   UNL A   1      42.628  34.522  29.330  1.00  0.00     0.161 A 
ATOM     23  C   UNL A   1      41.025  32.466  30.296  1.00  0.00     0.012 A 
ATOM     24  C   UNL A   1      41.276  34.767  29.665  1.00  0.00     0.058 A 
BRANCH  20  25
ATOM     25  O   UNL A   1      44.408  32.443  29.143  1.00  0.00    -0.493 OA
ATOM     26  C   UNL A   1      45.860  32.108  29.514  1.00  0.00     0.278 C 
ENDBRANCH  20  25
BRANCH  22  27
ATOM     27  O   UNL A   1      43.356  35.636  29.001  1.00  0.00    -0.493 OA
ATOM     28  C   UNL A   1      44.335  35.955  27.993  1.00  0.00     0.278 C 
ENDBRANCH  22  27
ENDBRANCH  12  19
ENDBRANCH  10  11
ENDBRANCH   7  10
ENDBRANCH   4   6
ENDBRANCH   2   4
ENDBRANCH   1   2
BRANCH   1  29
ATOM     29  C   UNL A   1      33.272  35.009  28.856  1.00  0.00     0.274 C 
BRANCH  29  30
ATOM     30  C   UNL A   1      32.748  33.836  28.022  1.00  0.00     0.275 C 
BRANCH  30  31
ATOM     31  O   UNL A   1      33.801  33.182  27.270  1.00  0.00    -0.458 OA
BRANCH  31  32
ATOM     32  C   UNL A   1      33.802  31.829  27.329  1.00  0.00     0.338 C 
ATOM     33  O   UNL A   1      32.883  31.086  27.023  1.00  0.00    -0.246 OA
BRANCH  32  34
ATOM     34  C   UNL A   1      35.105  31.289  27.776  1.00  0.00     0.060 A 
ATOM     35  C   UNL A   1      35.230  29.938  28.095  1.00  0.00     0.016 A 
ATOM     36  C   UNL A   1      36.157  32.159  28.068  1.00  0.00     0.016 A 
ATOM     37  C   UNL A   1      36.387  29.476  28.753  1.00  0.00     0.010 A 
ATOM     38  C   UNL A   1      37.312  31.683  28.725  1.00  0.00     0.010 A 
ATOM     39  C   UNL A   1      37.428  30.342  29.136  1.00  0.00    -0.014 A 
BRANCH  39  40
ATOM     40  C   UNL A   1      38.654  29.813  29.879  1.00  0.00     0.031 A 
ATOM     41  C   UNL A   1      39.737  29.097  29.192  1.00  0.00     0.074 A 
ATOM     42  C   UNL A   1      38.727  29.781  31.229  1.00  0.00     0.049 A 
ATOM     43  N   UNL A   1      40.798  28.582  29.747  1.00  0.00    -0.248 NA
ATOM     44  C   UNL A   1      39.557  28.804  27.771  1.00  0.00     0.031 C 
ATOM     45  C   UNL A   1      37.539  30.144  31.890  1.00  0.00     0.029 A 
ATOM     46  N   UNL A   1      39.634  29.460  32.276  1.00  0.00    -0.354 N 
ATOM     47  C   UNL A   1      41.346  27.777  28.783  1.00  0.00     0.074 A 
ATOM     48  C   UNL A   1      40.530  27.922  27.589  1.00  0.00     0.031 C 
ATOM     49  C   UNL A   1      37.816  30.203  33.176  1.00  0.00     0.029 A 
ATOM     50  C   UNL A   1      39.237  29.919  33.591  1.00  0.00     0.049 A 
ATOM     51  H   UNL A   1      40.470  28.963  32.119  1.00  0.00     0.167 HD
ATOM     52  C   UNL A   1      42.399  26.947  28.931  1.00  0.00     0.037 A 
ATOM     53  C   UNL A   1      40.053  30.231  34.778  1.00  0.00     0.037 A 
ATOM     54  C   UNL A   1      43.184  26.802  30.132  1.00  0.00     0.049 A 
ATOM     55  C   UNL A   1      41.354  29.441  34.745  1.00  0.00     0.074 A 
ATOM     56  C   UNL A   1      44.368  26.100  30.276  1.00  0.00     0.029 A 
ATOM     57  N   UNL A   1      42.874  27.314  31.388  1.00  0.00    -0.354 N 
ATOM     58  N   UNL A   1      41.890  28.752  33.769  1.00  0.00    -0.248 NA
ATOM     59  C   UNL A   1      42.134  29.418  35.992  1.00  0.00     0.031 C 
ATOM     60  C   UNL A   1      44.740  26.128  31.622  1.00  0.00     0.029 A 
ATOM     61  C   UNL A   1      43.851  26.939  32.307  1.00  0.00     0.049 A 
ATOM     62  H   UNL A   1      42.081  27.860  31.596  1.00  0.00     0.167 HD
ATOM     63  C   UNL A   1      43.053  28.210  34.280  1.00  0.00     0.074 A 
ATOM     64  C   UNL A   1      43.192  28.710  35.632  1.00  0.00     0.031 C 
ATOM     65  C   UNL A   1      43.924  27.364  33.685  1.00  0.00     0.037 A 
BRANCH  52  66
ATOM     66  C   UNL A   1      42.720  26.088  27.755  1.00  0.00     0.064 A 
ATOM     67  C   UNL A   1      43.678  26.465  26.803  1.00  0.00     0.173 A 
ATOM     68  C   UNL A   1      42.050  24.871  27.584  1.00  0.00     0.173 A 
ATOM     69  F   UNL A   1      44.317  27.639  26.912  1.00  0.00    -0.203 F 
ATOM     70  C   UNL A   1      43.934  25.659  25.702  1.00  0.00     0.198 A 
ATOM     71  C   UNL A   1      42.340  24.048  26.504  1.00  0.00     0.198 A 
ATOM     72  F   UNL A   1      41.112  24.481  28.461  1.00  0.00    -0.203 F 
ATOM     73  F   UNL A   1      44.802  26.066  24.767  1.00  0.00    -0.200 F 
ATOM     74  C   UNL A   1      43.276  24.446  25.560  1.00  0.00     0.200 A 
ATOM     75  F   UNL A   1      41.711  22.872  26.373  1.00  0.00    -0.200 F 
ATOM     76  F   UNL A   1      43.535  23.664  24.505  1.00  0.00    -0.200 F 
ENDBRANCH  52  66
BRANCH  53  77
ATOM     77  C   UNL A   1      40.126  31.493  36.074  1.00  0.00     0.064 A 
ATOM     78  C   UNL A   1      38.917  31.850  36.766  1.00  0.00     0.173 A 
ATOM     79  C   UNL A   1      41.191  32.314  36.655  1.00  0.00     0.173 A 
ATOM     80  F   UNL A   1      37.730  31.397  36.348  1.00  0.00    -0.203 F 
ATOM     81  C   UNL A   1      38.816  32.780  37.855  1.00  0.00     0.198 A 
ATOM     82  C   UNL A   1      41.115  33.120  37.817  1.00  0.00     0.198 A 
ATOM     83  F   UNL A   1      42.406  32.506  36.126  1.00  0.00    -0.203 F 
ATOM     84  F   UNL A   1      37.609  33.119  38.332  1.00  0.00    -0.200 F 
ATOM     85  C   UNL A   1      39.920  33.385  38.403  1.00  0.00     0.200 A 
ATOM     86  F   UNL A   1      42.234  33.696  38.292  1.00  0.00    -0.200 F 
ATOM     87  F   UNL A   1      39.832  34.276  39.401  1.00  0.00    -0.200 F 
ENDBRANCH  53  77
BRANCH  65  88
ATOM     88  C   UNL A   1      45.083  26.918  34.532  1.00  0.00     0.064 A 
ATOM     89  C   UNL A   1      45.010  25.781  35.355  1.00  0.00     0.173 A 
ATOM     90  C   UNL A   1      46.261  27.677  34.570  1.00  0.00     0.173 A 
ATOM     91  F   UNL A   1      43.894  25.035  35.381  1.00  0.00    -0.203 F 
ATOM     92  C   UNL A   1      46.051  25.454  36.220  1.00  0.00     0.198 A 
ATOM     93  C   UNL A   1      47.316  27.323  35.405  1.00  0.00     0.198 A 
ATOM     94  F   UNL A   1      46.382  28.777  33.811  1.00  0.00    -0.203 F 
ATOM     95  F   UNL A   1      45.921  24.420  37.062  1.00  0.00    -0.200 F 
ATOM     96  C   UNL A   1      47.204  26.223  36.241  1.00  0.00     0.200 A 
ATOM     97  F   UNL A   1      48.433  28.063  35.418  1.00  0.00    -0.200 F 
ATOM     98  F   UNL A   1      48.200  25.917  37.084  1.00  0.00    -0.200 F 
ENDBRANCH  65  88
ENDBRANCH  39  40
ENDBRANCH  32  34
ENDBRANCH  31  32
ENDBRANCH  30  31
ENDBRANCH  29  30
ENDBRANCH   1  29
TORSDOF 17
ENDMDL
MODEL 2
REMARK VINA RESULT:     -10.9      4.255     10.072
REMARK SMILES COc1ccc(/C=C2\SC(=O)N(CC(=O)N[C@H](C)C(=O)OCCOC(=O)c3ccc(-c4c5nc(c(-c6c(F)c(F)c(F)c(F)c6F)c6ccc([nH]6)c(-c6c(F)c(F)c(F)c(F)c6F)c6nc(c(-c7c(F)c(F)c(F)c(F)c7F)c7ccc4[nH]7)C=C6)C=C5)cc3)C2=O)cc1OC
REMARK SMILES IDX 21 1 19 2 20 3 17 4 18 5 16 6 14 7 15 8 13 10 12 11 7 12
REMARK SMILES IDX 8 13 9 14 90 15 10 16 91 17 11 18 6 19 3 20 4 21 93 22 5 23
REMARK SMILES IDX 92 24 2 25 1 26 94 27 95 28 22 29 23 30 24 31 25 32 26 33
REMARK SMILES IDX 27 34 28 35 89 36 29 37 88 38 30 39 31 40 32 41 82 42 33 43
REMARK SMILES IDX 87 44 81 45 83 46 34 47 86 48 80 49 79 50 35 52 67 53 47 54
REMARK SMILES IDX 66 55 48 56 51 57 65 58 84 59 49 60 50 61 64 63 85 64 52 65
REMARK SMILES IDX 36 66 37 67 45 68 38 69 39 70 43 71 46 72 40 73 41 74 44 75
REMARK SMILES IDX 42 76 68 77 69 78 77 79 70 80 71 81 75 82 78 83 72 84 73 85
REMARK SMILES IDX 76 86 74 87 53 88 54 89 62 90 55 91 56 92 60 93 63 94 57 95
REMARK SMILES IDX 58 96 61 97 59 98
REMARK H PARENT 16 9 83 51 51 62
REMARK Flexibility Score: inf
ROOT
ATOM      1  O   UNL A   1      31.097  29.049  23.235  1.00  0.00    -0.461 OA
ENDROOT
BRANCH   1   2
ATOM      2  C   UNL A   1      29.889  28.825  22.662  1.00  0.00     0.328 C 
ATOM      3  O   UNL A   1      29.520  29.323  21.603  1.00  0.00    -0.250 OA
BRANCH   2   4
ATOM      4  C   UNL A   1      28.973  27.922  23.507  1.00  0.00     0.189 C 
ATOM      5  C   UNL A   1      27.480  28.213  23.406  1.00  0.00     0.043 C 
BRANCH   4   6
ATOM      6  N   UNL A   1      29.284  26.535  23.175  1.00  0.00    -0.341 N 
ATOM      7  C   UNL A   1      30.120  25.656  23.790  1.00  0.00     0.240 C 
ATOM      8  O   UNL A   1      30.080  24.481  23.419  1.00  0.00    -0.273 OA
ATOM      9  H   UNL A   1      28.819  26.181  22.383  1.00  0.00     0.164 HD
BRANCH   7  10
ATOM     10  C   UNL A   1      31.017  26.083  24.955  1.00  0.00     0.229 C 
BRANCH  10  11
ATOM     11  N   UNL A   1      32.076  25.134  25.247  1.00  0.00    -0.259 N 
ATOM     12  C   UNL A   1      35.359  23.984  24.513  1.00  0.00     0.029 C 
ATOM     13  C   UNL A   1      34.084  23.969  24.930  1.00  0.00     0.083 C 
ATOM     14  S   UNL A   1      33.332  23.118  26.212  1.00  0.00    -0.022 SA
ATOM     15  C   UNL A   1      33.117  24.950  24.363  1.00  0.00     0.268 C 
ATOM     16  C   UNL A   1      32.010  24.267  26.290  1.00  0.00     0.294 C 
ATOM     17  O   UNL A   1      33.269  25.514  23.298  1.00  0.00    -0.268 OA
ATOM     18  O   UNL A   1      31.169  24.255  27.194  1.00  0.00    -0.261 OA
BRANCH  12  19
ATOM     19  C   UNL A   1      36.547  23.302  25.056  1.00  0.00    -0.020 A 
ATOM     20  C   UNL A   1      38.853  21.775  25.911  1.00  0.00     0.160 A 
ATOM     21  C   UNL A   1      37.808  21.206  25.185  1.00  0.00     0.051 A 
ATOM     22  C   UNL A   1      38.632  23.195  26.314  1.00  0.00     0.161 A 
ATOM     23  C   UNL A   1      36.695  21.940  24.764  1.00  0.00     0.012 A 
ATOM     24  C   UNL A   1      37.498  23.912  25.868  1.00  0.00     0.058 A 
BRANCH  20  25
ATOM     25  O   UNL A   1      39.809  20.731  26.036  1.00  0.00    -0.493 OA
ATOM     26  C   UNL A   1      41.239  20.283  26.372  1.00  0.00     0.278 C 
ENDBRANCH  20  25
BRANCH  22  27
ATOM     27  O   UNL A   1      39.444  23.873  27.185  1.00  0.00    -0.493 OA
ATOM     28  C   UNL A   1      39.282  25.007  28.060  1.00  0.00     0.278 C 
ENDBRANCH  22  27
ENDBRANCH  12  19
ENDBRANCH  10  11
ENDBRANCH   7  10
ENDBRANCH   4   6
ENDBRANCH   2   4
ENDBRANCH   1   2
BRANCH   1  29
ATOM     29  C   UNL A   1      31.085  29.687  24.525  1.00  0.00     0.274 C 
BRANCH  29  30
ATOM     30  C   UNL A   1      32.499  29.711  25.114  1.00  0.00     0.275 C 
BRANCH  30  31
ATOM     31  O   UNL A   1      32.491  29.849  26.557  1.00  0.00    -0.458 OA
BRANCH  31  32
ATOM     32  C   UNL A   1      33.087  30.967  27.036  1.00  0.00     0.338 C 
ATOM     33  O   UNL A   1      32.608  32.089  27.072  1.00  0.00    -0.246 OA
BRANCH  32  34
ATOM     34  C   UNL A   1      34.430  30.692  27.591  1.00  0.00     0.060 A 
ATOM     35  C   UNL A   1      34.859  29.377  27.766  1.00  0.00     0.016 A 
ATOM     36  C   UNL A   1      35.193  31.734  28.120  1.00  0.00     0.016 A 
ATOM     37  C   UNL A   1      36.021  29.112  28.517  1.00  0.00     0.010 A 
ATOM     38  C   UNL A   1      36.357  31.455  28.869  1.00  0.00     0.010 A 
ATOM     39  C   UNL A   1      36.764  30.134  29.135  1.00  0.00    -0.014 A 
BRANCH  39  40
ATOM     40  C   UNL A   1      38.002  29.809  29.971  1.00  0.00     0.031 A 
ATOM     41  C   UNL A   1      38.098  30.153  31.395  1.00  0.00     0.074 A 
ATOM     42  C   UNL A   1      39.158  29.377  29.417  1.00  0.00     0.049 A 
ATOM     43  N   UNL A   1      39.124  29.947  32.173  1.00  0.00    -0.248 NA
ATOM     44  C   UNL A   1      37.003  30.927  31.977  1.00  0.00     0.031 C 
ATOM     45  C   UNL A   1      39.174  29.383  28.010  1.00  0.00     0.029 A 
ATOM     46  N   UNL A   1      40.453  28.919  29.786  1.00  0.00    -0.354 N 
ATOM     47  C   UNL A   1      38.869  30.690  33.297  1.00  0.00     0.074 A 
ATOM     48  C   UNL A   1      37.563  31.302  33.119  1.00  0.00     0.031 C 
ATOM     49  C   UNL A   1      40.297  28.806  27.635  1.00  0.00     0.029 A 
ATOM     50  C   UNL A   1      41.206  28.292  28.721  1.00  0.00     0.049 A 
ATOM     51  H   UNL A   1      40.811  29.022  30.698  1.00  0.00     0.167 HD
ATOM     52  C   UNL A   1      39.702  30.880  34.341  1.00  0.00     0.037 A 
ATOM     53  C   UNL A   1      42.292  27.298  28.779  1.00  0.00     0.037 A 
ATOM     54  C   UNL A   1      41.004  30.280  34.489  1.00  0.00     0.049 A 
ATOM     55  C   UNL A   1      43.032  27.403  30.106  1.00  0.00     0.074 A 
ATOM     56  C   UNL A   1      41.814  30.307  35.611  1.00  0.00     0.029 A 
ATOM     57  N   UNL A   1      41.711  29.588  33.509  1.00  0.00    -0.354 N 
ATOM     58  N   UNL A   1      42.710  28.057  31.193  1.00  0.00    -0.248 NA
ATOM     59  C   UNL A   1      44.314  26.687  30.196  1.00  0.00     0.031 C 
ATOM     60  C   UNL A   1      43.029  29.695  35.296  1.00  0.00     0.029 A 
ATOM     61  C   UNL A   1      42.946  29.186  34.011  1.00  0.00     0.049 A 
ATOM     62  H   UNL A   1      41.385  29.410  32.597  1.00  0.00     0.167 HD
ATOM     63  C   UNL A   1      43.742  27.842  32.086  1.00  0.00     0.074 A 
ATOM     64  C   UNL A   1      44.670  26.934  31.446  1.00  0.00     0.031 C 
ATOM     65  C   UNL A   1      43.911  28.361  33.323  1.00  0.00     0.037 A 
BRANCH  52  66
ATOM     66  C   UNL A   1      39.228  31.835  35.384  1.00  0.00     0.064 A 
ATOM     67  C   UNL A   1      38.420  31.420  36.453  1.00  0.00     0.173 A 
ATOM     68  C   UNL A   1      39.590  33.184  35.304  1.00  0.00     0.173 A 
ATOM     69  F   UNL A   1      38.022  30.143  36.547  1.00  0.00    -0.203 F 
ATOM     70  C   UNL A   1      37.968  32.337  37.393  1.00  0.00     0.198 A 
ATOM     71  C   UNL A   1      39.172  34.089  36.270  1.00  0.00     0.198 A 
ATOM     72  F   UNL A   1      40.347  33.626  34.287  1.00  0.00    -0.203 F 
ATOM     73  F   UNL A   1      37.142  31.938  38.368  1.00  0.00    -0.200 F 
ATOM     74  C   UNL A   1      38.355  33.666  37.309  1.00  0.00     0.200 A 
ATOM     75  F   UNL A   1      39.554  35.371  36.194  1.00  0.00    -0.200 F 
ATOM     76  F   UNL A   1      37.930  34.546  38.225  1.00  0.00    -0.200 F 
ENDBRANCH  52  66
BRANCH  53  77
ATOM     77  C   UNL A   1      42.797  25.794  27.905  1.00  0.00     0.064 A 
ATOM     78  C   UNL A   1      43.341  25.909  26.579  1.00  0.00     0.173 A 
ATOM     79  C   UNL A   1      42.798  24.365  28.229  1.00  0.00     0.173 A 
ATOM     80  F   UNL A   1      43.313  27.077  25.928  1.00  0.00    -0.203 F 
ATOM     81  C   UNL A   1      43.843  24.827  25.781  1.00  0.00     0.198 A 
ATOM     82  C   UNL A   1      43.422  23.323  27.501  1.00  0.00     0.198 A 
ATOM     83  F   UNL A   1      42.128  23.792  29.236  1.00  0.00    -0.203 F 
ATOM     84  F   UNL A   1      44.209  25.052  24.510  1.00  0.00    -0.200 F 
ATOM     85  C   UNL A   1      43.918  23.542  26.258  1.00  0.00     0.200 A 
ATOM     86  F   UNL A   1      43.446  22.082  28.020  1.00  0.00    -0.200 F 
ATOM     87  F   UNL A   1      44.359  22.521  25.509  1.00  0.00    -0.200 F 
ENDBRANCH  53  77
BRANCH  65  88
ATOM     88  C   UNL A   1      45.175  27.962  34.032  1.00  0.00     0.064 A 
ATOM     89  C   UNL A   1      46.368  28.692  33.894  1.00  0.00     0.173 A 
ATOM     90  C   UNL A   1      45.210  26.794  34.806  1.00  0.00     0.173 A 
ATOM     91  F   UNL A   1      46.399  29.801  33.139  1.00  0.00    -0.203 F 
ATOM     92  C   UNL A   1      47.556  28.238  34.462  1.00  0.00     0.198 A 
ATOM     93  C   UNL A   1      46.389  26.366  35.407  1.00  0.00     0.198 A 
ATOM     94  F   UNL A   1      44.102  26.053  34.964  1.00  0.00    -0.203 F 
ATOM     95  F   UNL A   1      48.699  28.901  34.240  1.00  0.00    -0.200 F 
ATOM     96  C   UNL A   1      47.564  27.078  35.221  1.00  0.00     0.200 A 
ATOM     97  F   UNL A   1      46.394  25.249  36.147  1.00  0.00    -0.200 F 
ATOM     98  F   UNL A   1      48.710  26.634  35.756  1.00  0.00    -0.200 F 
ENDBRANCH  65  88
ENDBRANCH  39  40
ENDBRANCH  32  34
ENDBRANCH  31  32
ENDBRANCH  30  31
ENDBRANCH  29  30
ENDBRANCH   1  29
TORSDOF 17
ENDMDL
MODEL 3
REMARK VINA RESULT:     -10.6      5.383     12.203
REMARK SMILES COc1ccc(/C=C2\SC(=O)N(CC(=O)N[C@H](C)C(=O)OCCOC(=O)c3ccc(-c4c5nc(c(-c6c(F)c(F)c(F)c(F)c6F)c6ccc([nH]6)c(-c6c(F)c(F)c(F)c(F)c6F)c6nc(c(-c7c(F)c(F)c(F)c(F)c7F)c7ccc4[nH]7)C=C6)C=C5)cc3)C2=O)cc1OC
REMARK SMILES IDX 21 1 19 2 20 3 17 4 18 5 16 6 14 7 15 8 13 10 12 11 7 12
REMARK SMILES IDX 8 13 9 14 90 15 10 16 91 17 11 18 6 19 3 20 4 21 93 22 5 23
REMARK SMILES IDX 92 24 2 25 1 26 94 27 95 28 22 29 23 30 24 31 25 32 26 33
REMARK SMILES IDX 27 34 28 35 89 36 29 37 88 38 30 39 31 40 32 41 82 42 33 43
REMARK SMILES IDX 87 44 81 45 83 46 34 47 86 48 80 49 79 50 35 52 67 53 47 54
REMARK SMILES IDX 66 55 48 56 51 57 65 58 84 59 49 60 50 61 64 63 85 64 52 65
REMARK SMILES IDX 36 66 37 67 45 68 38 69 39 70 43 71 46 72 40 73 41 74 44 75
REMARK SMILES IDX 42 76 68 77 69 78 77 79 70 80 71 81 75 82 78 83 72 84 73 85
REMARK SMILES IDX 76 86 74 87 53 88 54 89 62 90 55 91 56 92 60 93 63 94 57 95
REMARK SMILES IDX 58 96 61 97 59 98
REMARK H PARENT 16 9 83 51 51 62
REMARK Flexibility Score: inf
ROOT
ATOM      1  O   UNL A   1      42.435  19.479  25.246  1.00  0.00    -0.461 OA
ENDROOT
BRANCH   1   2
ATOM      2  C   UNL A   1      43.684  18.951  25.288  1.00  0.00     0.328 C 
ATOM      3  O   UNL A   1      44.034  18.058  26.053  1.00  0.00    -0.250 OA
BRANCH   2   4
ATOM      4  C   UNL A   1      44.663  19.630  24.315  1.00  0.00     0.189 C 
ATOM      5  C   UNL A   1      44.945  18.873  23.022  1.00  0.00     0.043 C 
BRANCH   4   6
ATOM      6  N   UNL A   1      44.175  20.983  24.061  1.00  0.00    -0.341 N 
ATOM      7  C   UNL A   1      44.716  22.184  24.397  1.00  0.00     0.240 C 
ATOM      8  O   UNL A   1      44.197  23.194  23.917  1.00  0.00    -0.273 OA
ATOM      9  H   UNL A   1      43.321  21.033  23.573  1.00  0.00     0.164 HD
BRANCH   7  10
ATOM     10  C   UNL A   1      45.970  22.283  25.270  1.00  0.00     0.229 C 
BRANCH  10  11
ATOM     11  N   UNL A   1      45.789  23.109  26.450  1.00  0.00    -0.259 N 
ATOM     12  C   UNL A   1      44.107  23.591  29.545  1.00  0.00     0.029 C 
ATOM     13  C   UNL A   1      44.774  23.877  28.417  1.00  0.00     0.083 C 
ATOM     14  S   UNL A   1      45.946  25.081  28.081  1.00  0.00    -0.022 SA
ATOM     15  C   UNL A   1      44.683  22.949  27.256  1.00  0.00     0.268 C 
ATOM     16  C   UNL A   1      46.582  24.178  26.719  1.00  0.00     0.294 C 
ATOM     17  O   UNL A   1      43.778  22.156  27.091  1.00  0.00    -0.268 OA
ATOM     18  O   UNL A   1      47.617  24.503  26.128  1.00  0.00    -0.261 OA
BRANCH  12  19
ATOM     19  C   UNL A   1      44.201  24.194  30.886  1.00  0.00    -0.020 A 
ATOM     20  C   UNL A   1      44.483  25.127  33.612  1.00  0.00     0.160 A 
ATOM     21  C   UNL A   1      44.280  23.783  33.300  1.00  0.00     0.051 A 
ATOM     22  C   UNL A   1      44.423  26.054  32.446  1.00  0.00     0.161 A 
ATOM     23  C   UNL A   1      44.149  23.326  31.985  1.00  0.00     0.012 A 
ATOM     24  C   UNL A   1      44.294  25.562  31.127  1.00  0.00     0.058 A 
BRANCH  20  25
ATOM     25  O   UNL A   1      44.667  25.140  35.021  1.00  0.00    -0.493 OA
ATOM     26  C   UNL A   1      44.890  24.371  36.332  1.00  0.00     0.278 C 
ENDBRANCH  20  25
BRANCH  22  27
ATOM     27  O   UNL A   1      44.408  27.420  32.560  1.00  0.00    -0.493 OA
ATOM     28  C   UNL A   1      45.047  28.380  33.425  1.00  0.00     0.278 C 
ENDBRANCH  22  27
ENDBRANCH  12  19
ENDBRANCH  10  11
ENDBRANCH   7  10
ENDBRANCH   4   6
ENDBRANCH   2   4
ENDBRANCH   1   2
BRANCH   1  29
ATOM     29  C   UNL A   1      41.678  19.426  26.469  1.00  0.00     0.274 C 
BRANCH  29  30
ATOM     30  C   UNL A   1      40.183  19.581  26.169  1.00  0.00     0.275 C 
BRANCH  30  31
ATOM     31  O   UNL A   1      39.882  20.838  25.512  1.00  0.00    -0.458 OA
BRANCH  31  32
ATOM     32  C   UNL A   1      38.856  21.542  26.046  1.00  0.00     0.338 C 
ATOM     33  O   UNL A   1      37.687  21.195  26.102  1.00  0.00    -0.246 OA
BRANCH  32  34
ATOM     34  C   UNL A   1      39.303  22.823  26.636  1.00  0.00     0.060 A 
ATOM     35  C   UNL A   1      38.826  24.031  26.130  1.00  0.00     0.016 A 
ATOM     36  C   UNL A   1      40.344  22.837  27.566  1.00  0.00     0.016 A 
ATOM     37  C   UNL A   1      39.432  25.243  26.516  1.00  0.00     0.010 A 
ATOM     38  C   UNL A   1      40.941  24.058  27.947  1.00  0.00     0.010 A 
ATOM     39  C   UNL A   1      40.538  25.284  27.385  1.00  0.00    -0.014 A 
BRANCH  39  40
ATOM     40  C   UNL A   1      41.192  26.614  27.758  1.00  0.00     0.031 A 
ATOM     41  C   UNL A   1      40.586  27.542  28.720  1.00  0.00     0.074 A 
ATOM     42  C   UNL A   1      42.251  27.116  27.081  1.00  0.00     0.049 A 
ATOM     43  N   UNL A   1      41.053  28.709  29.070  1.00  0.00    -0.248 NA
ATOM     44  C   UNL A   1      39.263  27.205  29.241  1.00  0.00     0.031 C 
ATOM     45  C   UNL A   1      42.612  26.389  25.932  1.00  0.00     0.029 A 
ATOM     46  N   UNL A   1      43.163  28.207  27.115  1.00  0.00    -0.354 N 
ATOM     47  C   UNL A   1      40.021  29.317  29.736  1.00  0.00     0.074 A 
ATOM     48  C   UNL A   1      38.926  28.363  29.791  1.00  0.00     0.031 C 
ATOM     49  C   UNL A   1      43.731  26.916  25.479  1.00  0.00     0.029 A 
ATOM     50  C   UNL A   1      44.322  28.060  26.261  1.00  0.00     0.049 A 
ATOM     51  H   UNL A   1      43.016  29.003  27.677  1.00  0.00     0.167 HD
ATOM     52  C   UNL A   1      39.995  30.586  30.190  1.00  0.00     0.037 A 
ATOM     53  C   UNL A   1      45.663  28.663  26.363  1.00  0.00     0.037 A 
ATOM     54  C   UNL A   1      41.087  31.525  30.106  1.00  0.00     0.049 A 
ATOM     55  C   UNL A   1      45.592  29.982  27.120  1.00  0.00     0.074 A 
ATOM     56  C   UNL A   1      41.167  32.769  30.707  1.00  0.00     0.029 A 
ATOM     57  N   UNL A   1      42.256  31.367  29.368  1.00  0.00    -0.354 N 
ATOM     58  N   UNL A   1      44.611  30.491  27.822  1.00  0.00    -0.248 NA
ATOM     59  C   UNL A   1      46.786  30.839  27.049  1.00  0.00     0.031 C 
ATOM     60  C   UNL A   1      42.344  33.391  30.285  1.00  0.00     0.029 A 
ATOM     61  C   UNL A   1      43.059  32.497  29.506  1.00  0.00     0.049 A 
ATOM     62  H   UNL A   1      42.482  30.575  28.829  1.00  0.00     0.167 HD
ATOM     63  C   UNL A   1      45.059  31.720  28.265  1.00  0.00     0.074 A 
ATOM     64  C   UNL A   1      46.430  31.854  27.819  1.00  0.00     0.031 C 
ATOM     65  C   UNL A   1      44.389  32.660  28.970  1.00  0.00     0.037 A 
BRANCH  52  66
ATOM     66  C   UNL A   1      38.701  31.040  30.775  1.00  0.00     0.064 A 
ATOM     67  C   UNL A   1      37.678  31.578  29.981  1.00  0.00     0.173 A 
ATOM     68  C   UNL A   1      38.490  30.934  32.155  1.00  0.00     0.173 A 
ATOM     69  F   UNL A   1      37.854  31.728  28.660  1.00  0.00    -0.203 F 
ATOM     70  C   UNL A   1      36.495  32.021  30.558  1.00  0.00     0.198 A 
ATOM     71  C   UNL A   1      37.289  31.338  32.722  1.00  0.00     0.198 A 
ATOM     72  F   UNL A   1      39.450  30.443  32.954  1.00  0.00    -0.203 F 
ATOM     73  F   UNL A   1      35.557  32.595  29.794  1.00  0.00    -0.200 F 
ATOM     74  C   UNL A   1      36.296  31.889  31.924  1.00  0.00     0.200 A 
ATOM     75  F   UNL A   1      37.093  31.201  34.040  1.00  0.00    -0.200 F 
ATOM     76  F   UNL A   1      35.149  32.303  32.476  1.00  0.00    -0.200 F 
ENDBRANCH  52  66
BRANCH  53  77
ATOM     77  C   UNL A   1      47.391  28.159  26.155  1.00  0.00     0.064 A 
ATOM     78  C   UNL A   1      47.851  27.776  24.848  1.00  0.00     0.173 A 
ATOM     79  C   UNL A   1      48.543  28.035  27.051  1.00  0.00     0.173 A 
ATOM     80  F   UNL A   1      46.988  27.620  23.838  1.00  0.00    -0.203 F 
ATOM     81  C   UNL A   1      49.196  27.415  24.504  1.00  0.00     0.198 A 
ATOM     82  C   UNL A   1      49.893  27.817  26.684  1.00  0.00     0.198 A 
ATOM     83  F   UNL A   1      48.494  28.021  28.388  1.00  0.00    -0.203 F 
ATOM     84  F   UNL A   1      49.469  26.956  23.273  1.00  0.00    -0.200 F 
ATOM     85  C   UNL A   1      50.223  27.472  25.414  1.00  0.00     0.200 A 
ATOM     86  F   UNL A   1      50.848  27.872  27.630  1.00  0.00    -0.200 F 
ATOM     87  F   UNL A   1      51.477  27.108  25.109  1.00  0.00    -0.200 F 
ENDBRANCH  53  77
BRANCH  65  88
ATOM     88  C   UNL A   1      45.151  33.923  29.263  1.00  0.00     0.064 A 
ATOM     89  C   UNL A   1      45.889  34.089  30.447  1.00  0.00     0.173 A 
ATOM     90  C   UNL A   1      45.087  35.006  28.376  1.00  0.00     0.173 A 
ATOM     91  F   UNL A   1      45.959  33.095  31.346  1.00  0.00    -0.203 F 
ATOM     92  C   UNL A   1      46.489  35.308  30.753  1.00  0.00     0.198 A 
ATOM     93  C   UNL A   1      45.722  36.210  28.665  1.00  0.00     0.198 A 
ATOM     94  F   UNL A   1      44.389  34.906  27.234  1.00  0.00    -0.203 F 
ATOM     95  F   UNL A   1      47.109  35.472  31.929  1.00  0.00    -0.200 F 
ATOM     96  C   UNL A   1      46.408  36.365  29.860  1.00  0.00     0.200 A 
ATOM     97  F   UNL A   1      45.650  37.228  27.797  1.00  0.00    -0.200 F 
ATOM     98  F   UNL A   1      46.973  37.543  30.161  1.00  0.00    -0.200 F 
ENDBRANCH  65  88
ENDBRANCH  39  40
ENDBRANCH  32  34
ENDBRANCH  31  32
ENDBRANCH  30  31
ENDBRANCH  29  30
ENDBRANCH   1  29
TORSDOF 17
ENDMDL
