MODEL 1
REMARK VINA RESULT:     -13.3      0.000      0.000
REMARK SMILES Cc1ccc(Nc2c(F)cccc2Cl)c(CC(=O)OCCOC(=O)c2ccc(-c3c4nc(c(-c5c(F)c(F)c(F)c(F)c5F)c5ccc([nH]5)c(-c5c(F)c(F)c(F)c(F)c5F)c5nc(c(-c6c(F)c(F)c(F)c(F)c6F)c6ccc3[nH]6)C=C5)C=C4)cc2)c1
REMARK SMILES IDX 20 1 19 2 17 3 18 4 16 5 15 6 1 7 2 8 3 9 88 10 4 11 5 12
REMARK SMILES IDX 6 13 7 15 8 16 13 17 9 18 10 19 12 20 14 21 11 22 21 23
REMARK SMILES IDX 22 24 23 25 24 26 25 27 26 28 87 29 27 30 86 31 28 32 29 33
REMARK SMILES IDX 30 34 80 35 31 36 85 37 79 38 81 39 32 40 84 41 78 42 77 43
REMARK SMILES IDX 33 45 65 46 45 47 64 48 46 49 49 50 63 51 82 52 47 53 48 54
REMARK SMILES IDX 62 56 83 57 50 58 34 59 35 60 43 61 36 62 37 63 41 64 44 65
REMARK SMILES IDX 38 66 39 67 42 68 40 69 66 70 67 71 75 72 68 73 69 74 73 75
REMARK SMILES IDX 76 76 70 77 71 78 74 79 72 80 51 81 52 82 60 83 53 84 54 85
REMARK SMILES IDX 58 86 61 87 55 88 56 89 59 90 57 91
REMARK H PARENT 6 14 81 44 49 55
REMARK Flexibility Score: inf
ROOT
ATOM      1  C   UNL A   1      33.444  29.143  27.145  1.00  0.00     0.274 C 
ENDROOT
BRANCH   1   2
ATOM      2  O   UNL A   1      33.992  28.389  26.075  1.00  0.00    -0.462 OA
BRANCH   2   3
ATOM      3  C   UNL A   1      33.184  28.116  25.012  1.00  0.00     0.310 C 
ATOM      4  O   UNL A   1      33.532  28.035  23.859  1.00  0.00    -0.252 OA
BRANCH   3   5
ATOM      5  C   UNL A   1      31.768  27.930  25.524  1.00  0.00     0.160 C 
BRANCH   5   6
ATOM      6  C   UNL A   1      31.327  26.519  25.249  1.00  0.00    -0.013 A 
ATOM      7  C   UNL A   1      32.010  23.228  27.026  1.00  0.00     0.044 C 
ATOM      8  C   UNL A   1      31.525  24.216  26.012  1.00  0.00    -0.051 A 
ATOM      9  C   UNL A   1      30.997  23.794  24.792  1.00  0.00     0.005 A 
ATOM     10  C   UNL A   1      31.663  25.580  26.241  1.00  0.00     0.009 A 
ATOM     11  C   UNL A   1      30.626  24.722  23.814  1.00  0.00     0.026 A 
ATOM     12  C   UNL A   1      30.794  26.098  24.008  1.00  0.00     0.042 A 
BRANCH  12  13
ATOM     13  N   UNL A   1      30.550  26.990  22.943  1.00  0.00    -0.352 N 
ATOM     14  H   UNL A   1      31.059  26.812  22.120  1.00  0.00     0.167 HD
BRANCH  13  15
ATOM     15  C   UNL A   1      29.674  28.104  22.889  1.00  0.00     0.094 A 
ATOM     16  C   UNL A   1      30.113  29.322  22.354  1.00  0.00     0.148 A 
ATOM     17  C   UNL A   1      28.300  27.992  23.165  1.00  0.00     0.067 A 
ATOM     18  F   UNL A   1      31.410  29.497  22.059  1.00  0.00    -0.205 F 
ATOM     19  C   UNL A   1      29.235  30.379  22.110  1.00  0.00     0.041 A 
ATOM     20  C   UNL A   1      27.401  29.021  22.857  1.00  0.00     0.023 A 
ATOM     21  Cl  UNL A   1      27.659  26.666  24.057  1.00  0.00    -0.082 Cl
ATOM     22  C   UNL A   1      27.870  30.220  22.334  1.00  0.00     0.005 A 
ENDBRANCH  13  15
ENDBRANCH  12  13
ENDBRANCH   5   6
ENDBRANCH   3   5
ENDBRANCH   2   3
ENDBRANCH   1   2
BRANCH   1  23
ATOM     23  C   UNL A   1      34.168  30.495  27.237  1.00  0.00     0.275 C 
BRANCH  23  24
ATOM     24  O   UNL A   1      35.606  30.502  27.588  1.00  0.00    -0.458 OA
BRANCH  24  25
ATOM     25  C   UNL A   1      36.225  30.704  28.786  1.00  0.00     0.338 C 
ATOM     26  O   UNL A   1      35.779  31.453  29.644  1.00  0.00    -0.246 OA
BRANCH  25  27
ATOM     27  C   UNL A   1      37.429  29.905  29.053  1.00  0.00     0.060 A 
ATOM     28  C   UNL A   1      37.476  28.934  30.069  1.00  0.00     0.016 A 
ATOM     29  C   UNL A   1      38.448  30.015  28.134  1.00  0.00     0.016 A 
ATOM     30  C   UNL A   1      38.491  27.978  30.044  1.00  0.00     0.010 A 
ATOM     31  C   UNL A   1      39.217  28.916  27.917  1.00  0.00     0.010 A 
ATOM     32  C   UNL A   1      39.331  27.961  28.930  1.00  0.00    -0.014 A 
BRANCH  32  33
ATOM     33  C   UNL A   1      40.595  27.254  28.840  1.00  0.00     0.031 A 
ATOM     34  C   UNL A   1      40.693  25.837  28.491  1.00  0.00     0.074 A 
ATOM     35  C   UNL A   1      41.657  28.081  28.999  1.00  0.00     0.049 A 
ATOM     36  N   UNL A   1      41.526  25.028  29.049  1.00  0.00    -0.248 NA
ATOM     37  C   UNL A   1      39.863  25.200  27.472  1.00  0.00     0.031 C 
ATOM     38  C   UNL A   1      43.073  27.881  28.790  1.00  0.00     0.029 A 
ATOM     39  N   UNL A   1      41.581  29.394  29.510  1.00  0.00    -0.354 N 
ATOM     40  C   UNL A   1      41.588  23.918  28.237  1.00  0.00     0.074 A 
ATOM     41  C   UNL A   1      40.426  23.986  27.384  1.00  0.00     0.031 C 
ATOM     42  C   UNL A   1      43.736  28.846  29.463  1.00  0.00     0.029 A 
ATOM     43  C   UNL A   1      42.756  29.635  30.207  1.00  0.00     0.049 A 
ATOM     44  H   UNL A   1      40.832  30.024  29.394  1.00  0.00     0.167 HD
ATOM     45  C   UNL A   1      42.746  23.199  28.175  1.00  0.00     0.037 A 
ATOM     46  C   UNL A   1      42.652  29.781  31.559  1.00  0.00     0.037 A 
ATOM     47  C   UNL A   1      43.788  23.866  28.951  1.00  0.00     0.049 A 
ATOM     48  C   UNL A   1      43.292  28.612  32.254  1.00  0.00     0.074 A 
ATOM     49  C   UNL A   1      44.775  24.758  28.560  1.00  0.00     0.029 A 
ATOM     50  N   UNL A   1      43.650  24.015  30.328  1.00  0.00    -0.354 N 
ATOM     51  N   UNL A   1      43.421  27.432  31.712  1.00  0.00    -0.248 NA
ATOM     52  C   UNL A   1      43.877  28.695  33.584  1.00  0.00     0.031 C 
ATOM     53  C   UNL A   1      45.192  25.484  29.699  1.00  0.00     0.029 A 
ATOM     54  C   UNL A   1      44.463  25.036  30.786  1.00  0.00     0.049 A 
ATOM     55  H   UNL A   1      43.058  23.470  30.895  1.00  0.00     0.167 HD
ATOM     56  C   UNL A   1      44.152  26.633  32.544  1.00  0.00     0.074 A 
ATOM     57  C   UNL A   1      44.398  27.462  33.712  1.00  0.00     0.031 C 
ATOM     58  C   UNL A   1      44.526  25.367  32.198  1.00  0.00     0.037 A 
BRANCH  45  59
ATOM     59  C   UNL A   1      43.015  22.147  27.127  1.00  0.00     0.064 A 
ATOM     60  C   UNL A   1      42.328  20.914  27.124  1.00  0.00     0.173 A 
ATOM     61  C   UNL A   1      43.947  22.316  26.085  1.00  0.00     0.173 A 
ATOM     62  F   UNL A   1      41.375  20.636  28.022  1.00  0.00    -0.203 F 
ATOM     63  C   UNL A   1      42.600  19.904  26.199  1.00  0.00     0.198 A 
ATOM     64  C   UNL A   1      44.237  21.291  25.173  1.00  0.00     0.198 A 
ATOM     65  F   UNL A   1      44.583  23.484  25.916  1.00  0.00    -0.203 F 
ATOM     66  F   UNL A   1      41.919  18.750  26.258  1.00  0.00    -0.200 F 
ATOM     67  C   UNL A   1      43.567  20.084  25.234  1.00  0.00     0.200 A 
ATOM     68  F   UNL A   1      45.174  21.481  24.232  1.00  0.00    -0.200 F 
ATOM     69  F   UNL A   1      43.841  19.105  24.361  1.00  0.00    -0.200 F 
ENDBRANCH  45  59
BRANCH  46  70
ATOM     70  C   UNL A   1      41.400  30.491  31.997  1.00  0.00     0.064 A 
ATOM     71  C   UNL A   1      41.161  31.794  31.499  1.00  0.00     0.173 A 
ATOM     72  C   UNL A   1      40.318  29.852  32.616  1.00  0.00     0.173 A 
ATOM     73  F   UNL A   1      42.148  32.468  30.887  1.00  0.00    -0.203 F 
ATOM     74  C   UNL A   1      39.894  32.380  31.530  1.00  0.00     0.198 A 
ATOM     75  C   UNL A   1      39.051  30.453  32.667  1.00  0.00     0.198 A 
ATOM     76  F   UNL A   1      40.452  28.613  33.109  1.00  0.00    -0.203 F 
ATOM     77  F   UNL A   1      39.692  33.571  30.946  1.00  0.00    -0.200 F 
ATOM     78  C   UNL A   1      38.834  31.701  32.099  1.00  0.00     0.200 A 
ATOM     79  F   UNL A   1      38.016  29.791  33.207  1.00  0.00    -0.200 F 
ATOM     80  F   UNL A   1      37.604  32.233  32.070  1.00  0.00    -0.200 F 
ENDBRANCH  46  70
BRANCH  58  81
ATOM     81  C   UNL A   1      45.108  24.346  33.133  1.00  0.00     0.064 A 
ATOM     82  C   UNL A   1      44.428  23.184  33.525  1.00  0.00     0.173 A 
ATOM     83  C   UNL A   1      46.464  24.435  33.535  1.00  0.00     0.173 A 
ATOM     84  F   UNL A   1      43.182  22.929  33.103  1.00  0.00    -0.203 F 
ATOM     85  C   UNL A   1      45.037  22.214  34.318  1.00  0.00     0.198 A 
ATOM     86  C   UNL A   1      47.088  23.429  34.263  1.00  0.00     0.198 A 
ATOM     87  F   UNL A   1      47.232  25.484  33.207  1.00  0.00    -0.203 F 
ATOM     88  F   UNL A   1      44.329  21.147  34.714  1.00  0.00    -0.200 F 
ATOM     89  C   UNL A   1      46.369  22.328  34.673  1.00  0.00     0.200 A 
ATOM     90  F   UNL A   1      48.396  23.526  34.542  1.00  0.00    -0.200 F 
ATOM     91  F   UNL A   1      46.963  21.365  35.391  1.00  0.00    -0.200 F 
ENDBRANCH  58  81
ENDBRANCH  32  33
ENDBRANCH  25  27
ENDBRANCH  24  25
ENDBRANCH  23  24
ENDBRANCH   1  23
TORSDOF 14
ENDMDL
MODEL 2
REMARK VINA RESULT:     -13.3      1.140      2.943
REMARK SMILES Cc1ccc(Nc2c(F)cccc2Cl)c(CC(=O)OCCOC(=O)c2ccc(-c3c4nc(c(-c5c(F)c(F)c(F)c(F)c5F)c5ccc([nH]5)c(-c5c(F)c(F)c(F)c(F)c5F)c5nc(c(-c6c(F)c(F)c(F)c(F)c6F)c6ccc3[nH]6)C=C5)C=C4)cc2)c1
REMARK SMILES IDX 20 1 19 2 17 3 18 4 16 5 15 6 1 7 2 8 3 9 88 10 4 11 5 12
REMARK SMILES IDX 6 13 7 15 8 16 13 17 9 18 10 19 12 20 14 21 11 22 21 23
REMARK SMILES IDX 22 24 23 25 24 26 25 27 26 28 87 29 27 30 86 31 28 32 29 33
REMARK SMILES IDX 30 34 80 35 31 36 85 37 79 38 81 39 32 40 84 41 78 42 77 43
REMARK SMILES IDX 33 45 65 46 45 47 64 48 46 49 49 50 63 51 82 52 47 53 48 54
REMARK SMILES IDX 62 56 83 57 50 58 34 59 35 60 43 61 36 62 37 63 41 64 44 65
REMARK SMILES IDX 38 66 39 67 42 68 40 69 66 70 67 71 75 72 68 73 69 74 73 75
REMARK SMILES IDX 76 76 70 77 71 78 74 79 72 80 51 81 52 82 60 83 53 84 54 85
REMARK SMILES IDX 58 86 61 87 55 88 56 89 59 90 57 91
REMARK H PARENT 6 14 81 44 49 55
REMARK Flexibility Score: inf
ROOT
ATOM      1  C   UNL A   1      33.209  29.698  26.409  1.00  0.00     0.274 C 
ENDROOT
BRANCH   1   2
ATOM      2  O   UNL A   1      32.020  29.099  26.898  1.00  0.00    -0.462 OA
BRANCH   2   3
ATOM      3  C   UNL A   1      31.567  27.977  26.268  1.00  0.00     0.310 C 
ATOM      4  O   UNL A   1      30.995  27.052  26.791  1.00  0.00    -0.252 OA
BRANCH   3   5
ATOM      5  C   UNL A   1      31.905  28.090  24.793  1.00  0.00     0.160 C 
BRANCH   5   6
ATOM      6  C   UNL A   1      30.656  28.427  24.028  1.00  0.00    -0.013 A 
ATOM      7  C   UNL A   1      28.779  31.689  23.490  1.00  0.00     0.044 C 
ATOM      8  C   UNL A   1      29.127  30.234  23.460  1.00  0.00    -0.051 A 
ATOM      9  C   UNL A   1      28.203  29.283  23.031  1.00  0.00     0.005 A 
ATOM     10  C   UNL A   1      30.360  29.799  23.933  1.00  0.00     0.009 A 
ATOM     11  C   UNL A   1      28.503  27.918  23.087  1.00  0.00     0.026 A 
ATOM     12  C   UNL A   1      29.722  27.456  23.597  1.00  0.00     0.042 A 
BRANCH  12  13
ATOM     13  N   UNL A   1      29.925  26.072  23.777  1.00  0.00    -0.352 N 
ATOM     14  H   UNL A   1      29.199  25.596  24.241  1.00  0.00     0.167 HD
BRANCH  13  15
ATOM     15  C   UNL A   1      31.024  25.268  23.382  1.00  0.00     0.094 A 
ATOM     16  C   UNL A   1      31.690  25.524  22.177  1.00  0.00     0.148 A 
ATOM     17  C   UNL A   1      31.620  24.335  24.249  1.00  0.00     0.067 A 
ATOM     18  F   UNL A   1      31.184  26.409  21.305  1.00  0.00    -0.205 F 
ATOM     19  C   UNL A   1      32.885  24.884  21.844  1.00  0.00     0.041 A 
ATOM     20  C   UNL A   1      32.854  23.741  23.955  1.00  0.00     0.023 A 
ATOM     21  Cl  UNL A   1      30.796  23.728  25.634  1.00  0.00    -0.082 Cl
ATOM     22  C   UNL A   1      33.485  24.011  22.747  1.00  0.00     0.005 A 
ENDBRANCH  13  15
ENDBRANCH  12  13
ENDBRANCH   5   6
ENDBRANCH   3   5
ENDBRANCH   2   3
ENDBRANCH   1   2
BRANCH   1  23
ATOM     23  C   UNL A   1      34.409  29.182  27.217  1.00  0.00     0.275 C 
BRANCH  23  24
ATOM     24  O   UNL A   1      35.610  30.040  27.322  1.00  0.00    -0.458 OA
BRANCH  24  25
ATOM     25  C   UNL A   1      36.331  30.425  28.413  1.00  0.00     0.338 C 
ATOM     26  O   UNL A   1      35.961  31.309  29.173  1.00  0.00    -0.246 OA
BRANCH  25  27
ATOM     27  C   UNL A   1      37.553  29.664  28.703  1.00  0.00     0.060 A 
ATOM     28  C   UNL A   1      37.656  28.798  29.806  1.00  0.00     0.016 A 
ATOM     29  C   UNL A   1      38.529  29.689  27.733  1.00  0.00     0.016 A 
ATOM     30  C   UNL A   1      38.678  27.850  29.829  1.00  0.00     0.010 A 
ATOM     31  C   UNL A   1      39.299  28.579  27.589  1.00  0.00     0.010 A 
ATOM     32  C   UNL A   1      39.468  27.728  28.685  1.00  0.00    -0.014 A 
BRANCH  32  33
ATOM     33  C   UNL A   1      40.735  27.024  28.608  1.00  0.00     0.031 A 
ATOM     34  C   UNL A   1      40.837  25.600  28.289  1.00  0.00     0.074 A 
ATOM     35  C   UNL A   1      41.794  27.858  28.747  1.00  0.00     0.049 A 
ATOM     36  N   UNL A   1      41.673  24.807  28.863  1.00  0.00    -0.248 NA
ATOM     37  C   UNL A   1      40.007  24.939  27.285  1.00  0.00     0.031 C 
ATOM     38  C   UNL A   1      43.211  27.658  28.539  1.00  0.00     0.029 A 
ATOM     39  N   UNL A   1      41.715  29.182  29.229  1.00  0.00    -0.354 N 
ATOM     40  C   UNL A   1      41.738  23.679  28.074  1.00  0.00     0.074 A 
ATOM     41  C   UNL A   1      40.573  23.725  27.223  1.00  0.00     0.031 C 
ATOM     42  C   UNL A   1      43.872  28.639  29.190  1.00  0.00     0.029 A 
ATOM     43  C   UNL A   1      42.891  29.441  29.919  1.00  0.00     0.049 A 
ATOM     44  H   UNL A   1      40.964  29.806  29.101  1.00  0.00     0.167 HD
ATOM     45  C   UNL A   1      42.898  22.963  28.025  1.00  0.00     0.037 A 
ATOM     46  C   UNL A   1      42.789  29.616  31.267  1.00  0.00     0.037 A 
ATOM     47  C   UNL A   1      43.939  23.650  28.785  1.00  0.00     0.049 A 
ATOM     48  C   UNL A   1      43.434  28.464  31.986  1.00  0.00     0.074 A 
ATOM     49  C   UNL A   1      44.923  24.536  28.372  1.00  0.00     0.029 A 
ATOM     50  N   UNL A   1      43.804  23.828  30.158  1.00  0.00    -0.354 N 
ATOM     51  N   UNL A   1      43.566  27.273  31.469  1.00  0.00    -0.248 NA
ATOM     52  C   UNL A   1      44.021  28.577  33.312  1.00  0.00     0.031 C 
ATOM     53  C   UNL A   1      45.340  25.289  29.495  1.00  0.00     0.029 A 
ATOM     54  C   UNL A   1      44.614  24.861  30.592  1.00  0.00     0.049 A 
ATOM     55  H   UNL A   1      43.215  23.293  30.738  1.00  0.00     0.167 HD
ATOM     56  C   UNL A   1      44.301  26.495  32.317  1.00  0.00     0.074 A 
ATOM     57  C   UNL A   1      44.547  27.349  33.466  1.00  0.00     0.031 C 
ATOM     58  C   UNL A   1      44.679  25.223  31.998  1.00  0.00     0.037 A 
BRANCH  45  59
ATOM     59  C   UNL A   1      43.168  21.889  27.000  1.00  0.00     0.064 A 
ATOM     60  C   UNL A   1      42.512  20.641  27.046  1.00  0.00     0.173 A 
ATOM     61  C   UNL A   1      44.071  22.052  25.932  1.00  0.00     0.173 A 
ATOM     62  F   UNL A   1      41.587  20.365  27.972  1.00  0.00    -0.203 F 
ATOM     63  C   UNL A   1      42.786  19.613  26.142  1.00  0.00     0.198 A 
ATOM     64  C   UNL A   1      44.366  21.010  25.041  1.00  0.00     0.198 A 
ATOM     65  F   UNL A   1      44.675  23.230  25.717  1.00  0.00    -0.203 F 
ATOM     66  F   UNL A   1      42.136  18.446  26.248  1.00  0.00    -0.200 F 
ATOM     67  C   UNL A   1      43.726  19.790  25.149  1.00  0.00     0.200 A 
ATOM     68  F   UNL A   1      45.276  21.196  24.074  1.00  0.00    -0.200 F 
ATOM     69  F   UNL A   1      44.005  18.795  24.297  1.00  0.00    -0.200 F 
ENDBRANCH  45  59
BRANCH  46  70
ATOM     70  C   UNL A   1      41.535  30.331  31.692  1.00  0.00     0.064 A 
ATOM     71  C   UNL A   1      40.519  29.580  32.327  1.00  0.00     0.173 A 
ATOM     72  C   UNL A   1      41.425  31.726  31.775  1.00  0.00     0.173 A 
ATOM     73  F   UNL A   1      40.560  28.238  32.297  1.00  0.00    -0.203 F 
ATOM     74  C   UNL A   1      39.511  30.183  33.082  1.00  0.00     0.198 A 
ATOM     75  C   UNL A   1      40.397  32.331  32.514  1.00  0.00     0.198 A 
ATOM     76  F   UNL A   1      42.347  32.515  31.208  1.00  0.00    -0.203 F 
ATOM     77  F   UNL A   1      38.635  29.425  33.758  1.00  0.00    -0.200 F 
ATOM     78  C   UNL A   1      39.460  31.560  33.190  1.00  0.00     0.200 A 
ATOM     79  F   UNL A   1      40.352  33.666  32.632  1.00  0.00    -0.200 F 
ATOM     80  F   UNL A   1      38.534  32.139  33.968  1.00  0.00    -0.200 F 
ENDBRANCH  46  70
BRANCH  58  81
ATOM     81  C   UNL A   1      45.266  24.224  32.953  1.00  0.00     0.064 A 
ATOM     82  C   UNL A   1      46.539  24.361  33.524  1.00  0.00     0.173 A 
ATOM     83  C   UNL A   1      44.473  23.164  33.457  1.00  0.00     0.173 A 
ATOM     84  F   UNL A   1      47.333  25.397  33.220  1.00  0.00    -0.203 F 
ATOM     85  C   UNL A   1      47.012  23.464  34.480  1.00  0.00     0.198 A 
ATOM     86  C   UNL A   1      44.921  22.317  34.463  1.00  0.00     0.198 A 
ATOM     87  F   UNL A   1      43.228  22.937  33.010  1.00  0.00    -0.203 F 
ATOM     88  F   UNL A   1      48.257  23.602  34.956  1.00  0.00    -0.200 F 
ATOM     89  C   UNL A   1      46.199  22.452  34.960  1.00  0.00     0.200 A 
ATOM     90  F   UNL A   1      44.096  21.384  34.962  1.00  0.00    -0.200 F 
ATOM     91  F   UNL A   1      46.640  21.626  35.916  1.00  0.00    -0.200 F 
ENDBRANCH  58  81
ENDBRANCH  32  33
ENDBRANCH  25  27
ENDBRANCH  24  25
ENDBRANCH  23  24
ENDBRANCH   1  23
TORSDOF 14
ENDMDL
MODEL 3
REMARK VINA RESULT:     -13.2      1.339      1.860
REMARK SMILES Cc1ccc(Nc2c(F)cccc2Cl)c(CC(=O)OCCOC(=O)c2ccc(-c3c4nc(c(-c5c(F)c(F)c(F)c(F)c5F)c5ccc([nH]5)c(-c5c(F)c(F)c(F)c(F)c5F)c5nc(c(-c6c(F)c(F)c(F)c(F)c6F)c6ccc3[nH]6)C=C5)C=C4)cc2)c1
REMARK SMILES IDX 20 1 19 2 17 3 18 4 16 5 15 6 1 7 2 8 3 9 88 10 4 11 5 12
REMARK SMILES IDX 6 13 7 15 8 16 13 17 9 18 10 19 12 20 14 21 11 22 21 23
REMARK SMILES IDX 22 24 23 25 24 26 25 27 26 28 87 29 27 30 86 31 28 32 29 33
REMARK SMILES IDX 30 34 80 35 31 36 85 37 79 38 81 39 32 40 84 41 78 42 77 43
REMARK SMILES IDX 33 45 65 46 45 47 64 48 46 49 49 50 63 51 82 52 47 53 48 54
REMARK SMILES IDX 62 56 83 57 50 58 34 59 35 60 43 61 36 62 37 63 41 64 44 65
REMARK SMILES IDX 38 66 39 67 42 68 40 69 66 70 67 71 75 72 68 73 69 74 73 75
REMARK SMILES IDX 76 76 70 77 71 78 74 79 72 80 51 81 52 82 60 83 53 84 54 85
REMARK SMILES IDX 58 86 61 87 55 88 56 89 59 90 57 91
REMARK H PARENT 6 14 81 44 49 55
REMARK Flexibility Score: inf
ROOT
ATOM      1  C   UNL A   1      33.145  29.152  26.178  1.00  0.00     0.274 C 
ENDROOT
BRANCH   1   2
ATOM      2  O   UNL A   1      32.828  28.004  26.949  1.00  0.00    -0.462 OA
BRANCH   2   3
ATOM      3  C   UNL A   1      32.849  26.793  26.324  1.00  0.00     0.310 C 
ATOM      4  O   UNL A   1      32.063  25.893  26.495  1.00  0.00    -0.252 OA
BRANCH   3   5
ATOM      5  C   UNL A   1      34.030  26.768  25.372  1.00  0.00     0.160 C 
BRANCH   5   6
ATOM      6  C   UNL A   1      34.094  25.422  24.704  1.00  0.00    -0.013 A 
ATOM      7  C   UNL A   1      36.067  22.266  25.480  1.00  0.00     0.044 C 
ATOM      8  C   UNL A   1      35.168  23.240  24.783  1.00  0.00    -0.051 A 
ATOM      9  C   UNL A   1      34.709  22.995  23.490  1.00  0.00     0.005 A 
ATOM     10  C   UNL A   1      34.835  24.444  25.392  1.00  0.00     0.009 A 
ATOM     11  C   UNL A   1      33.941  23.947  22.812  1.00  0.00     0.026 A 
ATOM     12  C   UNL A   1      33.628  25.183  23.390  1.00  0.00     0.042 A 
BRANCH  12  13
ATOM     13  N   UNL A   1      32.983  26.172  22.620  1.00  0.00    -0.352 N 
ATOM     14  H   UNL A   1      33.373  26.335  21.731  1.00  0.00     0.167 HD
BRANCH  13  15
ATOM     15  C   UNL A   1      31.851  26.963  22.942  1.00  0.00     0.094 A 
ATOM     16  C   UNL A   1      31.887  28.353  22.768  1.00  0.00     0.148 A 
ATOM     17  C   UNL A   1      30.600  26.395  23.243  1.00  0.00     0.067 A 
ATOM     18  F   UNL A   1      33.045  28.962  22.472  1.00  0.00    -0.205 F 
ATOM     19  C   UNL A   1      30.743  29.141  22.892  1.00  0.00     0.041 A 
ATOM     20  C   UNL A   1      29.434  27.170  23.299  1.00  0.00     0.023 A 
ATOM     21  Cl  UNL A   1      30.444  24.753  23.736  1.00  0.00    -0.082 Cl
ATOM     22  C   UNL A   1      29.506  28.547  23.130  1.00  0.00     0.005 A 
ENDBRANCH  13  15
ENDBRANCH  12  13
ENDBRANCH   5   6
ENDBRANCH   3   5
ENDBRANCH   2   3
ENDBRANCH   1   2
BRANCH   1  23
ATOM     23  C   UNL A   1      33.876  30.173  27.063  1.00  0.00     0.275 C 
BRANCH  23  24
ATOM     24  O   UNL A   1      35.315  29.966  27.336  1.00  0.00    -0.458 OA
BRANCH  24  25
ATOM     25  C   UNL A   1      36.118  30.491  28.305  1.00  0.00     0.338 C 
ATOM     26  O   UNL A   1      35.818  31.488  28.946  1.00  0.00    -0.246 OA
BRANCH  25  27
ATOM     27  C   UNL A   1      37.345  29.748  28.624  1.00  0.00     0.060 A 
ATOM     28  C   UNL A   1      37.464  28.951  29.777  1.00  0.00     0.016 A 
ATOM     29  C   UNL A   1      38.308  29.714  27.641  1.00  0.00     0.016 A 
ATOM     30  C   UNL A   1      38.487  28.006  29.843  1.00  0.00     0.010 A 
ATOM     31  C   UNL A   1      39.077  28.597  27.555  1.00  0.00     0.010 A 
ATOM     32  C   UNL A   1      39.261  27.815  28.698  1.00  0.00    -0.014 A 
BRANCH  32  33
ATOM     33  C   UNL A   1      40.527  27.108  28.647  1.00  0.00     0.031 A 
ATOM     34  C   UNL A   1      40.632  25.683  28.334  1.00  0.00     0.074 A 
ATOM     35  C   UNL A   1      41.586  27.939  28.802  1.00  0.00     0.049 A 
ATOM     36  N   UNL A   1      41.455  24.889  28.926  1.00  0.00    -0.248 NA
ATOM     37  C   UNL A   1      39.819  25.020  27.317  1.00  0.00     0.031 C 
ATOM     38  C   UNL A   1      43.006  27.735  28.622  1.00  0.00     0.029 A 
ATOM     39  N   UNL A   1      41.501  29.265  29.279  1.00  0.00    -0.354 N 
ATOM     40  C   UNL A   1      41.532  23.759  28.142  1.00  0.00     0.074 A 
ATOM     41  C   UNL A   1      40.383  23.805  27.269  1.00  0.00     0.031 C 
ATOM     42  C   UNL A   1      43.657  28.717  29.282  1.00  0.00     0.029 A 
ATOM     43  C   UNL A   1      42.665  29.524  29.990  1.00  0.00     0.049 A 
ATOM     44  H   UNL A   1      40.754  29.891  29.136  1.00  0.00     0.167 HD
ATOM     45  C   UNL A   1      42.691  23.039  28.117  1.00  0.00     0.037 A 
ATOM     46  C   UNL A   1      42.538  29.702  31.336  1.00  0.00     0.037 A 
ATOM     47  C   UNL A   1      43.719  23.726  28.894  1.00  0.00     0.049 A 
ATOM     48  C   UNL A   1      43.166  28.551  32.070  1.00  0.00     0.074 A 
ATOM     49  C   UNL A   1      44.712  24.609  28.497  1.00  0.00     0.029 A 
ATOM     50  N   UNL A   1      43.558  23.908  30.264  1.00  0.00    -0.354 N 
ATOM     51  N   UNL A   1      43.305  27.358  31.559  1.00  0.00    -0.248 NA
ATOM     52  C   UNL A   1      43.729  28.668  33.407  1.00  0.00     0.031 C 
ATOM     53  C   UNL A   1      45.110  25.364  29.625  1.00  0.00     0.029 A 
ATOM     54  C   UNL A   1      44.364  24.941  30.710  1.00  0.00     0.049 A 
ATOM     55  H   UNL A   1      42.958  23.377  30.835  1.00  0.00     0.167 HD
ATOM     56  C   UNL A   1      44.023  26.581  32.423  1.00  0.00     0.074 A 
ATOM     57  C   UNL A   1      44.249  27.439  33.574  1.00  0.00     0.031 C 
ATOM     58  C   UNL A   1      44.403  25.307  32.115  1.00  0.00     0.037 A 
BRANCH  45  59
ATOM     59  C   UNL A   1      42.977  21.962  27.100  1.00  0.00     0.064 A 
ATOM     60  C   UNL A   1      42.295  20.726  27.120  1.00  0.00     0.173 A 
ATOM     61  C   UNL A   1      43.922  22.108  26.066  1.00  0.00     0.173 A 
ATOM     62  F   UNL A   1      41.331  20.468  28.011  1.00  0.00    -0.203 F 
ATOM     63  C   UNL A   1      42.582  19.695  26.224  1.00  0.00     0.198 A 
ATOM     64  C   UNL A   1      44.228  21.062  25.185  1.00  0.00     0.198 A 
ATOM     65  F   UNL A   1      44.556  23.274  25.876  1.00  0.00    -0.203 F 
ATOM     66  F   UNL A   1      41.905  18.540  26.304  1.00  0.00    -0.200 F 
ATOM     67  C   UNL A   1      43.561  19.854  25.268  1.00  0.00     0.200 A 
ATOM     68  F   UNL A   1      45.177  21.231  24.252  1.00  0.00    -0.200 F 
ATOM     69  F   UNL A   1      43.851  18.854  24.424  1.00  0.00    -0.200 F 
ENDBRANCH  45  59
BRANCH  46  70
ATOM     70  C   UNL A   1      41.278  30.422  31.735  1.00  0.00     0.064 A 
ATOM     71  C   UNL A   1      40.266  29.685  32.392  1.00  0.00     0.173 A 
ATOM     72  C   UNL A   1      41.158  31.818  31.773  1.00  0.00     0.173 A 
ATOM     73  F   UNL A   1      40.317  28.343  32.405  1.00  0.00    -0.203 F 
ATOM     74  C   UNL A   1      39.252  30.305  33.125  1.00  0.00     0.198 A 
ATOM     75  C   UNL A   1      40.124  32.439  32.490  1.00  0.00     0.198 A 
ATOM     76  F   UNL A   1      42.076  32.595  31.183  1.00  0.00    -0.203 F 
ATOM     77  F   UNL A   1      38.380  29.563  33.824  1.00  0.00    -0.200 F 
ATOM     78  C   UNL A   1      39.191  31.684  33.189  1.00  0.00     0.200 A 
ATOM     79  F   UNL A   1      40.070  33.778  32.565  1.00  0.00    -0.200 F 
ATOM     80  F   UNL A   1      38.260  32.281  33.946  1.00  0.00    -0.200 F 
ENDBRANCH  46  70
BRANCH  58  81
ATOM     81  C   UNL A   1      44.970  24.310  33.084  1.00  0.00     0.064 A 
ATOM     82  C   UNL A   1      44.278  23.165  33.504  1.00  0.00     0.173 A 
ATOM     83  C   UNL A   1      46.323  24.400  33.494  1.00  0.00     0.173 A 
ATOM     84  F   UNL A   1      43.033  22.907  33.080  1.00  0.00    -0.203 F 
ATOM     85  C   UNL A   1      44.872  22.214  34.331  1.00  0.00     0.198 A 
ATOM     86  C   UNL A   1      46.934  23.412  34.256  1.00  0.00     0.198 A 
ATOM     87  F   UNL A   1      47.102  25.434  33.142  1.00  0.00    -0.203 F 
ATOM     88  F   UNL A   1      44.154  21.165  34.752  1.00  0.00    -0.200 F 
ATOM     89  C   UNL A   1      46.203  22.329  34.693  1.00  0.00     0.200 A 
ATOM     90  F   UNL A   1      48.240  23.507  34.543  1.00  0.00    -0.200 F 
ATOM     91  F   UNL A   1      46.784  21.384  35.443  1.00  0.00    -0.200 F 
ENDBRANCH  58  81
ENDBRANCH  32  33
ENDBRANCH  25  27
ENDBRANCH  24  25
ENDBRANCH  23  24
ENDBRANCH   1  23
TORSDOF 14
ENDMDL
