MODEL 1
REMARK VINA RESULT:     -13.4      0.000      0.000
REMARK SMILES CC1(C)Cc2c(c(N3CCOCC3)nc3sc(C(=O)OCCOC(=O)c4ccc(-c5c6nc(c(-c7c(F)c(F)c(F)c(F)c7F)c7ccc([nH]7)c(-c7c(F)c(F)c(F)c(F)c7F)c7nc(c(-c8c(F)c(F)c(F)c(F)c8F)c8ccc5[nH]8)C=C7)C=C6)cc4)c(N)c23)CS1
REMARK SMILES IDX 22 1 21 2 20 3 18 4 19 5 17 6 1 7 2 8 3 9 4 10 93 11 5 12
REMARK SMILES IDX 92 13 6 14 91 15 7 16 15 17 89 18 14 19 16 20 8 21 9 22
REMARK SMILES IDX 13 23 10 24 12 25 11 26 90 27 23 30 24 31 25 32 26 33 27 34
REMARK SMILES IDX 88 35 28 36 87 37 29 38 30 39 31 40 81 41 32 42 86 43 80 44
REMARK SMILES IDX 82 45 33 46 85 47 79 48 78 49 34 51 66 52 46 53 65 54 47 55
REMARK SMILES IDX 50 56 64 57 83 58 48 59 49 60 63 62 84 63 51 64 35 65 36 66
REMARK SMILES IDX 44 67 37 68 38 69 42 70 45 71 39 72 40 73 43 74 41 75 67 76
REMARK SMILES IDX 68 77 76 78 69 79 70 80 74 81 77 82 71 83 72 84 75 85 73 86
REMARK SMILES IDX 52 87 53 88 61 89 54 90 55 91 59 92 62 93 56 94 57 95 60 96
REMARK SMILES IDX 58 97
REMARK H PARENT 90 28 90 29 82 50 50 61
REMARK Flexibility Score: inf
ROOT
ATOM      1  C   UNL A   1      43.373  19.308  25.647  1.00  0.00     0.275 C 
ENDROOT
BRANCH   1   2
ATOM      2  C   UNL A   1      42.066  19.702  26.324  1.00  0.00     0.275 C 
BRANCH   2   3
ATOM      3  O   UNL A   1      41.288  20.571  25.484  1.00  0.00    -0.458 OA
BRANCH   3   4
ATOM      4  C   UNL A   1      40.547  21.520  26.128  1.00  0.00     0.350 C 
ATOM      5  O   UNL A   1      41.036  22.404  26.833  1.00  0.00    -0.245 OA
BRANCH   4   6
ATOM      6  C   UNL A   1      39.134  21.415  25.808  1.00  0.00     0.138 A 
ATOM      7  C   UNL A   1      34.152  26.305  25.502  1.00  0.00     0.023 C 
ATOM      8  C   UNL A   1      34.173  24.843  25.033  1.00  0.00     0.015 C 
ATOM      9  C   UNL A   1      34.008  24.814  23.504  1.00  0.00     0.023 C 
ATOM     10  C   UNL A   1      35.478  24.165  25.490  1.00  0.00     0.054 C 
ATOM     11  S   UNL A   1      32.789  24.009  25.870  1.00  0.00    -0.150 SA
ATOM     12  C   UNL A   1      35.604  22.662  25.331  1.00  0.00    -0.027 A 
ATOM     13  C   UNL A   1      33.047  22.359  25.205  1.00  0.00     0.109 C 
ATOM     14  C   UNL A   1      34.465  21.838  25.132  1.00  0.00     0.009 A 
ATOM     15  C   UNL A   1      36.865  22.002  25.456  1.00  0.00     0.039 A 
ATOM     16  C   UNL A   1      34.635  20.456  24.905  1.00  0.00     0.134 A 
ATOM     17  C   UNL A   1      36.877  20.630  25.227  1.00  0.00     0.128 A 
ATOM     18  C   UNL A   1      38.197  22.437  25.822  1.00  0.00     0.067 A 
ATOM     19  N   UNL A   1      35.825  19.847  24.942  1.00  0.00    -0.220 NA
ATOM     20  S   UNL A   1      38.422  19.934  25.352  1.00  0.00    -0.106 S 
BRANCH  16  21
ATOM     21  N   UNL A   1      33.538  19.647  24.734  1.00  0.00    -0.352 N 
ATOM     22  C   UNL A   1      32.866  18.957  25.831  1.00  0.00     0.146 C 
ATOM     23  C   UNL A   1      32.757  19.739  23.506  1.00  0.00     0.146 C 
ATOM     24  C   UNL A   1      32.494  17.543  25.340  1.00  0.00     0.181 C 
ATOM     25  C   UNL A   1      32.429  18.296  23.081  1.00  0.00     0.181 C 
ATOM     26  O   UNL A   1      31.724  17.584  24.121  1.00  0.00    -0.378 OA
ENDBRANCH  16  21
BRANCH  18  27
ATOM     27  N   UNL A   1      38.530  23.701  26.177  1.00  0.00    -0.397 N 
ATOM     28  H   UNL A   1      38.827  24.342  25.491  1.00  0.00     0.156 HD
ATOM     29  H   UNL A   1      38.474  23.978  27.120  1.00  0.00     0.156 HD
ENDBRANCH  18  27
ENDBRANCH   4   6
ENDBRANCH   3   4
ENDBRANCH   2   3
ENDBRANCH   1   2
BRANCH   1  30
ATOM     30  O   UNL A   1      43.742  20.229  24.619  1.00  0.00    -0.458 OA
BRANCH  30  31
ATOM     31  C   UNL A   1      44.981  20.761  24.734  1.00  0.00     0.338 C 
ATOM     32  O   UNL A   1      46.042  20.161  24.712  1.00  0.00    -0.246 OA
BRANCH  31  33
ATOM     33  C   UNL A   1      44.865  22.179  25.104  1.00  0.00     0.060 A 
ATOM     34  C   UNL A   1      45.653  22.638  26.162  1.00  0.00     0.016 A 
ATOM     35  C   UNL A   1      43.837  22.969  24.566  1.00  0.00     0.016 A 
ATOM     36  C   UNL A   1      45.320  23.834  26.769  1.00  0.00     0.010 A 
ATOM     37  C   UNL A   1      43.502  24.161  25.176  1.00  0.00     0.010 A 
ATOM     38  C   UNL A   1      44.207  24.553  26.309  1.00  0.00    -0.014 A 
BRANCH  38  39
ATOM     39  C   UNL A   1      43.869  25.788  26.993  1.00  0.00     0.031 A 
ATOM     40  C   UNL A   1      44.807  26.901  26.711  1.00  0.00     0.074 A 
ATOM     41  C   UNL A   1      42.768  25.944  27.751  1.00  0.00     0.049 A 
ATOM     42  N   UNL A   1      45.597  27.495  27.543  1.00  0.00    -0.248 NA
ATOM     43  C   UNL A   1      44.985  27.315  25.311  1.00  0.00     0.031 C 
ATOM     44  C   UNL A   1      41.625  25.042  27.900  1.00  0.00     0.029 A 
ATOM     45  N   UNL A   1      42.412  27.018  28.508  1.00  0.00    -0.354 N 
ATOM     46  C   UNL A   1      46.264  28.471  26.809  1.00  0.00     0.074 A 
ATOM     47  C   UNL A   1      45.951  28.228  25.425  1.00  0.00     0.031 C 
ATOM     48  C   UNL A   1      40.617  25.698  28.524  1.00  0.00     0.029 A 
ATOM     49  C   UNL A   1      41.094  27.008  28.937  1.00  0.00     0.049 A 
ATOM     50  H   UNL A   1      43.039  27.743  28.732  1.00  0.00     0.167 HD
ATOM     51  C   UNL A   1      46.856  29.529  27.425  1.00  0.00     0.037 A 
ATOM     52  C   UNL A   1      40.438  28.033  29.537  1.00  0.00     0.037 A 
ATOM     53  C   UNL A   1      47.089  29.255  28.818  1.00  0.00     0.049 A 
ATOM     54  C   UNL A   1      41.464  28.940  30.109  1.00  0.00     0.074 A 
ATOM     55  C   UNL A   1      47.849  28.333  29.511  1.00  0.00     0.029 A 
ATOM     56  N   UNL A   1      46.208  29.773  29.733  1.00  0.00    -0.354 N 
ATOM     57  N   UNL A   1      42.234  28.628  31.114  1.00  0.00    -0.248 NA
ATOM     58  C   UNL A   1      41.934  30.040  29.279  1.00  0.00     0.031 C 
ATOM     59  C   UNL A   1      47.073  28.004  30.660  1.00  0.00     0.029 A 
ATOM     60  C   UNL A   1      45.915  28.781  30.629  1.00  0.00     0.049 A 
ATOM     61  H   UNL A   1      45.851  30.691  29.744  1.00  0.00     0.167 HD
ATOM     62  C   UNL A   1      43.466  29.179  30.795  1.00  0.00     0.074 A 
ATOM     63  C   UNL A   1      43.197  30.112  29.704  1.00  0.00     0.031 C 
ATOM     64  C   UNL A   1      44.623  28.620  31.252  1.00  0.00     0.037 A 
BRANCH  51  65
ATOM     65  C   UNL A   1      46.883  30.930  26.868  1.00  0.00     0.064 A 
ATOM     66  C   UNL A   1      48.097  31.647  26.884  1.00  0.00     0.173 A 
ATOM     67  C   UNL A   1      45.725  31.699  26.625  1.00  0.00     0.173 A 
ATOM     68  F   UNL A   1      49.260  31.019  27.115  1.00  0.00    -0.203 F 
ATOM     69  C   UNL A   1      48.133  33.038  26.766  1.00  0.00     0.198 A 
ATOM     70  C   UNL A   1      45.772  33.081  26.454  1.00  0.00     0.198 A 
ATOM     71  F   UNL A   1      44.496  31.172  26.656  1.00  0.00    -0.203 F 
ATOM     72  F   UNL A   1      49.293  33.689  26.927  1.00  0.00    -0.200 F 
ATOM     73  C   UNL A   1      46.969  33.755  26.561  1.00  0.00     0.200 A 
ATOM     74  F   UNL A   1      44.630  33.759  26.274  1.00  0.00    -0.200 F 
ATOM     75  F   UNL A   1      46.992  35.093  26.518  1.00  0.00    -0.200 F 
ENDBRANCH  51  65
BRANCH  52  76
ATOM     76  C   UNL A   1      39.026  28.454  29.356  1.00  0.00     0.064 A 
ATOM     77  C   UNL A   1      38.174  28.623  30.461  1.00  0.00     0.173 A 
ATOM     78  C   UNL A   1      38.575  28.986  28.133  1.00  0.00     0.173 A 
ATOM     79  F   UNL A   1      38.547  28.187  31.674  1.00  0.00    -0.203 F 
ATOM     80  C   UNL A   1      36.960  29.310  30.355  1.00  0.00     0.198 A 
ATOM     81  C   UNL A   1      37.360  29.665  28.026  1.00  0.00     0.198 A 
ATOM     82  F   UNL A   1      39.346  28.944  27.038  1.00  0.00    -0.203 F 
ATOM     83  F   UNL A   1      36.207  29.512  31.445  1.00  0.00    -0.200 F 
ATOM     84  C   UNL A   1      36.560  29.842  29.140  1.00  0.00     0.200 A 
ATOM     85  F   UNL A   1      37.004  30.208  26.853  1.00  0.00    -0.200 F 
ATOM     86  F   UNL A   1      35.432  30.558  29.050  1.00  0.00    -0.200 F 
ENDBRANCH  52  76
BRANCH  64  87
ATOM     87  C   UNL A   1      44.526  27.571  32.322  1.00  0.00     0.064 A 
ATOM     88  C   UNL A   1      44.355  26.200  32.064  1.00  0.00     0.173 A 
ATOM     89  C   UNL A   1      44.798  27.952  33.643  1.00  0.00     0.173 A 
ATOM     90  F   UNL A   1      44.181  25.749  30.815  1.00  0.00    -0.203 F 
ATOM     91  C   UNL A   1      44.432  25.258  33.089  1.00  0.00     0.198 A 
ATOM     92  C   UNL A   1      44.911  27.006  34.658  1.00  0.00     0.198 A 
ATOM     93  F   UNL A   1      45.021  29.242  33.938  1.00  0.00    -0.203 F 
ATOM     94  F   UNL A   1      44.269  23.955  32.819  1.00  0.00    -0.200 F 
ATOM     95  C   UNL A   1      44.723  25.661  34.382  1.00  0.00     0.200 A 
ATOM     96  F   UNL A   1      45.241  27.395  35.897  1.00  0.00    -0.200 F 
ATOM     97  F   UNL A   1      44.853  24.751  35.357  1.00  0.00    -0.200 F 
ENDBRANCH  64  87
ENDBRANCH  38  39
ENDBRANCH  31  33
ENDBRANCH  30  31
ENDBRANCH   1  30
TORSDOF 13
ENDMDL
MODEL 2
REMARK VINA RESULT:     -13.3      1.390      2.373
REMARK SMILES CC1(C)Cc2c(c(N3CCOCC3)nc3sc(C(=O)OCCOC(=O)c4ccc(-c5c6nc(c(-c7c(F)c(F)c(F)c(F)c7F)c7ccc([nH]7)c(-c7c(F)c(F)c(F)c(F)c7F)c7nc(c(-c8c(F)c(F)c(F)c(F)c8F)c8ccc5[nH]8)C=C7)C=C6)cc4)c(N)c23)CS1
REMARK SMILES IDX 22 1 21 2 20 3 18 4 19 5 17 6 1 7 2 8 3 9 4 10 93 11 5 12
REMARK SMILES IDX 92 13 6 14 91 15 7 16 15 17 89 18 14 19 16 20 8 21 9 22
REMARK SMILES IDX 13 23 10 24 12 25 11 26 90 27 23 30 24 31 25 32 26 33 27 34
REMARK SMILES IDX 88 35 28 36 87 37 29 38 30 39 31 40 81 41 32 42 86 43 80 44
REMARK SMILES IDX 82 45 33 46 85 47 79 48 78 49 34 51 66 52 46 53 65 54 47 55
REMARK SMILES IDX 50 56 64 57 83 58 48 59 49 60 63 62 84 63 51 64 35 65 36 66
REMARK SMILES IDX 44 67 37 68 38 69 42 70 45 71 39 72 40 73 43 74 41 75 67 76
REMARK SMILES IDX 68 77 76 78 69 79 70 80 74 81 77 82 71 83 72 84 75 85 73 86
REMARK SMILES IDX 52 87 53 88 61 89 54 90 55 91 59 92 62 93 56 94 57 95 60 96
REMARK SMILES IDX 58 97
REMARK H PARENT 90 28 90 29 82 50 50 61
REMARK Flexibility Score: inf
ROOT
ATOM      1  C   UNL A   1      42.512  19.358  25.615  1.00  0.00     0.275 C 
ENDROOT
BRANCH   1   2
ATOM      2  C   UNL A   1      41.601  19.921  26.699  1.00  0.00     0.275 C 
BRANCH   2   3
ATOM      3  O   UNL A   1      40.278  20.157  26.193  1.00  0.00    -0.458 OA
BRANCH   3   4
ATOM      4  C   UNL A   1      39.943  21.465  25.979  1.00  0.00     0.350 C 
ATOM      5  O   UNL A   1      40.771  22.367  25.852  1.00  0.00    -0.245 OA
BRANCH   4   6
ATOM      6  C   UNL A   1      38.509  21.641  25.829  1.00  0.00     0.138 A 
ATOM      7  C   UNL A   1      33.556  17.166  23.767  1.00  0.00     0.023 C 
ATOM      8  C   UNL A   1      33.466  18.550  24.425  1.00  0.00     0.015 C 
ATOM      9  C   UNL A   1      32.798  18.399  25.802  1.00  0.00     0.023 C 
ATOM     10  C   UNL A   1      34.871  19.174  24.525  1.00  0.00     0.054 C 
ATOM     11  S   UNL A   1      32.472  19.591  23.312  1.00  0.00    -0.150 SA
ATOM     12  C   UNL A   1      34.985  20.630  24.935  1.00  0.00    -0.027 A 
ATOM     13  C   UNL A   1      32.546  21.118  24.258  1.00  0.00     0.109 C 
ATOM     14  C   UNL A   1      33.873  21.510  24.868  1.00  0.00     0.009 A 
ATOM     15  C   UNL A   1      36.236  21.198  25.328  1.00  0.00     0.039 A 
ATOM     16  C   UNL A   1      34.003  22.834  25.337  1.00  0.00     0.134 A 
ATOM     17  C   UNL A   1      36.216  22.524  25.745  1.00  0.00     0.128 A 
ATOM     18  C   UNL A   1      37.598  20.707  25.360  1.00  0.00     0.067 A 
ATOM     19  N   UNL A   1      35.156  23.347  25.782  1.00  0.00    -0.220 NA
ATOM     20  S   UNL A   1      37.735  23.105  26.238  1.00  0.00    -0.106 S 
BRANCH  16  21
ATOM     21  N   UNL A   1      32.939  23.700  25.254  1.00  0.00    -0.352 N 
ATOM     22  C   UNL A   1      32.083  24.038  26.387  1.00  0.00     0.146 C 
ATOM     23  C   UNL A   1      32.842  24.618  24.125  1.00  0.00     0.146 C 
ATOM     24  C   UNL A   1      30.628  24.092  25.878  1.00  0.00     0.181 C 
ATOM     25  C   UNL A   1      31.369  24.614  23.676  1.00  0.00     0.181 C 
ATOM     26  O   UNL A   1      30.485  24.985  24.756  1.00  0.00    -0.378 OA
ENDBRANCH  16  21
BRANCH  18  27
ATOM     27  N   UNL A   1      37.989  19.476  24.954  1.00  0.00    -0.397 N 
ATOM     28  H   UNL A   1      37.643  19.104  24.110  1.00  0.00     0.156 HD
ATOM     29  H   UNL A   1      38.619  18.954  25.502  1.00  0.00     0.156 HD
ENDBRANCH  18  27
ENDBRANCH   4   6
ENDBRANCH   3   4
ENDBRANCH   2   3
ENDBRANCH   1   2
BRANCH   1  30
ATOM     30  O   UNL A   1      43.853  19.834  25.741  1.00  0.00    -0.458 OA
BRANCH  30  31
ATOM     31  C   UNL A   1      44.287  20.622  24.730  1.00  0.00     0.338 C 
ATOM     32  O   UNL A   1      44.728  20.259  23.654  1.00  0.00    -0.246 OA
BRANCH  31  33
ATOM     33  C   UNL A   1      44.346  22.016  25.196  1.00  0.00     0.060 A 
ATOM     34  C   UNL A   1      44.838  22.247  26.483  1.00  0.00     0.016 A 
ATOM     35  C   UNL A   1      43.718  23.035  24.464  1.00  0.00     0.016 A 
ATOM     36  C   UNL A   1      44.578  23.463  27.086  1.00  0.00     0.010 A 
ATOM     37  C   UNL A   1      43.454  24.247  25.068  1.00  0.00     0.010 A 
ATOM     38  C   UNL A   1      43.833  24.429  26.394  1.00  0.00    -0.014 A 
BRANCH  38  39
ATOM     39  C   UNL A   1      43.552  25.681  27.073  1.00  0.00     0.031 A 
ATOM     40  C   UNL A   1      44.532  26.752  26.776  1.00  0.00     0.074 A 
ATOM     41  C   UNL A   1      42.464  25.886  27.839  1.00  0.00     0.049 A 
ATOM     42  N   UNL A   1      45.352  27.319  27.597  1.00  0.00    -0.248 NA
ATOM     43  C   UNL A   1      44.713  27.150  25.371  1.00  0.00     0.031 C 
ATOM     44  C   UNL A   1      41.286  25.032  28.004  1.00  0.00     0.029 A 
ATOM     45  N   UNL A   1      42.159  26.978  28.592  1.00  0.00    -0.354 N 
ATOM     46  C   UNL A   1      46.051  28.262  26.851  1.00  0.00     0.074 A 
ATOM     47  C   UNL A   1      45.717  28.023  25.471  1.00  0.00     0.031 C 
ATOM     48  C   UNL A   1      40.312  25.733  28.632  1.00  0.00     0.029 A 
ATOM     49  C   UNL A   1      40.845  27.024  29.033  1.00  0.00     0.049 A 
ATOM     50  H   UNL A   1      42.816  27.678  28.806  1.00  0.00     0.167 HD
ATOM     51  C   UNL A   1      46.692  29.299  27.455  1.00  0.00     0.037 A 
ATOM     52  C   UNL A   1      40.237  28.079  29.631  1.00  0.00     0.037 A 
ATOM     53  C   UNL A   1      46.926  29.024  28.848  1.00  0.00     0.049 A 
ATOM     54  C   UNL A   1      41.304  28.948  30.188  1.00  0.00     0.074 A 
ATOM     55  C   UNL A   1      47.653  28.076  29.541  1.00  0.00     0.029 A 
ATOM     56  N   UNL A   1      46.074  29.584  29.767  1.00  0.00    -0.354 N 
ATOM     57  N   UNL A   1      42.069  28.610  31.189  1.00  0.00    -0.248 NA
ATOM     58  C   UNL A   1      41.811  30.022  29.347  1.00  0.00     0.031 C 
ATOM     59  C   UNL A   1      46.875  27.786  30.699  1.00  0.00     0.029 A 
ATOM     60  C   UNL A   1      45.749  28.609  30.672  1.00  0.00     0.049 A 
ATOM     61  H   UNL A   1      45.755  30.515  29.775  1.00  0.00     0.167 HD
ATOM     62  C   UNL A   1      43.320  29.109  30.856  1.00  0.00     0.074 A 
ATOM     63  C   UNL A   1      43.080  30.045  29.762  1.00  0.00     0.031 C 
ATOM     64  C   UNL A   1      44.457  28.506  31.307  1.00  0.00     0.037 A 
BRANCH  51  65
ATOM     65  C   UNL A   1      46.771  30.694  26.888  1.00  0.00     0.064 A 
ATOM     66  C   UNL A   1      48.010  31.368  26.905  1.00  0.00     0.173 A 
ATOM     67  C   UNL A   1      45.642  31.502  26.635  1.00  0.00     0.173 A 
ATOM     68  F   UNL A   1      49.149  30.701  27.146  1.00  0.00    -0.203 F 
ATOM     69  C   UNL A   1      48.096  32.756  26.778  1.00  0.00     0.198 A 
ATOM     70  C   UNL A   1      45.739  32.880  26.455  1.00  0.00     0.198 A 
ATOM     71  F   UNL A   1      44.396  31.019  26.664  1.00  0.00    -0.203 F 
ATOM     72  F   UNL A   1      49.278  33.366  26.940  1.00  0.00    -0.200 F 
ATOM     73  C   UNL A   1      46.959  33.512  26.564  1.00  0.00     0.200 A 
ATOM     74  F   UNL A   1      44.623  33.597  26.265  1.00  0.00    -0.200 F 
ATOM     75  F   UNL A   1      47.030  34.848  26.511  1.00  0.00    -0.200 F 
ENDBRANCH  51  65
BRANCH  52  76
ATOM     76  C   UNL A   1      38.842  28.557  29.459  1.00  0.00     0.064 A 
ATOM     77  C   UNL A   1      38.013  28.785  30.571  1.00  0.00     0.173 A 
ATOM     78  C   UNL A   1      38.396  29.082  28.231  1.00  0.00     0.173 A 
ATOM     79  F   UNL A   1      38.383  28.359  31.788  1.00  0.00    -0.203 F 
ATOM     80  C   UNL A   1      36.828  29.521  30.466  1.00  0.00     0.198 A 
ATOM     81  C   UNL A   1      37.211  29.810  28.125  1.00  0.00     0.198 A 
ATOM     82  F   UNL A   1      39.151  28.985  27.128  1.00  0.00    -0.203 F 
ATOM     83  F   UNL A   1      36.099  29.777  31.561  1.00  0.00    -0.200 F 
ATOM     84  C   UNL A   1      36.434  30.044  29.245  1.00  0.00     0.200 A 
ATOM     85  F   UNL A   1      36.862  30.344  26.946  1.00  0.00    -0.200 F 
ATOM     86  F   UNL A   1      35.336  30.806  29.154  1.00  0.00    -0.200 F 
ENDBRANCH  52  76
BRANCH  64  87
ATOM     87  C   UNL A   1      44.327  27.468  32.385  1.00  0.00     0.064 A 
ATOM     88  C   UNL A   1      44.159  26.095  32.136  1.00  0.00     0.173 A 
ATOM     89  C   UNL A   1      44.562  27.862  33.708  1.00  0.00     0.173 A 
ATOM     90  F   UNL A   1      44.019  25.631  30.887  1.00  0.00    -0.203 F 
ATOM     91  C   UNL A   1      44.204  25.164  33.172  1.00  0.00     0.198 A 
ATOM     92  C   UNL A   1      44.643  26.927  34.736  1.00  0.00     0.198 A 
ATOM     93  F   UNL A   1      44.779  29.155  33.997  1.00  0.00    -0.203 F 
ATOM     94  F   UNL A   1      44.045  23.858  32.911  1.00  0.00    -0.200 F 
ATOM     95  C   UNL A   1      44.459  25.580  34.469  1.00  0.00     0.200 A 
ATOM     96  F   UNL A   1      44.939  27.328  35.980  1.00  0.00    -0.200 F 
ATOM     97  F   UNL A   1      44.559  24.679  35.457  1.00  0.00    -0.200 F 
ENDBRANCH  64  87
ENDBRANCH  38  39
ENDBRANCH  31  33
ENDBRANCH  30  31
ENDBRANCH   1  30
TORSDOF 13
ENDMDL
MODEL 3
REMARK VINA RESULT:     -13.1      5.326     10.302
REMARK SMILES CC1(C)Cc2c(c(N3CCOCC3)nc3sc(C(=O)OCCOC(=O)c4ccc(-c5c6nc(c(-c7c(F)c(F)c(F)c(F)c7F)c7ccc([nH]7)c(-c7c(F)c(F)c(F)c(F)c7F)c7nc(c(-c8c(F)c(F)c(F)c(F)c8F)c8ccc5[nH]8)C=C7)C=C6)cc4)c(N)c23)CS1
REMARK SMILES IDX 22 1 21 2 20 3 18 4 19 5 17 6 1 7 2 8 3 9 4 10 93 11 5 12
REMARK SMILES IDX 92 13 6 14 91 15 7 16 15 17 89 18 14 19 16 20 8 21 9 22
REMARK SMILES IDX 13 23 10 24 12 25 11 26 90 27 23 30 24 31 25 32 26 33 27 34
REMARK SMILES IDX 88 35 28 36 87 37 29 38 30 39 31 40 81 41 32 42 86 43 80 44
REMARK SMILES IDX 82 45 33 46 85 47 79 48 78 49 34 51 66 52 46 53 65 54 47 55
REMARK SMILES IDX 50 56 64 57 83 58 48 59 49 60 63 62 84 63 51 64 35 65 36 66
REMARK SMILES IDX 44 67 37 68 38 69 42 70 45 71 39 72 40 73 43 74 41 75 67 76
REMARK SMILES IDX 68 77 76 78 69 79 70 80 74 81 77 82 71 83 72 84 75 85 73 86
REMARK SMILES IDX 52 87 53 88 61 89 54 90 55 91 59 92 62 93 56 94 57 95 60 96
REMARK SMILES IDX 58 97
REMARK H PARENT 90 28 90 29 82 50 50 61
REMARK Flexibility Score: inf
ROOT
ATOM      1  C   UNL A   1      33.264  35.449  30.304  1.00  0.00     0.275 C 
ENDROOT
BRANCH   1   2
ATOM      2  C   UNL A   1      34.206  34.711  29.361  1.00  0.00     0.275 C 
BRANCH   2   3
ATOM      3  O   UNL A   1      33.490  33.767  28.547  1.00  0.00    -0.458 OA
BRANCH   3   4
ATOM      4  C   UNL A   1      33.910  32.469  28.626  1.00  0.00     0.350 C 
ATOM      5  O   UNL A   1      34.705  32.061  29.473  1.00  0.00    -0.245 OA
BRANCH   4   6
ATOM      6  C   UNL A   1      33.239  31.622  27.655  1.00  0.00     0.138 A 
ATOM      7  C   UNL A   1      34.567  25.066  25.638  1.00  0.00     0.023 C 
ATOM      8  C   UNL A   1      33.360  25.982  25.389  1.00  0.00     0.015 C 
ATOM      9  C   UNL A   1      32.120  25.354  26.046  1.00  0.00     0.023 C 
ATOM     10  C   UNL A   1      33.654  27.394  25.931  1.00  0.00     0.054 C 
ATOM     11  S   UNL A   1      33.167  26.108  23.583  1.00  0.00    -0.150 SA
ATOM     12  C   UNL A   1      32.690  28.513  25.588  1.00  0.00    -0.027 A 
ATOM     13  C   UNL A   1      31.761  27.227  23.556  1.00  0.00     0.109 C 
ATOM     14  C   UNL A   1      31.765  28.395  24.517  1.00  0.00     0.009 A 
ATOM     15  C   UNL A   1      32.726  29.765  26.276  1.00  0.00     0.039 A 
ATOM     16  C   UNL A   1      30.831  29.426  24.286  1.00  0.00     0.134 A 
ATOM     17  C   UNL A   1      31.756  30.697  25.925  1.00  0.00     0.128 A 
ATOM     18  C   UNL A   1      33.603  30.340  27.274  1.00  0.00     0.067 A 
ATOM     19  N   UNL A   1      30.810  30.569  24.981  1.00  0.00    -0.220 NA
ATOM     20  S   UNL A   1      31.844  32.139  26.822  1.00  0.00    -0.106 S 
BRANCH  16  21
ATOM     21  N   UNL A   1      29.948  29.332  23.238  1.00  0.00    -0.352 N 
ATOM     22  C   UNL A   1      30.222  29.852  21.902  1.00  0.00     0.146 C 
ATOM     23  C   UNL A   1      28.850  28.373  23.302  1.00  0.00     0.146 C 
ATOM     24  C   UNL A   1      28.927  30.501  21.374  1.00  0.00     0.181 C 
ATOM     25  C   UNL A   1      27.601  29.094  22.764  1.00  0.00     0.181 C 
ATOM     26  O   UNL A   1      27.811  29.590  21.424  1.00  0.00    -0.378 OA
ENDBRANCH  16  21
BRANCH  18  27
ATOM     27  N   UNL A   1      34.697  29.730  27.789  1.00  0.00    -0.397 N 
ATOM     28  H   UNL A   1      34.970  29.910  28.718  1.00  0.00     0.156 HD
ATOM     29  H   UNL A   1      35.219  29.105  27.234  1.00  0.00     0.156 HD
ENDBRANCH  18  27
ENDBRANCH   4   6
ENDBRANCH   3   4
ENDBRANCH   2   3
ENDBRANCH   1   2
BRANCH   1  30
ATOM     30  O   UNL A   1      33.054  34.732  31.522  1.00  0.00    -0.458 OA
BRANCH  30  31
ATOM     31  C   UNL A   1      33.775  35.165  32.582  1.00  0.00     0.338 C 
ATOM     32  O   UNL A   1      33.594  36.184  33.225  1.00  0.00    -0.246 OA
BRANCH  31  33
ATOM     33  C   UNL A   1      34.968  34.319  32.733  1.00  0.00     0.060 A 
ATOM     34  C   UNL A   1      36.216  34.927  32.577  1.00  0.00     0.016 A 
ATOM     35  C   UNL A   1      34.843  32.923  32.798  1.00  0.00     0.016 A 
ATOM     36  C   UNL A   1      37.321  34.129  32.350  1.00  0.00     0.010 A 
ATOM     37  C   UNL A   1      35.946  32.127  32.567  1.00  0.00     0.010 A 
ATOM     38  C   UNL A   1      37.163  32.737  32.285  1.00  0.00    -0.014 A 
BRANCH  38  39
ATOM     39  C   UNL A   1      38.341  31.934  32.012  1.00  0.00     0.031 A 
ATOM     40  C   UNL A   1      39.163  31.655  33.214  1.00  0.00     0.074 A 
ATOM     41  C   UNL A   1      38.630  31.419  30.802  1.00  0.00     0.049 A 
ATOM     42  N   UNL A   1      40.369  32.053  33.453  1.00  0.00    -0.248 NA
ATOM     43  C   UNL A   1      38.522  30.962  34.341  1.00  0.00     0.031 C 
ATOM     44  C   UNL A   1      37.792  31.376  29.603  1.00  0.00     0.029 A 
ATOM     45  N   UNL A   1      39.748  30.743  30.420  1.00  0.00    -0.354 N 
ATOM     46  C   UNL A   1      40.705  31.530  34.697  1.00  0.00     0.074 A 
ATOM     47  C   UNL A   1      39.494  30.985  35.254  1.00  0.00     0.031 C 
ATOM     48  C   UNL A   1      38.344  30.527  28.703  1.00  0.00     0.029 A 
ATOM     49  C   UNL A   1      39.633  30.083  29.205  1.00  0.00     0.049 A 
ATOM     50  H   UNL A   1      40.569  30.722  30.961  1.00  0.00     0.167 HD
ATOM     51  C   UNL A   1      42.005  31.406  35.077  1.00  0.00     0.037 A 
ATOM     52  C   UNL A   1      40.519  29.193  28.690  1.00  0.00     0.037 A 
ATOM     53  C   UNL A   1      42.860  32.258  34.292  1.00  0.00     0.049 A 
ATOM     54  C   UNL A   1      41.822  29.428  29.361  1.00  0.00     0.074 A 
ATOM     55  C   UNL A   1      42.966  33.623  34.113  1.00  0.00     0.029 A 
ATOM     56  N   UNL A   1      43.561  31.691  33.258  1.00  0.00    -0.354 N 
ATOM     57  N   UNL A   1      42.547  30.498  29.189  1.00  0.00    -0.248 NA
ATOM     58  C   UNL A   1      42.114  28.660  30.563  1.00  0.00     0.031 C 
ATOM     59  C   UNL A   1      43.306  33.790  32.739  1.00  0.00     0.029 A 
ATOM     60  C   UNL A   1      43.439  32.520  32.176  1.00  0.00     0.049 A 
ATOM     61  H   UNL A   1      44.060  30.842  33.289  1.00  0.00     0.167 HD
ATOM     62  C   UNL A   1      43.066  30.774  30.445  1.00  0.00     0.074 A 
ATOM     63  C   UNL A   1      42.842  29.561  31.227  1.00  0.00     0.031 C 
ATOM     64  C   UNL A   1      43.369  32.052  30.813  1.00  0.00     0.037 A 
BRANCH  51  65
ATOM     65  C   UNL A   1      42.547  30.256  35.888  1.00  0.00     0.064 A 
ATOM     66  C   UNL A   1      43.465  30.525  36.925  1.00  0.00     0.173 A 
ATOM     67  C   UNL A   1      42.459  28.905  35.490  1.00  0.00     0.173 A 
ATOM     68  F   UNL A   1      43.639  31.777  37.378  1.00  0.00    -0.203 F 
ATOM     69  C   UNL A   1      44.298  29.534  37.448  1.00  0.00     0.198 A 
ATOM     70  C   UNL A   1      43.254  27.909  36.053  1.00  0.00     0.198 A 
ATOM     71  F   UNL A   1      41.690  28.509  34.470  1.00  0.00    -0.203 F 
ATOM     72  F   UNL A   1      45.249  29.864  38.332  1.00  0.00    -0.200 F 
ATOM     73  C   UNL A   1      44.199  28.229  37.005  1.00  0.00     0.200 A 
ATOM     74  F   UNL A   1      43.155  26.653  35.597  1.00  0.00    -0.200 F 
ATOM     75  F   UNL A   1      45.042  27.291  37.454  1.00  0.00    -0.200 F 
ENDBRANCH  51  65
BRANCH  52  76
ATOM     76  C   UNL A   1      40.238  27.953  27.926  1.00  0.00     0.064 A 
ATOM     77  C   UNL A   1      40.937  27.658  26.742  1.00  0.00     0.173 A 
ATOM     78  C   UNL A   1      39.499  26.896  28.494  1.00  0.00     0.173 A 
ATOM     79  F   UNL A   1      41.702  28.593  26.160  1.00  0.00    -0.203 F 
ATOM     80  C   UNL A   1      40.924  26.376  26.181  1.00  0.00     0.198 A 
ATOM     81  C   UNL A   1      39.482  25.620  27.929  1.00  0.00     0.198 A 
ATOM     82  F   UNL A   1      38.861  27.054  29.661  1.00  0.00    -0.203 F 
ATOM     83  F   UNL A   1      41.660  26.115  25.091  1.00  0.00    -0.200 F 
ATOM     84  C   UNL A   1      40.207  25.355  26.783  1.00  0.00     0.200 A 
ATOM     85  F   UNL A   1      38.815  24.632  28.543  1.00  0.00    -0.200 F 
ATOM     86  F   UNL A   1      40.248  24.112  26.286  1.00  0.00    -0.200 F 
ENDBRANCH  52  76
BRANCH  64  87
ATOM     87  C   UNL A   1      43.391  33.108  29.744  1.00  0.00     0.064 A 
ATOM     88  C   UNL A   1      42.296  33.933  29.436  1.00  0.00     0.173 A 
ATOM     89  C   UNL A   1      44.620  33.409  29.143  1.00  0.00     0.173 A 
ATOM     90  F   UNL A   1      41.111  33.765  30.038  1.00  0.00    -0.203 F 
ATOM     91  C   UNL A   1      42.426  34.999  28.546  1.00  0.00     0.198 A 
ATOM     92  C   UNL A   1      44.755  34.496  28.284  1.00  0.00     0.198 A 
ATOM     93  F   UNL A   1      45.710  32.685  29.442  1.00  0.00    -0.203 F 
ATOM     94  F   UNL A   1      41.369  35.777  28.269  1.00  0.00    -0.200 F 
ATOM     95  C   UNL A   1      43.659  35.287  27.983  1.00  0.00     0.200 A 
ATOM     96  F   UNL A   1      45.959  34.800  27.780  1.00  0.00    -0.200 F 
ATOM     97  F   UNL A   1      43.797  36.346  27.172  1.00  0.00    -0.200 F 
ENDBRANCH  64  87
ENDBRANCH  38  39
ENDBRANCH  31  33
ENDBRANCH  30  31
ENDBRANCH   1  30
TORSDOF 13
ENDMDL
