MODEL 1
REMARK VINA RESULT:     -11.7      0.000      0.000
REMARK SMILES CCN(C)C(=O)Cn1ccc2c(C(=O)OCCOC(=O)c3ccc(-c4c5nc(c(-c6c(F)c(F)c(F)c(F)c6F)c6ccc([nH]6)c(-c6c(F)c(F)c(F)c(F)c6F)c6nc(c(-c7c(F)c(F)c(F)c(F)c7F)c7ccc4[nH]7)C=C6)C=C5)cc3)cccc21
REMARK SMILES IDX 16 1 15 2 13 3 14 4 12 5 8 6 9 7 87 8 10 9 11 10 86 11 85 12
REMARK SMILES IDX 84 13 7 14 5 15 6 16 3 17 4 18 2 19 1 20 17 21 18 22 19 23
REMARK SMILES IDX 20 24 21 25 22 26 83 27 23 28 82 29 24 30 25 31 26 32 76 33
REMARK SMILES IDX 27 34 81 35 75 36 77 37 28 38 80 39 74 40 73 41 29 43 61 44
REMARK SMILES IDX 41 45 60 46 42 47 45 48 59 49 78 50 43 51 44 52 58 54 79 55
REMARK SMILES IDX 46 56 30 57 31 58 39 59 32 60 33 61 37 62 40 63 34 64 35 65
REMARK SMILES IDX 38 66 36 67 62 68 63 69 71 70 64 71 65 72 69 73 72 74 66 75
REMARK SMILES IDX 67 76 70 77 68 78 47 79 48 80 56 81 49 82 50 83 54 84 57 85
REMARK SMILES IDX 51 86 52 87 55 88 53 89
REMARK H PARENT 77 42 45 53
REMARK Flexibility Score: inf
ROOT
ATOM      1  C   UNL A   1      42.869  20.707  26.125  1.00  0.00     0.275 C 
ENDROOT
BRANCH   1   2
ATOM      2  O   UNL A   1      41.534  21.138  25.736  1.00  0.00    -0.458 OA
BRANCH   2   3
ATOM      3  C   UNL A   1      40.624  21.166  26.744  1.00  0.00     0.338 C 
ATOM      4  O   UNL A   1      40.707  20.462  27.735  1.00  0.00    -0.246 OA
BRANCH   3   5
ATOM      5  C   UNL A   1      39.513  22.151  26.538  1.00  0.00     0.069 A 
ATOM      6  N   UNL A   1      36.378  21.934  24.775  1.00  0.00    -0.338 N 
ATOM      7  C   UNL A   1      36.801  20.644  24.613  1.00  0.00     0.087 A 
ATOM      8  C   UNL A   1      37.312  22.634  25.533  1.00  0.00     0.049 A 
ATOM      9  C   UNL A   1      38.086  20.595  25.062  1.00  0.00     0.029 A 
ATOM     10  C   UNL A   1      38.395  21.771  25.757  1.00  0.00     0.014 A 
ATOM     11  C   UNL A   1      37.340  23.938  26.038  1.00  0.00     0.027 A 
ATOM     12  C   UNL A   1      38.470  24.326  26.784  1.00  0.00     0.003 A 
ATOM     13  C   UNL A   1      39.535  23.452  27.042  1.00  0.00     0.016 A 
BRANCH   6  14
ATOM     14  C   UNL A   1      35.143  22.423  24.170  1.00  0.00     0.222 C 
BRANCH  14  15
ATOM     15  C   UNL A   1      33.993  22.642  25.171  1.00  0.00     0.242 C 
ATOM     16  O   UNL A   1      33.455  23.751  25.254  1.00  0.00    -0.273 OA
BRANCH  15  17
ATOM     17  N   UNL A   1      33.556  21.570  25.948  1.00  0.00    -0.344 N 
ATOM     18  C   UNL A   1      33.801  21.489  27.373  1.00  0.00     0.146 C 
BRANCH  17  19
ATOM     19  C   UNL A   1      32.586  20.619  25.401  1.00  0.00     0.115 C 
ATOM     20  C   UNL A   1      33.237  19.354  24.880  1.00  0.00     0.027 C 
ENDBRANCH  17  19
ENDBRANCH  15  17
ENDBRANCH  14  15
ENDBRANCH   6  14
ENDBRANCH   3   5
ENDBRANCH   2   3
ENDBRANCH   1   2
BRANCH   1  21
ATOM     21  C   UNL A   1      43.982  21.677  25.696  1.00  0.00     0.275 C 
BRANCH  21  22
ATOM     22  O   UNL A   1      43.886  22.874  26.488  1.00  0.00    -0.458 OA
BRANCH  22  23
ATOM     23  C   UNL A   1      43.773  24.044  25.821  1.00  0.00     0.338 C 
ATOM     24  O   UNL A   1      44.235  24.305  24.721  1.00  0.00    -0.246 OA
BRANCH  23  25
ATOM     25  C   UNL A   1      42.724  24.840  26.506  1.00  0.00     0.060 A 
ATOM     26  C   UNL A   1      41.808  25.646  25.813  1.00  0.00     0.016 A 
ATOM     27  C   UNL A   1      42.891  25.017  27.867  1.00  0.00     0.016 A 
ATOM     28  C   UNL A   1      41.293  26.805  26.414  1.00  0.00     0.010 A 
ATOM     29  C   UNL A   1      42.326  26.138  28.462  1.00  0.00     0.010 A 
ATOM     30  C   UNL A   1      41.666  27.137  27.716  1.00  0.00    -0.014 A 
BRANCH  30  31
ATOM     31  C   UNL A   1      41.473  28.520  28.272  1.00  0.00     0.031 A 
ATOM     32  C   UNL A   1      42.534  29.521  27.936  1.00  0.00     0.074 A 
ATOM     33  C   UNL A   1      40.349  28.993  28.893  1.00  0.00     0.049 A 
ATOM     34  N   UNL A   1      43.323  30.127  28.765  1.00  0.00    -0.248 NA
ATOM     35  C   UNL A   1      42.827  29.848  26.534  1.00  0.00     0.031 C 
ATOM     36  C   UNL A   1      39.063  28.315  29.082  1.00  0.00     0.029 A 
ATOM     37  N   UNL A   1      40.074  30.243  29.423  1.00  0.00    -0.354 N 
ATOM     38  C   UNL A   1      44.135  30.968  27.997  1.00  0.00     0.074 A 
ATOM     39  C   UNL A   1      43.916  30.602  26.637  1.00  0.00     0.031 C 
ATOM     40  C   UNL A   1      38.104  29.193  29.466  1.00  0.00     0.029 A 
ATOM     41  C   UNL A   1      38.728  30.471  29.755  1.00  0.00     0.049 A 
ATOM     42  H   UNL A   1      40.772  30.924  29.558  1.00  0.00     0.167 HD
ATOM     43  C   UNL A   1      44.771  32.043  28.536  1.00  0.00     0.037 A 
ATOM     44  C   UNL A   1      38.158  31.599  30.268  1.00  0.00     0.037 A 
ATOM     45  C   UNL A   1      44.804  31.915  29.972  1.00  0.00     0.049 A 
ATOM     46  C   UNL A   1      39.237  32.359  30.934  1.00  0.00     0.074 A 
ATOM     47  C   UNL A   1      45.433  31.042  30.835  1.00  0.00     0.029 A 
ATOM     48  N   UNL A   1      43.792  32.520  30.674  1.00  0.00    -0.354 N 
ATOM     49  N   UNL A   1      39.824  31.971  32.026  1.00  0.00    -0.248 NA
ATOM     50  C   UNL A   1      39.852  33.498  30.268  1.00  0.00     0.031 C 
ATOM     51  C   UNL A   1      44.574  30.922  31.962  1.00  0.00     0.029 A 
ATOM     52  C   UNL A   1      43.474  31.757  31.773  1.00  0.00     0.049 A 
ATOM     53  H   UNL A   1      43.359  33.370  30.428  1.00  0.00     0.167 HD
ATOM     54  C   UNL A   1      41.102  32.469  31.911  1.00  0.00     0.074 A 
ATOM     55  C   UNL A   1      41.006  33.546  30.939  1.00  0.00     0.031 C 
ATOM     56  C   UNL A   1      42.156  31.741  32.368  1.00  0.00     0.037 A 
BRANCH  43  57
ATOM     57  C   UNL A   1      45.083  33.355  27.826  1.00  0.00     0.064 A 
ATOM     58  C   UNL A   1      46.419  33.609  27.441  1.00  0.00     0.173 A 
ATOM     59  C   UNL A   1      44.229  34.477  27.736  1.00  0.00     0.173 A 
ATOM     60  F   UNL A   1      47.330  32.626  27.430  1.00  0.00    -0.203 F 
ATOM     61  C   UNL A   1      46.879  34.893  27.129  1.00  0.00     0.198 A 
ATOM     62  C   UNL A   1      44.687  35.756  27.410  1.00  0.00     0.198 A 
ATOM     63  F   UNL A   1      42.930  34.426  28.035  1.00  0.00    -0.203 F 
ATOM     64  F   UNL A   1      48.181  35.089  26.881  1.00  0.00    -0.200 F 
ATOM     65  C   UNL A   1      46.018  35.971  27.143  1.00  0.00     0.200 A 
ATOM     66  F   UNL A   1      43.832  36.788  27.435  1.00  0.00    -0.200 F 
ATOM     67  F   UNL A   1      46.471  37.214  26.930  1.00  0.00    -0.200 F 
ENDBRANCH  43  57
BRANCH  44  68
ATOM     68  C   UNL A   1      36.772  32.163  30.261  1.00  0.00     0.064 A 
ATOM     69  C   UNL A   1      35.925  32.018  31.383  1.00  0.00     0.173 A 
ATOM     70  C   UNL A   1      36.372  33.124  29.319  1.00  0.00     0.173 A 
ATOM     71  F   UNL A   1      36.215  31.129  32.345  1.00  0.00    -0.203 F 
ATOM     72  C   UNL A   1      34.811  32.841  31.590  1.00  0.00     0.198 A 
ATOM     73  C   UNL A   1      35.263  33.954  29.531  1.00  0.00     0.198 A 
ATOM     74  F   UNL A   1      37.115  33.356  28.229  1.00  0.00    -0.203 F 
ATOM     75  F   UNL A   1      34.092  32.723  32.716  1.00  0.00    -0.200 F 
ATOM     76  C   UNL A   1      34.495  33.828  30.675  1.00  0.00     0.200 A 
ATOM     77  F   UNL A   1      34.988  34.933  28.656  1.00  0.00    -0.200 F 
ATOM     78  F   UNL A   1      33.488  34.679  30.917  1.00  0.00    -0.200 F 
ENDBRANCH  44  68
BRANCH  56  79
ATOM     79  C   UNL A   1      41.866  30.702  33.418  1.00  0.00     0.064 A 
ATOM     80  C   UNL A   1      41.495  29.370  33.156  1.00  0.00     0.173 A 
ATOM     81  C   UNL A   1      42.048  31.061  34.760  1.00  0.00     0.173 A 
ATOM     82  F   UNL A   1      41.375  28.915  31.903  1.00  0.00    -0.203 F 
ATOM     83  C   UNL A   1      41.276  28.462  34.190  1.00  0.00     0.198 A 
ATOM     84  C   UNL A   1      41.877  30.140  35.789  1.00  0.00     0.198 A 
ATOM     85  F   UNL A   1      42.435  32.308  35.075  1.00  0.00    -0.203 F 
ATOM     86  F   UNL A   1      40.891  27.206  33.912  1.00  0.00    -0.200 F 
ATOM     87  C   UNL A   1      41.478  28.844  35.504  1.00  0.00     0.200 A 
ATOM     88  F   UNL A   1      42.118  30.504  37.055  1.00  0.00    -0.200 F 
ATOM     89  F   UNL A   1      41.309  27.959  36.497  1.00  0.00    -0.200 F 
ENDBRANCH  56  79
ENDBRANCH  30  31
ENDBRANCH  23  25
ENDBRANCH  22  23
ENDBRANCH  21  22
ENDBRANCH   1  21
TORSDOF 15
ENDMDL
MODEL 2
REMARK VINA RESULT:     -11.5      1.855      3.060
REMARK SMILES CCN(C)C(=O)Cn1ccc2c(C(=O)OCCOC(=O)c3ccc(-c4c5nc(c(-c6c(F)c(F)c(F)c(F)c6F)c6ccc([nH]6)c(-c6c(F)c(F)c(F)c(F)c6F)c6nc(c(-c7c(F)c(F)c(F)c(F)c7F)c7ccc4[nH]7)C=C6)C=C5)cc3)cccc21
REMARK SMILES IDX 16 1 15 2 13 3 14 4 12 5 8 6 9 7 87 8 10 9 11 10 86 11 85 12
REMARK SMILES IDX 84 13 7 14 5 15 6 16 3 17 4 18 2 19 1 20 17 21 18 22 19 23
REMARK SMILES IDX 20 24 21 25 22 26 83 27 23 28 82 29 24 30 25 31 26 32 76 33
REMARK SMILES IDX 27 34 81 35 75 36 77 37 28 38 80 39 74 40 73 41 29 43 61 44
REMARK SMILES IDX 41 45 60 46 42 47 45 48 59 49 78 50 43 51 44 52 58 54 79 55
REMARK SMILES IDX 46 56 30 57 31 58 39 59 32 60 33 61 37 62 40 63 34 64 35 65
REMARK SMILES IDX 38 66 36 67 62 68 63 69 71 70 64 71 65 72 69 73 72 74 66 75
REMARK SMILES IDX 67 76 70 77 68 78 47 79 48 80 56 81 49 82 50 83 54 84 57 85
REMARK SMILES IDX 51 86 52 87 55 88 53 89
REMARK H PARENT 77 42 45 53
REMARK Flexibility Score: inf
ROOT
ATOM      1  C   UNL A   1      37.633  21.497  25.007  1.00  0.00     0.275 C 
ENDROOT
BRANCH   1   2
ATOM      2  O   UNL A   1      36.481  21.630  25.886  1.00  0.00    -0.458 OA
BRANCH   2   3
ATOM      3  C   UNL A   1      35.327  21.101  25.403  1.00  0.00     0.338 C 
ATOM      4  O   UNL A   1      35.287  20.065  24.763  1.00  0.00    -0.246 OA
BRANCH   3   5
ATOM      5  C   UNL A   1      34.102  21.898  25.736  1.00  0.00     0.069 A 
ATOM      6  N   UNL A   1      31.931  23.958  23.729  1.00  0.00    -0.338 N 
ATOM      7  C   UNL A   1      32.750  23.490  22.740  1.00  0.00     0.087 A 
ATOM      8  C   UNL A   1      32.311  23.400  24.946  1.00  0.00     0.049 A 
ATOM      9  C   UNL A   1      33.771  22.832  23.358  1.00  0.00     0.029 A 
ATOM     10  C   UNL A   1      33.468  22.643  24.713  1.00  0.00     0.014 A 
ATOM     11  C   UNL A   1      31.779  23.486  26.238  1.00  0.00     0.027 A 
ATOM     12  C   UNL A   1      32.433  22.774  27.262  1.00  0.00     0.003 A 
ATOM     13  C   UNL A   1      33.567  21.985  27.022  1.00  0.00     0.016 A 
BRANCH   6  14
ATOM     14  C   UNL A   1      30.874  24.928  23.461  1.00  0.00     0.222 C 
BRANCH  14  15
ATOM     15  C   UNL A   1      31.383  26.352  23.167  1.00  0.00     0.242 C 
ATOM     16  O   UNL A   1      31.053  26.917  22.120  1.00  0.00    -0.273 OA
BRANCH  15  17
ATOM     17  N   UNL A   1      32.186  26.994  24.109  1.00  0.00    -0.344 N 
ATOM     18  C   UNL A   1      33.624  27.096  23.967  1.00  0.00     0.146 C 
BRANCH  17  19
ATOM     19  C   UNL A   1      31.574  27.835  25.140  1.00  0.00     0.115 C 
ATOM     20  C   UNL A   1      31.367  27.099  26.448  1.00  0.00     0.027 C 
ENDBRANCH  17  19
ENDBRANCH  15  17
ENDBRANCH  14  15
ENDBRANCH   6  14
ENDBRANCH   3   5
ENDBRANCH   2   3
ENDBRANCH   1   2
BRANCH   1  21
ATOM     21  C   UNL A   1      38.978  21.452  25.751  1.00  0.00     0.275 C 
BRANCH  21  22
ATOM     22  O   UNL A   1      39.134  22.669  26.502  1.00  0.00    -0.458 OA
BRANCH  22  23
ATOM     23  C   UNL A   1      40.114  22.696  27.431  1.00  0.00     0.338 C 
ATOM     24  O   UNL A   1      40.538  21.747  28.074  1.00  0.00    -0.246 OA
BRANCH  23  25
ATOM     25  C   UNL A   1      40.805  24.004  27.303  1.00  0.00     0.060 A 
ATOM     26  C   UNL A   1      41.821  24.416  28.179  1.00  0.00     0.016 A 
ATOM     27  C   UNL A   1      40.186  24.938  26.493  1.00  0.00     0.016 A 
ATOM     28  C   UNL A   1      42.003  25.781  28.455  1.00  0.00     0.010 A 
ATOM     29  C   UNL A   1      40.421  26.284  26.737  1.00  0.00     0.010 A 
ATOM     30  C   UNL A   1      41.195  26.730  27.829  1.00  0.00    -0.014 A 
BRANCH  30  31
ATOM     31  C   UNL A   1      41.070  28.135  28.348  1.00  0.00     0.031 A 
ATOM     32  C   UNL A   1      42.118  29.103  27.894  1.00  0.00     0.074 A 
ATOM     33  C   UNL A   1      40.006  28.651  29.037  1.00  0.00     0.049 A 
ATOM     34  N   UNL A   1      42.980  29.721  28.638  1.00  0.00    -0.248 NA
ATOM     35  C   UNL A   1      42.306  29.375  26.464  1.00  0.00     0.031 C 
ATOM     36  C   UNL A   1      38.727  28.006  29.348  1.00  0.00     0.029 A 
ATOM     37  N   UNL A   1      39.794  29.924  29.541  1.00  0.00    -0.354 N 
ATOM     38  C   UNL A   1      43.744  30.519  27.780  1.00  0.00     0.074 A 
ATOM     39  C   UNL A   1      43.412  30.110  26.455  1.00  0.00     0.031 C 
ATOM     40  C   UNL A   1      37.816  28.915  29.774  1.00  0.00     0.029 A 
ATOM     41  C   UNL A   1      38.482  30.189  29.967  1.00  0.00     0.049 A 
ATOM     42  H   UNL A   1      40.512  30.595  29.597  1.00  0.00     0.167 HD
ATOM     43  C   UNL A   1      44.438  31.599  28.229  1.00  0.00     0.037 A 
ATOM     44  C   UNL A   1      37.973  31.345  30.482  1.00  0.00     0.037 A 
ATOM     45  C   UNL A   1      44.580  31.520  29.661  1.00  0.00     0.049 A 
ATOM     46  C   UNL A   1      39.114  32.107  31.035  1.00  0.00     0.074 A 
ATOM     47  C   UNL A   1      45.260  30.666  30.504  1.00  0.00     0.029 A 
ATOM     48  N   UNL A   1      43.636  32.169  30.418  1.00  0.00    -0.354 N 
ATOM     49  N   UNL A   1      39.778  31.745  32.092  1.00  0.00    -0.248 NA
ATOM     50  C   UNL A   1      39.694  33.210  30.283  1.00  0.00     0.031 C 
ATOM     51  C   UNL A   1      44.489  30.601  31.697  1.00  0.00     0.029 A 
ATOM     52  C   UNL A   1      43.393  31.451  31.565  1.00  0.00     0.049 A 
ATOM     53  H   UNL A   1      43.200  33.018  30.176  1.00  0.00     0.167 HD
ATOM     54  C   UNL A   1      41.051  32.213  31.860  1.00  0.00     0.074 A 
ATOM     55  C   UNL A   1      40.898  33.259  30.860  1.00  0.00     0.031 C 
ATOM     56  C   UNL A   1      42.125  31.481  32.260  1.00  0.00     0.037 A 
BRANCH  43  57
ATOM     57  C   UNL A   1      44.716  32.880  27.450  1.00  0.00     0.064 A 
ATOM     58  C   UNL A   1      45.922  32.974  26.721  1.00  0.00     0.173 A 
ATOM     59  C   UNL A   1      44.018  34.102  27.580  1.00  0.00     0.173 A 
ATOM     60  F   UNL A   1      46.665  31.885  26.477  1.00  0.00    -0.203 F 
ATOM     61  C   UNL A   1      46.444  34.198  26.287  1.00  0.00     0.198 A 
ATOM     62  C   UNL A   1      44.534  35.321  27.134  1.00  0.00     0.198 A 
ATOM     63  F   UNL A   1      42.850  34.206  28.215  1.00  0.00    -0.203 F 
ATOM     64  F   UNL A   1      47.648  34.235  25.700  1.00  0.00    -0.200 F 
ATOM     65  C   UNL A   1      45.762  35.375  26.520  1.00  0.00     0.200 A 
ATOM     66  F   UNL A   1      43.854  36.452  27.376  1.00  0.00    -0.200 F 
ATOM     67  F   UNL A   1      46.298  36.555  26.184  1.00  0.00    -0.200 F 
ENDBRANCH  43  57
BRANCH  44  68
ATOM     68  C   UNL A   1      36.601  31.936  30.563  1.00  0.00     0.064 A 
ATOM     69  C   UNL A   1      35.887  31.948  31.782  1.00  0.00     0.173 A 
ATOM     70  C   UNL A   1      36.104  32.785  29.561  1.00  0.00     0.173 A 
ATOM     71  F   UNL A   1      36.277  31.175  32.807  1.00  0.00    -0.203 F 
ATOM     72  C   UNL A   1      34.812  32.815  32.011  1.00  0.00     0.198 A 
ATOM     73  C   UNL A   1      35.034  33.660  29.793  1.00  0.00     0.198 A 
ATOM     74  F   UNL A   1      36.720  32.867  28.373  1.00  0.00    -0.203 F 
ATOM     75  F   UNL A   1      34.225  32.850  33.217  1.00  0.00    -0.200 F 
ATOM     76  C   UNL A   1      34.402  33.690  31.023  1.00  0.00     0.200 A 
ATOM     77  F   UNL A   1      34.669  34.532  28.841  1.00  0.00    -0.200 F 
ATOM     78  F   UNL A   1      33.436  34.587  31.271  1.00  0.00    -0.200 F 
ENDBRANCH  44  68
BRANCH  56  79
ATOM     79  C   UNL A   1      41.900  30.485  33.366  1.00  0.00     0.064 A 
ATOM     80  C   UNL A   1      41.562  29.132  33.178  1.00  0.00     0.173 A 
ATOM     81  C   UNL A   1      42.114  30.912  34.683  1.00  0.00     0.173 A 
ATOM     82  F   UNL A   1      41.418  28.614  31.952  1.00  0.00    -0.203 F 
ATOM     83  C   UNL A   1      41.404  28.267  34.260  1.00  0.00     0.198 A 
ATOM     84  C   UNL A   1      42.003  30.036  35.759  1.00  0.00     0.198 A 
ATOM     85  F   UNL A   1      42.471  32.184  34.927  1.00  0.00    -0.203 F 
ATOM     86  F   UNL A   1      41.050  26.990  34.053  1.00  0.00    -0.200 F 
ATOM     87  C   UNL A   1      41.635  28.717  35.548  1.00  0.00     0.200 A 
ATOM     88  F   UNL A   1      42.273  30.466  36.998  1.00  0.00    -0.200 F 
ATOM     89  F   UNL A   1      41.525  27.876  36.585  1.00  0.00    -0.200 F 
ENDBRANCH  56  79
ENDBRANCH  30  31
ENDBRANCH  23  25
ENDBRANCH  22  23
ENDBRANCH  21  22
ENDBRANCH   1  21
TORSDOF 15
ENDMDL
MODEL 3
REMARK VINA RESULT:     -11.4      5.007     11.601
REMARK SMILES CCN(C)C(=O)Cn1ccc2c(C(=O)OCCOC(=O)c3ccc(-c4c5nc(c(-c6c(F)c(F)c(F)c(F)c6F)c6ccc([nH]6)c(-c6c(F)c(F)c(F)c(F)c6F)c6nc(c(-c7c(F)c(F)c(F)c(F)c7F)c7ccc4[nH]7)C=C6)C=C5)cc3)cccc21
REMARK SMILES IDX 16 1 15 2 13 3 14 4 12 5 8 6 9 7 87 8 10 9 11 10 86 11 85 12
REMARK SMILES IDX 84 13 7 14 5 15 6 16 3 17 4 18 2 19 1 20 17 21 18 22 19 23
REMARK SMILES IDX 20 24 21 25 22 26 83 27 23 28 82 29 24 30 25 31 26 32 76 33
REMARK SMILES IDX 27 34 81 35 75 36 77 37 28 38 80 39 74 40 73 41 29 43 61 44
REMARK SMILES IDX 41 45 60 46 42 47 45 48 59 49 78 50 43 51 44 52 58 54 79 55
REMARK SMILES IDX 46 56 30 57 31 58 39 59 32 60 33 61 37 62 40 63 34 64 35 65
REMARK SMILES IDX 38 66 36 67 62 68 63 69 71 70 64 71 65 72 69 73 72 74 66 75
REMARK SMILES IDX 67 76 70 77 68 78 47 79 48 80 56 81 49 82 50 83 54 84 57 85
REMARK SMILES IDX 51 86 52 87 55 88 53 89
REMARK H PARENT 77 42 45 53
REMARK Flexibility Score: inf
ROOT
ATOM      1  C   UNL A   1      33.906  33.806  28.064  1.00  0.00     0.275 C 
ENDROOT
BRANCH   1   2
ATOM      2  O   UNL A   1      33.231  34.076  29.326  1.00  0.00    -0.458 OA
BRANCH   2   3
ATOM      3  C   UNL A   1      33.000  35.389  29.582  1.00  0.00     0.338 C 
ATOM      4  O   UNL A   1      32.469  36.140  28.782  1.00  0.00    -0.246 OA
BRANCH   3   5
ATOM      5  C   UNL A   1      33.445  35.834  30.942  1.00  0.00     0.069 A 
ATOM      6  N   UNL A   1      35.268  34.163  33.563  1.00  0.00    -0.338 N 
ATOM      7  C   UNL A   1      35.328  33.186  32.609  1.00  0.00     0.087 A 
ATOM      8  C   UNL A   1      34.596  35.269  33.050  1.00  0.00     0.049 A 
ATOM      9  C   UNL A   1      34.507  33.580  31.596  1.00  0.00     0.029 A 
ATOM     10  C   UNL A   1      34.138  34.919  31.772  1.00  0.00     0.014 A 
ATOM     11  C   UNL A   1      34.321  36.539  33.570  1.00  0.00     0.027 A 
ATOM     12  C   UNL A   1      33.599  37.435  32.758  1.00  0.00     0.003 A 
ATOM     13  C   UNL A   1      33.175  37.100  31.464  1.00  0.00     0.016 A 
BRANCH   6  14
ATOM     14  C   UNL A   1      35.815  33.969  34.903  1.00  0.00     0.222 C 
BRANCH  14  15
ATOM     15  C   UNL A   1      37.346  33.803  34.942  1.00  0.00     0.242 C 
ATOM     16  O   UNL A   1      38.074  34.764  34.671  1.00  0.00    -0.273 OA
BRANCH  15  17
ATOM     17  N   UNL A   1      37.886  32.573  35.314  1.00  0.00    -0.344 N 
ATOM     18  C   UNL A   1      38.296  32.280  36.672  1.00  0.00     0.146 C 
BRANCH  17  19
ATOM     19  C   UNL A   1      37.799  31.431  34.401  1.00  0.00     0.115 C 
ATOM     20  C   UNL A   1      38.883  31.444  33.344  1.00  0.00     0.027 C 
ENDBRANCH  17  19
ENDBRANCH  15  17
ENDBRANCH  14  15
ENDBRANCH   6  14
ENDBRANCH   3   5
ENDBRANCH   2   3
ENDBRANCH   1   2
BRANCH   1  21
ATOM     21  C   UNL A   1      35.441  33.825  28.168  1.00  0.00     0.275 C 
BRANCH  21  22
ATOM     22  O   UNL A   1      35.963  32.634  27.555  1.00  0.00    -0.458 OA
BRANCH  22  23
ATOM     23  C   UNL A   1      35.577  31.451  28.082  1.00  0.00     0.338 C 
ATOM     24  O   UNL A   1      34.702  30.712  27.656  1.00  0.00    -0.246 OA
BRANCH  23  25
ATOM     25  C   UNL A   1      36.611  31.052  29.069  1.00  0.00     0.060 A 
ATOM     26  C   UNL A   1      37.894  31.620  29.097  1.00  0.00     0.016 A 
ATOM     27  C   UNL A   1      36.377  29.869  29.745  1.00  0.00     0.016 A 
ATOM     28  C   UNL A   1      38.991  30.863  29.541  1.00  0.00     0.010 A 
ATOM     29  C   UNL A   1      37.466  29.159  30.233  1.00  0.00     0.010 A 
ATOM     30  C   UNL A   1      38.798  29.556  29.988  1.00  0.00    -0.014 A 
BRANCH  30  31
ATOM     31  C   UNL A   1      39.934  28.580  30.108  1.00  0.00     0.031 A 
ATOM     32  C   UNL A   1      40.454  28.338  31.491  1.00  0.00     0.074 A 
ATOM     33  C   UNL A   1      40.411  27.768  29.115  1.00  0.00     0.049 A 
ATOM     34  N   UNL A   1      41.643  28.601  31.931  1.00  0.00    -0.248 NA
ATOM     35  C   UNL A   1      39.564  27.822  32.538  1.00  0.00     0.031 C 
ATOM     36  C   UNL A   1      39.886  27.589  27.758  1.00  0.00     0.029 A 
ATOM     37  N   UNL A   1      41.435  26.835  29.131  1.00  0.00    -0.354 N 
ATOM     38  C   UNL A   1      41.667  28.200  33.271  1.00  0.00     0.074 A 
ATOM     39  C   UNL A   1      40.316  27.920  33.628  1.00  0.00     0.031 C 
ATOM     40  C   UNL A   1      40.426  26.495  27.169  1.00  0.00     0.029 A 
ATOM     41  C   UNL A   1      41.491  25.987  28.013  1.00  0.00     0.049 A 
ATOM     42  H   UNL A   1      42.078  26.771  29.874  1.00  0.00     0.167 HD
ATOM     43  C   UNL A   1      42.832  27.930  33.921  1.00  0.00     0.037 A 
ATOM     44  C   UNL A   1      42.365  24.970  27.760  1.00  0.00     0.037 A 
ATOM     45  C   UNL A   1      43.936  28.497  33.187  1.00  0.00     0.049 A 
ATOM     46  C   UNL A   1      43.575  25.234  28.568  1.00  0.00     0.074 A 
ATOM     47  C   UNL A   1      44.329  29.789  32.907  1.00  0.00     0.029 A 
ATOM     48  N   UNL A   1      44.576  27.675  32.293  1.00  0.00    -0.354 N 
ATOM     49  N   UNL A   1      44.400  26.210  28.332  1.00  0.00    -0.248 NA
ATOM     50  C   UNL A   1      43.790  24.526  29.822  1.00  0.00     0.031 C 
ATOM     51  C   UNL A   1      44.966  29.734  31.637  1.00  0.00     0.029 A 
ATOM     52  C   UNL A   1      44.985  28.409  31.205  1.00  0.00     0.049 A 
ATOM     53  H   UNL A   1      44.721  26.708  32.413  1.00  0.00     0.167 HD
ATOM     54  C   UNL A   1      44.886  26.541  29.576  1.00  0.00     0.074 A 
ATOM     55  C   UNL A   1      44.646  25.370  30.405  1.00  0.00     0.031 C 
ATOM     56  C   UNL A   1      45.132  27.843  29.882  1.00  0.00     0.037 A 
BRANCH  43  57
ATOM     57  C   UNL A   1      43.029  26.902  35.029  1.00  0.00     0.064 A 
ATOM     58  C   UNL A   1      43.180  27.365  36.355  1.00  0.00     0.173 A 
ATOM     59  C   UNL A   1      43.340  25.536  34.852  1.00  0.00     0.173 A 
ATOM     60  F   UNL A   1      42.875  28.630  36.681  1.00  0.00    -0.203 F 
ATOM     61  C   UNL A   1      43.722  26.570  37.371  1.00  0.00     0.198 A 
ATOM     62  C   UNL A   1      43.867  24.739  35.871  1.00  0.00     0.198 A 
ATOM     63  F   UNL A   1      43.236  24.914  33.676  1.00  0.00    -0.203 F 
ATOM     64  F   UNL A   1      43.946  27.101  38.581  1.00  0.00    -0.200 F 
ATOM     65  C   UNL A   1      44.092  25.265  37.120  1.00  0.00     0.200 A 
ATOM     66  F   UNL A   1      44.224  23.475  35.601  1.00  0.00    -0.200 F 
ATOM     67  F   UNL A   1      44.691  24.528  38.065  1.00  0.00    -0.200 F 
ENDBRANCH  43  57
BRANCH  44  68
ATOM     68  C   UNL A   1      42.316  23.740  26.910  1.00  0.00     0.064 A 
ATOM     69  C   UNL A   1      43.184  23.587  25.806  1.00  0.00     0.173 A 
ATOM     70  C   UNL A   1      41.674  22.569  27.345  1.00  0.00     0.173 A 
ATOM     71  F   UNL A   1      43.849  24.641  25.312  1.00  0.00    -0.203 F 
ATOM     72  C   UNL A   1      43.460  22.336  25.240  1.00  0.00     0.198 A 
ATOM     73  C   UNL A   1      41.957  21.315  26.784  1.00  0.00     0.198 A 
ATOM     74  F   UNL A   1      40.846  22.599  28.398  1.00  0.00    -0.203 F 
ATOM     75  F   UNL A   1      44.361  22.233  24.252  1.00  0.00    -0.200 F 
ATOM     76  C   UNL A   1      42.866  21.196  25.747  1.00  0.00     0.200 A 
ATOM     77  F   UNL A   1      41.405  20.212  27.309  1.00  0.00    -0.200 F 
ATOM     78  F   UNL A   1      43.199  19.988  25.271  1.00  0.00    -0.200 F 
ENDBRANCH  44  68
BRANCH  56  79
ATOM     79  C   UNL A   1      45.361  28.785  28.730  1.00  0.00     0.064 A 
ATOM     80  C   UNL A   1      44.368  29.577  28.124  1.00  0.00     0.173 A 
ATOM     81  C   UNL A   1      46.675  28.947  28.270  1.00  0.00     0.173 A 
ATOM     82  F   UNL A   1      43.100  29.549  28.551  1.00  0.00    -0.203 F 
ATOM     83  C   UNL A   1      44.673  30.449  27.081  1.00  0.00     0.198 A 
ATOM     84  C   UNL A   1      46.985  29.854  27.262  1.00  0.00     0.198 A 
ATOM     85  F   UNL A   1      47.673  28.245  28.830  1.00  0.00    -0.203 F 
ATOM     86  F   UNL A   1      43.700  31.168  26.500  1.00  0.00    -0.200 F 
ATOM     87  C   UNL A   1      45.982  30.595  26.659  1.00  0.00     0.200 A 
ATOM     88  F   UNL A   1      48.260  30.024  26.889  1.00  0.00    -0.200 F 
ATOM     89  F   UNL A   1      46.283  31.466  25.685  1.00  0.00    -0.200 F 
ENDBRANCH  56  79
ENDBRANCH  30  31
ENDBRANCH  23  25
ENDBRANCH  22  23
ENDBRANCH  21  22
ENDBRANCH   1  21
TORSDOF 15
ENDMDL
