MODEL 1
REMARK VINA RESULT:     -12.9      0.000      0.000
REMARK SMILES CS(=O)(=O)c1ccc(/C=C(/C(=O)OCCOC(=O)c2ccc(-c3c4nc(c(-c5c(F)c(F)c(F)c(F)c5F)c5ccc([nH]5)c(-c5c(F)c(F)c(F)c(F)c5F)c5nc(c(-c6c(F)c(F)c(F)c(F)c6F)c6ccc3[nH]6)C=C5)C=C4)cc2)c2ccccc2)cc1
REMARK SMILES IDX 14 1 13 2 11 3 12 4 10 5 9 6 8 7 5 8 6 9 89 10 7 11 88 12
REMARK SMILES IDX 2 13 1 14 3 15 4 16 82 17 83 18 87 19 84 20 86 21 85 22
REMARK SMILES IDX 15 23 16 24 17 25 18 26 19 27 20 28 81 29 21 30 80 31 22 32
REMARK SMILES IDX 23 33 24 34 74 35 25 36 79 37 73 38 75 39 26 40 78 41 72 42
REMARK SMILES IDX 71 43 27 45 59 46 39 47 58 48 40 49 43 50 57 51 76 52 41 53
REMARK SMILES IDX 42 54 56 56 77 57 44 58 28 59 29 60 37 61 30 62 31 63 35 64
REMARK SMILES IDX 38 65 32 66 33 67 36 68 34 69 60 70 61 71 69 72 62 73 63 74
REMARK SMILES IDX 67 75 70 76 64 77 65 78 68 79 66 80 45 81 46 82 54 83 47 84
REMARK SMILES IDX 48 85 52 86 55 87 49 88 50 89 53 90 51 91
REMARK H PARENT 75 44 43 55
REMARK Flexibility Score: inf
ROOT
ATOM      1  C   UNL A   1      32.256  27.682  25.419  1.00  0.00     0.275 C 
ENDROOT
BRANCH   1   2
ATOM      2  O   UNL A   1      33.477  26.940  25.210  1.00  0.00    -0.458 OA
BRANCH   2   3
ATOM      3  C   UNL A   1      33.518  26.197  24.074  1.00  0.00     0.338 C 
ATOM      4  O   UNL A   1      33.521  26.639  22.933  1.00  0.00    -0.246 OA
BRANCH   3   5
ATOM      5  C   UNL A   1      33.608  24.735  24.368  1.00  0.00     0.067 C 
ATOM      6  C   UNL A   1      32.465  24.011  24.357  1.00  0.00     0.024 C 
BRANCH   6   7
ATOM      7  C   UNL A   1      32.325  22.536  24.300  1.00  0.00    -0.025 A 
ATOM      8  C   UNL A   1      32.423  19.748  23.982  1.00  0.00     0.067 A 
ATOM      9  C   UNL A   1      32.528  20.301  25.254  1.00  0.00     0.021 A 
ATOM     10  C   UNL A   1      32.197  20.561  22.873  1.00  0.00     0.021 A 
ATOM     11  C   UNL A   1      32.433  21.685  25.407  1.00  0.00     0.009 A 
ATOM     12  C   UNL A   1      32.149  21.949  23.036  1.00  0.00     0.009 A 
BRANCH   8  13
ATOM     13  S   UNL A   1      32.663  18.001  23.790  1.00  0.00     0.175 S 
ATOM     14  C   UNL A   1      34.357  17.765  24.251  1.00  0.00     0.163 C 
ATOM     15  O   UNL A   1      32.528  17.703  22.380  1.00  0.00    -0.224 OA
ATOM     16  O   UNL A   1      31.834  17.331  24.778  1.00  0.00    -0.224 OA
ENDBRANCH   8  13
ENDBRANCH   6   7
BRANCH   5  17
ATOM     17  C   UNL A   1      34.951  24.129  24.467  1.00  0.00    -0.011 A 
ATOM     18  C   UNL A   1      35.647  24.191  25.686  1.00  0.00     0.009 A 
ATOM     19  C   UNL A   1      35.510  23.424  23.395  1.00  0.00     0.009 A 
ATOM     20  C   UNL A   1      36.861  23.518  25.842  1.00  0.00     0.001 A 
ATOM     21  C   UNL A   1      36.730  22.764  23.551  1.00  0.00     0.001 A 
ATOM     22  C   UNL A   1      37.400  22.803  24.774  1.00  0.00     0.000 A 
ENDBRANCH   5  17
ENDBRANCH   3   5
ENDBRANCH   2   3
ENDBRANCH   1   2
BRANCH   1  23
ATOM     23  C   UNL A   1      32.531  29.184  25.396  1.00  0.00     0.275 C 
BRANCH  23  24
ATOM     24  O   UNL A   1      32.297  29.738  26.704  1.00  0.00    -0.458 OA
BRANCH  24  25
ATOM     25  C   UNL A   1      32.903  30.915  26.969  1.00  0.00     0.338 C 
ATOM     26  O   UNL A   1      32.422  32.035  26.876  1.00  0.00    -0.246 OA
BRANCH  25  27
ATOM     27  C   UNL A   1      34.282  30.683  27.443  1.00  0.00     0.060 A 
ATOM     28  C   UNL A   1      34.740  29.387  27.637  1.00  0.00     0.016 A 
ATOM     29  C   UNL A   1      35.071  31.761  27.847  1.00  0.00     0.016 A 
ATOM     30  C   UNL A   1      35.916  29.166  28.351  1.00  0.00     0.010 A 
ATOM     31  C   UNL A   1      36.314  31.530  28.456  1.00  0.00     0.010 A 
ATOM     32  C   UNL A   1      36.734  30.225  28.768  1.00  0.00    -0.014 A 
BRANCH  32  33
ATOM     33  C   UNL A   1      37.981  29.966  29.558  1.00  0.00     0.031 A 
ATOM     34  C   UNL A   1      39.111  29.147  28.979  1.00  0.00     0.074 A 
ATOM     35  C   UNL A   1      38.139  30.486  30.795  1.00  0.00     0.049 A 
ATOM     36  N   UNL A   1      40.158  28.631  29.580  1.00  0.00    -0.248 NA
ATOM     37  C   UNL A   1      39.056  28.854  27.538  1.00  0.00     0.031 C 
ATOM     38  C   UNL A   1      37.176  31.344  31.487  1.00  0.00     0.029 A 
ATOM     39  N   UNL A   1      39.183  30.385  31.687  1.00  0.00    -0.354 N 
ATOM     40  C   UNL A   1      40.829  27.888  28.616  1.00  0.00     0.074 A 
ATOM     41  C   UNL A   1      40.085  28.033  27.383  1.00  0.00     0.031 C 
ATOM     42  C   UNL A   1      37.699  31.751  32.651  1.00  0.00     0.029 A 
ATOM     43  C   UNL A   1      38.975  31.078  32.855  1.00  0.00     0.049 A 
ATOM     44  H   UNL A   1      39.999  29.865  31.506  1.00  0.00     0.167 HD
ATOM     45  C   UNL A   1      41.957  27.146  28.751  1.00  0.00     0.037 A 
ATOM     46  C   UNL A   1      39.689  31.126  33.997  1.00  0.00     0.037 A 
ATOM     47  C   UNL A   1      42.750  27.076  29.952  1.00  0.00     0.049 A 
ATOM     48  C   UNL A   1      40.924  30.285  34.131  1.00  0.00     0.074 A 
ATOM     49  C   UNL A   1      43.927  26.378  30.170  1.00  0.00     0.029 A 
ATOM     50  N   UNL A   1      42.464  27.747  31.131  1.00  0.00    -0.354 N 
ATOM     51  N   UNL A   1      41.489  29.502  33.247  1.00  0.00    -0.248 NA
ATOM     52  C   UNL A   1      41.595  30.304  35.438  1.00  0.00     0.031 C 
ATOM     53  C   UNL A   1      44.335  26.601  31.490  1.00  0.00     0.029 A 
ATOM     54  C   UNL A   1      43.435  27.469  32.083  1.00  0.00     0.049 A 
ATOM     55  H   UNL A   1      41.687  28.335  31.273  1.00  0.00     0.167 HD
ATOM     56  C   UNL A   1      42.573  28.924  33.891  1.00  0.00     0.074 A 
ATOM     57  C   UNL A   1      42.609  29.475  35.230  1.00  0.00     0.031 C 
ATOM     58  C   UNL A   1      43.449  28.006  33.417  1.00  0.00     0.037 A 
BRANCH  45  59
ATOM     59  C   UNL A   1      42.395  26.310  27.583  1.00  0.00     0.064 A 
ATOM     60  C   UNL A   1      43.393  26.730  26.693  1.00  0.00     0.173 A 
ATOM     61  C   UNL A   1      41.849  25.029  27.398  1.00  0.00     0.173 A 
ATOM     62  F   UNL A   1      43.939  27.949  26.819  1.00  0.00    -0.203 F 
ATOM     63  C   UNL A   1      43.816  25.907  25.651  1.00  0.00     0.198 A 
ATOM     64  C   UNL A   1      42.293  24.197  26.372  1.00  0.00     0.198 A 
ATOM     65  F   UNL A   1      40.897  24.574  28.227  1.00  0.00    -0.203 F 
ATOM     66  F   UNL A   1      44.747  26.343  24.790  1.00  0.00    -0.200 F 
ATOM     67  C   UNL A   1      43.274  24.639  25.497  1.00  0.00     0.200 A 
ATOM     68  F   UNL A   1      41.778  22.969  26.237  1.00  0.00    -0.200 F 
ATOM     69  F   UNL A   1      43.692  23.844  24.503  1.00  0.00    -0.200 F 
ENDBRANCH  45  59
BRANCH  46  70
ATOM     70  C   UNL A   1      39.200  31.953  35.131  1.00  0.00     0.064 A 
ATOM     71  C   UNL A   1      39.468  33.327  35.192  1.00  0.00     0.173 A 
ATOM     72  C   UNL A   1      38.432  31.390  36.163  1.00  0.00     0.173 A 
ATOM     73  F   UNL A   1      40.226  33.903  34.249  1.00  0.00    -0.203 F 
ATOM     74  C   UNL A   1      38.980  34.107  36.239  1.00  0.00     0.198 A 
ATOM     75  C   UNL A   1      37.916  32.177  37.188  1.00  0.00     0.198 A 
ATOM     76  F   UNL A   1      38.154  30.078  36.154  1.00  0.00    -0.203 F 
ATOM     77  F   UNL A   1      39.277  35.412  36.292  1.00  0.00    -0.200 F 
ATOM     78  C   UNL A   1      38.194  33.535  37.228  1.00  0.00     0.200 A 
ATOM     79  F   UNL A   1      37.143  31.621  38.132  1.00  0.00    -0.200 F 
ATOM     80  F   UNL A   1      37.708  34.289  38.222  1.00  0.00    -0.200 F 
ENDBRANCH  46  70
BRANCH  58  81
ATOM     81  C   UNL A   1      44.520  27.541  34.359  1.00  0.00     0.064 A 
ATOM     82  C   UNL A   1      45.735  28.233  34.477  1.00  0.00     0.173 A 
ATOM     83  C   UNL A   1      44.328  26.405  35.157  1.00  0.00     0.173 A 
ATOM     84  F   UNL A   1      45.973  29.314  33.719  1.00  0.00    -0.203 F 
ATOM     85  C   UNL A   1      46.729  27.789  35.344  1.00  0.00     0.198 A 
ATOM     86  C   UNL A   1      45.314  25.977  36.041  1.00  0.00     0.198 A 
ATOM     87  F   UNL A   1      43.182  25.713  35.083  1.00  0.00    -0.203 F 
ATOM     88  F   UNL A   1      47.901  28.436  35.407  1.00  0.00    -0.200 F 
ATOM     89  C   UNL A   1      46.516  26.664  36.128  1.00  0.00     0.200 A 
ATOM     90  F   UNL A   1      45.105  24.896  36.804  1.00  0.00    -0.200 F 
ATOM     91  F   UNL A   1      47.474  26.236  36.961  1.00  0.00    -0.200 F 
ENDBRANCH  58  81
ENDBRANCH  32  33
ENDBRANCH  25  27
ENDBRANCH  24  25
ENDBRANCH  23  24
ENDBRANCH   1  23
TORSDOF 14
ENDMDL
MODEL 2
REMARK VINA RESULT:     -12.9      4.384      9.757
REMARK SMILES CS(=O)(=O)c1ccc(/C=C(/C(=O)OCCOC(=O)c2ccc(-c3c4nc(c(-c5c(F)c(F)c(F)c(F)c5F)c5ccc([nH]5)c(-c5c(F)c(F)c(F)c(F)c5F)c5nc(c(-c6c(F)c(F)c(F)c(F)c6F)c6ccc3[nH]6)C=C5)C=C4)cc2)c2ccccc2)cc1
REMARK SMILES IDX 14 1 13 2 11 3 12 4 10 5 9 6 8 7 5 8 6 9 89 10 7 11 88 12
REMARK SMILES IDX 2 13 1 14 3 15 4 16 82 17 83 18 87 19 84 20 86 21 85 22
REMARK SMILES IDX 15 23 16 24 17 25 18 26 19 27 20 28 81 29 21 30 80 31 22 32
REMARK SMILES IDX 23 33 24 34 74 35 25 36 79 37 73 38 75 39 26 40 78 41 72 42
REMARK SMILES IDX 71 43 27 45 59 46 39 47 58 48 40 49 43 50 57 51 76 52 41 53
REMARK SMILES IDX 42 54 56 56 77 57 44 58 28 59 29 60 37 61 30 62 31 63 35 64
REMARK SMILES IDX 38 65 32 66 33 67 36 68 34 69 60 70 61 71 69 72 62 73 63 74
REMARK SMILES IDX 67 75 70 76 64 77 65 78 68 79 66 80 45 81 46 82 54 83 47 84
REMARK SMILES IDX 48 85 52 86 55 87 49 88 50 89 53 90 51 91
REMARK H PARENT 75 44 43 55
REMARK Flexibility Score: inf
ROOT
ATOM      1  C   UNL A   1      34.755  22.644  24.457  1.00  0.00     0.275 C 
ENDROOT
BRANCH   1   2
ATOM      2  O   UNL A   1      34.470  23.736  25.356  1.00  0.00    -0.458 OA
BRANCH   2   3
ATOM      3  C   UNL A   1      33.159  23.902  25.671  1.00  0.00     0.338 C 
ATOM      4  O   UNL A   1      32.488  23.140  26.351  1.00  0.00    -0.246 OA
BRANCH   3   5
ATOM      5  C   UNL A   1      32.612  25.179  25.118  1.00  0.00     0.067 C 
ATOM      6  C   UNL A   1      31.849  25.116  24.003  1.00  0.00     0.024 C 
BRANCH   6   7
ATOM      7  C   UNL A   1      30.951  26.162  23.456  1.00  0.00    -0.025 A 
ATOM      8  C   UNL A   1      29.217  28.276  22.818  1.00  0.00     0.067 A 
ATOM      9  C   UNL A   1      30.528  28.293  22.351  1.00  0.00     0.021 A 
ATOM     10  C   UNL A   1      28.737  27.184  23.539  1.00  0.00     0.021 A 
ATOM     11  C   UNL A   1      31.368  27.217  22.635  1.00  0.00     0.009 A 
ATOM     12  C   UNL A   1      29.605  26.133  23.855  1.00  0.00     0.009 A 
BRANCH   8  13
ATOM     13  S   UNL A   1      28.198  29.702  22.549  1.00  0.00     0.175 S 
ATOM     14  C   UNL A   1      28.981  30.958  23.522  1.00  0.00     0.163 C 
ATOM     15  O   UNL A   1      26.902  29.417  23.129  1.00  0.00    -0.224 OA
ATOM     16  O   UNL A   1      28.325  30.078  21.151  1.00  0.00    -0.224 OA
ENDBRANCH   8  13
ENDBRANCH   6   7
BRANCH   5  17
ATOM     17  C   UNL A   1      32.774  26.407  25.922  1.00  0.00    -0.011 A 
ATOM     18  C   UNL A   1      33.915  27.207  25.736  1.00  0.00     0.009 A 
ATOM     19  C   UNL A   1      31.777  26.834  26.806  1.00  0.00     0.009 A 
ATOM     20  C   UNL A   1      34.031  28.436  26.388  1.00  0.00     0.001 A 
ATOM     21  C   UNL A   1      31.904  28.056  27.468  1.00  0.00     0.001 A 
ATOM     22  C   UNL A   1      33.023  28.860  27.253  1.00  0.00     0.000 A 
ENDBRANCH   5  17
ENDBRANCH   3   5
ENDBRANCH   2   3
ENDBRANCH   1   2
BRANCH   1  23
ATOM     23  C   UNL A   1      35.737  21.665  25.098  1.00  0.00     0.275 C 
BRANCH  23  24
ATOM     24  O   UNL A   1      37.074  21.959  24.650  1.00  0.00    -0.458 OA
BRANCH  24  25
ATOM     25  C   UNL A   1      38.077  21.477  25.415  1.00  0.00     0.338 C 
ATOM     26  O   UNL A   1      38.444  20.316  25.515  1.00  0.00    -0.246 OA
BRANCH  25  27
ATOM     27  C   UNL A   1      38.743  22.581  26.136  1.00  0.00     0.060 A 
ATOM     28  C   UNL A   1      38.204  23.860  26.096  1.00  0.00     0.016 A 
ATOM     29  C   UNL A   1      39.992  22.377  26.723  1.00  0.00     0.016 A 
ATOM     30  C   UNL A   1      38.966  24.948  26.518  1.00  0.00     0.010 A 
ATOM     31  C   UNL A   1      40.701  23.464  27.258  1.00  0.00     0.010 A 
ATOM     32  C   UNL A   1      40.223  24.778  27.116  1.00  0.00    -0.014 A 
BRANCH  32  33
ATOM     33  C   UNL A   1      41.038  25.963  27.537  1.00  0.00     0.031 A 
ATOM     34  C   UNL A   1      40.464  27.009  28.466  1.00  0.00     0.074 A 
ATOM     35  C   UNL A   1      42.316  26.109  27.125  1.00  0.00     0.049 A 
ATOM     36  N   UNL A   1      40.925  28.202  28.760  1.00  0.00    -0.248 NA
ATOM     37  C   UNL A   1      39.200  26.682  29.144  1.00  0.00     0.031 C 
ATOM     38  C   UNL A   1      43.047  25.171  26.273  1.00  0.00     0.029 A 
ATOM     39  N   UNL A   1      43.238  27.098  27.385  1.00  0.00    -0.354 N 
ATOM     40  C   UNL A   1      39.969  28.793  29.580  1.00  0.00     0.074 A 
ATOM     41  C   UNL A   1      38.911  27.822  29.755  1.00  0.00     0.031 C 
ATOM     42  C   UNL A   1      44.315  25.582  26.144  1.00  0.00     0.029 A 
ATOM     43  C   UNL A   1      44.457  26.882  26.787  1.00  0.00     0.049 A 
ATOM     44  H   UNL A   1      43.043  27.884  27.944  1.00  0.00     0.167 HD
ATOM     45  C   UNL A   1      39.974  30.034  30.127  1.00  0.00     0.037 A 
ATOM     46  C   UNL A   1      45.553  27.660  26.702  1.00  0.00     0.037 A 
ATOM     47  C   UNL A   1      41.069  30.966  30.032  1.00  0.00     0.049 A 
ATOM     48  C   UNL A   1      45.530  29.036  27.301  1.00  0.00     0.074 A 
ATOM     49  C   UNL A   1      41.175  32.233  30.585  1.00  0.00     0.029 A 
ATOM     50  N   UNL A   1      42.258  30.726  29.361  1.00  0.00    -0.354 N 
ATOM     51  N   UNL A   1      44.579  29.623  27.982  1.00  0.00    -0.248 NA
ATOM     52  C   UNL A   1      46.719  29.870  27.080  1.00  0.00     0.031 C 
ATOM     53  C   UNL A   1      42.414  32.771  30.221  1.00  0.00     0.029 A 
ATOM     54  C   UNL A   1      43.097  31.824  29.476  1.00  0.00     0.049 A 
ATOM     55  H   UNL A   1      42.476  29.897  28.876  1.00  0.00     0.167 HD
ATOM     56  C   UNL A   1      45.046  30.899  28.261  1.00  0.00     0.074 A 
ATOM     57  C   UNL A   1      46.381  30.988  27.707  1.00  0.00     0.031 C 
ATOM     58  C   UNL A   1      44.415  31.910  28.904  1.00  0.00     0.037 A 
BRANCH  45  59
ATOM     59  C   UNL A   1      38.740  30.488  30.856  1.00  0.00     0.064 A 
ATOM     60  C   UNL A   1      38.634  30.440  32.252  1.00  0.00     0.173 A 
ATOM     61  C   UNL A   1      37.672  31.048  30.136  1.00  0.00     0.173 A 
ATOM     62  F   UNL A   1      39.622  29.905  32.986  1.00  0.00    -0.203 F 
ATOM     63  C   UNL A   1      37.498  30.920  32.901  1.00  0.00     0.198 A 
ATOM     64  C   UNL A   1      36.549  31.552  30.789  1.00  0.00     0.198 A 
ATOM     65  F   UNL A   1      37.726  31.126  28.797  1.00  0.00    -0.203 F 
ATOM     66  F   UNL A   1      37.403  30.833  34.235  1.00  0.00    -0.200 F 
ATOM     67  C   UNL A   1      36.461  31.484  32.171  1.00  0.00     0.200 A 
ATOM     68  F   UNL A   1      35.558  32.109  30.081  1.00  0.00    -0.200 F 
ATOM     69  F   UNL A   1      35.376  31.957  32.798  1.00  0.00    -0.200 F 
ENDBRANCH  45  59
BRANCH  46  70
ATOM     70  C   UNL A   1      46.740  27.173  25.952  1.00  0.00     0.064 A 
ATOM     71  C   UNL A   1      46.920  27.492  24.599  1.00  0.00     0.173 A 
ATOM     72  C   UNL A   1      47.730  26.401  26.579  1.00  0.00     0.173 A 
ATOM     73  F   UNL A   1      45.985  28.198  23.948  1.00  0.00    -0.203 F 
ATOM     74  C   UNL A   1      48.050  27.063  23.905  1.00  0.00     0.198 A 
ATOM     75  C   UNL A   1      48.875  26.003  25.893  1.00  0.00     0.198 A 
ATOM     76  F   UNL A   1      47.601  26.062  27.870  1.00  0.00    -0.203 F 
ATOM     77  F   UNL A   1      48.184  27.354  22.605  1.00  0.00    -0.200 F 
ATOM     78  C   UNL A   1      49.032  26.332  24.556  1.00  0.00     0.200 A 
ATOM     79  F   UNL A   1      49.829  25.310  26.532  1.00  0.00    -0.200 F 
ATOM     80  F   UNL A   1      50.128  25.938  23.894  1.00  0.00    -0.200 F 
ENDBRANCH  46  70
BRANCH  58  81
ATOM     81  C   UNL A   1      45.166  33.201  29.041  1.00  0.00     0.064 A 
ATOM     82  C   UNL A   1      46.037  33.425  30.118  1.00  0.00     0.173 A 
ATOM     83  C   UNL A   1      45.026  34.216  28.085  1.00  0.00     0.173 A 
ATOM     84  F   UNL A   1      46.189  32.490  31.069  1.00  0.00    -0.203 F 
ATOM     85  C   UNL A   1      46.722  34.630  30.245  1.00  0.00     0.198 A 
ATOM     86  C   UNL A   1      45.731  35.411  28.202  1.00  0.00     0.198 A 
ATOM     87  F   UNL A   1      44.209  34.048  27.035  1.00  0.00    -0.203 F 
ATOM     88  F   UNL A   1      47.511  34.842  31.307  1.00  0.00    -0.200 F 
ATOM     89  C   UNL A   1      46.571  35.620  29.285  1.00  0.00     0.200 A 
ATOM     90  F   UNL A   1      45.592  36.363  27.270  1.00  0.00    -0.200 F 
ATOM     91  F   UNL A   1      47.229  36.780  29.410  1.00  0.00    -0.200 F 
ENDBRANCH  58  81
ENDBRANCH  32  33
ENDBRANCH  25  27
ENDBRANCH  24  25
ENDBRANCH  23  24
ENDBRANCH   1  23
TORSDOF 14
ENDMDL
MODEL 3
REMARK VINA RESULT:     -12.8      0.349      1.630
REMARK SMILES CS(=O)(=O)c1ccc(/C=C(/C(=O)OCCOC(=O)c2ccc(-c3c4nc(c(-c5c(F)c(F)c(F)c(F)c5F)c5ccc([nH]5)c(-c5c(F)c(F)c(F)c(F)c5F)c5nc(c(-c6c(F)c(F)c(F)c(F)c6F)c6ccc3[nH]6)C=C5)C=C4)cc2)c2ccccc2)cc1
REMARK SMILES IDX 14 1 13 2 11 3 12 4 10 5 9 6 8 7 5 8 6 9 89 10 7 11 88 12
REMARK SMILES IDX 2 13 1 14 3 15 4 16 82 17 83 18 87 19 84 20 86 21 85 22
REMARK SMILES IDX 15 23 16 24 17 25 18 26 19 27 20 28 81 29 21 30 80 31 22 32
REMARK SMILES IDX 23 33 24 34 74 35 25 36 79 37 73 38 75 39 26 40 78 41 72 42
REMARK SMILES IDX 71 43 27 45 59 46 39 47 58 48 40 49 43 50 57 51 76 52 41 53
REMARK SMILES IDX 42 54 56 56 77 57 44 58 28 59 29 60 37 61 30 62 31 63 35 64
REMARK SMILES IDX 38 65 32 66 33 67 36 68 34 69 60 70 61 71 69 72 62 73 63 74
REMARK SMILES IDX 67 75 70 76 64 77 65 78 68 79 66 80 45 81 46 82 54 83 47 84
REMARK SMILES IDX 48 85 52 86 55 87 49 88 50 89 53 90 51 91
REMARK H PARENT 75 44 43 55
REMARK Flexibility Score: inf
ROOT
ATOM      1  C   UNL A   1      31.683  28.105  24.795  1.00  0.00     0.275 C 
ENDROOT
BRANCH   1   2
ATOM      2  O   UNL A   1      32.016  26.728  25.068  1.00  0.00    -0.458 OA
BRANCH   2   3
ATOM      3  C   UNL A   1      33.177  26.290  24.514  1.00  0.00     0.338 C 
ATOM      4  O   UNL A   1      34.003  26.990  23.946  1.00  0.00    -0.246 OA
BRANCH   3   5
ATOM      5  C   UNL A   1      33.369  24.822  24.715  1.00  0.00     0.067 C 
ATOM      6  C   UNL A   1      32.269  24.036  24.767  1.00  0.00     0.024 C 
BRANCH   6   7
ATOM      7  C   UNL A   1      32.201  22.560  24.638  1.00  0.00    -0.025 A 
ATOM      8  C   UNL A   1      32.432  19.799  24.182  1.00  0.00     0.067 A 
ATOM      9  C   UNL A   1      32.523  20.294  25.479  1.00  0.00     0.021 A 
ATOM     10  C   UNL A   1      32.155  20.653  23.116  1.00  0.00     0.021 A 
ATOM     11  C   UNL A   1      32.362  21.662  25.701  1.00  0.00     0.009 A 
ATOM     12  C   UNL A   1      32.041  22.028  23.348  1.00  0.00     0.009 A 
BRANCH   8  13
ATOM     13  S   UNL A   1      32.755  18.078  23.902  1.00  0.00     0.175 S 
ATOM     14  C   UNL A   1      34.485  17.922  24.245  1.00  0.00     0.163 C 
ATOM     15  O   UNL A   1      32.545  17.827  22.491  1.00  0.00    -0.224 OA
ATOM     16  O   UNL A   1      32.030  17.323  24.911  1.00  0.00    -0.224 OA
ENDBRANCH   8  13
ENDBRANCH   6   7
BRANCH   5  17
ATOM     17  C   UNL A   1      34.745  24.289  24.654  1.00  0.00    -0.011 A 
ATOM     18  C   UNL A   1      35.544  24.313  25.810  1.00  0.00     0.009 A 
ATOM     19  C   UNL A   1      35.241  23.687  23.493  1.00  0.00     0.009 A 
ATOM     20  C   UNL A   1      36.800  23.702  25.814  1.00  0.00     0.001 A 
ATOM     21  C   UNL A   1      36.502  23.089  23.497  1.00  0.00     0.001 A 
ATOM     22  C   UNL A   1      37.277  23.088  24.657  1.00  0.00     0.000 A 
ENDBRANCH   5  17
ENDBRANCH   3   5
ENDBRANCH   2   3
ENDBRANCH   1   2
BRANCH   1  23
ATOM     23  C   UNL A   1      31.885  28.962  26.043  1.00  0.00     0.275 C 
BRANCH  23  24
ATOM     24  O   UNL A   1      32.806  30.030  25.753  1.00  0.00    -0.458 OA
BRANCH  24  25
ATOM     25  C   UNL A   1      33.079  30.874  26.771  1.00  0.00     0.338 C 
ATOM     26  O   UNL A   1      32.339  31.715  27.258  1.00  0.00    -0.246 OA
BRANCH  25  27
ATOM     27  C   UNL A   1      34.443  30.630  27.282  1.00  0.00     0.060 A 
ATOM     28  C   UNL A   1      34.855  29.335  27.570  1.00  0.00     0.016 A 
ATOM     29  C   UNL A   1      35.262  31.707  27.627  1.00  0.00     0.016 A 
ATOM     30  C   UNL A   1      36.013  29.126  28.316  1.00  0.00     0.010 A 
ATOM     31  C   UNL A   1      36.487  31.478  28.270  1.00  0.00     0.010 A 
ATOM     32  C   UNL A   1      36.860  30.184  28.676  1.00  0.00    -0.014 A 
BRANCH  32  33
ATOM     33  C   UNL A   1      38.085  29.939  29.502  1.00  0.00     0.031 A 
ATOM     34  C   UNL A   1      39.239  29.128  28.958  1.00  0.00     0.074 A 
ATOM     35  C   UNL A   1      38.204  30.466  30.740  1.00  0.00     0.049 A 
ATOM     36  N   UNL A   1      40.272  28.624  29.591  1.00  0.00    -0.248 NA
ATOM     37  C   UNL A   1      39.227  28.829  27.518  1.00  0.00     0.031 C 
ATOM     38  C   UNL A   1      37.214  31.317  31.402  1.00  0.00     0.029 A 
ATOM     39  N   UNL A   1      39.223  30.376  31.662  1.00  0.00    -0.354 N 
ATOM     40  C   UNL A   1      40.977  27.882  28.650  1.00  0.00     0.074 A 
ATOM     41  C   UNL A   1      40.268  28.016  27.395  1.00  0.00     0.031 C 
ATOM     42  C   UNL A   1      37.700  31.733  32.578  1.00  0.00     0.029 A 
ATOM     43  C   UNL A   1      38.976  31.072  32.822  1.00  0.00     0.049 A 
ATOM     44  H   UNL A   1      40.048  29.863  31.506  1.00  0.00     0.167 HD
ATOM     45  C   UNL A   1      42.107  27.151  28.820  1.00  0.00     0.037 A 
ATOM     46  C   UNL A   1      39.657  31.131  33.983  1.00  0.00     0.037 A 
ATOM     47  C   UNL A   1      42.867  27.093  30.043  1.00  0.00     0.049 A 
ATOM     48  C   UNL A   1      40.895  30.302  34.155  1.00  0.00     0.074 A 
ATOM     49  C   UNL A   1      44.043  26.406  30.297  1.00  0.00     0.029 A 
ATOM     50  N   UNL A   1      42.541  27.765  31.211  1.00  0.00    -0.354 N 
ATOM     51  N   UNL A   1      41.491  29.520  33.291  1.00  0.00    -0.248 NA
ATOM     52  C   UNL A   1      41.528  30.331  35.481  1.00  0.00     0.031 C 
ATOM     53  C   UNL A   1      44.411  26.637  31.627  1.00  0.00     0.029 A 
ATOM     54  C   UNL A   1      43.487  27.500  32.191  1.00  0.00     0.049 A 
ATOM     55  H   UNL A   1      41.756  28.348  31.328  1.00  0.00     0.167 HD
ATOM     56  C   UNL A   1      42.562  28.954  33.968  1.00  0.00     0.074 A 
ATOM     57  C   UNL A   1      42.555  29.511  35.305  1.00  0.00     0.031 C 
ATOM     58  C   UNL A   1      43.459  28.042  33.523  1.00  0.00     0.037 A 
BRANCH  45  59
ATOM     59  C   UNL A   1      42.586  26.314  27.668  1.00  0.00     0.064 A 
ATOM     60  C   UNL A   1      43.557  26.768  26.764  1.00  0.00     0.173 A 
ATOM     61  C   UNL A   1      42.109  25.002  27.513  1.00  0.00     0.173 A 
ATOM     62  F   UNL A   1      44.038  28.017  26.862  1.00  0.00    -0.203 F 
ATOM     63  C   UNL A   1      44.020  25.946  25.739  1.00  0.00     0.198 A 
ATOM     64  C   UNL A   1      42.593  24.174  26.503  1.00  0.00     0.198 A 
ATOM     65  F   UNL A   1      41.185  24.515  28.356  1.00  0.00    -0.203 F 
ATOM     66  F   UNL A   1      44.923  26.412  24.865  1.00  0.00    -0.200 F 
ATOM     67  C   UNL A   1      43.546  24.647  25.615  1.00  0.00     0.200 A 
ATOM     68  F   UNL A   1      42.144  22.916  26.397  1.00  0.00    -0.200 F 
ATOM     69  F   UNL A   1      44.002  23.855  24.636  1.00  0.00    -0.200 F 
ENDBRANCH  45  59
BRANCH  46  70
ATOM     70  C   UNL A   1      39.128  31.958  35.099  1.00  0.00     0.064 A 
ATOM     71  C   UNL A   1      38.372  31.382  36.130  1.00  0.00     0.173 A 
ATOM     72  C   UNL A   1      39.392  33.335  35.173  1.00  0.00     0.173 A 
ATOM     73  F   UNL A   1      38.066  30.077  36.085  1.00  0.00    -0.203 F 
ATOM     74  C   UNL A   1      37.906  32.151  37.194  1.00  0.00     0.198 A 
ATOM     75  C   UNL A   1      38.955  34.094  36.255  1.00  0.00     0.198 A 
ATOM     76  F   UNL A   1      40.104  33.934  34.208  1.00  0.00    -0.203 F 
ATOM     77  F   UNL A   1      37.159  31.584  38.150  1.00  0.00    -0.200 F 
ATOM     78  C   UNL A   1      38.209  33.503  37.263  1.00  0.00     0.200 A 
ATOM     79  F   UNL A   1      39.266  35.397  36.324  1.00  0.00    -0.200 F 
ATOM     80  F   UNL A   1      37.779  34.237  38.296  1.00  0.00    -0.200 F 
ENDBRANCH  46  70
BRANCH  58  81
ATOM     81  C   UNL A   1      44.506  27.590  34.496  1.00  0.00     0.064 A 
ATOM     82  C   UNL A   1      44.312  26.456  35.299  1.00  0.00     0.173 A 
ATOM     83  C   UNL A   1      45.717  28.286  34.620  1.00  0.00     0.173 A 
ATOM     84  F   UNL A   1      43.161  25.769  35.231  1.00  0.00    -0.203 F 
ATOM     85  C   UNL A   1      45.283  26.050  36.209  1.00  0.00     0.198 A 
ATOM     86  C   UNL A   1      46.696  27.863  35.514  1.00  0.00     0.198 A 
ATOM     87  F   UNL A   1      45.951  29.373  33.871  1.00  0.00    -0.203 F 
ATOM     88  F   UNL A   1      45.058  24.992  37.001  1.00  0.00    -0.200 F 
ATOM     89  C   UNL A   1      46.476  26.751  36.313  1.00  0.00     0.200 A 
ATOM     90  F   UNL A   1      47.852  28.535  35.607  1.00  0.00    -0.200 F 
ATOM     91  F   UNL A   1      47.410  26.360  37.191  1.00  0.00    -0.200 F 
ENDBRANCH  58  81
ENDBRANCH  32  33
ENDBRANCH  25  27
ENDBRANCH  24  25
ENDBRANCH  23  24
ENDBRANCH   1  23
TORSDOF 14
ENDMDL
