MODEL 1
REMARK VINA RESULT:     -12.2      0.000      0.000
REMARK SMILES Cc1c(C)c2c(c(C)c1O)CC[C@@](C)(C(=O)OCCOC(=O)c1ccc(-c3c4nc(c(-c5c(F)c(F)c(F)c(F)c5F)c5ccc([nH]5)c(-c5c(F)c(F)c(F)c(F)c5F)c5nc(c(-c6c(F)c(F)c(F)c(F)c6F)c6ccc3[nH]6)C=C5)C=C4)cc1)O2
REMARK SMILES IDX 19 1 18 2 17 3 15 4 16 5 13 6 1 7 2 8 3 9 9 10 4 11 5 12
REMARK SMILES IDX 7 13 6 14 86 15 8 16 11 17 12 18 14 19 10 20 20 22 21 23
REMARK SMILES IDX 22 24 23 25 24 26 85 27 25 28 84 29 26 30 27 31 28 32 78 33
REMARK SMILES IDX 29 34 83 35 77 36 79 37 30 38 82 39 76 40 75 41 31 43 63 44
REMARK SMILES IDX 43 45 62 46 44 47 47 48 61 49 80 50 45 51 46 52 60 54 81 55
REMARK SMILES IDX 48 56 32 57 33 58 41 59 34 60 35 61 39 62 42 63 36 64 37 65
REMARK SMILES IDX 40 66 38 67 64 68 65 69 73 70 66 71 67 72 71 73 74 74 68 75
REMARK SMILES IDX 69 76 72 77 70 78 49 79 50 80 58 81 51 82 52 83 56 84 59 85
REMARK SMILES IDX 53 86 54 87 57 88 55 89
REMARK H PARENT 10 21 79 42 47 53
REMARK Flexibility Score: inf
ROOT
ATOM      1  C   UNL A   1      31.776  29.657  25.876  1.00  0.00     0.275 C 
ENDROOT
BRANCH   1   2
ATOM      2  C   UNL A   1      31.093  29.795  24.514  1.00  0.00     0.274 C 
BRANCH   2   3
ATOM      3  O   UNL A   1      31.142  28.561  23.768  1.00  0.00    -0.459 OA
BRANCH   3   4
ATOM      4  C   UNL A   1      32.354  28.198  23.254  1.00  0.00     0.350 C 
ATOM      5  O   UNL A   1      32.988  28.883  22.458  1.00  0.00    -0.247 OA
BRANCH   4   6
ATOM      6  C   UNL A   1      32.798  26.798  23.745  1.00  0.00     0.203 C 
ATOM      7  C   UNL A   1      29.571  22.565  26.974  1.00  0.00     0.049 C 
ATOM      8  C   UNL A   1      30.627  23.098  26.037  1.00  0.00    -0.002 A 
ATOM      9  C   UNL A   1      30.718  24.477  25.727  1.00  0.00    -0.002 A 
ATOM     10  C   UNL A   1      31.561  22.218  25.460  1.00  0.00     0.122 A 
ATOM     11  C   UNL A   1      29.786  25.459  26.394  1.00  0.00     0.049 C 
ATOM     12  C   UNL A   1      31.677  24.923  24.790  1.00  0.00     0.127 A 
ATOM     13  C   UNL A   1      32.522  22.655  24.536  1.00  0.00    -0.002 A 
ATOM     14  C   UNL A   1      32.532  24.013  24.148  1.00  0.00     0.001 A 
ATOM     15  O   UNL A   1      31.713  26.273  24.538  1.00  0.00    -0.475 OA
ATOM     16  C   UNL A   1      33.518  21.686  23.949  1.00  0.00     0.049 C 
ATOM     17  C   UNL A   1      33.471  24.486  23.070  1.00  0.00     0.044 C 
ATOM     18  C   UNL A   1      33.090  25.867  22.570  1.00  0.00     0.065 C 
ATOM     19  C   UNL A   1      34.006  27.038  24.661  1.00  0.00     0.069 C 
BRANCH  10  20
ATOM     20  O   UNL A   1      31.567  20.883  25.775  1.00  0.00    -0.507 OA
ATOM     21  H   UNL A   1      30.837  20.504  26.224  1.00  0.00     0.293 HD
ENDBRANCH  10  20
ENDBRANCH   4   6
ENDBRANCH   3   4
ENDBRANCH   2   3
ENDBRANCH   1   2
BRANCH   1  22
ATOM     22  O   UNL A   1      33.033  30.356  25.889  1.00  0.00    -0.458 OA
BRANCH  22  23
ATOM     23  C   UNL A   1      33.180  31.288  26.859  1.00  0.00     0.338 C 
ATOM     24  O   UNL A   1      32.398  32.164  27.181  1.00  0.00    -0.246 OA
BRANCH  23  25
ATOM     25  C   UNL A   1      34.429  31.012  27.580  1.00  0.00     0.060 A 
ATOM     26  C   UNL A   1      34.683  29.697  27.958  1.00  0.00     0.016 A 
ATOM     27  C   UNL A   1      35.313  32.032  27.935  1.00  0.00     0.016 A 
ATOM     28  C   UNL A   1      35.819  29.392  28.691  1.00  0.00     0.010 A 
ATOM     29  C   UNL A   1      36.473  31.717  28.660  1.00  0.00     0.010 A 
ATOM     30  C   UNL A   1      36.729  30.391  29.049  1.00  0.00    -0.014 A 
BRANCH  30  31
ATOM     31  C   UNL A   1      37.906  30.008  29.871  1.00  0.00     0.031 A 
ATOM     32  C   UNL A   1      39.005  29.180  29.272  1.00  0.00     0.074 A 
ATOM     33  C   UNL A   1      38.041  30.505  31.118  1.00  0.00     0.049 A 
ATOM     34  N   UNL A   1      40.108  28.744  29.827  1.00  0.00    -0.248 NA
ATOM     35  C   UNL A   1      38.851  28.798  27.859  1.00  0.00     0.031 C 
ATOM     36  C   UNL A   1      37.080  31.391  31.776  1.00  0.00     0.029 A 
ATOM     37  N   UNL A   1      39.051  30.367  32.037  1.00  0.00    -0.354 N 
ATOM     38  C   UNL A   1      40.764  28.019  28.843  1.00  0.00     0.074 A 
ATOM     39  C   UNL A   1      39.935  28.060  27.659  1.00  0.00     0.031 C 
ATOM     40  C   UNL A   1      37.570  31.757  32.972  1.00  0.00     0.029 A 
ATOM     41  C   UNL A   1      38.845  31.081  33.193  1.00  0.00     0.049 A 
ATOM     42  H   UNL A   1      39.849  29.811  31.882  1.00  0.00     0.167 HD
ATOM     43  C   UNL A   1      41.957  27.383  28.922  1.00  0.00     0.037 A 
ATOM     44  C   UNL A   1      39.590  31.168  34.312  1.00  0.00     0.037 A 
ATOM     45  C   UNL A   1      42.797  27.374  30.090  1.00  0.00     0.049 A 
ATOM     46  C   UNL A   1      40.874  30.389  34.401  1.00  0.00     0.074 A 
ATOM     47  C   UNL A   1      44.016  26.744  30.270  1.00  0.00     0.029 A 
ATOM     48  N   UNL A   1      42.509  28.036  31.275  1.00  0.00    -0.354 N 
ATOM     49  N   UNL A   1      41.462  29.664  33.482  1.00  0.00    -0.248 NA
ATOM     50  C   UNL A   1      41.588  30.422  35.685  1.00  0.00     0.031 C 
ATOM     51  C   UNL A   1      44.449  26.993  31.574  1.00  0.00     0.029 A 
ATOM     52  C   UNL A   1      43.521  27.813  32.195  1.00  0.00     0.049 A 
ATOM     53  H   UNL A   1      41.707  28.582  31.438  1.00  0.00     0.167 HD
ATOM     54  C   UNL A   1      42.616  29.165  34.068  1.00  0.00     0.074 A 
ATOM     55  C   UNL A   1      42.657  29.681  35.420  1.00  0.00     0.031 C 
ATOM     56  C   UNL A   1      43.553  28.346  33.534  1.00  0.00     0.037 A 
BRANCH  43  57
ATOM     57  C   UNL A   1      42.423  26.619  27.720  1.00  0.00     0.064 A 
ATOM     58  C   UNL A   1      43.312  27.177  26.791  1.00  0.00     0.173 A 
ATOM     59  C   UNL A   1      42.025  25.286  27.532  1.00  0.00     0.173 A 
ATOM     60  F   UNL A   1      43.714  28.450  26.922  1.00  0.00    -0.203 F 
ATOM     61  C   UNL A   1      43.778  26.431  25.711  1.00  0.00     0.198 A 
ATOM     62  C   UNL A   1      42.511  24.536  26.465  1.00  0.00     0.198 A 
ATOM     63  F   UNL A   1      41.181  24.704  28.398  1.00  0.00    -0.203 F 
ATOM     64  F   UNL A   1      44.606  26.992  24.819  1.00  0.00    -0.200 F 
ATOM     65  C   UNL A   1      43.384  25.110  25.554  1.00  0.00     0.200 A 
ATOM     66  F   UNL A   1      42.141  23.256  26.324  1.00  0.00    -0.200 F 
ATOM     67  F   UNL A   1      43.846  24.390  24.522  1.00  0.00    -0.200 F 
ENDBRANCH  43  57
BRANCH  44  68
ATOM     68  C   UNL A   1      39.130  32.019  35.441  1.00  0.00     0.064 A 
ATOM     69  C   UNL A   1      38.350  31.485  36.476  1.00  0.00     0.173 A 
ATOM     70  C   UNL A   1      39.480  33.376  35.521  1.00  0.00     0.173 A 
ATOM     71  F   UNL A   1      37.967  30.201  36.431  1.00  0.00    -0.203 F 
ATOM     72  C   UNL A   1      37.941  32.275  37.549  1.00  0.00     0.198 A 
ATOM     73  C   UNL A   1      39.092  34.157  36.607  1.00  0.00     0.198 A 
ATOM     74  F   UNL A   1      40.218  33.937  34.553  1.00  0.00    -0.203 F 
ATOM     75  F   UNL A   1      37.171  31.748  38.511  1.00  0.00    -0.200 F 
ATOM     76  C   UNL A   1      38.320  33.607  37.619  1.00  0.00     0.200 A 
ATOM     77  F   UNL A   1      39.472  35.440  36.675  1.00  0.00    -0.200 F 
ATOM     78  F   UNL A   1      37.938  34.361  38.658  1.00  0.00    -0.200 F 
ENDBRANCH  44  68
BRANCH  56  79
ATOM     79  C   UNL A   1      44.719  27.960  34.392  1.00  0.00     0.064 A 
ATOM     80  C   UNL A   1      45.849  28.782  34.495  1.00  0.00     0.173 A 
ATOM     81  C   UNL A   1      44.655  26.818  35.204  1.00  0.00     0.173 A 
ATOM     82  F   UNL A   1      45.958  29.878  33.729  1.00  0.00    -0.203 F 
ATOM     83  C   UNL A   1      46.874  28.476  35.386  1.00  0.00     0.198 A 
ATOM     84  C   UNL A   1      45.671  26.527  36.110  1.00  0.00     0.198 A 
ATOM     85  F   UNL A   1      43.589  26.006  35.146  1.00  0.00    -0.203 F 
ATOM     86  F   UNL A   1      47.952  29.269  35.462  1.00  0.00    -0.200 F 
ATOM     87  C   UNL A   1      46.779  27.357  36.200  1.00  0.00     0.200 A 
ATOM     88  F   UNL A   1      45.571  25.455  36.906  1.00  0.00    -0.200 F 
ATOM     89  F   UNL A   1      47.754  27.079  37.077  1.00  0.00    -0.200 F 
ENDBRANCH  56  79
ENDBRANCH  30  31
ENDBRANCH  23  25
ENDBRANCH  22  23
ENDBRANCH   1  22
TORSDOF 12
ENDMDL
MODEL 2
REMARK VINA RESULT:     -12.2      0.152      1.156
REMARK SMILES Cc1c(C)c2c(c(C)c1O)CC[C@@](C)(C(=O)OCCOC(=O)c1ccc(-c3c4nc(c(-c5c(F)c(F)c(F)c(F)c5F)c5ccc([nH]5)c(-c5c(F)c(F)c(F)c(F)c5F)c5nc(c(-c6c(F)c(F)c(F)c(F)c6F)c6ccc3[nH]6)C=C5)C=C4)cc1)O2
REMARK SMILES IDX 19 1 18 2 17 3 15 4 16 5 13 6 1 7 2 8 3 9 9 10 4 11 5 12
REMARK SMILES IDX 7 13 6 14 86 15 8 16 11 17 12 18 14 19 10 20 20 22 21 23
REMARK SMILES IDX 22 24 23 25 24 26 85 27 25 28 84 29 26 30 27 31 28 32 78 33
REMARK SMILES IDX 29 34 83 35 77 36 79 37 30 38 82 39 76 40 75 41 31 43 63 44
REMARK SMILES IDX 43 45 62 46 44 47 47 48 61 49 80 50 45 51 46 52 60 54 81 55
REMARK SMILES IDX 48 56 32 57 33 58 41 59 34 60 35 61 39 62 42 63 36 64 37 65
REMARK SMILES IDX 40 66 38 67 64 68 65 69 73 70 66 71 67 72 71 73 74 74 68 75
REMARK SMILES IDX 69 76 72 77 70 78 49 79 50 80 58 81 51 82 52 83 56 84 59 85
REMARK SMILES IDX 53 86 54 87 57 88 55 89
REMARK H PARENT 10 21 79 42 47 53
REMARK Flexibility Score: inf
ROOT
ATOM      1  C   UNL A   1      31.823  29.663  25.902  1.00  0.00     0.275 C 
ENDROOT
BRANCH   1   2
ATOM      2  C   UNL A   1      31.128  29.780  24.544  1.00  0.00     0.274 C 
BRANCH   2   3
ATOM      3  O   UNL A   1      31.189  28.542  23.808  1.00  0.00    -0.459 OA
BRANCH   3   4
ATOM      4  C   UNL A   1      32.407  28.181  23.307  1.00  0.00     0.350 C 
ATOM      5  O   UNL A   1      33.060  28.878  22.537  1.00  0.00    -0.247 OA
BRANCH   4   6
ATOM      6  C   UNL A   1      32.832  26.766  23.774  1.00  0.00     0.203 C 
ATOM      7  C   UNL A   1      29.571  22.550  26.990  1.00  0.00     0.049 C 
ATOM      8  C   UNL A   1      30.625  23.076  26.046  1.00  0.00    -0.002 A 
ATOM      9  C   UNL A   1      30.736  24.457  25.753  1.00  0.00    -0.002 A 
ATOM     10  C   UNL A   1      31.536  22.187  25.446  1.00  0.00     0.122 A 
ATOM     11  C   UNL A   1      29.829  25.447  26.443  1.00  0.00     0.049 C 
ATOM     12  C   UNL A   1      31.691  24.898  24.809  1.00  0.00     0.127 A 
ATOM     13  C   UNL A   1      32.493  22.619  24.516  1.00  0.00    -0.002 A 
ATOM     14  C   UNL A   1      32.522  23.981  24.146  1.00  0.00     0.001 A 
ATOM     15  O   UNL A   1      31.748  26.251  24.574  1.00  0.00    -0.475 OA
ATOM     16  C   UNL A   1      33.465  21.640  23.905  1.00  0.00     0.049 C 
ATOM     17  C   UNL A   1      33.456  24.451  23.061  1.00  0.00     0.044 C 
ATOM     18  C   UNL A   1      33.093  25.845  22.584  1.00  0.00     0.065 C 
ATOM     19  C   UNL A   1      34.055  26.973  24.677  1.00  0.00     0.069 C 
BRANCH  10  20
ATOM     20  O   UNL A   1      31.522  20.848  25.744  1.00  0.00    -0.507 OA
ATOM     21  H   UNL A   1      30.791  20.477  26.198  1.00  0.00     0.293 HD
ENDBRANCH  10  20
ENDBRANCH   4   6
ENDBRANCH   3   4
ENDBRANCH   2   3
ENDBRANCH   1   2
BRANCH   1  22
ATOM     22  O   UNL A   1      33.071  30.378  25.900  1.00  0.00    -0.458 OA
BRANCH  22  23
ATOM     23  C   UNL A   1      33.218  31.311  26.868  1.00  0.00     0.338 C 
ATOM     24  O   UNL A   1      32.436  32.188  27.188  1.00  0.00    -0.246 OA
BRANCH  23  25
ATOM     25  C   UNL A   1      34.465  31.035  27.592  1.00  0.00     0.060 A 
ATOM     26  C   UNL A   1      34.721  29.719  27.963  1.00  0.00     0.016 A 
ATOM     27  C   UNL A   1      35.345  32.056  27.955  1.00  0.00     0.016 A 
ATOM     28  C   UNL A   1      35.856  29.413  28.698  1.00  0.00     0.010 A 
ATOM     29  C   UNL A   1      36.504  31.740  28.681  1.00  0.00     0.010 A 
ATOM     30  C   UNL A   1      36.763  30.412  29.064  1.00  0.00    -0.014 A 
BRANCH  30  31
ATOM     31  C   UNL A   1      37.938  30.029  29.887  1.00  0.00     0.031 A 
ATOM     32  C   UNL A   1      39.040  29.206  29.288  1.00  0.00     0.074 A 
ATOM     33  C   UNL A   1      38.069  30.520  31.137  1.00  0.00     0.049 A 
ATOM     34  N   UNL A   1      40.143  28.769  29.843  1.00  0.00    -0.248 NA
ATOM     35  C   UNL A   1      38.891  28.829  27.873  1.00  0.00     0.031 C 
ATOM     36  C   UNL A   1      37.105  31.402  31.796  1.00  0.00     0.029 A 
ATOM     37  N   UNL A   1      39.077  30.381  32.058  1.00  0.00    -0.354 N 
ATOM     38  C   UNL A   1      40.803  28.050  28.858  1.00  0.00     0.074 A 
ATOM     39  C   UNL A   1      39.977  28.094  27.672  1.00  0.00     0.031 C 
ATOM     40  C   UNL A   1      37.590  31.763  32.995  1.00  0.00     0.029 A 
ATOM     41  C   UNL A   1      38.866  31.089  33.217  1.00  0.00     0.049 A 
ATOM     42  H   UNL A   1      39.877  29.827  31.903  1.00  0.00     0.167 HD
ATOM     43  C   UNL A   1      41.997  27.416  28.937  1.00  0.00     0.037 A 
ATOM     44  C   UNL A   1      39.608  31.173  34.338  1.00  0.00     0.037 A 
ATOM     45  C   UNL A   1      42.834  27.404  30.108  1.00  0.00     0.049 A 
ATOM     46  C   UNL A   1      40.894  30.396  34.427  1.00  0.00     0.074 A 
ATOM     47  C   UNL A   1      44.054  26.775  30.288  1.00  0.00     0.029 A 
ATOM     48  N   UNL A   1      42.541  28.060  31.295  1.00  0.00    -0.354 N 
ATOM     49  N   UNL A   1      41.486  29.677  33.506  1.00  0.00    -0.248 NA
ATOM     50  C   UNL A   1      41.604  30.425  35.713  1.00  0.00     0.031 C 
ATOM     51  C   UNL A   1      44.483  27.020  31.595  1.00  0.00     0.029 A 
ATOM     52  C   UNL A   1      43.552  27.836  32.216  1.00  0.00     0.049 A 
ATOM     53  H   UNL A   1      41.738  28.604  31.458  1.00  0.00     0.167 HD
ATOM     54  C   UNL A   1      42.639  29.177  34.093  1.00  0.00     0.074 A 
ATOM     55  C   UNL A   1      42.675  29.688  35.447  1.00  0.00     0.031 C 
ATOM     56  C   UNL A   1      43.579  28.363  33.557  1.00  0.00     0.037 A 
BRANCH  43  57
ATOM     57  C   UNL A   1      42.468  26.658  27.733  1.00  0.00     0.064 A 
ATOM     58  C   UNL A   1      43.332  27.234  26.792  1.00  0.00     0.173 A 
ATOM     59  C   UNL A   1      42.101  25.315  27.556  1.00  0.00     0.173 A 
ATOM     60  F   UNL A   1      43.703  28.517  26.912  1.00  0.00    -0.203 F 
ATOM     61  C   UNL A   1      43.803  26.495  25.709  1.00  0.00     0.198 A 
ATOM     62  C   UNL A   1      42.593  24.572  26.486  1.00  0.00     0.198 A 
ATOM     63  F   UNL A   1      41.282  24.717  28.434  1.00  0.00    -0.203 F 
ATOM     64  F   UNL A   1      44.607  27.071  24.805  1.00  0.00    -0.200 F 
ATOM     65  C   UNL A   1      43.441  25.164  25.562  1.00  0.00     0.200 A 
ATOM     66  F   UNL A   1      42.253  23.283  26.355  1.00  0.00    -0.200 F 
ATOM     67  F   UNL A   1      43.908  24.450  24.529  1.00  0.00    -0.200 F 
ENDBRANCH  43  57
BRANCH  44  68
ATOM     68  C   UNL A   1      39.143  32.018  35.469  1.00  0.00     0.064 A 
ATOM     69  C   UNL A   1      38.352  31.481  36.493  1.00  0.00     0.173 A 
ATOM     70  C   UNL A   1      39.500  33.372  35.562  1.00  0.00     0.173 A 
ATOM     71  F   UNL A   1      37.962  30.199  36.435  1.00  0.00    -0.203 F 
ATOM     72  C   UNL A   1      37.938  32.265  37.568  1.00  0.00     0.198 A 
ATOM     73  C   UNL A   1      39.108  34.148  36.651  1.00  0.00     0.198 A 
ATOM     74  F   UNL A   1      40.250  33.936  34.605  1.00  0.00    -0.203 F 
ATOM     75  F   UNL A   1      37.157  31.735  38.520  1.00  0.00    -0.200 F 
ATOM     76  C   UNL A   1      38.324  33.594  37.652  1.00  0.00     0.200 A 
ATOM     77  F   UNL A   1      39.495  35.428  36.732  1.00  0.00    -0.200 F 
ATOM     78  F   UNL A   1      37.938  34.343  38.694  1.00  0.00    -0.200 F 
ENDBRANCH  44  68
BRANCH  56  79
ATOM     79  C   UNL A   1      44.744  27.975  34.417  1.00  0.00     0.064 A 
ATOM     80  C   UNL A   1      44.729  26.795  35.173  1.00  0.00     0.173 A 
ATOM     81  C   UNL A   1      45.927  28.729  34.390  1.00  0.00     0.173 A 
ATOM     82  F   UNL A   1      43.615  26.049  35.236  1.00  0.00    -0.203 F 
ATOM     83  C   UNL A   1      45.859  26.382  35.871  1.00  0.00     0.198 A 
ATOM     84  C   UNL A   1      47.062  28.300  35.072  1.00  0.00     0.198 A 
ATOM     85  F   UNL A   1      45.992  29.861  33.672  1.00  0.00    -0.203 F 
ATOM     86  F   UNL A   1      45.821  25.257  36.599  1.00  0.00    -0.200 F 
ATOM     87  C   UNL A   1      47.028  27.127  35.810  1.00  0.00     0.200 A 
ATOM     88  F   UNL A   1      48.194  29.014  35.000  1.00  0.00    -0.200 F 
ATOM     89  F   UNL A   1      48.123  26.713  36.461  1.00  0.00    -0.200 F 
ENDBRANCH  56  79
ENDBRANCH  30  31
ENDBRANCH  23  25
ENDBRANCH  22  23
ENDBRANCH   1  22
TORSDOF 12
ENDMDL
MODEL 3
REMARK VINA RESULT:     -12.2      0.875      1.834
REMARK SMILES Cc1c(C)c2c(c(C)c1O)CC[C@@](C)(C(=O)OCCOC(=O)c1ccc(-c3c4nc(c(-c5c(F)c(F)c(F)c(F)c5F)c5ccc([nH]5)c(-c5c(F)c(F)c(F)c(F)c5F)c5nc(c(-c6c(F)c(F)c(F)c(F)c6F)c6ccc3[nH]6)C=C5)C=C4)cc1)O2
REMARK SMILES IDX 19 1 18 2 17 3 15 4 16 5 13 6 1 7 2 8 3 9 9 10 4 11 5 12
REMARK SMILES IDX 7 13 6 14 86 15 8 16 11 17 12 18 14 19 10 20 20 22 21 23
REMARK SMILES IDX 22 24 23 25 24 26 85 27 25 28 84 29 26 30 27 31 28 32 78 33
REMARK SMILES IDX 29 34 83 35 77 36 79 37 30 38 82 39 76 40 75 41 31 43 63 44
REMARK SMILES IDX 43 45 62 46 44 47 47 48 61 49 80 50 45 51 46 52 60 54 81 55
REMARK SMILES IDX 48 56 32 57 33 58 41 59 34 60 35 61 39 62 42 63 36 64 37 65
REMARK SMILES IDX 40 66 38 67 64 68 65 69 73 70 66 71 67 72 71 73 74 74 68 75
REMARK SMILES IDX 69 76 72 77 70 78 49 79 50 80 58 81 51 82 52 83 56 84 59 85
REMARK SMILES IDX 53 86 54 87 57 88 55 89
REMARK H PARENT 10 21 79 42 47 53
REMARK Flexibility Score: inf
ROOT
ATOM      1  C   UNL A   1      31.851  29.722  25.357  1.00  0.00     0.275 C 
ENDROOT
BRANCH   1   2
ATOM      2  C   UNL A   1      31.862  29.081  23.967  1.00  0.00     0.274 C 
BRANCH   2   3
ATOM      3  O   UNL A   1      32.777  27.968  23.904  1.00  0.00    -0.459 OA
BRANCH   3   4
ATOM      4  C   UNL A   1      32.296  26.802  23.379  1.00  0.00     0.350 C 
ATOM      5  O   UNL A   1      31.947  26.675  22.210  1.00  0.00    -0.247 OA
BRANCH   4   6
ATOM      6  C   UNL A   1      32.183  25.686  24.448  1.00  0.00     0.203 C 
ATOM      7  C   UNL A   1      32.641  19.518  23.745  1.00  0.00     0.049 C 
ATOM      8  C   UNL A   1      32.696  20.850  24.452  1.00  0.00    -0.002 A 
ATOM      9  C   UNL A   1      32.414  22.062  23.775  1.00  0.00    -0.002 A 
ATOM     10  C   UNL A   1      33.020  20.905  25.820  1.00  0.00     0.122 A 
ATOM     11  C   UNL A   1      31.982  22.032  22.330  1.00  0.00     0.049 C 
ATOM     12  C   UNL A   1      32.547  23.292  24.458  1.00  0.00     0.127 A 
ATOM     13  C   UNL A   1      33.143  22.122  26.506  1.00  0.00    -0.002 A 
ATOM     14  C   UNL A   1      32.970  23.330  25.796  1.00  0.00     0.001 A 
ATOM     15  O   UNL A   1      32.254  24.429  23.744  1.00  0.00    -0.475 OA
ATOM     16  C   UNL A   1      33.476  22.143  27.978  1.00  0.00     0.049 C 
ATOM     17  C   UNL A   1      33.217  24.651  26.476  1.00  0.00     0.044 C 
ATOM     18  C   UNL A   1      33.313  25.783  25.470  1.00  0.00     0.065 C 
ATOM     19  C   UNL A   1      30.782  25.830  25.057  1.00  0.00     0.069 C 
BRANCH  10  20
ATOM     20  O   UNL A   1      33.236  19.760  26.545  1.00  0.00    -0.507 OA
ATOM     21  H   UNL A   1      32.597  19.471  27.166  1.00  0.00     0.293 HD
ENDBRANCH  10  20
ENDBRANCH   4   6
ENDBRANCH   3   4
ENDBRANCH   2   3
ENDBRANCH   1   2
BRANCH   1  22
ATOM     22  O   UNL A   1      33.184  30.074  25.767  1.00  0.00    -0.458 OA
BRANCH  22  23
ATOM     23  C   UNL A   1      33.274  31.002  26.746  1.00  0.00     0.338 C 
ATOM     24  O   UNL A   1      32.454  31.849  27.053  1.00  0.00    -0.246 OA
BRANCH  23  25
ATOM     25  C   UNL A   1      34.512  30.764  27.498  1.00  0.00     0.060 A 
ATOM     26  C   UNL A   1      34.811  29.452  27.854  1.00  0.00     0.016 A 
ATOM     27  C   UNL A   1      35.340  31.811  27.902  1.00  0.00     0.016 A 
ATOM     28  C   UNL A   1      35.938  29.179  28.615  1.00  0.00     0.010 A 
ATOM     29  C   UNL A   1      36.491  31.529  28.654  1.00  0.00     0.010 A 
ATOM     30  C   UNL A   1      36.793  30.206  29.022  1.00  0.00    -0.014 A 
BRANCH  30  31
ATOM     31  C   UNL A   1      37.961  29.855  29.870  1.00  0.00     0.031 A 
ATOM     32  C   UNL A   1      39.077  29.025  29.306  1.00  0.00     0.074 A 
ATOM     33  C   UNL A   1      38.072  30.382  31.106  1.00  0.00     0.049 A 
ATOM     34  N   UNL A   1      40.176  28.613  29.888  1.00  0.00    -0.248 NA
ATOM     35  C   UNL A   1      38.949  28.609  27.901  1.00  0.00     0.031 C 
ATOM     36  C   UNL A   1      37.092  31.273  31.729  1.00  0.00     0.029 A 
ATOM     37  N   UNL A   1      39.070  30.276  32.043  1.00  0.00    -0.354 N 
ATOM     38  C   UNL A   1      40.855  27.873  28.930  1.00  0.00     0.074 A 
ATOM     39  C   UNL A   1      40.043  27.878  27.734  1.00  0.00     0.031 C 
ATOM     40  C   UNL A   1      37.560  31.672  32.924  1.00  0.00     0.029 A 
ATOM     41  C   UNL A   1      38.839  31.014  33.180  1.00  0.00     0.049 A 
ATOM     42  H   UNL A   1      39.875  29.725  31.914  1.00  0.00     0.167 HD
ATOM     43  C   UNL A   1      42.052  27.251  29.042  1.00  0.00     0.037 A 
ATOM     44  C   UNL A   1      39.565  31.134  34.307  1.00  0.00     0.037 A 
ATOM     45  C   UNL A   1      42.875  27.278  30.223  1.00  0.00     0.049 A 
ATOM     46  C   UNL A   1      40.856  30.372  34.433  1.00  0.00     0.074 A 
ATOM     47  C   UNL A   1      44.097  26.665  30.435  1.00  0.00     0.029 A 
ATOM     48  N   UNL A   1      42.561  27.964  31.388  1.00  0.00    -0.354 N 
ATOM     49  N   UNL A   1      41.465  29.632  33.540  1.00  0.00    -0.248 NA
ATOM     50  C   UNL A   1      41.550  30.442  35.727  1.00  0.00     0.031 C 
ATOM     51  C   UNL A   1      44.507  26.949  31.740  1.00  0.00     0.029 A 
ATOM     52  C   UNL A   1      43.562  27.773  32.328  1.00  0.00     0.049 A 
ATOM     53  H   UNL A   1      41.751  28.506  31.526  1.00  0.00     0.167 HD
ATOM     54  C   UNL A   1      42.615  29.158  34.155  1.00  0.00     0.074 A 
ATOM     55  C   UNL A   1      42.630  29.706  35.495  1.00  0.00     0.031 C 
ATOM     56  C   UNL A   1      43.568  28.337  33.654  1.00  0.00     0.037 A 
BRANCH  43  57
ATOM     57  C   UNL A   1      42.545  26.465  27.866  1.00  0.00     0.064 A 
ATOM     58  C   UNL A   1      42.136  25.143  27.639  1.00  0.00     0.173 A 
ATOM     59  C   UNL A   1      43.387  27.066  26.917  1.00  0.00     0.173 A 
ATOM     60  F   UNL A   1      41.339  24.523  28.522  1.00  0.00    -0.203 F 
ATOM     61  C   UNL A   1      42.561  24.448  26.510  1.00  0.00     0.198 A 
ATOM     62  C   UNL A   1      43.791  26.375  25.777  1.00  0.00     0.198 A 
ATOM     63  F   UNL A   1      43.801  28.331  27.085  1.00  0.00    -0.203 F 
ATOM     64  F   UNL A   1      42.180  23.176  26.326  1.00  0.00    -0.200 F 
ATOM     65  C   UNL A   1      43.380  25.067  25.577  1.00  0.00     0.200 A 
ATOM     66  F   UNL A   1      44.569  26.980  24.870  1.00  0.00    -0.200 F 
ATOM     67  F   UNL A   1      43.774  24.400  24.483  1.00  0.00    -0.200 F 
ENDBRANCH  43  57
BRANCH  44  68
ATOM     68  C   UNL A   1      39.079  32.007  35.409  1.00  0.00     0.064 A 
ATOM     69  C   UNL A   1      38.313  31.483  36.458  1.00  0.00     0.173 A 
ATOM     70  C   UNL A   1      39.392  33.374  35.448  1.00  0.00     0.173 A 
ATOM     71  F   UNL A   1      37.965  30.188  36.452  1.00  0.00    -0.203 F 
ATOM     72  C   UNL A   1      37.879  32.294  37.506  1.00  0.00     0.198 A 
ATOM     73  C   UNL A   1      38.981  34.178  36.509  1.00  0.00     0.198 A 
ATOM     74  F   UNL A   1      40.116  33.926  34.464  1.00  0.00    -0.203 F 
ATOM     75  F   UNL A   1      37.122  31.775  38.483  1.00  0.00    -0.200 F 
ATOM     76  C   UNL A   1      38.221  33.637  37.536  1.00  0.00     0.200 A 
ATOM     77  F   UNL A   1      39.325  35.472  36.539  1.00  0.00    -0.200 F 
ATOM     78  F   UNL A   1      37.816  34.412  38.551  1.00  0.00    -0.200 F 
ENDBRANCH  44  68
BRANCH  56  79
ATOM     79  C   UNL A   1      44.725  27.983  34.538  1.00  0.00     0.064 A 
ATOM     80  C   UNL A   1      45.858  28.804  34.616  1.00  0.00     0.173 A 
ATOM     81  C   UNL A   1      44.648  26.878  35.398  1.00  0.00     0.173 A 
ATOM     82  F   UNL A   1      45.979  29.866  33.804  1.00  0.00    -0.203 F 
ATOM     83  C   UNL A   1      46.873  28.532  35.528  1.00  0.00     0.198 A 
ATOM     84  C   UNL A   1      45.655  26.622  36.325  1.00  0.00     0.198 A 
ATOM     85  F   UNL A   1      43.578  26.069  35.366  1.00  0.00    -0.203 F 
ATOM     86  F   UNL A   1      47.955  29.323  35.579  1.00  0.00    -0.200 F 
ATOM     87  C   UNL A   1      46.766  27.450  36.389  1.00  0.00     0.200 A 
ATOM     88  F   UNL A   1      45.543  25.586  37.166  1.00  0.00    -0.200 F 
ATOM     89  F   UNL A   1      47.732  27.206  37.285  1.00  0.00    -0.200 F 
ENDBRANCH  56  79
ENDBRANCH  30  31
ENDBRANCH  23  25
ENDBRANCH  22  23
ENDBRANCH   1  22
TORSDOF 12
ENDMDL
