MODEL 1
REMARK VINA RESULT:     -11.2      0.000      0.000
REMARK SMILES CCCC[C@H](C(=O)OCCOC(=O)c1ccc(-c2c3nc(c(-c4c(F)c(F)c(F)c(F)c4F)c4ccc([nH]4)c(-c4c(F)c(F)c(F)c(F)c4F)c4nc(c(-c5c(F)c(F)c(F)c(F)c5F)c5ccc2[nH]5)C=C4)C=C3)cc1)[C@H](O)c1ccc(C(F)(F)F)cc1
REMARK SMILES IDX 9 1 8 2 6 3 7 4 5 5 4 6 3 7 2 8 1 9 77 10 79 11 80 12 88 13
REMARK SMILES IDX 81 14 87 15 82 16 83 17 84 18 85 19 86 20 78 21 10 23 11 24
REMARK SMILES IDX 12 25 13 26 14 27 15 28 76 29 16 30 75 31 17 32 18 33 19 34
REMARK SMILES IDX 69 35 20 36 74 37 68 38 70 39 21 40 73 41 67 42 66 43 22 45
REMARK SMILES IDX 54 46 34 47 53 48 35 49 38 50 52 51 71 52 36 53 37 54 51 56
REMARK SMILES IDX 72 57 39 58 23 59 24 60 32 61 25 62 26 63 30 64 33 65 27 66
REMARK SMILES IDX 28 67 31 68 29 69 55 70 56 71 64 72 57 73 58 74 62 75 65 76
REMARK SMILES IDX 59 77 60 78 63 79 61 80 40 81 41 82 49 83 42 84 43 85 47 86
REMARK SMILES IDX 50 87 44 88 45 89 48 90 46 91
REMARK H PARENT 78 22 70 44 38 55
REMARK Flexibility Score: inf
ROOT
ATOM      1  C   UNL A   1      31.991  28.452  24.852  1.00  0.00     0.274 C 
ENDROOT
BRANCH   1   2
ATOM      2  O   UNL A   1      30.897  27.547  25.120  1.00  0.00    -0.462 OA
BRANCH   2   3
ATOM      3  C   UNL A   1      31.244  26.368  25.691  1.00  0.00     0.312 C 
ATOM      4  O   UNL A   1      31.098  26.145  26.887  1.00  0.00    -0.252 OA
BRANCH   3   5
ATOM      5  C   UNL A   1      31.920  25.407  24.712  1.00  0.00     0.132 C 
BRANCH   5   6
ATOM      6  C   UNL A   1      33.293  25.005  25.384  1.00  0.00     0.018 C 
BRANCH   6   7
ATOM      7  C   UNL A   1      34.496  24.787  24.468  1.00  0.00     0.001 C 
BRANCH   7   8
ATOM      8  C   UNL A   1      35.336  23.551  24.786  1.00  0.00    -0.003 C 
ATOM      9  C   UNL A   1      35.878  22.841  23.553  1.00  0.00     0.004 C 
ENDBRANCH   7   8
ENDBRANCH   6   7
ENDBRANCH   5   6
BRANCH   5  10
ATOM     10  C   UNL A   1      31.173  24.087  24.353  1.00  0.00     0.158 C 
BRANCH  10  11
ATOM     11  C   UNL A   1      31.723  22.701  24.050  1.00  0.00    -0.019 A 
ATOM     12  C   UNL A   1      32.009  22.161  22.799  1.00  0.00     0.007 A 
ATOM     13  C   UNL A   1      31.897  21.841  25.162  1.00  0.00     0.007 A 
ATOM     14  C   UNL A   1      32.307  20.796  22.645  1.00  0.00     0.013 A 
ATOM     15  C   UNL A   1      32.244  20.494  25.022  1.00  0.00     0.013 A 
ATOM     16  C   UNL A   1      32.409  19.944  23.752  1.00  0.00     0.056 A 
BRANCH  16  17
ATOM     17  C   UNL A   1      32.626  18.460  23.587  1.00  0.00     0.416 C 
ATOM     18  F   UNL A   1      33.945  18.122  23.606  1.00  0.00    -0.166 F 
ATOM     19  F   UNL A   1      32.033  17.713  24.561  1.00  0.00    -0.166 F 
ATOM     20  F   UNL A   1      32.139  17.981  22.407  1.00  0.00    -0.166 F 
ENDBRANCH  16  17
ENDBRANCH  10  11
BRANCH  10  21
ATOM     21  O   UNL A   1      30.218  23.885  25.417  1.00  0.00    -0.388 OA
ATOM     22  H   UNL A   1      30.521  24.347  26.214  1.00  0.00     0.211 HD
ENDBRANCH  10  21
ENDBRANCH   5  10
ENDBRANCH   3   5
ENDBRANCH   2   3
ENDBRANCH   1   2
BRANCH   1  23
ATOM     23  C   UNL A   1      31.771  29.799  25.551  1.00  0.00     0.275 C 
BRANCH  23  24
ATOM     24  O   UNL A   1      33.037  30.449  25.772  1.00  0.00    -0.458 OA
BRANCH  24  25
ATOM     25  C   UNL A   1      33.125  31.259  26.852  1.00  0.00     0.338 C 
ATOM     26  O   UNL A   1      32.336  32.127  27.183  1.00  0.00    -0.246 OA
BRANCH  25  27
ATOM     27  C   UNL A   1      34.377  30.970  27.587  1.00  0.00     0.060 A 
ATOM     28  C   UNL A   1      35.279  31.985  27.911  1.00  0.00     0.016 A 
ATOM     29  C   UNL A   1      34.679  29.650  27.924  1.00  0.00     0.016 A 
ATOM     30  C   UNL A   1      36.481  31.694  28.553  1.00  0.00     0.010 A 
ATOM     31  C   UNL A   1      35.856  29.362  28.626  1.00  0.00     0.010 A 
ATOM     32  C   UNL A   1      36.768  30.382  28.945  1.00  0.00    -0.014 A 
BRANCH  32  33
ATOM     33  C   UNL A   1      38.000  30.094  29.722  1.00  0.00     0.031 A 
ATOM     34  C   UNL A   1      39.084  29.229  29.148  1.00  0.00     0.074 A 
ATOM     35  C   UNL A   1      38.139  30.620  30.955  1.00  0.00     0.049 A 
ATOM     36  N   UNL A   1      40.180  28.789  29.716  1.00  0.00    -0.248 NA
ATOM     37  C   UNL A   1      38.913  28.792  27.754  1.00  0.00     0.031 C 
ATOM     38  C   UNL A   1      37.163  31.491  31.612  1.00  0.00     0.029 A 
ATOM     39  N   UNL A   1      39.153  30.505  31.871  1.00  0.00    -0.354 N 
ATOM     40  C   UNL A   1      40.809  27.998  28.765  1.00  0.00     0.074 A 
ATOM     41  C   UNL A   1      39.974  28.015  27.583  1.00  0.00     0.031 C 
ATOM     42  C   UNL A   1      37.639  31.856  32.812  1.00  0.00     0.029 A 
ATOM     43  C   UNL A   1      38.922  31.197  33.035  1.00  0.00     0.049 A 
ATOM     44  H   UNL A   1      39.969  29.978  31.710  1.00  0.00     0.167 HD
ATOM     45  C   UNL A   1      41.975  27.317  28.877  1.00  0.00     0.037 A 
ATOM     46  C   UNL A   1      39.648  31.274  34.166  1.00  0.00     0.037 A 
ATOM     47  C   UNL A   1      42.815  27.326  30.047  1.00  0.00     0.049 A 
ATOM     48  C   UNL A   1      40.934  30.507  34.261  1.00  0.00     0.074 A 
ATOM     49  C   UNL A   1      44.021  26.676  30.252  1.00  0.00     0.029 A 
ATOM     50  N   UNL A   1      42.539  28.027  31.212  1.00  0.00    -0.354 N 
ATOM     51  N   UNL A   1      41.504  29.737  33.367  1.00  0.00    -0.248 NA
ATOM     52  C   UNL A   1      41.670  30.606  35.528  1.00  0.00     0.031 C 
ATOM     53  C   UNL A   1      44.457  26.958  31.552  1.00  0.00     0.029 A 
ATOM     54  C   UNL A   1      43.544  27.815  32.144  1.00  0.00     0.049 A 
ATOM     55  H   UNL A   1      41.745  28.592  31.356  1.00  0.00     0.167 HD
ATOM     56  C   UNL A   1      42.664  29.260  33.959  1.00  0.00     0.074 A 
ATOM     57  C   UNL A   1      42.732  29.851  35.281  1.00  0.00     0.031 C 
ATOM     58  C   UNL A   1      43.584  28.401  33.459  1.00  0.00     0.037 A 
BRANCH  45  59
ATOM     59  C   UNL A   1      42.401  26.474  27.710  1.00  0.00     0.064 A 
ATOM     60  C   UNL A   1      43.313  26.943  26.753  1.00  0.00     0.173 A 
ATOM     61  C   UNL A   1      41.922  25.163  27.573  1.00  0.00     0.173 A 
ATOM     62  F   UNL A   1      43.790  28.194  26.830  1.00  0.00    -0.203 F 
ATOM     63  C   UNL A   1      43.716  26.133  25.693  1.00  0.00     0.198 A 
ATOM     64  C   UNL A   1      42.345  24.349  26.526  1.00  0.00     0.198 A 
ATOM     65  F   UNL A   1      41.050  24.666  28.465  1.00  0.00    -0.203 F 
ATOM     66  F   UNL A   1      44.562  26.613  24.770  1.00  0.00    -0.200 F 
ATOM     67  C   UNL A   1      43.238  24.836  25.584  1.00  0.00     0.200 A 
ATOM     68  F   UNL A   1      41.888  23.092  26.429  1.00  0.00    -0.200 F 
ATOM     69  F   UNL A   1      43.633  24.056  24.568  1.00  0.00    -0.200 F 
ENDBRANCH  45  59
BRANCH  46  70
ATOM     70  C   UNL A   1      39.158  32.102  35.297  1.00  0.00     0.064 A 
ATOM     71  C   UNL A   1      38.409  31.532  36.334  1.00  0.00     0.173 A 
ATOM     72  C   UNL A   1      39.456  33.470  35.381  1.00  0.00     0.173 A 
ATOM     73  F   UNL A   1      38.076  30.233  36.285  1.00  0.00    -0.203 F 
ATOM     74  C   UNL A   1      37.976  32.300  37.413  1.00  0.00     0.198 A 
ATOM     75  C   UNL A   1      39.047  34.231  36.473  1.00  0.00     0.198 A 
ATOM     76  F   UNL A   1      40.171  34.063  34.412  1.00  0.00    -0.203 F 
ATOM     77  F   UNL A   1      37.235  31.738  38.378  1.00  0.00    -0.200 F 
ATOM     78  C   UNL A   1      38.303  33.646  37.486  1.00  0.00     0.200 A 
ATOM     79  F   UNL A   1      39.378  35.527  36.547  1.00  0.00    -0.200 F 
ATOM     80  F   UNL A   1      37.900  34.379  38.534  1.00  0.00    -0.200 F 
ENDBRANCH  46  70
BRANCH  58  81
ATOM     81  C   UNL A   1      44.739  28.056  34.351  1.00  0.00     0.064 A 
ATOM     82  C   UNL A   1      44.686  26.956  35.219  1.00  0.00     0.173 A 
ATOM     83  C   UNL A   1      45.909  28.829  34.334  1.00  0.00     0.173 A 
ATOM     84  F   UNL A   1      43.580  26.198  35.281  1.00  0.00    -0.203 F 
ATOM     85  C   UNL A   1      45.754  26.660  36.061  1.00  0.00     0.198 A 
ATOM     86  C   UNL A   1      46.983  28.516  35.162  1.00  0.00     0.198 A 
ATOM     87  F   UNL A   1      46.008  29.890  33.518  1.00  0.00    -0.203 F 
ATOM     88  F   UNL A   1      45.663  25.634  36.920  1.00  0.00    -0.200 F 
ATOM     89  C   UNL A   1      46.901  27.437  36.030  1.00  0.00     0.200 A 
ATOM     90  F   UNL A   1      48.094  29.264  35.127  1.00  0.00    -0.200 F 
ATOM     91  F   UNL A   1      47.925  27.155  36.846  1.00  0.00    -0.200 F 
ENDBRANCH  58  81
ENDBRANCH  32  33
ENDBRANCH  25  27
ENDBRANCH  24  25
ENDBRANCH  23  24
ENDBRANCH   1  23
TORSDOF 18
ENDMDL
MODEL 2
REMARK VINA RESULT:     -11.0      0.567      1.343
REMARK SMILES CCCC[C@H](C(=O)OCCOC(=O)c1ccc(-c2c3nc(c(-c4c(F)c(F)c(F)c(F)c4F)c4ccc([nH]4)c(-c4c(F)c(F)c(F)c(F)c4F)c4nc(c(-c5c(F)c(F)c(F)c(F)c5F)c5ccc2[nH]5)C=C4)C=C3)cc1)[C@H](O)c1ccc(C(F)(F)F)cc1
REMARK SMILES IDX 9 1 8 2 6 3 7 4 5 5 4 6 3 7 2 8 1 9 77 10 79 11 80 12 88 13
REMARK SMILES IDX 81 14 87 15 82 16 83 17 84 18 85 19 86 20 78 21 10 23 11 24
REMARK SMILES IDX 12 25 13 26 14 27 15 28 76 29 16 30 75 31 17 32 18 33 19 34
REMARK SMILES IDX 69 35 20 36 74 37 68 38 70 39 21 40 73 41 67 42 66 43 22 45
REMARK SMILES IDX 54 46 34 47 53 48 35 49 38 50 52 51 71 52 36 53 37 54 51 56
REMARK SMILES IDX 72 57 39 58 23 59 24 60 32 61 25 62 26 63 30 64 33 65 27 66
REMARK SMILES IDX 28 67 31 68 29 69 55 70 56 71 64 72 57 73 58 74 62 75 65 76
REMARK SMILES IDX 59 77 60 78 63 79 61 80 40 81 41 82 49 83 42 84 43 85 47 86
REMARK SMILES IDX 50 87 44 88 45 89 48 90 46 91
REMARK H PARENT 78 22 70 44 38 55
REMARK Flexibility Score: inf
ROOT
ATOM      1  C   UNL A   1      31.673  28.597  26.592  1.00  0.00     0.274 C 
ENDROOT
BRANCH   1   2
ATOM      2  O   UNL A   1      32.269  27.466  25.918  1.00  0.00    -0.462 OA
BRANCH   2   3
ATOM      3  C   UNL A   1      31.596  26.296  26.040  1.00  0.00     0.312 C 
ATOM      4  O   UNL A   1      30.611  26.173  26.760  1.00  0.00    -0.252 OA
BRANCH   3   5
ATOM      5  C   UNL A   1      32.252  25.147  25.274  1.00  0.00     0.132 C 
BRANCH   5   6
ATOM      6  C   UNL A   1      33.796  25.241  25.598  1.00  0.00     0.018 C 
BRANCH   6   7
ATOM      7  C   UNL A   1      34.778  24.798  24.515  1.00  0.00     0.001 C 
BRANCH   7   8
ATOM      8  C   UNL A   1      35.742  23.688  24.929  1.00  0.00    -0.003 C 
ATOM      9  C   UNL A   1      36.029  22.679  23.826  1.00  0.00     0.004 C 
ENDBRANCH   7   8
ENDBRANCH   6   7
ENDBRANCH   5   6
BRANCH   5  10
ATOM     10  C   UNL A   1      31.794  23.695  25.604  1.00  0.00     0.158 C 
BRANCH  10  11
ATOM     11  C   UNL A   1      32.308  22.361  25.082  1.00  0.00    -0.019 A 
ATOM     12  C   UNL A   1      32.200  21.863  23.786  1.00  0.00     0.007 A 
ATOM     13  C   UNL A   1      32.903  21.503  26.039  1.00  0.00     0.007 A 
ATOM     14  C   UNL A   1      32.527  20.529  23.488  1.00  0.00     0.013 A 
ATOM     15  C   UNL A   1      33.279  20.190  25.739  1.00  0.00     0.013 A 
ATOM     16  C   UNL A   1      33.051  19.672  24.465  1.00  0.00     0.056 A 
BRANCH  16  17
ATOM     17  C   UNL A   1      33.305  18.213  24.179  1.00  0.00     0.416 C 
ATOM     18  F   UNL A   1      32.571  17.753  23.129  1.00  0.00    -0.166 F 
ATOM     19  F   UNL A   1      34.605  17.937  23.877  1.00  0.00    -0.166 F 
ATOM     20  F   UNL A   1      32.990  17.405  25.231  1.00  0.00    -0.166 F 
ENDBRANCH  16  17
ENDBRANCH  10  11
BRANCH  10  21
ATOM     21  O   UNL A   1      31.870  23.586  27.042  1.00  0.00    -0.388 OA
ATOM     22  H   UNL A   1      30.999  23.770  27.427  1.00  0.00     0.211 HD
ENDBRANCH  10  21
ENDBRANCH   5  10
ENDBRANCH   3   5
ENDBRANCH   2   3
ENDBRANCH   1   2
BRANCH   1  23
ATOM     23  C   UNL A   1      31.791  29.866  25.741  1.00  0.00     0.275 C 
BRANCH  23  24
ATOM     24  O   UNL A   1      33.096  30.451  25.911  1.00  0.00    -0.458 OA
BRANCH  24  25
ATOM     25  C   UNL A   1      33.249  31.307  26.947  1.00  0.00     0.338 C 
ATOM     26  O   UNL A   1      32.519  32.236  27.244  1.00  0.00    -0.246 OA
BRANCH  25  27
ATOM     27  C   UNL A   1      34.494  30.981  27.679  1.00  0.00     0.060 A 
ATOM     28  C   UNL A   1      35.427  31.968  28.001  1.00  0.00     0.016 A 
ATOM     29  C   UNL A   1      34.757  29.652  28.015  1.00  0.00     0.016 A 
ATOM     30  C   UNL A   1      36.621  31.641  28.640  1.00  0.00     0.010 A 
ATOM     31  C   UNL A   1      35.926  29.329  28.715  1.00  0.00     0.010 A 
ATOM     32  C   UNL A   1      36.869  30.321  29.032  1.00  0.00    -0.014 A 
BRANCH  32  33
ATOM     33  C   UNL A   1      38.094  29.996  29.805  1.00  0.00     0.031 A 
ATOM     34  C   UNL A   1      39.157  29.111  29.223  1.00  0.00     0.074 A 
ATOM     35  C   UNL A   1      38.245  30.506  31.044  1.00  0.00     0.049 A 
ATOM     36  N   UNL A   1      40.242  28.640  29.787  1.00  0.00    -0.248 NA
ATOM     37  C   UNL A   1      38.976  28.693  27.825  1.00  0.00     0.031 C 
ATOM     38  C   UNL A   1      37.290  31.393  31.710  1.00  0.00     0.029 A 
ATOM     39  N   UNL A   1      39.256  30.358  31.959  1.00  0.00    -0.354 N 
ATOM     40  C   UNL A   1      40.853  27.844  28.828  1.00  0.00     0.074 A 
ATOM     41  C   UNL A   1      40.018  27.893  27.645  1.00  0.00     0.031 C 
ATOM     42  C   UNL A   1      37.774  31.735  32.913  1.00  0.00     0.029 A 
ATOM     43  C   UNL A   1      39.041  31.044  33.129  1.00  0.00     0.049 A 
ATOM     44  H   UNL A   1      40.059  29.813  31.793  1.00  0.00     0.167 HD
ATOM     45  C   UNL A   1      42.003  27.134  28.932  1.00  0.00     0.037 A 
ATOM     46  C   UNL A   1      39.768  31.092  34.261  1.00  0.00     0.037 A 
ATOM     47  C   UNL A   1      42.842  27.112  30.103  1.00  0.00     0.049 A 
ATOM     48  C   UNL A   1      41.035  30.293  34.349  1.00  0.00     0.074 A 
ATOM     49  C   UNL A   1      44.033  26.431  30.301  1.00  0.00     0.029 A 
ATOM     50  N   UNL A   1      42.582  27.807  31.275  1.00  0.00    -0.354 N 
ATOM     51  N   UNL A   1      41.588  29.520  33.447  1.00  0.00    -0.248 NA
ATOM     52  C   UNL A   1      41.773  30.363  35.617  1.00  0.00     0.031 C 
ATOM     53  C   UNL A   1      44.474  26.690  31.604  1.00  0.00     0.029 A 
ATOM     54  C   UNL A   1      43.582  27.562  32.204  1.00  0.00     0.049 A 
ATOM     55  H   UNL A   1      41.802  28.389  31.424  1.00  0.00     0.167 HD
ATOM     56  C   UNL A   1      42.735  29.009  34.035  1.00  0.00     0.074 A 
ATOM     57  C   UNL A   1      42.817  29.586  35.362  1.00  0.00     0.031 C 
ATOM     58  C   UNL A   1      43.635  28.134  33.526  1.00  0.00     0.037 A 
BRANCH  45  59
ATOM     59  C   UNL A   1      42.409  26.294  27.757  1.00  0.00     0.064 A 
ATOM     60  C   UNL A   1      43.366  26.732  26.831  1.00  0.00     0.173 A 
ATOM     61  C   UNL A   1      41.863  25.013  27.582  1.00  0.00     0.173 A 
ATOM     62  F   UNL A   1      43.908  27.953  26.945  1.00  0.00    -0.203 F 
ATOM     63  C   UNL A   1      43.749  25.923  25.762  1.00  0.00     0.198 A 
ATOM     64  C   UNL A   1      42.265  24.199  26.527  1.00  0.00     0.198 A 
ATOM     65  F   UNL A   1      40.946  24.546  28.444  1.00  0.00    -0.203 F 
ATOM     66  F   UNL A   1      44.640  26.375  24.868  1.00  0.00    -0.200 F 
ATOM     67  C   UNL A   1      43.204  24.656  25.615  1.00  0.00     0.200 A 
ATOM     68  F   UNL A   1      41.744  22.971  26.393  1.00  0.00    -0.200 F 
ATOM     69  F   UNL A   1      43.580  23.877  24.591  1.00  0.00    -0.200 F 
ENDBRANCH  45  59
BRANCH  46  70
ATOM     70  C   UNL A   1      39.297  31.920  35.400  1.00  0.00     0.064 A 
ATOM     71  C   UNL A   1      39.620  33.280  35.483  1.00  0.00     0.173 A 
ATOM     72  C   UNL A   1      38.488  31.377  36.410  1.00  0.00     0.173 A 
ATOM     73  F   UNL A   1      40.412  33.839  34.556  1.00  0.00    -0.203 F 
ATOM     74  C   UNL A   1      39.153  34.067  36.534  1.00  0.00     0.198 A 
ATOM     75  C   UNL A   1      37.999  32.170  37.445  1.00  0.00     0.198 A 
ATOM     76  F   UNL A   1      38.152  30.078  36.376  1.00  0.00    -0.203 F 
ATOM     77  F   UNL A   1      39.501  35.359  36.607  1.00  0.00    -0.200 F 
ATOM     78  C   UNL A   1      38.335  33.513  37.509  1.00  0.00     0.200 A 
ATOM     79  F   UNL A   1      37.198  31.635  38.376  1.00  0.00    -0.200 F 
ATOM     80  F   UNL A   1      37.873  34.275  38.510  1.00  0.00    -0.200 F 
ENDBRANCH  46  70
BRANCH  58  81
ATOM     81  C   UNL A   1      44.781  27.753  34.414  1.00  0.00     0.064 A 
ATOM     82  C   UNL A   1      44.708  26.636  35.259  1.00  0.00     0.173 A 
ATOM     83  C   UNL A   1      45.963  28.508  34.417  1.00  0.00     0.173 A 
ATOM     84  F   UNL A   1      43.590  25.894  35.302  1.00  0.00    -0.203 F 
ATOM     85  C   UNL A   1      45.768  26.306  36.099  1.00  0.00     0.198 A 
ATOM     86  C   UNL A   1      47.029  28.161  35.241  1.00  0.00     0.198 A 
ATOM     87  F   UNL A   1      46.082  29.583  33.623  1.00  0.00    -0.203 F 
ATOM     88  F   UNL A   1      45.658  25.264  36.935  1.00  0.00    -0.200 F 
ATOM     89  C   UNL A   1      46.928  27.066  36.087  1.00  0.00     0.200 A 
ATOM     90  F   UNL A   1      48.153  28.892  35.226  1.00  0.00    -0.200 F 
ATOM     91  F   UNL A   1      47.944  26.751  36.901  1.00  0.00    -0.200 F 
ENDBRANCH  58  81
ENDBRANCH  32  33
ENDBRANCH  25  27
ENDBRANCH  24  25
ENDBRANCH  23  24
ENDBRANCH   1  23
TORSDOF 18
ENDMDL
MODEL 3
REMARK VINA RESULT:     -10.9      4.771     10.731
REMARK SMILES CCCC[C@H](C(=O)OCCOC(=O)c1ccc(-c2c3nc(c(-c4c(F)c(F)c(F)c(F)c4F)c4ccc([nH]4)c(-c4c(F)c(F)c(F)c(F)c4F)c4nc(c(-c5c(F)c(F)c(F)c(F)c5F)c5ccc2[nH]5)C=C4)C=C3)cc1)[C@H](O)c1ccc(C(F)(F)F)cc1
REMARK SMILES IDX 9 1 8 2 6 3 7 4 5 5 4 6 3 7 2 8 1 9 77 10 79 11 80 12 88 13
REMARK SMILES IDX 81 14 87 15 82 16 83 17 84 18 85 19 86 20 78 21 10 23 11 24
REMARK SMILES IDX 12 25 13 26 14 27 15 28 76 29 16 30 75 31 17 32 18 33 19 34
REMARK SMILES IDX 69 35 20 36 74 37 68 38 70 39 21 40 73 41 67 42 66 43 22 45
REMARK SMILES IDX 54 46 34 47 53 48 35 49 38 50 52 51 71 52 36 53 37 54 51 56
REMARK SMILES IDX 72 57 39 58 23 59 24 60 32 61 25 62 26 63 30 64 33 65 27 66
REMARK SMILES IDX 28 67 31 68 29 69 55 70 56 71 64 72 57 73 58 74 62 75 65 76
REMARK SMILES IDX 59 77 60 78 63 79 61 80 40 81 41 82 49 83 42 84 43 85 47 86
REMARK SMILES IDX 50 87 44 88 45 89 48 90 46 91
REMARK H PARENT 78 22 70 44 38 55
REMARK Flexibility Score: inf
ROOT
ATOM      1  C   UNL A   1      34.711  33.121  29.650  1.00  0.00     0.274 C 
ENDROOT
BRANCH   1   2
ATOM      2  O   UNL A   1      35.184  32.183  30.643  1.00  0.00    -0.462 OA
BRANCH   2   3
ATOM      3  C   UNL A   1      34.966  32.542  31.931  1.00  0.00     0.312 C 
ATOM      4  O   UNL A   1      33.844  32.760  32.376  1.00  0.00    -0.252 OA
BRANCH   3   5
ATOM      5  C   UNL A   1      36.259  32.739  32.724  1.00  0.00     0.132 C 
BRANCH   5   6
ATOM      6  C   UNL A   1      37.220  31.567  32.275  1.00  0.00     0.018 C 
BRANCH   6   7
ATOM      7  C   UNL A   1      37.280  30.320  33.157  1.00  0.00     0.001 C 
BRANCH   7   8
ATOM      8  C   UNL A   1      38.668  29.974  33.693  1.00  0.00    -0.003 C 
ATOM      9  C   UNL A   1      39.287  31.070  34.550  1.00  0.00     0.004 C 
ENDBRANCH   7   8
ENDBRANCH   6   7
ENDBRANCH   5   6
BRANCH   5  10
ATOM     10  C   UNL A   1      37.035  34.077  32.534  1.00  0.00     0.158 C 
BRANCH  10  11
ATOM     11  C   UNL A   1      38.224  34.402  31.641  1.00  0.00    -0.019 A 
ATOM     12  C   UNL A   1      38.221  34.570  30.259  1.00  0.00     0.007 A 
ATOM     13  C   UNL A   1      39.484  34.474  32.282  1.00  0.00     0.007 A 
ATOM     14  C   UNL A   1      39.421  34.655  29.532  1.00  0.00     0.013 A 
ATOM     15  C   UNL A   1      40.681  34.610  31.571  1.00  0.00     0.013 A 
ATOM     16  C   UNL A   1      40.664  34.656  30.178  1.00  0.00     0.056 A 
BRANCH  16  17
ATOM     17  C   UNL A   1      41.957  34.641  29.400  1.00  0.00     0.416 C 
ATOM     18  F   UNL A   1      41.812  35.143  28.143  1.00  0.00    -0.166 F 
ATOM     19  F   UNL A   1      42.950  35.371  29.983  1.00  0.00    -0.166 F 
ATOM     20  F   UNL A   1      42.465  33.386  29.241  1.00  0.00    -0.166 F 
ENDBRANCH  16  17
ENDBRANCH  10  11
BRANCH  10  21
ATOM     21  O   UNL A   1      36.032  35.057  32.190  1.00  0.00    -0.388 OA
ATOM     22  H   UNL A   1      35.665  35.442  33.002  1.00  0.00     0.211 HD
ENDBRANCH  10  21
ENDBRANCH   5  10
ENDBRANCH   3   5
ENDBRANCH   2   3
ENDBRANCH   1   2
BRANCH   1  23
ATOM     23  C   UNL A   1      33.918  32.402  28.553  1.00  0.00     0.275 C 
BRANCH  23  24
ATOM     24  O   UNL A   1      34.822  31.741  27.647  1.00  0.00    -0.458 OA
BRANCH  24  25
ATOM     25  C   UNL A   1      34.868  30.391  27.711  1.00  0.00     0.338 C 
ATOM     26  O   UNL A   1      33.947  29.617  27.523  1.00  0.00    -0.246 OA
BRANCH  25  27
ATOM     27  C   UNL A   1      36.232  29.961  28.097  1.00  0.00     0.060 A 
ATOM     28  C   UNL A   1      37.316  30.125  27.233  1.00  0.00     0.016 A 
ATOM     29  C   UNL A   1      36.425  29.339  29.331  1.00  0.00     0.016 A 
ATOM     30  C   UNL A   1      38.584  29.665  27.584  1.00  0.00     0.010 A 
ATOM     31  C   UNL A   1      37.710  28.933  29.713  1.00  0.00     0.010 A 
ATOM     32  C   UNL A   1      38.800  29.091  28.841  1.00  0.00    -0.014 A 
BRANCH  32  33
ATOM     33  C   UNL A   1      40.173  28.699  29.250  1.00  0.00     0.031 A 
ATOM     34  C   UNL A   1      40.981  29.573  30.163  1.00  0.00     0.074 A 
ATOM     35  C   UNL A   1      40.690  27.542  28.791  1.00  0.00     0.049 A 
ATOM     36  N   UNL A   1      42.227  29.442  30.545  1.00  0.00    -0.248 NA
ATOM     37  C   UNL A   1      40.303  30.756  30.716  1.00  0.00     0.031 C 
ATOM     38  C   UNL A   1      39.995  26.599  27.914  1.00  0.00     0.029 A 
ATOM     39  N   UNL A   1      41.914  26.960  29.001  1.00  0.00    -0.354 N 
ATOM     40  C   UNL A   1      42.494  30.540  31.351  1.00  0.00     0.074 A 
ATOM     41  C   UNL A   1      41.281  31.330  31.404  1.00  0.00     0.031 C 
ATOM     42  C   UNL A   1      40.790  25.543  27.686  1.00  0.00     0.029 A 
ATOM     43  C   UNL A   1      42.072  25.763  28.348  1.00  0.00     0.049 A 
ATOM     44  H   UNL A   1      42.613  27.362  29.567  1.00  0.00     0.167 HD
ATOM     45  C   UNL A   1      43.650  30.859  31.983  1.00  0.00     0.037 A 
ATOM     46  C   UNL A   1      43.137  24.943  28.269  1.00  0.00     0.037 A 
ATOM     47  C   UNL A   1      44.845  30.055  31.948  1.00  0.00     0.049 A 
ATOM     48  C   UNL A   1      44.405  25.322  28.976  1.00  0.00     0.074 A 
ATOM     49  C   UNL A   1      46.064  30.288  32.565  1.00  0.00     0.029 A 
ATOM     50  N   UNL A   1      44.970  28.855  31.262  1.00  0.00    -0.354 N 
ATOM     51  N   UNL A   1      44.656  26.379  29.710  1.00  0.00    -0.248 NA
ATOM     52  C   UNL A   1      45.542  24.404  28.832  1.00  0.00     0.031 C 
ATOM     53  C   UNL A   1      46.934  29.246  32.224  1.00  0.00     0.029 A 
ATOM     54  C   UNL A   1      46.248  28.344  31.429  1.00  0.00     0.049 A 
ATOM     55  H   UNL A   1      44.256  28.430  30.733  1.00  0.00     0.167 HD
ATOM     56  C   UNL A   1      45.976  26.255  30.116  1.00  0.00     0.074 A 
ATOM     57  C   UNL A   1      46.466  25.004  29.571  1.00  0.00     0.031 C 
ATOM     58  C   UNL A   1      46.720  27.105  30.864  1.00  0.00     0.037 A 
BRANCH  45  59
ATOM     59  C   UNL A   1      43.692  32.151  32.744  1.00  0.00     0.064 A 
ATOM     60  C   UNL A   1      43.220  32.250  34.060  1.00  0.00     0.173 A 
ATOM     61  C   UNL A   1      44.254  33.297  32.160  1.00  0.00     0.173 A 
ATOM     62  F   UNL A   1      42.661  31.188  34.659  1.00  0.00    -0.203 F 
ATOM     63  C   UNL A   1      43.295  33.454  34.759  1.00  0.00     0.198 A 
ATOM     64  C   UNL A   1      44.348  34.492  32.868  1.00  0.00     0.198 A 
ATOM     65  F   UNL A   1      44.724  33.253  30.903  1.00  0.00    -0.203 F 
ATOM     66  F   UNL A   1      42.806  33.535  36.004  1.00  0.00    -0.200 F 
ATOM     67  C   UNL A   1      43.864  34.571  34.165  1.00  0.00     0.200 A 
ATOM     68  F   UNL A   1      44.908  35.567  32.296  1.00  0.00    -0.200 F 
ATOM     69  F   UNL A   1      43.942  35.726  34.841  1.00  0.00    -0.200 F 
ENDBRANCH  45  59
BRANCH  46  70
ATOM     70  C   UNL A   1      43.042  23.691  27.475  1.00  0.00     0.064 A 
ATOM     71  C   UNL A   1      42.522  22.519  28.039  1.00  0.00     0.173 A 
ATOM     72  C   UNL A   1      43.436  23.650  26.129  1.00  0.00     0.173 A 
ATOM     73  F   UNL A   1      42.156  22.502  29.330  1.00  0.00    -0.203 F 
ATOM     74  C   UNL A   1      42.401  21.352  27.287  1.00  0.00     0.198 A 
ATOM     75  C   UNL A   1      43.289  22.492  25.371  1.00  0.00     0.198 A 
ATOM     76  F   UNL A   1      43.940  24.747  25.543  1.00  0.00    -0.203 F 
ATOM     77  F   UNL A   1      41.929  20.236  27.858  1.00  0.00    -0.200 F 
ATOM     78  C   UNL A   1      42.776  21.343  25.952  1.00  0.00     0.200 A 
ATOM     79  F   UNL A   1      43.638  22.491  24.078  1.00  0.00    -0.200 F 
ATOM     80  F   UNL A   1      42.644  20.224  25.225  1.00  0.00    -0.200 F 
ENDBRANCH  46  70
BRANCH  58  81
ATOM     81  C   UNL A   1      48.139  26.702  31.130  1.00  0.00     0.064 A 
ATOM     82  C   UNL A   1      49.186  27.134  30.303  1.00  0.00     0.173 A 
ATOM     83  C   UNL A   1      48.455  25.883  32.224  1.00  0.00     0.173 A 
ATOM     84  F   UNL A   1      48.929  27.905  29.236  1.00  0.00    -0.203 F 
ATOM     85  C   UNL A   1      50.497  26.733  30.545  1.00  0.00     0.198 A 
ATOM     86  C   UNL A   1      49.770  25.503  32.474  1.00  0.00     0.198 A 
ATOM     87  F   UNL A   1      47.487  25.447  33.045  1.00  0.00    -0.203 F 
ATOM     88  F   UNL A   1      51.476  27.115  29.712  1.00  0.00    -0.200 F 
ATOM     89  C   UNL A   1      50.788  25.922  31.630  1.00  0.00     0.200 A 
ATOM     90  F   UNL A   1      50.052  24.723  33.528  1.00  0.00    -0.200 F 
ATOM     91  F   UNL A   1      52.050  25.531  31.857  1.00  0.00    -0.200 F 
ENDBRANCH  58  81
ENDBRANCH  32  33
ENDBRANCH  25  27
ENDBRANCH  24  25
ENDBRANCH  23  24
ENDBRANCH   1  23
TORSDOF 18
ENDMDL
