MODEL 1
REMARK VINA RESULT:     -12.8      0.000      0.000
REMARK SMILES C[C@@H](C(=O)OCCOC(=O)c1ccc(-c2c3nc(c(-c4c(F)c(F)c(F)c(F)c4F)c4ccc([nH]4)c(-c4c(F)c(F)c(F)c(F)c4F)c4nc(c(-c5c(F)c(F)c(F)c(F)c5F)c5ccc2[nH]5)C=C4)C=C3)cc1)c1ccc(-c2cccc(OC(=O)NC3CC3)c2)c(F)c1
REMARK SMILES IDX 5 1 3 2 4 3 2 4 1 5 74 6 75 7 93 8 76 9 91 10 77 11 92 12
REMARK SMILES IDX 78 13 79 14 90 15 80 16 82 17 81 18 83 19 84 20 85 21 86 22
REMARK SMILES IDX 87 24 88 25 89 26 6 27 7 28 8 29 9 30 10 31 11 32 12 33
REMARK SMILES IDX 73 34 13 35 72 36 14 37 15 38 16 39 66 40 17 41 71 42 65 43
REMARK SMILES IDX 67 44 18 45 70 46 64 47 63 48 19 50 51 51 31 52 50 53 32 54
REMARK SMILES IDX 35 55 49 56 68 57 33 58 34 59 48 61 69 62 36 63 20 64 21 65
REMARK SMILES IDX 29 66 22 67 23 68 27 69 30 70 24 71 25 72 28 73 26 74 52 75
REMARK SMILES IDX 53 76 61 77 54 78 55 79 59 80 62 81 56 82 57 83 60 84 58 85
REMARK SMILES IDX 37 86 38 87 46 88 39 89 40 90 44 91 47 92 41 93 42 94 45 95
REMARK SMILES IDX 43 96
REMARK H PARENT 86 23 67 49 35 60
REMARK Flexibility Score: inf
ROOT
ATOM      1  O   UNL A   1      30.718  27.074  25.083  1.00  0.00    -0.462 OA
ENDROOT
BRANCH   1   2
ATOM      2  C   UNL A   1      31.281  26.334  26.075  1.00  0.00     0.313 C 
ATOM      3  O   UNL A   1      31.628  26.802  27.152  1.00  0.00    -0.252 OA
BRANCH   2   4
ATOM      4  C   UNL A   1      31.491  24.862  25.669  1.00  0.00     0.126 C 
ATOM      5  C   UNL A   1      30.477  23.911  26.304  1.00  0.00     0.025 C 
BRANCH   4   6
ATOM      6  C   UNL A   1      32.943  24.496  25.952  1.00  0.00    -0.031 A 
ATOM      7  C   UNL A   1      34.018  25.091  25.282  1.00  0.00     0.005 A 
ATOM      8  C   UNL A   1      33.183  23.362  26.746  1.00  0.00     0.044 A 
ATOM      9  C   UNL A   1      35.272  24.473  25.297  1.00  0.00     0.012 A 
ATOM     10  C   UNL A   1      34.422  22.743  26.730  1.00  0.00     0.131 A 
ATOM     11  C   UNL A   1      35.461  23.237  25.948  1.00  0.00     0.018 A 
ATOM     12  F   UNL A   1      34.583  21.614  27.435  1.00  0.00    -0.206 F 
BRANCH  11  13
ATOM     13  C   UNL A   1      36.691  22.459  25.776  1.00  0.00    -0.012 A 
ATOM     14  C   UNL A   1      36.605  21.254  25.057  1.00  0.00     0.009 A 
ATOM     15  C   UNL A   1      37.934  22.870  26.375  1.00  0.00     0.056 A 
ATOM     16  C   UNL A   1      37.725  20.480  24.891  1.00  0.00     0.004 A 
ATOM     17  C   UNL A   1      39.059  22.080  26.214  1.00  0.00     0.133 A 
ATOM     18  C   UNL A   1      38.923  20.907  25.461  1.00  0.00     0.047 A 
BRANCH  17  19
ATOM     19  O   UNL A   1      40.312  22.234  27.109  1.00  0.00    -0.410 OA
BRANCH  19  20
ATOM     20  C   UNL A   1      41.608  21.773  27.704  1.00  0.00     0.412 C 
ATOM     21  O   UNL A   1      41.982  22.273  28.764  1.00  0.00    -0.224 OA
ATOM     22  N   UNL A   1      42.479  20.819  27.045  1.00  0.00    -0.318 N 
ATOM     23  H   UNL A   1      43.426  21.058  27.162  1.00  0.00     0.167 HD
BRANCH  22  24
ATOM     24  C   UNL A   1      42.328  19.563  26.232  1.00  0.00     0.085 C 
ATOM     25  C   UNL A   1      43.299  18.836  25.294  1.00  0.00     0.027 C 
ATOM     26  C   UNL A   1      43.033  18.276  26.646  1.00  0.00     0.027 C 
ENDBRANCH  22  24
ENDBRANCH  19  20
ENDBRANCH  17  19
ENDBRANCH  11  13
ENDBRANCH   4   6
ENDBRANCH   2   4
ENDBRANCH   1   2
BRANCH   1  27
ATOM     27  C   UNL A   1      31.584  28.074  24.513  1.00  0.00     0.274 C 
BRANCH  27  28
ATOM     28  C   UNL A   1      31.432  29.413  25.234  1.00  0.00     0.275 C 
BRANCH  28  29
ATOM     29  O   UNL A   1      32.693  30.108  25.370  1.00  0.00    -0.458 OA
BRANCH  29  30
ATOM     30  C   UNL A   1      32.899  30.758  26.533  1.00  0.00     0.338 C 
ATOM     31  O   UNL A   1      32.096  31.507  27.110  1.00  0.00    -0.246 OA
BRANCH  30  32
ATOM     32  C   UNL A   1      34.245  30.509  27.083  1.00  0.00     0.060 A 
ATOM     33  C   UNL A   1      34.748  29.215  27.130  1.00  0.00     0.016 A 
ATOM     34  C   UNL A   1      34.954  31.537  27.721  1.00  0.00     0.016 A 
ATOM     35  C   UNL A   1      35.897  28.947  27.893  1.00  0.00     0.010 A 
ATOM     36  C   UNL A   1      36.149  31.265  28.424  1.00  0.00     0.010 A 
ATOM     37  C   UNL A   1      36.624  29.951  28.568  1.00  0.00    -0.014 A 
BRANCH  37  38
ATOM     38  C   UNL A   1      37.812  29.563  29.442  1.00  0.00     0.031 A 
ATOM     39  C   UNL A   1      39.084  29.089  28.843  1.00  0.00     0.074 A 
ATOM     40  C   UNL A   1      37.797  29.732  30.786  1.00  0.00     0.049 A 
ATOM     41  N   UNL A   1      40.141  28.664  29.480  1.00  0.00    -0.248 NA
ATOM     42  C   UNL A   1      39.189  29.028  27.381  1.00  0.00     0.031 C 
ATOM     43  C   UNL A   1      36.582  30.127  31.417  1.00  0.00     0.029 A 
ATOM     44  N   UNL A   1      38.723  29.724  31.842  1.00  0.00    -0.354 N 
ATOM     45  C   UNL A   1      40.983  28.163  28.511  1.00  0.00     0.074 A 
ATOM     46  C   UNL A   1      40.355  28.415  27.230  1.00  0.00     0.031 C 
ATOM     47  C   UNL A   1      36.901  30.584  32.622  1.00  0.00     0.029 A 
ATOM     48  C   UNL A   1      38.285  30.399  33.012  1.00  0.00     0.049 A 
ATOM     49  H   UNL A   1      39.601  29.286  31.777  1.00  0.00     0.167 HD
ATOM     50  C   UNL A   1      42.135  27.486  28.717  1.00  0.00     0.037 A 
ATOM     51  C   UNL A   1      38.978  30.824  34.146  1.00  0.00     0.037 A 
ATOM     52  C   UNL A   1      42.717  27.283  30.020  1.00  0.00     0.049 A 
ATOM     53  C   UNL A   1      40.307  30.130  34.258  1.00  0.00     0.074 A 
ATOM     54  C   UNL A   1      43.790  26.491  30.381  1.00  0.00     0.029 A 
ATOM     55  N   UNL A   1      42.283  27.916  31.179  1.00  0.00    -0.354 N 
ATOM     56  N   UNL A   1      41.005  29.513  33.341  1.00  0.00    -0.248 NA
ATOM     57  C   UNL A   1      40.908  30.130  35.599  1.00  0.00     0.031 C 
ATOM     58  C   UNL A   1      44.002  26.638  31.757  1.00  0.00     0.029 A 
ATOM     59  C   UNL A   1      43.091  27.558  32.245  1.00  0.00     0.049 A 
ATOM     60  H   UNL A   1      41.514  28.529  31.234  1.00  0.00     0.167 HD
ATOM     61  C   UNL A   1      42.086  28.986  34.011  1.00  0.00     0.074 A 
ATOM     62  C   UNL A   1      42.043  29.496  35.367  1.00  0.00     0.031 C 
ATOM     63  C   UNL A   1      42.988  28.080  33.577  1.00  0.00     0.037 A 
BRANCH  50  64
ATOM     64  C   UNL A   1      42.741  26.820  27.528  1.00  0.00     0.064 A 
ATOM     65  C   UNL A   1      42.228  25.633  26.993  1.00  0.00     0.173 A 
ATOM     66  C   UNL A   1      43.888  27.372  26.937  1.00  0.00     0.173 A 
ATOM     67  F   UNL A   1      41.157  25.048  27.550  1.00  0.00    -0.203 F 
ATOM     68  C   UNL A   1      42.855  25.009  25.918  1.00  0.00     0.198 A 
ATOM     69  C   UNL A   1      44.495  26.762  25.846  1.00  0.00     0.198 A 
ATOM     70  F   UNL A   1      44.426  28.501  27.426  1.00  0.00    -0.203 F 
ATOM     71  F   UNL A   1      42.384  23.842  25.456  1.00  0.00    -0.200 F 
ATOM     72  C   UNL A   1      43.984  25.577  25.342  1.00  0.00     0.200 A 
ATOM     73  F   UNL A   1      45.584  27.314  25.292  1.00  0.00    -0.200 F 
ATOM     74  F   UNL A   1      44.588  24.970  24.311  1.00  0.00    -0.200 F 
ENDBRANCH  50  64
BRANCH  51  75
ATOM     75  C   UNL A   1      38.771  31.951  35.297  1.00  0.00     0.064 A 
ATOM     76  C   UNL A   1      38.170  31.542  36.529  1.00  0.00     0.173 A 
ATOM     77  C   UNL A   1      38.911  33.354  35.277  1.00  0.00     0.173 A 
ATOM     78  F   UNL A   1      37.670  30.300  36.642  1.00  0.00    -0.203 F 
ATOM     79  C   UNL A   1      37.974  32.378  37.648  1.00  0.00     0.198 A 
ATOM     80  C   UNL A   1      38.778  34.196  36.403  1.00  0.00     0.198 A 
ATOM     81  F   UNL A   1      39.007  34.048  34.151  1.00  0.00    -0.203 F 
ATOM     82  F   UNL A   1      37.385  31.892  38.750  1.00  0.00    -0.200 F 
ATOM     83  C   UNL A   1      38.329  33.703  37.601  1.00  0.00     0.200 A 
ATOM     84  F   UNL A   1      39.009  35.511  36.270  1.00  0.00    -0.200 F 
ATOM     85  F   UNL A   1      38.128  34.519  38.645  1.00  0.00    -0.200 F 
ENDBRANCH  51  75
BRANCH  63  86
ATOM     86  C   UNL A   1      43.925  27.581  34.622  1.00  0.00     0.064 A 
ATOM     87  C   UNL A   1      45.128  28.256  34.887  1.00  0.00     0.173 A 
ATOM     88  C   UNL A   1      43.654  26.395  35.309  1.00  0.00     0.173 A 
ATOM     89  F   UNL A   1      45.446  29.369  34.206  1.00  0.00    -0.203 F 
ATOM     90  C   UNL A   1      46.040  27.743  35.800  1.00  0.00     0.198 A 
ATOM     91  C   UNL A   1      44.560  25.898  36.238  1.00  0.00     0.198 A 
ATOM     92  F   UNL A   1      42.530  25.708  35.054  1.00  0.00    -0.203 F 
ATOM     93  F   UNL A   1      47.210  28.366  35.999  1.00  0.00    -0.200 F 
ATOM     94  C   UNL A   1      45.751  26.568  36.479  1.00  0.00     0.200 A 
ATOM     95  F   UNL A   1      44.289  24.757  36.886  1.00  0.00    -0.200 F 
ATOM     96  F   UNL A   1      46.635  26.069  37.354  1.00  0.00    -0.200 F 
ENDBRANCH  63  86
ENDBRANCH  37  38
ENDBRANCH  30  32
ENDBRANCH  29  30
ENDBRANCH  28  29
ENDBRANCH  27  28
ENDBRANCH   1  27
TORSDOF 16
ENDMDL
MODEL 2
REMARK VINA RESULT:     -12.6      1.315      2.121
REMARK SMILES C[C@@H](C(=O)OCCOC(=O)c1ccc(-c2c3nc(c(-c4c(F)c(F)c(F)c(F)c4F)c4ccc([nH]4)c(-c4c(F)c(F)c(F)c(F)c4F)c4nc(c(-c5c(F)c(F)c(F)c(F)c5F)c5ccc2[nH]5)C=C4)C=C3)cc1)c1ccc(-c2cccc(OC(=O)NC3CC3)c2)c(F)c1
REMARK SMILES IDX 5 1 3 2 4 3 2 4 1 5 74 6 75 7 93 8 76 9 91 10 77 11 92 12
REMARK SMILES IDX 78 13 79 14 90 15 80 16 82 17 81 18 83 19 84 20 85 21 86 22
REMARK SMILES IDX 87 24 88 25 89 26 6 27 7 28 8 29 9 30 10 31 11 32 12 33
REMARK SMILES IDX 73 34 13 35 72 36 14 37 15 38 16 39 66 40 17 41 71 42 65 43
REMARK SMILES IDX 67 44 18 45 70 46 64 47 63 48 19 50 51 51 31 52 50 53 32 54
REMARK SMILES IDX 35 55 49 56 68 57 33 58 34 59 48 61 69 62 36 63 20 64 21 65
REMARK SMILES IDX 29 66 22 67 23 68 27 69 30 70 24 71 25 72 28 73 26 74 52 75
REMARK SMILES IDX 53 76 61 77 54 78 55 79 59 80 62 81 56 82 57 83 60 84 58 85
REMARK SMILES IDX 37 86 38 87 46 88 39 89 40 90 44 91 47 92 41 93 42 94 45 95
REMARK SMILES IDX 43 96
REMARK H PARENT 86 23 67 49 35 60
REMARK Flexibility Score: inf
ROOT
ATOM      1  O   UNL A   1      31.023  27.832  24.198  1.00  0.00    -0.462 OA
ENDROOT
BRANCH   1   2
ATOM      2  C   UNL A   1      30.480  27.253  23.093  1.00  0.00     0.313 C 
ATOM      3  O   UNL A   1      30.619  27.698  21.961  1.00  0.00    -0.252 OA
BRANCH   2   4
ATOM      4  C   UNL A   1      29.621  26.020  23.434  1.00  0.00     0.126 C 
ATOM      5  C   UNL A   1      28.563  26.299  24.501  1.00  0.00     0.025 C 
BRANCH   4   6
ATOM      6  C   UNL A   1      30.559  24.870  23.780  1.00  0.00    -0.031 A 
ATOM      7  C   UNL A   1      30.784  24.446  25.094  1.00  0.00     0.005 A 
ATOM      8  C   UNL A   1      31.392  24.382  22.759  1.00  0.00     0.044 A 
ATOM      9  C   UNL A   1      31.906  23.667  25.390  1.00  0.00     0.012 A 
ATOM     10  C   UNL A   1      32.516  23.635  23.067  1.00  0.00     0.131 A 
ATOM     11  C   UNL A   1      32.838  23.332  24.387  1.00  0.00     0.018 A 
ATOM     12  F   UNL A   1      33.331  23.262  22.069  1.00  0.00    -0.206 F 
BRANCH  11  13
ATOM     13  C   UNL A   1      34.132  22.727  24.712  1.00  0.00    -0.012 A 
ATOM     14  C   UNL A   1      34.220  21.324  24.687  1.00  0.00     0.009 A 
ATOM     15  C   UNL A   1      35.262  23.527  25.108  1.00  0.00     0.056 A 
ATOM     16  C   UNL A   1      35.404  20.711  25.007  1.00  0.00     0.004 A 
ATOM     17  C   UNL A   1      36.452  22.903  25.441  1.00  0.00     0.133 A 
ATOM     18  C   UNL A   1      36.491  21.505  25.367  1.00  0.00     0.047 A 
BRANCH  17  19
ATOM     19  O   UNL A   1      37.574  23.628  26.222  1.00  0.00    -0.410 OA
BRANCH  19  20
ATOM     20  C   UNL A   1      39.002  23.947  26.544  1.00  0.00     0.412 C 
ATOM     21  O   UNL A   1      39.277  25.072  26.958  1.00  0.00    -0.224 OA
ATOM     22  N   UNL A   1      40.087  23.011  26.315  1.00  0.00    -0.318 N 
ATOM     23  H   UNL A   1      40.890  23.470  25.980  1.00  0.00     0.167 HD
BRANCH  22  24
ATOM     24  C   UNL A   1      40.317  21.532  26.450  1.00  0.00     0.085 C 
ATOM     25  C   UNL A   1      41.582  20.681  26.295  1.00  0.00     0.027 C 
ATOM     26  C   UNL A   1      41.056  20.964  27.657  1.00  0.00     0.027 C 
ENDBRANCH  22  24
ENDBRANCH  19  20
ENDBRANCH  17  19
ENDBRANCH  11  13
ENDBRANCH   4   6
ENDBRANCH   2   4
ENDBRANCH   1   2
BRANCH   1  27
ATOM     27  C   UNL A   1      31.200  29.258  24.104  1.00  0.00     0.274 C 
BRANCH  27  28
ATOM     28  C   UNL A   1      31.470  29.873  25.476  1.00  0.00     0.275 C 
BRANCH  28  29
ATOM     29  O   UNL A   1      32.880  30.109  25.703  1.00  0.00    -0.458 OA
BRANCH  29  30
ATOM     30  C   UNL A   1      33.195  30.920  26.732  1.00  0.00     0.338 C 
ATOM     31  O   UNL A   1      32.494  31.836  27.189  1.00  0.00    -0.246 OA
BRANCH  30  32
ATOM     32  C   UNL A   1      34.530  30.629  27.288  1.00  0.00     0.060 A 
ATOM     33  C   UNL A   1      34.958  29.313  27.413  1.00  0.00     0.016 A 
ATOM     34  C   UNL A   1      35.304  31.651  27.854  1.00  0.00     0.016 A 
ATOM     35  C   UNL A   1      36.097  29.027  28.184  1.00  0.00     0.010 A 
ATOM     36  C   UNL A   1      36.489  31.355  28.564  1.00  0.00     0.010 A 
ATOM     37  C   UNL A   1      36.888  30.027  28.788  1.00  0.00    -0.014 A 
BRANCH  37  38
ATOM     38  C   UNL A   1      38.061  29.625  29.676  1.00  0.00     0.031 A 
ATOM     39  C   UNL A   1      39.338  29.144  29.093  1.00  0.00     0.074 A 
ATOM     40  C   UNL A   1      38.030  29.789  31.021  1.00  0.00     0.049 A 
ATOM     41  N   UNL A   1      40.383  28.707  29.742  1.00  0.00    -0.248 NA
ATOM     42  C   UNL A   1      39.461  29.088  27.632  1.00  0.00     0.031 C 
ATOM     43  C   UNL A   1      36.809  30.192  31.637  1.00  0.00     0.029 A 
ATOM     44  N   UNL A   1      38.941  29.770  32.090  1.00  0.00    -0.354 N 
ATOM     45  C   UNL A   1      41.234  28.204  28.783  1.00  0.00     0.074 A 
ATOM     46  C   UNL A   1      40.625  28.466  27.494  1.00  0.00     0.031 C 
ATOM     47  C   UNL A   1      37.116  30.642  32.848  1.00  0.00     0.029 A 
ATOM     48  C   UNL A   1      38.493  30.444  33.256  1.00  0.00     0.049 A 
ATOM     49  H   UNL A   1      39.816  29.325  32.034  1.00  0.00     0.167 HD
ATOM     50  C   UNL A   1      42.376  27.517  29.002  1.00  0.00     0.037 A 
ATOM     51  C   UNL A   1      39.173  30.858  34.402  1.00  0.00     0.037 A 
ATOM     52  C   UNL A   1      42.939  27.304  30.312  1.00  0.00     0.049 A 
ATOM     53  C   UNL A   1      40.495  30.153  34.528  1.00  0.00     0.074 A 
ATOM     54  C   UNL A   1      44.001  26.501  30.684  1.00  0.00     0.029 A 
ATOM     55  N   UNL A   1      42.495  27.936  31.467  1.00  0.00    -0.354 N 
ATOM     56  N   UNL A   1      41.200  29.534  33.619  1.00  0.00    -0.248 NA
ATOM     57  C   UNL A   1      41.077  30.142  35.877  1.00  0.00     0.031 C 
ATOM     58  C   UNL A   1      44.195  26.642  32.063  1.00  0.00     0.029 A 
ATOM     59  C   UNL A   1      43.285  27.567  32.543  1.00  0.00     0.049 A 
ATOM     60  H   UNL A   1      41.730  28.555  31.514  1.00  0.00     0.167 HD
ATOM     61  C   UNL A   1      42.268  28.996  34.301  1.00  0.00     0.074 A 
ATOM     62  C   UNL A   1      42.211  29.501  35.658  1.00  0.00     0.031 C 
ATOM     63  C   UNL A   1      43.168  28.085  33.875  1.00  0.00     0.037 A 
BRANCH  50  64
ATOM     64  C   UNL A   1      42.993  26.850  27.819  1.00  0.00     0.064 A 
ATOM     65  C   UNL A   1      43.786  27.543  26.897  1.00  0.00     0.173 A 
ATOM     66  C   UNL A   1      42.748  25.487  27.588  1.00  0.00     0.173 A 
ATOM     67  F   UNL A   1      44.014  28.856  27.056  1.00  0.00    -0.203 F 
ATOM     68  C   UNL A   1      44.297  26.900  25.774  1.00  0.00     0.198 A 
ATOM     69  C   UNL A   1      43.283  24.841  26.480  1.00  0.00     0.198 A 
ATOM     70  F   UNL A   1      41.979  24.784  28.435  1.00  0.00    -0.203 F 
ATOM     71  F   UNL A   1      45.006  27.594  24.872  1.00  0.00    -0.200 F 
ATOM     72  C   UNL A   1      44.050  25.550  25.569  1.00  0.00     0.200 A 
ATOM     73  F   UNL A   1      43.043  23.537  26.286  1.00  0.00    -0.200 F 
ATOM     74  F   UNL A   1      44.539  24.935  24.483  1.00  0.00    -0.200 F 
ENDBRANCH  50  64
BRANCH  51  75
ATOM     75  C   UNL A   1      38.960  31.982  35.554  1.00  0.00     0.064 A 
ATOM     76  C   UNL A   1      38.254  31.597  36.737  1.00  0.00     0.173 A 
ATOM     77  C   UNL A   1      39.186  33.374  35.565  1.00  0.00     0.173 A 
ATOM     78  F   UNL A   1      37.673  30.388  36.798  1.00  0.00    -0.203 F 
ATOM     79  C   UNL A   1      38.036  32.431  37.855  1.00  0.00     0.198 A 
ATOM     80  C   UNL A   1      39.031  34.209  36.693  1.00  0.00     0.198 A 
ATOM     81  F   UNL A   1      39.399  34.074  34.459  1.00  0.00    -0.203 F 
ATOM     82  F   UNL A   1      37.347  31.969  38.907  1.00  0.00    -0.200 F 
ATOM     83  C   UNL A   1      38.474  33.731  37.851  1.00  0.00     0.200 A 
ATOM     84  F   UNL A   1      39.350  35.509  36.597  1.00  0.00    -0.200 F 
ATOM     85  F   UNL A   1      38.254  34.545  38.893  1.00  0.00    -0.200 F 
ENDBRANCH  51  75
BRANCH  63  86
ATOM     86  C   UNL A   1      44.088  27.574  34.931  1.00  0.00     0.064 A 
ATOM     87  C   UNL A   1      45.351  28.156  35.124  1.00  0.00     0.173 A 
ATOM     88  C   UNL A   1      43.734  26.463  35.701  1.00  0.00     0.173 A 
ATOM     89  F   UNL A   1      45.745  29.190  34.363  1.00  0.00    -0.203 F 
ATOM     90  C   UNL A   1      46.240  27.624  36.049  1.00  0.00     0.198 A 
ATOM     91  C   UNL A   1      44.618  25.949  36.642  1.00  0.00     0.198 A 
ATOM     92  F   UNL A   1      42.548  25.863  35.518  1.00  0.00    -0.203 F 
ATOM     93  F   UNL A   1      47.464  28.153  36.180  1.00  0.00    -0.200 F 
ATOM     94  C   UNL A   1      45.869  26.526  36.811  1.00  0.00     0.200 A 
ATOM     95  F   UNL A   1      44.267  24.881  37.371  1.00  0.00    -0.200 F 
ATOM     96  F   UNL A   1      46.731  26.009  37.698  1.00  0.00    -0.200 F 
ENDBRANCH  63  86
ENDBRANCH  37  38
ENDBRANCH  30  32
ENDBRANCH  29  30
ENDBRANCH  28  29
ENDBRANCH  27  28
ENDBRANCH   1  27
TORSDOF 16
ENDMDL
MODEL 3
REMARK VINA RESULT:     -12.4      3.875      6.253
REMARK SMILES C[C@@H](C(=O)OCCOC(=O)c1ccc(-c2c3nc(c(-c4c(F)c(F)c(F)c(F)c4F)c4ccc([nH]4)c(-c4c(F)c(F)c(F)c(F)c4F)c4nc(c(-c5c(F)c(F)c(F)c(F)c5F)c5ccc2[nH]5)C=C4)C=C3)cc1)c1ccc(-c2cccc(OC(=O)NC3CC3)c2)c(F)c1
REMARK SMILES IDX 5 1 3 2 4 3 2 4 1 5 74 6 75 7 93 8 76 9 91 10 77 11 92 12
REMARK SMILES IDX 78 13 79 14 90 15 80 16 82 17 81 18 83 19 84 20 85 21 86 22
REMARK SMILES IDX 87 24 88 25 89 26 6 27 7 28 8 29 9 30 10 31 11 32 12 33
REMARK SMILES IDX 73 34 13 35 72 36 14 37 15 38 16 39 66 40 17 41 71 42 65 43
REMARK SMILES IDX 67 44 18 45 70 46 64 47 63 48 19 50 51 51 31 52 50 53 32 54
REMARK SMILES IDX 35 55 49 56 68 57 33 58 34 59 48 61 69 62 36 63 20 64 21 65
REMARK SMILES IDX 29 66 22 67 23 68 27 69 30 70 24 71 25 72 28 73 26 74 52 75
REMARK SMILES IDX 53 76 61 77 54 78 55 79 59 80 62 81 56 82 57 83 60 84 58 85
REMARK SMILES IDX 37 86 38 87 46 88 39 89 40 90 44 91 47 92 41 93 42 94 45 95
REMARK SMILES IDX 43 96
REMARK H PARENT 86 23 67 49 35 60
REMARK Flexibility Score: inf
ROOT
ATOM      1  O   UNL A   1      33.748  33.877  28.711  1.00  0.00    -0.462 OA
ENDROOT
BRANCH   1   2
ATOM      2  C   UNL A   1      34.673  33.056  28.145  1.00  0.00     0.313 C 
ATOM      3  O   UNL A   1      35.518  33.442  27.346  1.00  0.00    -0.252 OA
BRANCH   2   4
ATOM      4  C   UNL A   1      34.497  31.585  28.567  1.00  0.00     0.126 C 
ATOM      5  C   UNL A   1      35.804  30.921  28.997  1.00  0.00     0.025 C 
BRANCH   4   6
ATOM      6  C   UNL A   1      33.772  30.854  27.444  1.00  0.00    -0.031 A 
ATOM      7  C   UNL A   1      32.473  31.183  27.041  1.00  0.00     0.005 A 
ATOM      8  C   UNL A   1      34.349  29.667  26.964  1.00  0.00     0.044 A 
ATOM      9  C   UNL A   1      31.726  30.269  26.292  1.00  0.00     0.012 A 
ATOM     10  C   UNL A   1      33.590  28.757  26.248  1.00  0.00     0.131 A 
ATOM     11  C   UNL A   1      32.250  29.001  25.968  1.00  0.00     0.018 A 
ATOM     12  F   UNL A   1      34.157  27.597  25.882  1.00  0.00    -0.206 F 
BRANCH  11  13
ATOM     13  C   UNL A   1      31.408  27.945  25.398  1.00  0.00    -0.012 A 
ATOM     14  C   UNL A   1      30.671  28.254  24.241  1.00  0.00     0.009 A 
ATOM     15  C   UNL A   1      31.282  26.657  26.028  1.00  0.00     0.056 A 
ATOM     16  C   UNL A   1      29.851  27.305  23.684  1.00  0.00     0.004 A 
ATOM     17  C   UNL A   1      30.445  25.707  25.469  1.00  0.00     0.133 A 
ATOM     18  C   UNL A   1      29.760  26.058  24.298  1.00  0.00     0.047 A 
BRANCH  17  19
ATOM     19  O   UNL A   1      29.962  24.466  26.256  1.00  0.00    -0.410 OA
BRANCH  19  20
ATOM     20  C   UNL A   1      30.134  23.112  26.876  1.00  0.00     0.412 C 
ATOM     21  O   UNL A   1      29.365  22.771  27.773  1.00  0.00    -0.224 OA
ATOM     22  N   UNL A   1      31.218  22.216  26.517  1.00  0.00    -0.318 N 
ATOM     23  H   UNL A   1      31.569  21.746  27.306  1.00  0.00     0.167 HD
BRANCH  22  24
ATOM     24  C   UNL A   1      31.949  21.812  25.268  1.00  0.00     0.085 C 
ATOM     25  C   UNL A   1      33.347  21.219  25.054  1.00  0.00     0.027 C 
ATOM     26  C   UNL A   1      32.154  20.340  24.925  1.00  0.00     0.027 C 
ENDBRANCH  22  24
ENDBRANCH  19  20
ENDBRANCH  17  19
ENDBRANCH  11  13
ENDBRANCH   4   6
ENDBRANCH   2   4
ENDBRANCH   1   2
BRANCH   1  27
ATOM     27  C   UNL A   1      34.034  35.282  28.587  1.00  0.00     0.274 C 
BRANCH  27  28
ATOM     28  C   UNL A   1      33.155  36.111  29.523  1.00  0.00     0.275 C 
BRANCH  28  29
ATOM     29  O   UNL A   1      32.579  35.312  30.583  1.00  0.00    -0.458 OA
BRANCH  29  30
ATOM     30  C   UNL A   1      32.757  35.765  31.840  1.00  0.00     0.338 C 
ATOM     31  O   UNL A   1      32.124  36.678  32.390  1.00  0.00    -0.246 OA
BRANCH  30  32
ATOM     32  C   UNL A   1      33.846  35.059  32.541  1.00  0.00     0.060 A 
ATOM     33  C   UNL A   1      35.057  35.702  32.767  1.00  0.00     0.016 A 
ATOM     34  C   UNL A   1      33.740  33.692  32.828  1.00  0.00     0.016 A 
ATOM     35  C   UNL A   1      36.171  34.952  33.182  1.00  0.00     0.010 A 
ATOM     36  C   UNL A   1      34.849  32.964  33.317  1.00  0.00     0.010 A 
ATOM     37  C   UNL A   1      36.108  33.570  33.459  1.00  0.00    -0.014 A 
BRANCH  37  38
ATOM     38  C   UNL A   1      37.382  32.817  33.825  1.00  0.00     0.031 A 
ATOM     39  C   UNL A   1      38.183  32.112  32.793  1.00  0.00     0.074 A 
ATOM     40  C   UNL A   1      37.895  32.844  35.079  1.00  0.00     0.049 A 
ATOM     41  N   UNL A   1      39.246  31.379  32.989  1.00  0.00    -0.248 NA
ATOM     42  C   UNL A   1      37.738  32.179  31.397  1.00  0.00     0.031 C 
ATOM     43  C   UNL A   1      37.136  33.456  36.119  1.00  0.00     0.029 A 
ATOM     44  N   UNL A   1      39.100  32.503  35.715  1.00  0.00    -0.354 N 
ATOM     45  C   UNL A   1      39.521  30.791  31.773  1.00  0.00     0.074 A 
ATOM     46  C   UNL A   1      38.567  31.320  30.819  1.00  0.00     0.031 C 
ATOM     47  C   UNL A   1      37.974  33.695  37.121  1.00  0.00     0.029 A 
ATOM     48  C   UNL A   1      39.304  33.141  36.967  1.00  0.00     0.049 A 
ATOM     49  H   UNL A   1      39.747  31.874  35.325  1.00  0.00     0.167 HD
ATOM     50  C   UNL A   1      40.447  29.837  31.533  1.00  0.00     0.037 A 
ATOM     51  C   UNL A   1      40.442  33.265  37.765  1.00  0.00     0.037 A 
ATOM     52  C   UNL A   1      41.381  29.366  32.525  1.00  0.00     0.049 A 
ATOM     53  C   UNL A   1      41.490  32.261  37.370  1.00  0.00     0.074 A 
ATOM     54  C   UNL A   1      42.262  28.303  32.456  1.00  0.00     0.029 A 
ATOM     55  N   UNL A   1      41.574  29.962  33.764  1.00  0.00    -0.354 N 
ATOM     56  N   UNL A   1      41.624  31.590  36.256  1.00  0.00    -0.248 NA
ATOM     57  C   UNL A   1      42.507  31.976  38.391  1.00  0.00     0.031 C 
ATOM     58  C   UNL A   1      42.983  28.252  33.655  1.00  0.00     0.029 A 
ATOM     59  C   UNL A   1      42.584  29.310  34.452  1.00  0.00     0.049 A 
ATOM     60  H   UNL A   1      41.067  30.735  34.105  1.00  0.00     0.167 HD
ATOM     61  C   UNL A   1      42.693  30.750  36.472  1.00  0.00     0.074 A 
ATOM     62  C   UNL A   1      43.274  31.113  37.750  1.00  0.00     0.031 C 
ATOM     63  C   UNL A   1      43.106  29.702  35.729  1.00  0.00     0.037 A 
BRANCH  50  64
ATOM     64  C   UNL A   1      40.389  29.170  30.200  1.00  0.00     0.064 A 
ATOM     65  C   UNL A   1      39.602  28.037  29.963  1.00  0.00     0.173 A 
ATOM     66  C   UNL A   1      41.175  29.663  29.146  1.00  0.00     0.173 A 
ATOM     67  F   UNL A   1      38.866  27.508  30.952  1.00  0.00    -0.203 F 
ATOM     68  C   UNL A   1      39.618  27.407  28.722  1.00  0.00     0.198 A 
ATOM     69  C   UNL A   1      41.167  29.048  27.899  1.00  0.00     0.198 A 
ATOM     70  F   UNL A   1      41.959  30.737  29.330  1.00  0.00    -0.203 F 
ATOM     71  F   UNL A   1      38.902  26.290  28.532  1.00  0.00    -0.200 F 
ATOM     72  C   UNL A   1      40.395  27.916  27.690  1.00  0.00     0.200 A 
ATOM     73  F   UNL A   1      41.918  29.543  26.906  1.00  0.00    -0.200 F 
ATOM     74  F   UNL A   1      40.412  27.304  26.498  1.00  0.00    -0.200 F 
ENDBRANCH  50  64
BRANCH  51  75
ATOM     75  C   UNL A   1      40.966  34.283  38.916  1.00  0.00     0.064 A 
ATOM     76  C   UNL A   1      40.309  34.246  40.186  1.00  0.00     0.173 A 
ATOM     77  C   UNL A   1      41.865  35.368  38.875  1.00  0.00     0.173 A 
ATOM     78  F   UNL A   1      39.208  33.493  40.341  1.00  0.00    -0.203 F 
ATOM     79  C   UNL A   1      40.678  35.019  41.308  1.00  0.00     0.198 A 
ATOM     80  C   UNL A   1      42.289  36.110  39.999  1.00  0.00     0.198 A 
ATOM     81  F   UNL A   1      42.269  35.921  37.739  1.00  0.00    -0.203 F 
ATOM     82  F   UNL A   1      39.981  34.915  42.448  1.00  0.00    -0.200 F 
ATOM     83  C   UNL A   1      41.710  35.920  41.226  1.00  0.00     0.200 A 
ATOM     84  F   UNL A   1      43.209  37.075  39.841  1.00  0.00    -0.200 F 
ATOM     85  F   UNL A   1      42.058  36.680  42.274  1.00  0.00    -0.200 F 
ENDBRANCH  51  75
BRANCH  63  86
ATOM     86  C   UNL A   1      44.188  28.885  36.348  1.00  0.00     0.064 A 
ATOM     87  C   UNL A   1      45.534  29.268  36.226  1.00  0.00     0.173 A 
ATOM     88  C   UNL A   1      43.886  27.688  37.001  1.00  0.00     0.173 A 
ATOM     89  F   UNL A   1      45.864  30.384  35.557  1.00  0.00    -0.203 F 
ATOM     90  C   UNL A   1      46.547  28.461  36.729  1.00  0.00     0.198 A 
ATOM     91  C   UNL A   1      44.901  26.895  37.523  1.00  0.00     0.198 A 
ATOM     92  F   UNL A   1      42.613  27.277  37.105  1.00  0.00    -0.203 F 
ATOM     93  F   UNL A   1      47.828  28.809  36.553  1.00  0.00    -0.200 F 
ATOM     94  C   UNL A   1      46.228  27.279  37.382  1.00  0.00     0.200 A 
ATOM     95  F   UNL A   1      44.597  25.748  38.143  1.00  0.00    -0.200 F 
ATOM     96  F   UNL A   1      47.206  26.497  37.860  1.00  0.00    -0.200 F 
ENDBRANCH  63  86
ENDBRANCH  37  38
ENDBRANCH  30  32
ENDBRANCH  29  30
ENDBRANCH  28  29
ENDBRANCH  27  28
ENDBRANCH   1  27
TORSDOF 16
ENDMDL
