MODEL 1
REMARK VINA RESULT:     -12.2      0.000      0.000
REMARK SMILES Cc1cc(N2N=C(C(=O)OCCOC(=O)c3ccc(-c4c5nc(c(-c6c(F)c(F)c(F)c(F)c6F)c6ccc([nH]6)c(-c6c(F)c(F)c(F)c(F)c6F)c6nc(c(-c7c(F)c(F)c(F)c(F)c7F)c7ccc4[nH]7)C=C6)C=C5)cc3)C[C@H]2c2ccccc2)c([N+](=O)[O-])cc1C
REMARK SMILES IDX 11 1 10 2 8 3 9 4 7 5 5 6 6 7 80 8 79 9 4 10 1 11 2 12 3 13
REMARK SMILES IDX 92 14 91 15 93 16 87 17 88 18 89 19 90 20 81 21 82 22 86 23
REMARK SMILES IDX 83 24 85 25 84 26 12 27 13 28 14 29 15 30 16 31 17 32 78 33
REMARK SMILES IDX 18 34 77 35 19 36 20 37 21 38 71 39 22 40 76 41 70 42 72 43
REMARK SMILES IDX 23 44 75 45 69 46 68 47 24 49 56 50 36 51 55 52 37 53 40 54
REMARK SMILES IDX 54 55 73 56 38 57 39 58 53 60 74 61 41 62 25 63 26 64 34 65
REMARK SMILES IDX 27 66 28 67 32 68 35 69 29 70 30 71 33 72 31 73 57 74 58 75
REMARK SMILES IDX 66 76 59 77 60 78 64 79 67 80 61 81 62 82 65 83 63 84 42 85
REMARK SMILES IDX 43 86 51 87 44 88 45 89 49 90 52 91 46 92 47 93 50 94 48 95
REMARK H PARENT 72 48 40 59
REMARK Flexibility Score: inf
ROOT
ATOM      1  C   UNL A   1      35.383  24.210  25.458  1.00  0.00     0.275 C 
ENDROOT
BRANCH   1   2
ATOM      2  O   UNL A   1      34.098  23.856  26.004  1.00  0.00    -0.458 OA
BRANCH   2   3
ATOM      3  C   UNL A   1      33.073  23.820  25.128  1.00  0.00     0.354 C 
ATOM      4  O   UNL A   1      32.760  22.922  24.379  1.00  0.00    -0.245 OA
BRANCH   3   5
ATOM      5  C   UNL A   1      32.288  25.106  25.216  1.00  0.00     0.148 C 
ATOM      6  N   UNL A   1      31.354  26.919  24.667  1.00  0.00    -0.250 N 
ATOM      7  N   UNL A   1      32.026  25.843  24.178  1.00  0.00    -0.169 NA
ATOM      8  C   UNL A   1      31.380  27.013  26.131  1.00  0.00     0.144 C 
ATOM      9  C   UNL A   1      31.716  25.566  26.520  1.00  0.00     0.098 C 
BRANCH   6  10
ATOM     10  C   UNL A   1      30.675  27.778  23.820  1.00  0.00     0.138 A 
ATOM     11  C   UNL A   1      26.997  28.584  23.145  1.00  0.00     0.045 C 
ATOM     12  C   UNL A   1      28.497  28.655  23.047  1.00  0.00    -0.046 A 
ATOM     13  C   UNL A   1      29.271  27.806  23.866  1.00  0.00     0.039 A 
ATOM     14  C   UNL A   1      29.143  29.534  22.160  1.00  0.00    -0.041 A 
ATOM     15  C   UNL A   1      30.543  29.540  22.115  1.00  0.00     0.091 A 
ATOM     16  C   UNL A   1      28.403  30.515  21.290  1.00  0.00     0.045 C 
ATOM     17  C   UNL A   1      31.289  28.661  22.922  1.00  0.00     0.294 A 
BRANCH  17  18
ATOM     18  N   UNL A   1      32.738  28.700  22.773  1.00  0.00     0.065 N 
ATOM     19  O   UNL A   1      33.241  27.941  21.929  1.00  0.00    -0.258 OA
ATOM     20  O   UNL A   1      33.386  29.427  23.541  1.00  0.00    -0.258 OA
ENDBRANCH  17  18
ENDBRANCH   6  10
BRANCH   8  21
ATOM     21  C   UNL A   1      32.392  28.065  26.571  1.00  0.00    -0.023 A 
ATOM     22  C   UNL A   1      33.780  27.844  26.579  1.00  0.00     0.006 A 
ATOM     23  C   UNL A   1      31.926  29.344  26.924  1.00  0.00     0.006 A 
ATOM     24  C   UNL A   1      34.666  28.859  26.946  1.00  0.00     0.000 A 
ATOM     25  C   UNL A   1      32.814  30.363  27.273  1.00  0.00     0.000 A 
ATOM     26  C   UNL A   1      34.185  30.118  27.288  1.00  0.00     0.000 A 
ENDBRANCH   8  21
ENDBRANCH   3   5
ENDBRANCH   2   3
ENDBRANCH   1   2
BRANCH   1  27
ATOM     27  C   UNL A   1      36.434  23.181  25.882  1.00  0.00     0.275 C 
BRANCH  27  28
ATOM     28  O   UNL A   1      37.738  23.556  25.395  1.00  0.00    -0.458 OA
BRANCH  28  29
ATOM     29  C   UNL A   1      38.767  23.172  26.188  1.00  0.00     0.338 C 
ATOM     30  O   UNL A   1      39.267  22.061  26.259  1.00  0.00    -0.246 OA
BRANCH  29  31
ATOM     31  C   UNL A   1      39.344  24.354  26.846  1.00  0.00     0.060 A 
ATOM     32  C   UNL A   1      39.110  24.494  28.213  1.00  0.00     0.016 A 
ATOM     33  C   UNL A   1      40.041  25.339  26.145  1.00  0.00     0.016 A 
ATOM     34  C   UNL A   1      39.556  25.620  28.893  1.00  0.00     0.010 A 
ATOM     35  C   UNL A   1      40.480  26.483  26.828  1.00  0.00     0.010 A 
ATOM     36  C   UNL A   1      40.227  26.635  28.203  1.00  0.00    -0.014 A 
BRANCH  36  37
ATOM     37  C   UNL A   1      40.600  27.867  28.934  1.00  0.00     0.031 A 
ATOM     38  C   UNL A   1      42.011  28.062  29.409  1.00  0.00     0.074 A 
ATOM     39  C   UNL A   1      39.690  28.842  29.111  1.00  0.00     0.049 A 
ATOM     40  N   UNL A   1      42.524  29.057  30.089  1.00  0.00    -0.248 NA
ATOM     41  C   UNL A   1      42.973  27.000  29.077  1.00  0.00     0.031 C 
ATOM     42  C   UNL A   1      38.303  28.793  28.650  1.00  0.00     0.029 A 
ATOM     43  N   UNL A   1      39.801  30.068  29.716  1.00  0.00    -0.354 N 
ATOM     44  C   UNL A   1      43.855  28.725  30.297  1.00  0.00     0.074 A 
ATOM     45  C   UNL A   1      44.076  27.441  29.667  1.00  0.00     0.031 C 
ATOM     46  C   UNL A   1      37.693  29.944  28.978  1.00  0.00     0.029 A 
ATOM     47  C   UNL A   1      38.637  30.795  29.698  1.00  0.00     0.049 A 
ATOM     48  H   UNL A   1      40.635  30.395  30.125  1.00  0.00     0.167 HD
ATOM     49  C   UNL A   1      44.806  29.433  30.952  1.00  0.00     0.037 A 
ATOM     50  C   UNL A   1      38.362  32.007  30.213  1.00  0.00     0.037 A 
ATOM     51  C   UNL A   1      44.607  30.734  31.532  1.00  0.00     0.049 A 
ATOM     52  C   UNL A   1      39.438  32.770  30.935  1.00  0.00     0.074 A 
ATOM     53  C   UNL A   1      45.525  31.539  32.186  1.00  0.00     0.029 A 
ATOM     54  N   UNL A   1      43.407  31.427  31.517  1.00  0.00    -0.354 N 
ATOM     55  N   UNL A   1      40.690  32.441  31.138  1.00  0.00    -0.248 NA
ATOM     56  C   UNL A   1      39.059  34.072  31.505  1.00  0.00     0.031 C 
ATOM     57  C   UNL A   1      44.875  32.712  32.583  1.00  0.00     0.029 A 
ATOM     58  C   UNL A   1      43.558  32.645  32.160  1.00  0.00     0.049 A 
ATOM     59  H   UNL A   1      42.571  31.102  31.110  1.00  0.00     0.167 HD
ATOM     60  C   UNL A   1      41.247  33.489  31.855  1.00  0.00     0.074 A 
ATOM     61  C   UNL A   1      40.205  34.479  32.033  1.00  0.00     0.031 C 
ATOM     62  C   UNL A   1      42.510  33.615  32.330  1.00  0.00     0.037 A 
BRANCH  49  63
ATOM     63  C   UNL A   1      46.153  28.801  31.105  1.00  0.00     0.064 A 
ATOM     64  C   UNL A   1      46.488  28.047  32.239  1.00  0.00     0.173 A 
ATOM     65  C   UNL A   1      47.100  28.905  30.075  1.00  0.00     0.173 A 
ATOM     66  F   UNL A   1      45.617  27.928  33.251  1.00  0.00    -0.203 F 
ATOM     67  C   UNL A   1      47.729  27.425  32.338  1.00  0.00     0.198 A 
ATOM     68  C   UNL A   1      48.334  28.270  30.172  1.00  0.00     0.198 A 
ATOM     69  F   UNL A   1      46.820  29.613  28.971  1.00  0.00    -0.203 F 
ATOM     70  F   UNL A   1      48.038  26.722  33.436  1.00  0.00    -0.200 F 
ATOM     71  C   UNL A   1      48.648  27.532  31.303  1.00  0.00     0.200 A 
ATOM     72  F   UNL A   1      49.217  28.367  29.169  1.00  0.00    -0.200 F 
ATOM     73  F   UNL A   1      49.838  26.923  31.397  1.00  0.00    -0.200 F 
ENDBRANCH  49  63
BRANCH  50  74
ATOM     74  C   UNL A   1      36.998  32.572  30.078  1.00  0.00     0.064 A 
ATOM     75  C   UNL A   1      36.625  33.289  28.935  1.00  0.00     0.173 A 
ATOM     76  C   UNL A   1      36.046  32.410  31.095  1.00  0.00     0.173 A 
ATOM     77  F   UNL A   1      37.513  33.492  27.952  1.00  0.00    -0.203 F 
ATOM     78  C   UNL A   1      35.348  33.833  28.817  1.00  0.00     0.198 A 
ATOM     79  C   UNL A   1      34.764  32.938  30.966  1.00  0.00     0.198 A 
ATOM     80  F   UNL A   1      36.362  31.735  32.210  1.00  0.00    -0.203 F 
ATOM     81  F   UNL A   1      35.024  34.547  27.731  1.00  0.00    -0.200 F 
ATOM     82  C   UNL A   1      34.418  33.653  29.831  1.00  0.00     0.200 A 
ATOM     83  F   UNL A   1      33.867  32.760  31.946  1.00  0.00    -0.200 F 
ATOM     84  F   UNL A   1      33.190  34.179  29.716  1.00  0.00    -0.200 F 
ENDBRANCH  50  74
BRANCH  62  85
ATOM     85  C   UNL A   1      42.830  34.867  33.086  1.00  0.00     0.064 A 
ATOM     86  C   UNL A   1      43.294  36.013  32.425  1.00  0.00     0.173 A 
ATOM     87  C   UNL A   1      42.641  34.933  34.474  1.00  0.00     0.173 A 
ATOM     88  F   UNL A   1      43.505  35.989  31.101  1.00  0.00    -0.203 F 
ATOM     89  C   UNL A   1      43.574  37.179  33.132  1.00  0.00     0.198 A 
ATOM     90  C   UNL A   1      42.906  36.106  35.175  1.00  0.00     0.198 A 
ATOM     91  F   UNL A   1      42.197  33.861  35.147  1.00  0.00    -0.203 F 
ATOM     92  F   UNL A   1      44.047  38.254  32.487  1.00  0.00    -0.200 F 
ATOM     93  C   UNL A   1      43.376  37.226  34.504  1.00  0.00     0.200 A 
ATOM     94  F   UNL A   1      42.712  36.151  36.500  1.00  0.00    -0.200 F 
ATOM     95  F   UNL A   1      43.645  38.349  35.183  1.00  0.00    -0.200 F 
ENDBRANCH  62  85
ENDBRANCH  36  37
ENDBRANCH  29  31
ENDBRANCH  28  29
ENDBRANCH  27  28
ENDBRANCH   1  27
TORSDOF 14
ENDMDL
MODEL 2
REMARK VINA RESULT:     -12.2      3.461      7.778
REMARK SMILES Cc1cc(N2N=C(C(=O)OCCOC(=O)c3ccc(-c4c5nc(c(-c6c(F)c(F)c(F)c(F)c6F)c6ccc([nH]6)c(-c6c(F)c(F)c(F)c(F)c6F)c6nc(c(-c7c(F)c(F)c(F)c(F)c7F)c7ccc4[nH]7)C=C6)C=C5)cc3)C[C@H]2c2ccccc2)c([N+](=O)[O-])cc1C
REMARK SMILES IDX 11 1 10 2 8 3 9 4 7 5 5 6 6 7 80 8 79 9 4 10 1 11 2 12 3 13
REMARK SMILES IDX 92 14 91 15 93 16 87 17 88 18 89 19 90 20 81 21 82 22 86 23
REMARK SMILES IDX 83 24 85 25 84 26 12 27 13 28 14 29 15 30 16 31 17 32 78 33
REMARK SMILES IDX 18 34 77 35 19 36 20 37 21 38 71 39 22 40 76 41 70 42 72 43
REMARK SMILES IDX 23 44 75 45 69 46 68 47 24 49 56 50 36 51 55 52 37 53 40 54
REMARK SMILES IDX 54 55 73 56 38 57 39 58 53 60 74 61 41 62 25 63 26 64 34 65
REMARK SMILES IDX 27 66 28 67 32 68 35 69 29 70 30 71 33 72 31 73 57 74 58 75
REMARK SMILES IDX 66 76 59 77 60 78 64 79 67 80 61 81 62 82 65 83 63 84 42 85
REMARK SMILES IDX 43 86 51 87 44 88 45 89 49 90 52 91 46 92 47 93 50 94 48 95
REMARK H PARENT 72 48 40 59
REMARK Flexibility Score: inf
ROOT
ATOM      1  C   UNL A   1      31.940  32.213  26.878  1.00  0.00     0.275 C 
ENDROOT
BRANCH   1   2
ATOM      2  O   UNL A   1      32.602  31.338  27.812  1.00  0.00    -0.458 OA
BRANCH   2   3
ATOM      3  C   UNL A   1      33.667  30.662  27.336  1.00  0.00     0.354 C 
ATOM      4  O   UNL A   1      34.826  31.012  27.313  1.00  0.00    -0.245 OA
BRANCH   3   5
ATOM      5  C   UNL A   1      33.222  29.313  26.828  1.00  0.00     0.148 C 
ATOM      6  N   UNL A   1      33.185  27.496  25.752  1.00  0.00    -0.250 N 
ATOM      7  N   UNL A   1      33.935  28.601  26.005  1.00  0.00    -0.169 NA
ATOM      8  C   UNL A   1      31.807  27.593  26.246  1.00  0.00     0.144 C 
ATOM      9  C   UNL A   1      31.944  28.698  27.304  1.00  0.00     0.098 C 
BRANCH   6  10
ATOM     10  C   UNL A   1      33.739  26.386  25.136  1.00  0.00     0.138 A 
ATOM     11  C   UNL A   1      35.347  23.131  26.338  1.00  0.00     0.045 C 
ATOM     12  C   UNL A   1      34.809  24.174  25.396  1.00  0.00    -0.046 A 
ATOM     13  C   UNL A   1      34.236  25.345  25.937  1.00  0.00     0.039 A 
ATOM     14  C   UNL A   1      34.871  24.017  24.001  1.00  0.00    -0.041 A 
ATOM     15  C   UNL A   1      34.359  25.033  23.183  1.00  0.00     0.091 A 
ATOM     16  C   UNL A   1      35.412  22.780  23.336  1.00  0.00     0.045 C 
ATOM     17  C   UNL A   1      33.820  26.203  23.749  1.00  0.00     0.294 A 
BRANCH  17  18
ATOM     18  N   UNL A   1      33.357  27.229  22.823  1.00  0.00     0.065 N 
ATOM     19  O   UNL A   1      32.389  26.945  22.101  1.00  0.00    -0.258 OA
ATOM     20  O   UNL A   1      33.997  28.289  22.758  1.00  0.00    -0.258 OA
ENDBRANCH  17  18
ENDBRANCH   6  10
BRANCH   8  21
ATOM     21  C   UNL A   1      30.856  27.899  25.094  1.00  0.00    -0.023 A 
ATOM     22  C   UNL A   1      30.821  29.138  24.431  1.00  0.00     0.006 A 
ATOM     23  C   UNL A   1      30.017  26.874  24.621  1.00  0.00     0.006 A 
ATOM     24  C   UNL A   1      29.964  29.349  23.349  1.00  0.00     0.000 A 
ATOM     25  C   UNL A   1      29.173  27.081  23.528  1.00  0.00     0.000 A 
ATOM     26  C   UNL A   1      29.144  28.321  22.895  1.00  0.00     0.000 A 
ENDBRANCH   8  21
ENDBRANCH   3   5
ENDBRANCH   2   3
ENDBRANCH   1   2
BRANCH   1  27
ATOM     27  C   UNL A   1      32.514  33.628  26.988  1.00  0.00     0.275 C 
BRANCH  27  28
ATOM     28  O   UNL A   1      32.162  34.222  28.253  1.00  0.00    -0.458 OA
BRANCH  28  29
ATOM     29  C   UNL A   1      33.072  35.106  28.732  1.00  0.00     0.338 C 
ATOM     30  O   UNL A   1      32.922  36.307  28.882  1.00  0.00    -0.246 OA
BRANCH  29  31
ATOM     31  C   UNL A   1      34.244  34.375  29.234  1.00  0.00     0.060 A 
ATOM     32  C   UNL A   1      34.026  33.458  30.261  1.00  0.00     0.016 A 
ATOM     33  C   UNL A   1      35.538  34.616  28.768  1.00  0.00     0.016 A 
ATOM     34  C   UNL A   1      35.092  32.782  30.842  1.00  0.00     0.010 A 
ATOM     35  C   UNL A   1      36.615  33.943  29.362  1.00  0.00     0.010 A 
ATOM     36  C   UNL A   1      36.399  33.033  30.412  1.00  0.00    -0.014 A 
BRANCH  36  37
ATOM     37  C   UNL A   1      37.521  32.374  31.118  1.00  0.00     0.031 A 
ATOM     38  C   UNL A   1      38.315  31.301  30.431  1.00  0.00     0.074 A 
ATOM     39  C   UNL A   1      37.871  32.786  32.350  1.00  0.00     0.049 A 
ATOM     40  N   UNL A   1      39.312  30.587  30.892  1.00  0.00    -0.248 NA
ATOM     41  C   UNL A   1      37.940  30.987  29.044  1.00  0.00     0.031 C 
ATOM     42  C   UNL A   1      37.211  33.853  33.100  1.00  0.00     0.029 A 
ATOM     43  N   UNL A   1      38.877  32.362  33.180  1.00  0.00    -0.354 N 
ATOM     44  C   UNL A   1      39.659  29.719  29.867  1.00  0.00     0.074 A 
ATOM     45  C   UNL A   1      38.773  29.995  28.757  1.00  0.00     0.031 C 
ATOM     46  C   UNL A   1      37.837  34.010  34.278  1.00  0.00     0.029 A 
ATOM     47  C   UNL A   1      38.920  33.035  34.376  1.00  0.00     0.049 A 
ATOM     48  H   UNL A   1      39.507  31.643  32.942  1.00  0.00     0.167 HD
ATOM     49  C   UNL A   1      40.633  28.777  29.857  1.00  0.00     0.037 A 
ATOM     50  C   UNL A   1      39.736  32.875  35.433  1.00  0.00     0.037 A 
ATOM     51  C   UNL A   1      41.553  28.536  30.936  1.00  0.00     0.049 A 
ATOM     52  C   UNL A   1      40.809  31.823  35.392  1.00  0.00     0.074 A 
ATOM     53  C   UNL A   1      42.594  27.624  30.997  1.00  0.00     0.029 A 
ATOM     54  N   UNL A   1      41.549  29.220  32.142  1.00  0.00    -0.354 N 
ATOM     55  N   UNL A   1      41.120  30.996  34.424  1.00  0.00    -0.248 NA
ATOM     56  C   UNL A   1      41.641  31.677  36.596  1.00  0.00     0.031 C 
ATOM     57  C   UNL A   1      43.208  27.744  32.248  1.00  0.00     0.029 A 
ATOM     58  C   UNL A   1      42.561  28.743  32.957  1.00  0.00     0.049 A 
ATOM     59  H   UNL A   1      40.919  29.938  32.382  1.00  0.00     0.167 HD
ATOM     60  C   UNL A   1      42.179  30.236  34.898  1.00  0.00     0.074 A 
ATOM     61  C   UNL A   1      42.475  30.713  36.233  1.00  0.00     0.031 C 
ATOM     62  C   UNL A   1      42.840  29.227  34.283  1.00  0.00     0.037 A 
BRANCH  49  63
ATOM     63  C   UNL A   1      40.741  27.911  28.642  1.00  0.00     0.064 A 
ATOM     64  C   UNL A   1      40.041  26.701  28.538  1.00  0.00     0.173 A 
ATOM     65  C   UNL A   1      41.512  28.327  27.547  1.00  0.00     0.173 A 
ATOM     66  F   UNL A   1      39.298  26.260  29.563  1.00  0.00    -0.203 F 
ATOM     67  C   UNL A   1      40.115  25.934  27.378  1.00  0.00     0.198 A 
ATOM     68  C   UNL A   1      41.572  27.565  26.384  1.00  0.00     0.198 A 
ATOM     69  F   UNL A   1      42.195  29.480  27.602  1.00  0.00    -0.203 F 
ATOM     70  F   UNL A   1      39.452  24.772  27.301  1.00  0.00    -0.200 F 
ATOM     71  C   UNL A   1      40.875  26.370  26.301  1.00  0.00     0.200 A 
ATOM     72  F   UNL A   1      42.300  27.991  25.343  1.00  0.00    -0.200 F 
ATOM     73  F   UNL A   1      40.936  25.634  25.183  1.00  0.00    -0.200 F 
ENDBRANCH  49  63
BRANCH  50  74
ATOM     74  C   UNL A   1      39.559  33.726  36.635  1.00  0.00     0.064 A 
ATOM     75  C   UNL A   1      38.781  33.294  37.715  1.00  0.00     0.173 A 
ATOM     76  C   UNL A   1      40.158  34.991  36.718  1.00  0.00     0.173 A 
ATOM     77  F   UNL A   1      38.166  32.103  37.665  1.00  0.00    -0.203 F 
ATOM     78  C   UNL A   1      38.601  34.101  38.836  1.00  0.00     0.198 A 
ATOM     79  C   UNL A   1      39.993  35.788  37.848  1.00  0.00     0.198 A 
ATOM     80  F   UNL A   1      40.906  35.448  35.703  1.00  0.00    -0.203 F 
ATOM     81  F   UNL A   1      37.823  33.682  39.843  1.00  0.00    -0.200 F 
ATOM     82  C   UNL A   1      39.211  35.345  38.903  1.00  0.00     0.200 A 
ATOM     83  F   UNL A   1      40.586  36.989  37.909  1.00  0.00    -0.200 F 
ATOM     84  F   UNL A   1      39.035  36.122  39.981  1.00  0.00    -0.200 F 
ENDBRANCH  50  74
BRANCH  62  85
ATOM     85  C   UNL A   1      43.949  28.574  35.049  1.00  0.00     0.064 A 
ATOM     86  C   UNL A   1      43.701  27.479  35.888  1.00  0.00     0.173 A 
ATOM     87  C   UNL A   1      45.270  29.025  34.920  1.00  0.00     0.173 A 
ATOM     88  F   UNL A   1      42.449  27.025  36.053  1.00  0.00    -0.203 F 
ATOM     89  C   UNL A   1      44.738  26.865  36.585  1.00  0.00     0.198 A 
ATOM     90  C   UNL A   1      46.307  28.399  35.605  1.00  0.00     0.198 A 
ATOM     91  F   UNL A   1      45.553  30.069  34.127  1.00  0.00    -0.203 F 
ATOM     92  F   UNL A   1      44.477  25.840  37.406  1.00  0.00    -0.200 F 
ATOM     93  C   UNL A   1      46.040  27.323  36.440  1.00  0.00     0.200 A 
ATOM     94  F   UNL A   1      47.564  28.840  35.463  1.00  0.00    -0.200 F 
ATOM     95  F   UNL A   1      47.037  26.732  37.111  1.00  0.00    -0.200 F 
ENDBRANCH  62  85
ENDBRANCH  36  37
ENDBRANCH  29  31
ENDBRANCH  28  29
ENDBRANCH  27  28
ENDBRANCH   1  27
TORSDOF 14
ENDMDL
MODEL 3
REMARK VINA RESULT:     -12.1      3.090      4.818
REMARK SMILES Cc1cc(N2N=C(C(=O)OCCOC(=O)c3ccc(-c4c5nc(c(-c6c(F)c(F)c(F)c(F)c6F)c6ccc([nH]6)c(-c6c(F)c(F)c(F)c(F)c6F)c6nc(c(-c7c(F)c(F)c(F)c(F)c7F)c7ccc4[nH]7)C=C6)C=C5)cc3)C[C@H]2c2ccccc2)c([N+](=O)[O-])cc1C
REMARK SMILES IDX 11 1 10 2 8 3 9 4 7 5 5 6 6 7 80 8 79 9 4 10 1 11 2 12 3 13
REMARK SMILES IDX 92 14 91 15 93 16 87 17 88 18 89 19 90 20 81 21 82 22 86 23
REMARK SMILES IDX 83 24 85 25 84 26 12 27 13 28 14 29 15 30 16 31 17 32 78 33
REMARK SMILES IDX 18 34 77 35 19 36 20 37 21 38 71 39 22 40 76 41 70 42 72 43
REMARK SMILES IDX 23 44 75 45 69 46 68 47 24 49 56 50 36 51 55 52 37 53 40 54
REMARK SMILES IDX 54 55 73 56 38 57 39 58 53 60 74 61 41 62 25 63 26 64 34 65
REMARK SMILES IDX 27 66 28 67 32 68 35 69 29 70 30 71 33 72 31 73 57 74 58 75
REMARK SMILES IDX 66 76 59 77 60 78 64 79 67 80 61 81 62 82 65 83 63 84 42 85
REMARK SMILES IDX 43 86 51 87 44 88 45 89 49 90 52 91 46 92 47 93 50 94 48 95
REMARK H PARENT 72 48 40 59
REMARK Flexibility Score: inf
ROOT
ATOM      1  C   UNL A   1      35.598  20.597  25.357  1.00  0.00     0.275 C 
ENDROOT
BRANCH   1   2
ATOM      2  O   UNL A   1      35.524  21.502  26.476  1.00  0.00    -0.458 OA
BRANCH   2   3
ATOM      3  C   UNL A   1      34.326  22.082  26.690  1.00  0.00     0.354 C 
ATOM      4  O   UNL A   1      33.359  21.618  27.252  1.00  0.00    -0.245 OA
BRANCH   3   5
ATOM      5  C   UNL A   1      34.338  23.485  26.135  1.00  0.00     0.148 C 
ATOM      6  N   UNL A   1      33.788  25.489  25.754  1.00  0.00    -0.250 N 
ATOM      7  N   UNL A   1      33.483  24.394  26.500  1.00  0.00    -0.169 NA
ATOM      8  C   UNL A   1      34.742  25.217  24.673  1.00  0.00     0.144 C 
ATOM      9  C   UNL A   1      35.394  23.917  25.166  1.00  0.00     0.098 C 
BRANCH   6  10
ATOM     10  C   UNL A   1      33.266  26.732  26.068  1.00  0.00     0.138 A 
ATOM     11  C   UNL A   1      34.713  30.061  27.275  1.00  0.00     0.045 C 
ATOM     12  C   UNL A   1      33.700  29.049  26.811  1.00  0.00    -0.046 A 
ATOM     13  C   UNL A   1      34.142  27.750  26.479  1.00  0.00     0.039 A 
ATOM     14  C   UNL A   1      32.333  29.360  26.708  1.00  0.00    -0.041 A 
ATOM     15  C   UNL A   1      31.445  28.366  26.277  1.00  0.00     0.091 A 
ATOM     16  C   UNL A   1      31.779  30.731  26.985  1.00  0.00     0.045 C 
ATOM     17  C   UNL A   1      31.909  27.071  25.981  1.00  0.00     0.294 A 
BRANCH  17  18
ATOM     18  N   UNL A   1      30.909  26.086  25.590  1.00  0.00     0.065 N 
ATOM     19  O   UNL A   1      30.349  25.454  26.501  1.00  0.00    -0.258 OA
ATOM     20  O   UNL A   1      30.728  25.884  24.381  1.00  0.00    -0.258 OA
ENDBRANCH  17  18
ENDBRANCH   6  10
BRANCH   8  21
ATOM     21  C   UNL A   1      34.010  25.121  23.338  1.00  0.00    -0.023 A 
ATOM     22  C   UNL A   1      33.615  23.902  22.762  1.00  0.00     0.006 A 
ATOM     23  C   UNL A   1      33.649  26.310  22.680  1.00  0.00     0.006 A 
ATOM     24  C   UNL A   1      32.903  23.874  21.560  1.00  0.00     0.000 A 
ATOM     25  C   UNL A   1      32.922  26.281  21.488  1.00  0.00     0.000 A 
ATOM     26  C   UNL A   1      32.553  25.062  20.926  1.00  0.00     0.000 A 
ENDBRANCH   8  21
ENDBRANCH   3   5
ENDBRANCH   2   3
ENDBRANCH   1   2
BRANCH   1  27
ATOM     27  C   UNL A   1      37.061  20.322  25.001  1.00  0.00     0.275 C 
BRANCH  27  28
ATOM     28  O   UNL A   1      37.886  21.457  25.329  1.00  0.00    -0.458 OA
BRANCH  28  29
ATOM     29  C   UNL A   1      39.008  21.154  26.026  1.00  0.00     0.338 C 
ATOM     30  O   UNL A   1      39.561  20.069  26.096  1.00  0.00    -0.246 OA
BRANCH  29  31
ATOM     31  C   UNL A   1      39.598  22.390  26.563  1.00  0.00     0.060 A 
ATOM     32  C   UNL A   1      39.063  23.594  26.110  1.00  0.00     0.016 A 
ATOM     33  C   UNL A   1      40.687  22.386  27.435  1.00  0.00     0.016 A 
ATOM     34  C   UNL A   1      39.613  24.805  26.510  1.00  0.00     0.010 A 
ATOM     35  C   UNL A   1      41.251  23.608  27.830  1.00  0.00     0.010 A 
ATOM     36  C   UNL A   1      40.725  24.824  27.358  1.00  0.00    -0.014 A 
BRANCH  36  37
ATOM     37  C   UNL A   1      41.350  26.125  27.686  1.00  0.00     0.031 A 
ATOM     38  C   UNL A   1      42.736  26.437  27.201  1.00  0.00     0.074 A 
ATOM     39  C   UNL A   1      40.648  27.054  28.359  1.00  0.00     0.049 A 
ATOM     40  N   UNL A   1      43.464  27.507  27.408  1.00  0.00    -0.248 NA
ATOM     41  C   UNL A   1      43.393  25.413  26.375  1.00  0.00     0.031 C 
ATOM     42  C   UNL A   1      39.276  26.890  28.837  1.00  0.00     0.029 A 
ATOM     43  N   UNL A   1      40.990  28.325  28.746  1.00  0.00    -0.354 N 
ATOM     44  C   UNL A   1      44.673  27.270  26.771  1.00  0.00     0.074 A 
ATOM     45  C   UNL A   1      44.583  25.959  26.163  1.00  0.00     0.031 C 
ATOM     46  C   UNL A   1      38.887  28.023  29.445  1.00  0.00     0.029 A 
ATOM     47  C   UNL A   1      39.992  28.979  29.424  1.00  0.00     0.049 A 
ATOM     48  H   UNL A   1      41.868  28.729  28.557  1.00  0.00     0.167 HD
ATOM     49  C   UNL A   1      45.757  28.077  26.699  1.00  0.00     0.037 A 
ATOM     50  C   UNL A   1      39.976  30.206  29.975  1.00  0.00     0.037 A 
ATOM     51  C   UNL A   1      45.833  29.403  27.253  1.00  0.00     0.049 A 
ATOM     52  C   UNL A   1      41.194  31.081  29.878  1.00  0.00     0.074 A 
ATOM     53  C   UNL A   1      46.881  30.305  27.197  1.00  0.00     0.029 A 
ATOM     54  N   UNL A   1      44.810  30.021  27.956  1.00  0.00    -0.354 N 
ATOM     55  N   UNL A   1      42.338  30.842  29.285  1.00  0.00    -0.248 NA
ATOM     56  C   UNL A   1      41.121  32.395  30.533  1.00  0.00     0.031 C 
ATOM     57  C   UNL A   1      46.500  31.463  27.883  1.00  0.00     0.029 A 
ATOM     58  C   UNL A   1      45.208  31.288  28.348  1.00  0.00     0.049 A 
ATOM     59  H   UNL A   1      43.932  29.618  28.147  1.00  0.00     0.167 HD
ATOM     60  C   UNL A   1      43.118  31.970  29.493  1.00  0.00     0.074 A 
ATOM     61  C   UNL A   1      42.310  32.906  30.248  1.00  0.00     0.031 C 
ATOM     62  C   UNL A   1      44.393  32.204  29.101  1.00  0.00     0.037 A 
BRANCH  49  63
ATOM     63  C   UNL A   1      46.974  27.539  26.014  1.00  0.00     0.064 A 
ATOM     64  C   UNL A   1      47.149  27.656  24.628  1.00  0.00     0.173 A 
ATOM     65  C   UNL A   1      48.002  26.950  26.766  1.00  0.00     0.173 A 
ATOM     66  F   UNL A   1      46.190  28.204  23.870  1.00  0.00    -0.203 F 
ATOM     67  C   UNL A   1      48.313  27.194  24.018  1.00  0.00     0.198 A 
ATOM     68  C   UNL A   1      49.168  26.503  26.153  1.00  0.00     0.198 A 
ATOM     69  F   UNL A   1      47.877  26.823  28.095  1.00  0.00    -0.203 F 
ATOM     70  F   UNL A   1      48.457  27.299  22.690  1.00  0.00    -0.200 F 
ATOM     71  C   UNL A   1      49.322  26.624  24.781  1.00  0.00     0.200 A 
ATOM     72  F   UNL A   1      50.145  25.961  26.892  1.00  0.00    -0.200 F 
ATOM     73  F   UNL A   1      50.444  26.190  24.191  1.00  0.00    -0.200 F 
ENDBRANCH  49  63
BRANCH  50  74
ATOM     74  C   UNL A   1      38.763  30.677  30.686  1.00  0.00     0.064 A 
ATOM     75  C   UNL A   1      38.651  30.558  32.076  1.00  0.00     0.173 A 
ATOM     76  C   UNL A   1      37.691  31.247  29.985  1.00  0.00     0.173 A 
ATOM     77  F   UNL A   1      39.641  29.993  32.782  1.00  0.00    -0.203 F 
ATOM     78  C   UNL A   1      37.504  30.986  32.742  1.00  0.00     0.198 A 
ATOM     79  C   UNL A   1      36.553  31.691  30.654  1.00  0.00     0.198 A 
ATOM     80  F   UNL A   1      37.752  31.374  28.651  1.00  0.00    -0.203 F 
ATOM     81  F   UNL A   1      37.404  30.828  34.068  1.00  0.00    -0.200 F 
ATOM     82  C   UNL A   1      36.459  31.555  32.030  1.00  0.00     0.200 A 
ATOM     83  F   UNL A   1      35.546  32.244  29.963  1.00  0.00    -0.200 F 
ATOM     84  F   UNL A   1      35.355  31.964  32.671  1.00  0.00    -0.200 F 
ENDBRANCH  50  74
BRANCH  62  85
ATOM     85  C   UNL A   1      44.989  33.524  29.481  1.00  0.00     0.064 A 
ATOM     86  C   UNL A   1      45.699  33.679  30.679  1.00  0.00     0.173 A 
ATOM     87  C   UNL A   1      44.878  34.631  28.627  1.00  0.00     0.173 A 
ATOM     88  F   UNL A   1      45.816  32.650  31.532  1.00  0.00    -0.203 F 
ATOM     89  C   UNL A   1      46.266  34.904  31.019  1.00  0.00     0.198 A 
ATOM     90  C   UNL A   1      45.460  35.851  28.963  1.00  0.00     0.198 A 
ATOM     91  F   UNL A   1      44.208  34.528  27.470  1.00  0.00    -0.203 F 
ATOM     92  F   UNL A   1      46.914  35.041  32.183  1.00  0.00    -0.200 F 
ATOM     93  C   UNL A   1      46.149  35.987  30.159  1.00  0.00     0.200 A 
ATOM     94  F   UNL A   1      45.349  36.895  28.130  1.00  0.00    -0.200 F 
ATOM     95  F   UNL A   1      46.695  37.166  30.487  1.00  0.00    -0.200 F 
ENDBRANCH  62  85
ENDBRANCH  36  37
ENDBRANCH  29  31
ENDBRANCH  28  29
ENDBRANCH  27  28
ENDBRANCH   1  27
TORSDOF 14
ENDMDL
