MODEL 1
REMARK VINA RESULT:     -12.7      0.000      0.000
REMARK SMILES CCn1ccc(NC(=O)[C@H]2[C@@H](C(=O)OCCOC(=O)c3ccc(-c4c5nc(c(-c6c(F)c(F)c(F)c(F)c6F)c6ccc([nH]6)c(-c6c(F)c(F)c(F)c(F)c6F)c6nc(c(-c7c(F)c(F)c(F)c(F)c7F)c7ccc4[nH]7)C=C6)C=C5)cc3)[C@H]3C=C[C@@H]2C3)n1
REMARK SMILES IDX 15 1 14 2 12 3 13 4 11 5 10 6 86 7 83 8 85 9 87 10 84 11
REMARK SMILES IDX 8 12 7 13 9 15 6 16 3 17 4 18 88 19 5 20 2 21 1 22 16 23
REMARK SMILES IDX 17 24 18 25 19 26 20 27 21 28 82 29 22 30 81 31 23 32 24 33
REMARK SMILES IDX 25 34 75 35 26 36 80 37 74 38 76 39 27 40 79 41 73 42 72 43
REMARK SMILES IDX 28 45 60 46 40 47 59 48 41 49 44 50 58 51 77 52 42 53 43 54
REMARK SMILES IDX 57 56 78 57 45 58 29 59 30 60 38 61 31 62 32 63 36 64 39 65
REMARK SMILES IDX 33 66 34 67 37 68 35 69 61 70 62 71 70 72 63 73 64 74 68 75
REMARK SMILES IDX 71 76 65 77 66 78 69 79 67 80 46 81 47 82 55 83 48 84 49 85
REMARK SMILES IDX 53 86 56 87 50 88 51 89 54 90 52 91
REMARK H PARENT 7 14 76 44 44 55
REMARK Flexibility Score: inf
ROOT
ATOM      1  C   UNL A   1      37.335  21.645  24.671  1.00  0.00     0.274 C 
ENDROOT
BRANCH   1   2
ATOM      2  O   UNL A   1      36.090  21.168  25.213  1.00  0.00    -0.462 OA
BRANCH   2   3
ATOM      3  C   UNL A   1      35.020  21.944  24.945  1.00  0.00     0.310 C 
ATOM      4  O   UNL A   1      34.925  22.637  23.938  1.00  0.00    -0.252 OA
BRANCH   3   5
ATOM      5  C   UNL A   1      33.916  21.939  25.965  1.00  0.00     0.119 C 
ATOM      6  C   UNL A   1      32.535  21.405  25.481  1.00  0.00     0.100 C 
ATOM      7  C   UNL A   1      31.607  22.591  25.885  1.00  0.00     0.025 C 
ATOM      8  C   UNL A   1      33.594  23.288  26.652  1.00  0.00     0.027 C 
ATOM      9  C   UNL A   1      31.966  23.865  25.151  1.00  0.00    -0.027 C 
ATOM     10  C   UNL A   1      32.221  22.959  27.251  1.00  0.00     0.017 C 
ATOM     11  C   UNL A   1      33.136  24.300  25.639  1.00  0.00    -0.027 C 
BRANCH   6  12
ATOM     12  C   UNL A   1      32.409  20.923  24.036  1.00  0.00     0.230 C 
ATOM     13  N   UNL A   1      32.819  19.672  23.662  1.00  0.00    -0.309 N 
ATOM     14  H   UNL A   1      32.736  19.490  22.698  1.00  0.00     0.171 HD
ATOM     15  O   UNL A   1      31.932  21.655  23.164  1.00  0.00    -0.274 OA
BRANCH  13  16
ATOM     16  C   UNL A   1      33.329  18.624  24.392  1.00  0.00     0.154 A 
ATOM     17  N   UNL A   1      33.097  16.858  25.531  1.00  0.00    -0.271 N 
ATOM     18  C   UNL A   1      34.354  16.755  25.000  1.00  0.00     0.111 A 
ATOM     19  N   UNL A   1      32.568  18.094  25.358  1.00  0.00    -0.155 NA
ATOM     20  C   UNL A   1      34.537  17.905  24.262  1.00  0.00     0.068 A 
BRANCH  17  21
ATOM     21  C   UNL A   1      32.232  15.778  25.980  1.00  0.00     0.141 C 
ATOM     22  C   UNL A   1      32.517  14.407  25.385  1.00  0.00     0.029 C 
ENDBRANCH  17  21
ENDBRANCH  13  16
ENDBRANCH   6  12
ENDBRANCH   3   5
ENDBRANCH   2   3
ENDBRANCH   1   2
BRANCH   1  23
ATOM     23  C   UNL A   1      38.516  21.460  25.625  1.00  0.00     0.275 C 
BRANCH  23  24
ATOM     24  O   UNL A   1      38.929  22.681  26.236  1.00  0.00    -0.458 OA
BRANCH  24  25
ATOM     25  C   UNL A   1      40.005  22.637  27.062  1.00  0.00     0.338 C 
ATOM     26  O   UNL A   1      40.466  21.676  27.644  1.00  0.00    -0.246 OA
BRANCH  25  27
ATOM     27  C   UNL A   1      40.530  24.006  27.177  1.00  0.00     0.060 A 
ATOM     28  C   UNL A   1      41.577  24.276  28.066  1.00  0.00     0.016 A 
ATOM     29  C   UNL A   1      39.828  25.031  26.533  1.00  0.00     0.016 A 
ATOM     30  C   UNL A   1      41.777  25.586  28.463  1.00  0.00     0.010 A 
ATOM     31  C   UNL A   1      40.033  26.327  26.918  1.00  0.00     0.010 A 
ATOM     32  C   UNL A   1      40.923  26.573  27.955  1.00  0.00    -0.014 A 
BRANCH  32  33
ATOM     33  C   UNL A   1      40.942  27.905  28.519  1.00  0.00     0.031 A 
ATOM     34  C   UNL A   1      42.059  28.742  28.034  1.00  0.00     0.074 A 
ATOM     35  C   UNL A   1      39.928  28.345  29.296  1.00  0.00     0.049 A 
ATOM     36  N   UNL A   1      43.044  29.205  28.725  1.00  0.00    -0.248 NA
ATOM     37  C   UNL A   1      42.187  28.962  26.586  1.00  0.00     0.031 C 
ATOM     38  C   UNL A   1      38.656  27.680  29.604  1.00  0.00     0.029 A 
ATOM     39  N   UNL A   1      39.789  29.548  29.912  1.00  0.00    -0.354 N 
ATOM     40  C   UNL A   1      43.813  29.956  27.841  1.00  0.00     0.074 A 
ATOM     41  C   UNL A   1      43.343  29.627  26.522  1.00  0.00     0.031 C 
ATOM     42  C   UNL A   1      37.797  28.573  30.148  1.00  0.00     0.029 A 
ATOM     43  C   UNL A   1      38.504  29.819  30.372  1.00  0.00     0.049 A 
ATOM     44  H   UNL A   1      40.539  30.177  30.025  1.00  0.00     0.167 HD
ATOM     45  C   UNL A   1      44.593  30.969  28.307  1.00  0.00     0.037 A 
ATOM     46  C   UNL A   1      38.067  31.010  30.855  1.00  0.00     0.037 A 
ATOM     47  C   UNL A   1      44.837  30.809  29.721  1.00  0.00     0.049 A 
ATOM     48  C   UNL A   1      39.272  31.781  31.262  1.00  0.00     0.074 A 
ATOM     49  C   UNL A   1      45.435  29.829  30.491  1.00  0.00     0.029 A 
ATOM     50  N   UNL A   1      44.079  31.552  30.594  1.00  0.00    -0.354 N 
ATOM     51  N   UNL A   1      40.040  31.434  32.259  1.00  0.00    -0.248 NA
ATOM     52  C   UNL A   1      39.898  32.624  30.252  1.00  0.00     0.031 C 
ATOM     53  C   UNL A   1      44.621  29.729  31.657  1.00  0.00     0.029 A 
ATOM     54  C   UNL A   1      43.633  30.710  31.581  1.00  0.00     0.049 A 
ATOM     55  H   UNL A   1      43.889  32.515  30.523  1.00  0.00     0.167 HD
ATOM     56  C   UNL A   1      41.332  31.632  31.793  1.00  0.00     0.074 A 
ATOM     57  C   UNL A   1      41.180  32.423  30.572  1.00  0.00     0.031 C 
ATOM     58  C   UNL A   1      42.373  30.883  32.264  1.00  0.00     0.037 A 
BRANCH  45  59
ATOM     59  C   UNL A   1      44.783  32.293  27.602  1.00  0.00     0.064 A 
ATOM     60  C   UNL A   1      45.956  32.490  26.843  1.00  0.00     0.173 A 
ATOM     61  C   UNL A   1      44.049  33.465  27.892  1.00  0.00     0.173 A 
ATOM     62  F   UNL A   1      46.729  31.450  26.498  1.00  0.00    -0.203 F 
ATOM     63  C   UNL A   1      46.419  33.766  26.511  1.00  0.00     0.198 A 
ATOM     64  C   UNL A   1      44.491  34.733  27.518  1.00  0.00     0.198 A 
ATOM     65  F   UNL A   1      42.939  33.456  28.634  1.00  0.00    -0.203 F 
ATOM     66  F   UNL A   1      47.612  33.905  25.918  1.00  0.00    -0.200 F 
ATOM     67  C   UNL A   1      45.693  34.887  26.864  1.00  0.00     0.200 A 
ATOM     68  F   UNL A   1      43.778  35.809  27.878  1.00  0.00    -0.200 F 
ATOM     69  F   UNL A   1      46.171  36.113  26.615  1.00  0.00    -0.200 F 
ENDBRANCH  45  59
BRANCH  46  70
ATOM     70  C   UNL A   1      36.744  31.654  30.654  1.00  0.00     0.064 A 
ATOM     71  C   UNL A   1      35.881  31.899  31.736  1.00  0.00     0.173 A 
ATOM     72  C   UNL A   1      36.427  32.305  29.445  1.00  0.00     0.173 A 
ATOM     73  F   UNL A   1      36.137  31.358  32.936  1.00  0.00    -0.203 F 
ATOM     74  C   UNL A   1      34.785  32.763  31.623  1.00  0.00     0.198 A 
ATOM     75  C   UNL A   1      35.331  33.164  29.332  1.00  0.00     0.198 A 
ATOM     76  F   UNL A   1      37.228  32.198  28.376  1.00  0.00    -0.203 F 
ATOM     77  F   UNL A   1      34.021  33.020  32.694  1.00  0.00    -0.200 F 
ATOM     78  C   UNL A   1      34.519  33.404  30.424  1.00  0.00     0.200 A 
ATOM     79  F   UNL A   1      35.109  33.808  28.178  1.00  0.00    -0.200 F 
ATOM     80  F   UNL A   1      33.509  34.282  30.332  1.00  0.00    -0.200 F 
ENDBRANCH  46  70
BRANCH  58  81
ATOM     81  C   UNL A   1      42.127  30.007  33.462  1.00  0.00     0.064 A 
ATOM     82  C   UNL A   1      41.681  28.675  33.392  1.00  0.00     0.173 A 
ATOM     83  C   UNL A   1      42.508  30.489  34.721  1.00  0.00     0.173 A 
ATOM     84  F   UNL A   1      41.394  28.103  32.217  1.00  0.00    -0.203 F 
ATOM     85  C   UNL A   1      41.582  27.881  34.536  1.00  0.00     0.198 A 
ATOM     86  C   UNL A   1      42.445  29.684  35.855  1.00  0.00     0.198 A 
ATOM     87  F   UNL A   1      42.997  31.733  34.841  1.00  0.00    -0.203 F 
ATOM     88  F   UNL A   1      41.146  26.616  34.442  1.00  0.00    -0.200 F 
ATOM     89  C   UNL A   1      41.972  28.385  35.765  1.00  0.00     0.200 A 
ATOM     90  F   UNL A   1      42.874  30.161  37.032  1.00  0.00    -0.200 F 
ATOM     91  F   UNL A   1      41.920  27.612  36.858  1.00  0.00    -0.200 F 
ENDBRANCH  58  81
ENDBRANCH  32  33
ENDBRANCH  25  27
ENDBRANCH  24  25
ENDBRANCH  23  24
ENDBRANCH   1  23
TORSDOF 14
ENDMDL
MODEL 2
REMARK VINA RESULT:     -12.5      4.560      9.552
REMARK SMILES CCn1ccc(NC(=O)[C@H]2[C@@H](C(=O)OCCOC(=O)c3ccc(-c4c5nc(c(-c6c(F)c(F)c(F)c(F)c6F)c6ccc([nH]6)c(-c6c(F)c(F)c(F)c(F)c6F)c6nc(c(-c7c(F)c(F)c(F)c(F)c7F)c7ccc4[nH]7)C=C6)C=C5)cc3)[C@H]3C=C[C@@H]2C3)n1
REMARK SMILES IDX 15 1 14 2 12 3 13 4 11 5 10 6 86 7 83 8 85 9 87 10 84 11
REMARK SMILES IDX 8 12 7 13 9 15 6 16 3 17 4 18 88 19 5 20 2 21 1 22 16 23
REMARK SMILES IDX 17 24 18 25 19 26 20 27 21 28 82 29 22 30 81 31 23 32 24 33
REMARK SMILES IDX 25 34 75 35 26 36 80 37 74 38 76 39 27 40 79 41 73 42 72 43
REMARK SMILES IDX 28 45 60 46 40 47 59 48 41 49 44 50 58 51 77 52 42 53 43 54
REMARK SMILES IDX 57 56 78 57 45 58 29 59 30 60 38 61 31 62 32 63 36 64 39 65
REMARK SMILES IDX 33 66 34 67 37 68 35 69 61 70 62 71 70 72 63 73 64 74 68 75
REMARK SMILES IDX 71 76 65 77 66 78 69 79 67 80 46 81 47 82 55 83 48 84 49 85
REMARK SMILES IDX 53 86 56 87 50 88 51 89 54 90 52 91
REMARK H PARENT 7 14 76 44 44 55
REMARK Flexibility Score: inf
ROOT
ATOM      1  C   UNL A   1      33.229  29.770  25.961  1.00  0.00     0.274 C 
ENDROOT
BRANCH   1   2
ATOM      2  O   UNL A   1      31.894  29.253  25.813  1.00  0.00    -0.462 OA
BRANCH   2   3
ATOM      3  C   UNL A   1      31.825  27.990  25.342  1.00  0.00     0.310 C 
ATOM      4  O   UNL A   1      31.355  27.056  25.983  1.00  0.00    -0.252 OA
BRANCH   3   5
ATOM      5  C   UNL A   1      32.374  27.759  23.963  1.00  0.00     0.119 C 
ATOM      6  C   UNL A   1      31.357  27.270  22.889  1.00  0.00     0.100 C 
ATOM      7  C   UNL A   1      32.083  25.999  22.355  1.00  0.00     0.025 C 
ATOM      8  C   UNL A   1      33.568  26.781  23.842  1.00  0.00     0.027 C 
ATOM      9  C   UNL A   1      32.255  24.951  23.434  1.00  0.00    -0.027 C 
ATOM     10  C   UNL A   1      33.538  26.511  22.332  1.00  0.00     0.017 C 
ATOM     11  C   UNL A   1      33.171  25.405  24.301  1.00  0.00    -0.027 C 
BRANCH   6  12
ATOM     12  C   UNL A   1      29.898  27.079  23.307  1.00  0.00     0.230 C 
ATOM     13  N   UNL A   1      29.006  28.116  23.281  1.00  0.00    -0.309 N 
ATOM     14  H   UNL A   1      28.109  27.886  23.618  1.00  0.00     0.171 HD
ATOM     15  O   UNL A   1      29.487  25.976  23.680  1.00  0.00    -0.274 OA
BRANCH  13  16
ATOM     16  C   UNL A   1      29.138  29.421  22.870  1.00  0.00     0.154 A 
ATOM     17  N   UNL A   1      28.745  31.001  21.520  1.00  0.00    -0.271 N 
ATOM     18  C   UNL A   1      28.985  31.627  22.712  1.00  0.00     0.111 A 
ATOM     19  N   UNL A   1      29.070  29.684  21.560  1.00  0.00    -0.155 NA
ATOM     20  C   UNL A   1      29.259  30.618  23.610  1.00  0.00     0.068 A 
BRANCH  17  21
ATOM     21  C   UNL A   1      27.978  31.503  20.391  1.00  0.00     0.141 C 
ATOM     22  C   UNL A   1      27.620  32.981  20.437  1.00  0.00     0.029 C 
ENDBRANCH  17  21
ENDBRANCH  13  16
ENDBRANCH   6  12
ENDBRANCH   3   5
ENDBRANCH   2   3
ENDBRANCH   1   2
BRANCH   1  23
ATOM     23  C   UNL A   1      33.343  30.836  27.053  1.00  0.00     0.275 C 
BRANCH  23  24
ATOM     24  O   UNL A   1      34.438  30.604  27.938  1.00  0.00    -0.458 OA
BRANCH  24  25
ATOM     25  C   UNL A   1      35.391  31.567  28.020  1.00  0.00     0.338 C 
ATOM     26  O   UNL A   1      35.382  32.677  27.529  1.00  0.00    -0.246 OA
BRANCH  25  27
ATOM     27  C   UNL A   1      36.506  31.018  28.807  1.00  0.00     0.060 A 
ATOM     28  C   UNL A   1      37.604  31.828  29.116  1.00  0.00     0.016 A 
ATOM     29  C   UNL A   1      36.516  29.640  29.052  1.00  0.00     0.016 A 
ATOM     30  C   UNL A   1      38.789  31.214  29.478  1.00  0.00     0.010 A 
ATOM     31  C   UNL A   1      37.685  29.033  29.420  1.00  0.00     0.010 A 
ATOM     32  C   UNL A   1      38.829  29.815  29.518  1.00  0.00    -0.014 A 
BRANCH  32  33
ATOM     33  C   UNL A   1      40.096  29.131  29.658  1.00  0.00     0.031 A 
ATOM     34  C   UNL A   1      40.549  28.994  31.059  1.00  0.00     0.074 A 
ATOM     35  C   UNL A   1      40.698  28.559  28.593  1.00  0.00     0.049 A 
ATOM     36  N   UNL A   1      41.587  29.532  31.599  1.00  0.00    -0.248 NA
ATOM     37  C   UNL A   1      39.663  28.310  32.013  1.00  0.00     0.031 C 
ATOM     38  C   UNL A   1      40.190  28.412  27.224  1.00  0.00     0.029 A 
ATOM     39  N   UNL A   1      41.883  27.895  28.541  1.00  0.00    -0.354 N 
ATOM     40  C   UNL A   1      41.609  29.086  32.917  1.00  0.00     0.074 A 
ATOM     41  C   UNL A   1      40.322  28.491  33.160  1.00  0.00     0.031 C 
ATOM     42  C   UNL A   1      40.948  27.516  26.551  1.00  0.00     0.029 A 
ATOM     43  C   UNL A   1      42.079  27.150  27.382  1.00  0.00     0.049 A 
ATOM     44  H   UNL A   1      42.549  27.939  29.265  1.00  0.00     0.167 HD
ATOM     45  C   UNL A   1      42.785  29.027  33.598  1.00  0.00     0.037 A 
ATOM     46  C   UNL A   1      43.087  26.266  27.166  1.00  0.00     0.037 A 
ATOM     47  C   UNL A   1      43.775  29.871  32.970  1.00  0.00     0.049 A 
ATOM     48  C   UNL A   1      44.169  26.599  28.130  1.00  0.00     0.074 A 
ATOM     49  C   UNL A   1      43.857  31.225  32.702  1.00  0.00     0.029 A 
ATOM     50  N   UNL A   1      44.703  29.275  32.149  1.00  0.00    -0.354 N 
ATOM     51  N   UNL A   1      44.862  27.704  28.075  1.00  0.00    -0.248 NA
ATOM     52  C   UNL A   1      44.123  25.953  29.435  1.00  0.00     0.031 C 
ATOM     53  C   UNL A   1      44.446  31.308  31.406  1.00  0.00     0.029 A 
ATOM     54  C   UNL A   1      44.777  30.016  30.997  1.00  0.00     0.049 A 
ATOM     55  H   UNL A   1      45.220  28.463  32.351  1.00  0.00     0.167 HD
ATOM     56  C   UNL A   1      44.962  28.123  29.394  1.00  0.00     0.074 A 
ATOM     57  C   UNL A   1      44.539  26.972  30.193  1.00  0.00     0.031 C 
ATOM     58  C   UNL A   1      45.080  29.447  29.705  1.00  0.00     0.037 A 
BRANCH  45  59
ATOM     59  C   UNL A   1      43.164  27.919  34.554  1.00  0.00     0.064 A 
ATOM     60  C   UNL A   1      43.478  28.258  35.888  1.00  0.00     0.173 A 
ATOM     61  C   UNL A   1      43.541  26.616  34.160  1.00  0.00     0.173 A 
ATOM     62  F   UNL A   1      43.159  29.465  36.379  1.00  0.00    -0.203 F 
ATOM     63  C   UNL A   1      44.218  27.409  36.713  1.00  0.00     0.198 A 
ATOM     64  C   UNL A   1      44.239  25.754  35.004  1.00  0.00     0.198 A 
ATOM     65  F   UNL A   1      43.352  26.155  32.920  1.00  0.00    -0.203 F 
ATOM     66  F   UNL A   1      44.617  27.838  37.919  1.00  0.00    -0.200 F 
ATOM     67  C   UNL A   1      44.612  26.164  36.264  1.00  0.00     0.200 A 
ATOM     68  F   UNL A   1      44.621  24.554  34.545  1.00  0.00    -0.200 F 
ATOM     69  F   UNL A   1      45.386  25.379  37.024  1.00  0.00    -0.200 F 
ENDBRANCH  45  59
BRANCH  46  70
ATOM     70  C   UNL A   1      43.030  24.964  26.456  1.00  0.00     0.064 A 
ATOM     71  C   UNL A   1      43.849  24.704  25.344  1.00  0.00     0.173 A 
ATOM     72  C   UNL A   1      42.387  23.849  27.029  1.00  0.00     0.173 A 
ATOM     73  F   UNL A   1      44.537  25.700  24.766  1.00  0.00    -0.203 F 
ATOM     74  C   UNL A   1      44.036  23.405  24.854  1.00  0.00     0.198 A 
ATOM     75  C   UNL A   1      42.571  22.554  26.538  1.00  0.00     0.198 A 
ATOM     76  F   UNL A   1      41.645  23.978  28.138  1.00  0.00    -0.203 F 
ATOM     77  F   UNL A   1      44.874  23.189  23.830  1.00  0.00    -0.200 F 
ATOM     78  C   UNL A   1      43.406  22.330  25.460  1.00  0.00     0.200 A 
ATOM     79  F   UNL A   1      41.987  21.519  27.158  1.00  0.00    -0.200 F 
ATOM     80  F   UNL A   1      43.635  21.080  25.033  1.00  0.00    -0.200 F 
ENDBRANCH  46  70
BRANCH  58  81
ATOM     81  C   UNL A   1      45.335  30.417  28.583  1.00  0.00     0.064 A 
ATOM     82  C   UNL A   1      44.325  31.037  27.825  1.00  0.00     0.173 A 
ATOM     83  C   UNL A   1      46.650  30.850  28.372  1.00  0.00     0.173 A 
ATOM     84  F   UNL A   1      43.034  30.756  28.034  1.00  0.00    -0.203 F 
ATOM     85  C   UNL A   1      44.626  32.012  26.874  1.00  0.00     0.198 A 
ATOM     86  C   UNL A   1      46.945  31.850  27.450  1.00  0.00     0.198 A 
ATOM     87  F   UNL A   1      47.650  30.337  29.106  1.00  0.00    -0.203 F 
ATOM     88  F   UNL A   1      43.644  32.582  26.159  1.00  0.00    -0.200 F 
ATOM     89  C   UNL A   1      45.936  32.424  26.694  1.00  0.00     0.200 A 
ATOM     90  F   UNL A   1      48.208  32.280  27.318  1.00  0.00    -0.200 F 
ATOM     91  F   UNL A   1      46.224  33.391  25.812  1.00  0.00    -0.200 F 
ENDBRANCH  58  81
ENDBRANCH  32  33
ENDBRANCH  25  27
ENDBRANCH  24  25
ENDBRANCH  23  24
ENDBRANCH   1  23
TORSDOF 14
ENDMDL
MODEL 3
REMARK VINA RESULT:     -12.5      1.899      3.607
REMARK SMILES CCn1ccc(NC(=O)[C@H]2[C@@H](C(=O)OCCOC(=O)c3ccc(-c4c5nc(c(-c6c(F)c(F)c(F)c(F)c6F)c6ccc([nH]6)c(-c6c(F)c(F)c(F)c(F)c6F)c6nc(c(-c7c(F)c(F)c(F)c(F)c7F)c7ccc4[nH]7)C=C6)C=C5)cc3)[C@H]3C=C[C@@H]2C3)n1
REMARK SMILES IDX 15 1 14 2 12 3 13 4 11 5 10 6 86 7 83 8 85 9 87 10 84 11
REMARK SMILES IDX 8 12 7 13 9 15 6 16 3 17 4 18 88 19 5 20 2 21 1 22 16 23
REMARK SMILES IDX 17 24 18 25 19 26 20 27 21 28 82 29 22 30 81 31 23 32 24 33
REMARK SMILES IDX 25 34 75 35 26 36 80 37 74 38 76 39 27 40 79 41 73 42 72 43
REMARK SMILES IDX 28 45 60 46 40 47 59 48 41 49 44 50 58 51 77 52 42 53 43 54
REMARK SMILES IDX 57 56 78 57 45 58 29 59 30 60 38 61 31 62 32 63 36 64 39 65
REMARK SMILES IDX 33 66 34 67 37 68 35 69 61 70 62 71 70 72 63 73 64 74 68 75
REMARK SMILES IDX 71 76 65 77 66 78 69 79 67 80 46 81 47 82 55 83 48 84 49 85
REMARK SMILES IDX 53 86 56 87 50 88 51 89 54 90 52 91
REMARK H PARENT 7 14 76 44 44 55
REMARK Flexibility Score: inf
ROOT
ATOM      1  C   UNL A   1      37.152  22.803  24.626  1.00  0.00     0.274 C 
ENDROOT
BRANCH   1   2
ATOM      2  O   UNL A   1      36.002  22.034  24.230  1.00  0.00    -0.462 OA
BRANCH   2   3
ATOM      3  C   UNL A   1      35.051  22.734  23.576  1.00  0.00     0.310 C 
ATOM      4  O   UNL A   1      35.301  23.595  22.741  1.00  0.00    -0.252 OA
BRANCH   3   5
ATOM      5  C   UNL A   1      33.625  22.417  23.930  1.00  0.00     0.119 C 
ATOM      6  C   UNL A   1      33.043  23.161  25.168  1.00  0.00     0.100 C 
ATOM      7  C   UNL A   1      32.515  21.959  26.009  1.00  0.00     0.025 C 
ATOM      8  C   UNL A   1      33.280  20.928  24.171  1.00  0.00     0.027 C 
ATOM      9  C   UNL A   1      33.633  21.030  26.430  1.00  0.00    -0.027 C 
ATOM     10  C   UNL A   1      31.929  21.081  24.884  1.00  0.00     0.017 C 
ATOM     11  C   UNL A   1      34.063  20.387  25.335  1.00  0.00    -0.027 C 
BRANCH   6  12
ATOM     12  C   UNL A   1      33.943  24.149  25.910  1.00  0.00     0.230 C 
ATOM     13  N   UNL A   1      33.984  25.474  25.569  1.00  0.00    -0.309 N 
ATOM     14  H   UNL A   1      34.636  26.004  26.083  1.00  0.00     0.171 HD
ATOM     15  O   UNL A   1      34.661  23.774  26.842  1.00  0.00    -0.274 OA
BRANCH  13  16
ATOM     16  C   UNL A   1      33.278  26.196  24.636  1.00  0.00     0.154 A 
ATOM     17  N   UNL A   1      31.921  27.726  24.098  1.00  0.00    -0.271 N 
ATOM     18  C   UNL A   1      32.717  27.577  22.995  1.00  0.00     0.111 A 
ATOM     19  N   UNL A   1      32.106  26.730  25.000  1.00  0.00    -0.155 NA
ATOM     20  C   UNL A   1      33.605  26.573  23.315  1.00  0.00     0.068 A 
BRANCH  17  21
ATOM     21  C   UNL A   1      31.160  28.900  24.491  1.00  0.00     0.141 C 
ATOM     22  C   UNL A   1      31.750  29.726  25.624  1.00  0.00     0.029 C 
ENDBRANCH  17  21
ENDBRANCH  13  16
ENDBRANCH   6  12
ENDBRANCH   3   5
ENDBRANCH   2   3
ENDBRANCH   1   2
BRANCH   1  23
ATOM     23  C   UNL A   1      38.009  22.102  25.681  1.00  0.00     0.275 C 
BRANCH  23  24
ATOM     24  O   UNL A   1      38.649  23.016  26.569  1.00  0.00    -0.458 OA
BRANCH  24  25
ATOM     25  C   UNL A   1      39.948  22.780  26.884  1.00  0.00     0.338 C 
ATOM     26  O   UNL A   1      40.514  21.711  26.980  1.00  0.00    -0.246 OA
BRANCH  25  27
ATOM     27  C   UNL A   1      40.585  24.081  27.137  1.00  0.00     0.060 A 
ATOM     28  C   UNL A   1      41.517  24.209  28.173  1.00  0.00     0.016 A 
ATOM     29  C   UNL A   1      40.088  25.196  26.453  1.00  0.00     0.016 A 
ATOM     30  C   UNL A   1      41.787  25.476  28.657  1.00  0.00     0.010 A 
ATOM     31  C   UNL A   1      40.363  26.450  26.925  1.00  0.00     0.010 A 
ATOM     32  C   UNL A   1      41.117  26.564  28.086  1.00  0.00    -0.014 A 
BRANCH  32  33
ATOM     33  C   UNL A   1      41.188  27.867  28.711  1.00  0.00     0.031 A 
ATOM     34  C   UNL A   1      42.360  28.666  28.294  1.00  0.00     0.074 A 
ATOM     35  C   UNL A   1      40.177  28.324  29.481  1.00  0.00     0.049 A 
ATOM     36  N   UNL A   1      43.347  29.045  29.030  1.00  0.00    -0.248 NA
ATOM     37  C   UNL A   1      42.538  28.944  26.861  1.00  0.00     0.031 C 
ATOM     38  C   UNL A   1      38.865  27.713  29.727  1.00  0.00     0.029 A 
ATOM     39  N   UNL A   1      40.083  29.504  30.149  1.00  0.00    -0.354 N 
ATOM     40  C   UNL A   1      44.177  29.794  28.201  1.00  0.00     0.074 A 
ATOM     41  C   UNL A   1      43.728  29.550  26.857  1.00  0.00     0.031 C 
ATOM     42  C   UNL A   1      38.038  28.624  30.289  1.00  0.00     0.029 A 
ATOM     43  C   UNL A   1      38.800  29.820  30.589  1.00  0.00     0.049 A 
ATOM     44  H   UNL A   1      40.860  30.087  30.310  1.00  0.00     0.167 HD
ATOM     45  C   UNL A   1      44.995  30.743  28.733  1.00  0.00     0.037 A 
ATOM     46  C   UNL A   1      38.412  31.009  31.115  1.00  0.00     0.037 A 
ATOM     47  C   UNL A   1      45.191  30.507  30.144  1.00  0.00     0.049 A 
ATOM     48  C   UNL A   1      39.643  31.697  31.588  1.00  0.00     0.074 A 
ATOM     49  C   UNL A   1      45.718  29.464  30.883  1.00  0.00     0.029 A 
ATOM     50  N   UNL A   1      44.448  31.249  31.031  1.00  0.00    -0.354 N 
ATOM     51  N   UNL A   1      40.364  31.267  32.587  1.00  0.00    -0.248 NA
ATOM     52  C   UNL A   1      40.339  32.551  30.634  1.00  0.00     0.031 C 
ATOM     53  C   UNL A   1      44.867  29.354  32.021  1.00  0.00     0.029 A 
ATOM     54  C   UNL A   1      43.933  30.387  31.966  1.00  0.00     0.049 A 
ATOM     55  H   UNL A   1      44.309  32.223  31.000  1.00  0.00     0.167 HD
ATOM     56  C   UNL A   1      41.677  31.418  32.163  1.00  0.00     0.074 A 
ATOM     57  C   UNL A   1      41.600  32.270  30.976  1.00  0.00     0.031 C 
ATOM     58  C   UNL A   1      42.665  30.595  32.625  1.00  0.00     0.037 A 
BRANCH  45  59
ATOM     59  C   UNL A   1      45.271  32.086  28.096  1.00  0.00     0.064 A 
ATOM     60  C   UNL A   1      44.187  32.963  27.877  1.00  0.00     0.173 A 
ATOM     61  C   UNL A   1      46.461  32.417  27.410  1.00  0.00     0.173 A 
ATOM     62  F   UNL A   1      43.008  32.757  28.482  1.00  0.00    -0.203 F 
ATOM     63  C   UNL A   1      44.254  34.007  26.951  1.00  0.00     0.198 A 
ATOM     64  C   UNL A   1      46.536  33.489  26.523  1.00  0.00     0.198 A 
ATOM     65  F   UNL A   1      47.564  31.667  27.478  1.00  0.00    -0.203 F 
ATOM     66  F   UNL A   1      43.153  34.718  26.672  1.00  0.00    -0.200 F 
ATOM     67  C   UNL A   1      45.425  34.259  26.263  1.00  0.00     0.200 A 
ATOM     68  F   UNL A   1      47.679  33.711  25.857  1.00  0.00    -0.200 F 
ATOM     69  F   UNL A   1      45.470  35.209  25.321  1.00  0.00    -0.200 F 
ENDBRANCH  45  59
BRANCH  46  70
ATOM     70  C   UNL A   1      37.130  31.730  30.911  1.00  0.00     0.064 A 
ATOM     71  C   UNL A   1      36.228  31.927  31.971  1.00  0.00     0.173 A 
ATOM     72  C   UNL A   1      36.898  32.491  29.748  1.00  0.00     0.173 A 
ATOM     73  F   UNL A   1      36.402  31.279  33.132  1.00  0.00    -0.203 F 
ATOM     74  C   UNL A   1      35.177  32.849  31.882  1.00  0.00     0.198 A 
ATOM     75  C   UNL A   1      35.848  33.407  29.659  1.00  0.00     0.198 A 
ATOM     76  F   UNL A   1      37.744  32.433  28.709  1.00  0.00    -0.203 F 
ATOM     77  F   UNL A   1      34.376  33.054  32.937  1.00  0.00    -0.200 F 
ATOM     78  C   UNL A   1      34.996  33.597  30.731  1.00  0.00     0.200 A 
ATOM     79  F   UNL A   1      35.709  34.153  28.554  1.00  0.00    -0.200 F 
ATOM     80  F   UNL A   1      34.032  34.526  30.668  1.00  0.00    -0.200 F 
ENDBRANCH  46  70
BRANCH  58  81
ATOM     81  C   UNL A   1      42.342  29.680  33.774  1.00  0.00     0.064 A 
ATOM     82  C   UNL A   1      41.797  28.390  33.633  1.00  0.00     0.173 A 
ATOM     83  C   UNL A   1      42.745  30.067  35.059  1.00  0.00     0.173 A 
ATOM     84  F   UNL A   1      41.480  27.903  32.428  1.00  0.00    -0.203 F 
ATOM     85  C   UNL A   1      41.628  27.549  34.733  1.00  0.00     0.198 A 
ATOM     86  C   UNL A   1      42.611  29.212  36.150  1.00  0.00     0.198 A 
ATOM     87  F   UNL A   1      43.326  31.262  35.246  1.00  0.00    -0.203 F 
ATOM     88  F   UNL A   1      41.099  26.327  34.572  1.00  0.00    -0.200 F 
ATOM     89  C   UNL A   1      42.043  27.959  35.989  1.00  0.00     0.200 A 
ATOM     90  F   UNL A   1      43.063  29.594  37.352  1.00  0.00    -0.200 F 
ATOM     91  F   UNL A   1      41.922  27.137  37.041  1.00  0.00    -0.200 F 
ENDBRANCH  58  81
ENDBRANCH  32  33
ENDBRANCH  25  27
ENDBRANCH  24  25
ENDBRANCH  23  24
ENDBRANCH   1  23
TORSDOF 14
ENDMDL
