MODEL 1
REMARK VINA RESULT:      -9.7      0.000      0.000
REMARK SMILES C#CC[N@H+](CC(=O)OCCOC(=O)c1ccc(-c2c3nc(c(-c4c(F)c(F)c(F)c(F)c4F)c4ccc([nH]4)c(-c4c(F)c(F)c(F)c(F)c4F)c4nc(c(-c5c(F)c(F)c(F)c(F)c5F)c5ccc2[nH]5)C=C4)C=C3)cc1)[C@H](C)C(=O)NCCC
REMARK SMILES IDX 8 1 6 2 7 3 5 4 4 5 3 7 2 8 1 9 77 10 78 11 79 12 80 13
REMARK SMILES IDX 81 14 82 16 83 17 84 18 9 19 10 20 11 21 12 22 13 23 14 24
REMARK SMILES IDX 15 25 76 26 16 27 75 28 17 29 18 30 19 31 69 32 20 33 74 34
REMARK SMILES IDX 68 35 70 36 21 37 73 38 67 39 66 40 22 42 54 43 34 44 53 45
REMARK SMILES IDX 35 46 38 47 52 48 71 49 36 50 37 51 51 53 72 54 39 55 23 56
REMARK SMILES IDX 24 57 32 58 25 59 26 60 30 61 33 62 27 63 28 64 31 65 29 66
REMARK SMILES IDX 55 67 56 68 64 69 57 70 58 71 62 72 65 73 59 74 60 75 63 76
REMARK SMILES IDX 61 77 40 78 41 79 49 80 42 81 43 82 47 83 50 84 44 85 45 86
REMARK SMILES IDX 48 87 46 88
REMARK H PARENT 4 6 81 15 70 41 38 52
REMARK Flexibility Score: inf
ROOT
ATOM      1  O   UNL A   1      32.972  30.919  27.225  1.00  0.00    -0.458 OA
ENDROOT
BRANCH   1   2
ATOM      2  C   UNL A   1      33.267  29.696  26.708  1.00  0.00     0.361 C 
ATOM      3  O   UNL A   1      34.401  29.245  26.602  1.00  0.00    -0.245 OA
BRANCH   2   4
ATOM      4  C   UNL A   1      32.025  28.973  26.190  1.00  0.00     0.387 C 
BRANCH   4   5
ATOM      5  N   UNL A   1      32.237  27.798  25.288  1.00  0.00    -0.306 N 
ATOM      6  H   UNL A   1      33.157  27.830  24.850  1.00  0.00     0.350 HD
BRANCH   5   7
ATOM      7  C   UNL A   1      32.361  26.541  26.035  1.00  0.00     0.355 C 
BRANCH   7   8
ATOM      8  C   UNL A   1      33.501  25.658  25.746  1.00  0.00    -0.047 C 
ATOM      9  C   UNL A   1      34.405  24.954  25.390  1.00  0.00     0.010 C 
ENDBRANCH   7   8
ENDBRANCH   5   7
BRANCH   5  10
ATOM     10  C   UNL A   1      31.329  27.873  24.092  1.00  0.00     0.272 C 
ATOM     11  C   UNL A   1      30.686  26.578  23.557  1.00  0.00     0.086 C 
BRANCH  10  12
ATOM     12  C   UNL A   1      31.759  28.743  22.896  1.00  0.00     0.278 C 
ATOM     13  O   UNL A   1      32.900  28.662  22.426  1.00  0.00    -0.268 OA
ATOM     14  N   UNL A   1      30.935  29.705  22.376  1.00  0.00    -0.351 N 
ATOM     15  H   UNL A   1      31.378  30.376  21.807  1.00  0.00     0.163 HD
BRANCH  14  16
ATOM     16  C   UNL A   1      29.507  29.880  22.541  1.00  0.00     0.116 C 
BRANCH  16  17
ATOM     17  C   UNL A   1      29.148  31.010  23.491  1.00  0.00     0.018 C 
ATOM     18  C   UNL A   1      27.653  31.294  23.498  1.00  0.00     0.006 C 
ENDBRANCH  16  17
ENDBRANCH  14  16
ENDBRANCH  10  12
ENDBRANCH   5  10
ENDBRANCH   4   5
ENDBRANCH   2   4
ENDBRANCH   1   2
BRANCH   1  19
ATOM     19  C   UNL A   1      31.721  31.506  26.817  1.00  0.00     0.274 C 
BRANCH  19  20
ATOM     20  C   UNL A   1      31.776  33.036  26.878  1.00  0.00     0.275 C 
BRANCH  20  21
ATOM     21  O   UNL A   1      33.109  33.478  27.201  1.00  0.00    -0.458 OA
BRANCH  21  22
ATOM     22  C   UNL A   1      33.241  34.202  28.336  1.00  0.00     0.338 C 
ATOM     23  O   UNL A   1      32.537  35.116  28.724  1.00  0.00    -0.246 OA
BRANCH  22  24
ATOM     24  C   UNL A   1      34.409  33.720  29.085  1.00  0.00     0.060 A 
ATOM     25  C   UNL A   1      35.669  34.272  28.847  1.00  0.00     0.016 A 
ATOM     26  C   UNL A   1      34.256  32.645  29.959  1.00  0.00     0.016 A 
ATOM     27  C   UNL A   1      36.791  33.748  29.487  1.00  0.00     0.010 A 
ATOM     28  C   UNL A   1      35.377  32.133  30.614  1.00  0.00     0.010 A 
ATOM     29  C   UNL A   1      36.653  32.672  30.375  1.00  0.00    -0.014 A 
BRANCH  29  30
ATOM     30  C   UNL A   1      37.843  32.079  31.033  1.00  0.00     0.031 A 
ATOM     31  C   UNL A   1      38.638  31.020  30.325  1.00  0.00     0.074 A 
ATOM     32  C   UNL A   1      38.186  32.472  32.273  1.00  0.00     0.049 A 
ATOM     33  N   UNL A   1      39.624  30.285  30.771  1.00  0.00    -0.248 NA
ATOM     34  C   UNL A   1      38.266  30.744  28.928  1.00  0.00     0.031 C 
ATOM     35  C   UNL A   1      37.507  33.510  33.046  1.00  0.00     0.029 A 
ATOM     36  N   UNL A   1      39.183  32.030  33.108  1.00  0.00    -0.354 N 
ATOM     37  C   UNL A   1      39.976  29.446  29.721  1.00  0.00     0.074 A 
ATOM     38  C   UNL A   1      39.077  29.741  28.625  1.00  0.00     0.031 C 
ATOM     39  C   UNL A   1      38.104  33.627  34.243  1.00  0.00     0.029 A 
ATOM     40  C   UNL A   1      39.166  32.630  34.344  1.00  0.00     0.049 A 
ATOM     41  H   UNL A   1      39.845  31.350  32.848  1.00  0.00     0.167 HD
ATOM     42  C   UNL A   1      40.962  28.518  29.679  1.00  0.00     0.037 A 
ATOM     43  C   UNL A   1      39.899  32.378  35.444  1.00  0.00     0.037 A 
ATOM     44  C   UNL A   1      41.854  28.239  30.777  1.00  0.00     0.049 A 
ATOM     45  C   UNL A   1      40.941  31.292  35.393  1.00  0.00     0.074 A 
ATOM     46  C   UNL A   1      42.903  27.339  30.828  1.00  0.00     0.029 A 
ATOM     47  N   UNL A   1      41.795  28.855  32.019  1.00  0.00    -0.354 N 
ATOM     48  N   UNL A   1      41.281  30.514  34.393  1.00  0.00    -0.248 NA
ATOM     49  C   UNL A   1      41.702  31.047  36.626  1.00  0.00     0.031 C 
ATOM     50  C   UNL A   1      43.433  27.359  32.123  1.00  0.00     0.029 A 
ATOM     51  C   UNL A   1      42.767  28.329  32.855  1.00  0.00     0.049 A 
ATOM     52  H   UNL A   1      41.157  29.562  32.270  1.00  0.00     0.167 HD
ATOM     53  C   UNL A   1      42.315  29.715  34.863  1.00  0.00     0.074 A 
ATOM     54  C   UNL A   1      42.556  30.112  36.235  1.00  0.00     0.031 C 
ATOM     55  C   UNL A   1      43.002  28.741  34.217  1.00  0.00     0.037 A 
BRANCH  42  56
ATOM     56  C   UNL A   1      41.110  27.710  28.420  1.00  0.00     0.064 A 
ATOM     57  C   UNL A   1      41.971  28.099  27.383  1.00  0.00     0.173 A 
ATOM     58  C   UNL A   1      40.407  26.503  28.268  1.00  0.00     0.173 A 
ATOM     59  F   UNL A   1      42.662  29.245  27.473  1.00  0.00    -0.203 F 
ATOM     60  C   UNL A   1      42.099  27.328  26.229  1.00  0.00     0.198 A 
ATOM     61  C   UNL A   1      40.566  25.718  27.130  1.00  0.00     0.198 A 
ATOM     62  F   UNL A   1      39.577  26.077  29.231  1.00  0.00    -0.203 F 
ATOM     63  F   UNL A   1      42.889  27.746  25.230  1.00  0.00    -0.200 F 
ATOM     64  C   UNL A   1      41.403  26.135  26.107  1.00  0.00     0.200 A 
ATOM     65  F   UNL A   1      39.907  24.555  27.022  1.00  0.00    -0.200 F 
ATOM     66  F   UNL A   1      41.536  25.389  25.001  1.00  0.00    -0.200 F 
ENDBRANCH  42  56
BRANCH  43  67
ATOM     67  C   UNL A   1      39.660  33.150  36.693  1.00  0.00     0.064 A 
ATOM     68  C   UNL A   1      38.686  32.747  37.617  1.00  0.00     0.173 A 
ATOM     69  C   UNL A   1      40.389  34.315  36.982  1.00  0.00     0.173 A 
ATOM     70  F   UNL A   1      37.947  31.654  37.376  1.00  0.00    -0.203 F 
ATOM     71  C   UNL A   1      38.431  33.493  38.766  1.00  0.00     0.198 A 
ATOM     72  C   UNL A   1      40.159  35.039  38.149  1.00  0.00     0.198 A 
ATOM     73  F   UNL A   1      41.334  34.746  36.133  1.00  0.00    -0.203 F 
ATOM     74  F   UNL A   1      37.454  33.117  39.603  1.00  0.00    -0.200 F 
ATOM     75  C   UNL A   1      39.173  34.634  39.035  1.00  0.00     0.200 A 
ATOM     76  F   UNL A   1      40.889  36.131  38.414  1.00  0.00    -0.200 F 
ATOM     77  F   UNL A   1      38.928  35.348  40.142  1.00  0.00    -0.200 F 
ENDBRANCH  43  67
BRANCH  55  78
ATOM     78  C   UNL A   1      44.118  28.070  34.968  1.00  0.00     0.064 A 
ATOM     79  C   UNL A   1      43.923  26.879  35.681  1.00  0.00     0.173 A 
ATOM     80  C   UNL A   1      45.415  28.610  34.936  1.00  0.00     0.173 A 
ATOM     81  F   UNL A   1      42.702  26.329  35.756  1.00  0.00    -0.203 F 
ATOM     82  C   UNL A   1      44.976  26.269  36.361  1.00  0.00     0.198 A 
ATOM     83  C   UNL A   1      46.472  27.977  35.583  1.00  0.00     0.198 A 
ATOM     84  F   UNL A   1      45.660  29.744  34.262  1.00  0.00    -0.203 F 
ATOM     85  F   UNL A   1      44.754  25.163  37.083  1.00  0.00    -0.200 F 
ATOM     86  C   UNL A   1      46.250  26.814  36.303  1.00  0.00     0.200 A 
ATOM     87  F   UNL A   1      47.706  28.495  35.510  1.00  0.00    -0.200 F 
ATOM     88  F   UNL A   1      47.264  26.220  36.947  1.00  0.00    -0.200 F 
ENDBRANCH  55  78
ENDBRANCH  29  30
ENDBRANCH  22  24
ENDBRANCH  21  22
ENDBRANCH  20  21
ENDBRANCH  19  20
ENDBRANCH   1  19
TORSDOF 18
ENDMDL
MODEL 2
REMARK VINA RESULT:      -9.6      2.121      3.801
REMARK SMILES C#CC[N@H+](CC(=O)OCCOC(=O)c1ccc(-c2c3nc(c(-c4c(F)c(F)c(F)c(F)c4F)c4ccc([nH]4)c(-c4c(F)c(F)c(F)c(F)c4F)c4nc(c(-c5c(F)c(F)c(F)c(F)c5F)c5ccc2[nH]5)C=C4)C=C3)cc1)[C@H](C)C(=O)NCCC
REMARK SMILES IDX 8 1 6 2 7 3 5 4 4 5 3 7 2 8 1 9 77 10 78 11 79 12 80 13
REMARK SMILES IDX 81 14 82 16 83 17 84 18 9 19 10 20 11 21 12 22 13 23 14 24
REMARK SMILES IDX 15 25 76 26 16 27 75 28 17 29 18 30 19 31 69 32 20 33 74 34
REMARK SMILES IDX 68 35 70 36 21 37 73 38 67 39 66 40 22 42 54 43 34 44 53 45
REMARK SMILES IDX 35 46 38 47 52 48 71 49 36 50 37 51 51 53 72 54 39 55 23 56
REMARK SMILES IDX 24 57 32 58 25 59 26 60 30 61 33 62 27 63 28 64 31 65 29 66
REMARK SMILES IDX 55 67 56 68 64 69 57 70 58 71 62 72 65 73 59 74 60 75 63 76
REMARK SMILES IDX 61 77 40 78 41 79 49 80 42 81 43 82 47 83 50 84 44 85 45 86
REMARK SMILES IDX 48 87 46 88
REMARK H PARENT 4 6 81 15 70 41 38 52
REMARK Flexibility Score: inf
ROOT
ATOM      1  O   UNL A   1      31.123  28.173  25.227  1.00  0.00    -0.458 OA
ENDROOT
BRANCH   1   2
ATOM      2  C   UNL A   1      30.599  27.277  24.348  1.00  0.00     0.361 C 
ATOM      3  O   UNL A   1      30.292  27.540  23.191  1.00  0.00    -0.245 OA
BRANCH   2   4
ATOM      4  C   UNL A   1      30.351  25.913  24.991  1.00  0.00     0.387 C 
BRANCH   4   5
ATOM      5  N   UNL A   1      31.407  24.868  24.819  1.00  0.00    -0.306 N 
ATOM      6  H   UNL A   1      31.051  24.063  24.304  1.00  0.00     0.350 HD
BRANCH   5   7
ATOM      7  C   UNL A   1      32.470  25.299  23.904  1.00  0.00     0.355 C 
BRANCH   7   8
ATOM      8  C   UNL A   1      32.955  24.350  22.889  1.00  0.00    -0.047 C 
ATOM      9  C   UNL A   1      33.307  23.487  22.135  1.00  0.00     0.010 C 
ENDBRANCH   7   8
ENDBRANCH   5   7
BRANCH   5  10
ATOM     10  C   UNL A   1      31.764  24.247  26.141  1.00  0.00     0.272 C 
ATOM     11  C   UNL A   1      33.250  24.053  26.502  1.00  0.00     0.086 C 
BRANCH  10  12
ATOM     12  C   UNL A   1      30.975  23.008  26.608  1.00  0.00     0.278 C 
ATOM     13  O   UNL A   1      30.155  23.086  27.530  1.00  0.00    -0.268 OA
ATOM     14  N   UNL A   1      31.225  21.764  26.096  1.00  0.00    -0.351 N 
ATOM     15  H   UNL A   1      30.877  21.012  26.628  1.00  0.00     0.163 HD
BRANCH  14  16
ATOM     16  C   UNL A   1      31.929  21.392  24.886  1.00  0.00     0.116 C 
BRANCH  16  17
ATOM     17  C   UNL A   1      33.023  20.365  25.121  1.00  0.00     0.018 C 
ATOM     18  C   UNL A   1      34.401  20.913  24.777  1.00  0.00     0.006 C 
ENDBRANCH  16  17
ENDBRANCH  14  16
ENDBRANCH  10  12
ENDBRANCH   5  10
ENDBRANCH   4   5
ENDBRANCH   2   4
ENDBRANCH   1   2
BRANCH   1  19
ATOM     19  C   UNL A   1      31.374  29.498  24.722  1.00  0.00     0.274 C 
BRANCH  19  20
ATOM     20  C   UNL A   1      31.592  30.498  25.864  1.00  0.00     0.275 C 
BRANCH  20  21
ATOM     21  O   UNL A   1      32.956  30.447  26.324  1.00  0.00    -0.458 OA
BRANCH  21  22
ATOM     22  C   UNL A   1      33.364  31.472  27.106  1.00  0.00     0.338 C 
ATOM     23  O   UNL A   1      32.804  32.538  27.289  1.00  0.00    -0.246 OA
BRANCH  22  24
ATOM     24  C   UNL A   1      34.638  31.119  27.743  1.00  0.00     0.060 A 
ATOM     25  C   UNL A   1      34.844  29.823  28.224  1.00  0.00     0.016 A 
ATOM     26  C   UNL A   1      35.593  32.114  27.947  1.00  0.00     0.016 A 
ATOM     27  C   UNL A   1      36.015  29.515  28.914  1.00  0.00     0.010 A 
ATOM     28  C   UNL A   1      36.773  31.799  28.622  1.00  0.00     0.010 A 
ATOM     29  C   UNL A   1      36.988  30.502  29.120  1.00  0.00    -0.014 A 
BRANCH  29  30
ATOM     30  C   UNL A   1      38.221  30.199  29.888  1.00  0.00     0.031 A 
ATOM     31  C   UNL A   1      39.238  29.249  29.322  1.00  0.00     0.074 A 
ATOM     32  C   UNL A   1      38.408  30.753  31.100  1.00  0.00     0.049 A 
ATOM     33  N   UNL A   1      40.310  28.750  29.882  1.00  0.00    -0.248 NA
ATOM     34  C   UNL A   1      39.011  28.790  27.943  1.00  0.00     0.031 C 
ATOM     35  C   UNL A   1      37.504  31.709  31.737  1.00  0.00     0.029 A 
ATOM     36  N   UNL A   1      39.413  30.577  32.019  1.00  0.00    -0.354 N 
ATOM     37  C   UNL A   1      40.873  27.904  28.936  1.00  0.00     0.074 A 
ATOM     38  C   UNL A   1      40.008  27.933  27.776  1.00  0.00     0.031 C 
ATOM     39  C   UNL A   1      37.993  32.037  32.943  1.00  0.00     0.029 A 
ATOM     40  C   UNL A   1      39.208  31.267  33.189  1.00  0.00     0.049 A 
ATOM     41  H   UNL A   1      40.202  30.012  31.856  1.00  0.00     0.167 HD
ATOM     42  C   UNL A   1      42.012  27.176  29.030  1.00  0.00     0.037 A 
ATOM     43  C   UNL A   1      39.904  31.250  34.342  1.00  0.00     0.037 A 
ATOM     44  C   UNL A   1      42.867  27.163  30.189  1.00  0.00     0.049 A 
ATOM     45  C   UNL A   1      41.126  30.376  34.444  1.00  0.00     0.074 A 
ATOM     46  C   UNL A   1      44.056  26.480  30.376  1.00  0.00     0.029 A 
ATOM     47  N   UNL A   1      42.619  27.861  31.363  1.00  0.00    -0.354 N 
ATOM     48  N   UNL A   1      41.664  29.593  33.540  1.00  0.00    -0.248 NA
ATOM     49  C   UNL A   1      41.838  30.383  35.729  1.00  0.00     0.031 C 
ATOM     50  C   UNL A   1      44.490  26.709  31.686  1.00  0.00     0.029 A 
ATOM     51  C   UNL A   1      43.615  27.598  32.290  1.00  0.00     0.049 A 
ATOM     52  H   UNL A   1      41.849  28.455  31.515  1.00  0.00     0.167 HD
ATOM     53  C   UNL A   1      42.792  29.043  34.133  1.00  0.00     0.074 A 
ATOM     54  C   UNL A   1      42.870  29.593  35.470  1.00  0.00     0.031 C 
ATOM     55  C   UNL A   1      43.684  28.161  33.616  1.00  0.00     0.037 A 
BRANCH  42  56
ATOM     56  C   UNL A   1      42.384  26.305  27.862  1.00  0.00     0.064 A 
ATOM     57  C   UNL A   1      41.822  25.034  27.673  1.00  0.00     0.173 A 
ATOM     58  C   UNL A   1      43.291  26.768  26.895  1.00  0.00     0.173 A 
ATOM     59  F   UNL A   1      40.955  24.538  28.569  1.00  0.00    -0.203 F 
ATOM     60  C   UNL A   1      42.175  24.248  26.578  1.00  0.00     0.198 A 
ATOM     61  C   UNL A   1      43.613  25.996  25.783  1.00  0.00     0.198 A 
ATOM     62  F   UNL A   1      43.853  27.980  27.019  1.00  0.00    -0.203 F 
ATOM     63  F   UNL A   1      41.663  23.016  26.445  1.00  0.00    -0.200 F 
ATOM     64  C   UNL A   1      43.064  24.732  25.630  1.00  0.00     0.200 A 
ATOM     65  F   UNL A   1      44.458  26.474  24.858  1.00  0.00    -0.200 F 
ATOM     66  F   UNL A   1      43.394  23.980  24.570  1.00  0.00    -0.200 F 
ENDBRANCH  42  56
BRANCH  43  67
ATOM     67  C   UNL A   1      39.450  32.068  35.498  1.00  0.00     0.064 A 
ATOM     68  C   UNL A   1      39.919  33.375  35.688  1.00  0.00     0.173 A 
ATOM     69  C   UNL A   1      38.550  31.557  36.447  1.00  0.00     0.173 A 
ATOM     70  F   UNL A   1      40.797  33.903  34.822  1.00  0.00    -0.203 F 
ATOM     71  C   UNL A   1      39.528  34.128  36.794  1.00  0.00     0.198 A 
ATOM     72  C   UNL A   1      38.131  32.323  37.531  1.00  0.00     0.198 A 
ATOM     73  F   UNL A   1      38.068  30.311  36.315  1.00  0.00    -0.203 F 
ATOM     74  F   UNL A   1      40.038  35.354  36.981  1.00  0.00    -0.200 F 
ATOM     75  C   UNL A   1      38.629  33.604  37.710  1.00  0.00     0.200 A 
ATOM     76  F   UNL A   1      37.249  31.819  38.406  1.00  0.00    -0.200 F 
ATOM     77  F   UNL A   1      38.251  34.330  38.772  1.00  0.00    -0.200 F 
ENDBRANCH  43  67
BRANCH  55  78
ATOM     78  C   UNL A   1      44.853  27.776  34.479  1.00  0.00     0.064 A 
ATOM     79  C   UNL A   1      44.824  26.646  35.308  1.00  0.00     0.173 A 
ATOM     80  C   UNL A   1      46.038  28.531  34.441  1.00  0.00     0.173 A 
ATOM     81  F   UNL A   1      43.713  25.899  35.393  1.00  0.00    -0.203 F 
ATOM     82  C   UNL A   1      45.924  26.302  36.091  1.00  0.00     0.198 A 
ATOM     83  C   UNL A   1      47.148  28.162  35.195  1.00  0.00     0.198 A 
ATOM     84  F   UNL A   1      46.123  29.617  33.659  1.00  0.00    -0.203 F 
ATOM     85  F   UNL A   1      45.853  25.251  36.919  1.00  0.00    -0.200 F 
ATOM     86  C   UNL A   1      47.087  27.055  36.026  1.00  0.00     0.200 A 
ATOM     87  F   UNL A   1      48.277  28.880  35.116  1.00  0.00    -0.200 F 
ATOM     88  F   UNL A   1      48.148  26.717  36.771  1.00  0.00    -0.200 F 
ENDBRANCH  55  78
ENDBRANCH  29  30
ENDBRANCH  22  24
ENDBRANCH  21  22
ENDBRANCH  20  21
ENDBRANCH  19  20
ENDBRANCH   1  19
TORSDOF 18
ENDMDL
MODEL 3
REMARK VINA RESULT:      -9.5      0.872      2.504
REMARK SMILES C#CC[N@H+](CC(=O)OCCOC(=O)c1ccc(-c2c3nc(c(-c4c(F)c(F)c(F)c(F)c4F)c4ccc([nH]4)c(-c4c(F)c(F)c(F)c(F)c4F)c4nc(c(-c5c(F)c(F)c(F)c(F)c5F)c5ccc2[nH]5)C=C4)C=C3)cc1)[C@H](C)C(=O)NCCC
REMARK SMILES IDX 8 1 6 2 7 3 5 4 4 5 3 7 2 8 1 9 77 10 78 11 79 12 80 13
REMARK SMILES IDX 81 14 82 16 83 17 84 18 9 19 10 20 11 21 12 22 13 23 14 24
REMARK SMILES IDX 15 25 76 26 16 27 75 28 17 29 18 30 19 31 69 32 20 33 74 34
REMARK SMILES IDX 68 35 70 36 21 37 73 38 67 39 66 40 22 42 54 43 34 44 53 45
REMARK SMILES IDX 35 46 38 47 52 48 71 49 36 50 37 51 51 53 72 54 39 55 23 56
REMARK SMILES IDX 24 57 32 58 25 59 26 60 30 61 33 62 27 63 28 64 31 65 29 66
REMARK SMILES IDX 55 67 56 68 64 69 57 70 58 71 62 72 65 73 59 74 60 75 63 76
REMARK SMILES IDX 61 77 40 78 41 79 49 80 42 81 43 82 47 83 50 84 44 85 45 86
REMARK SMILES IDX 48 87 46 88
REMARK H PARENT 4 6 81 15 70 41 38 52
REMARK Flexibility Score: inf
ROOT
ATOM      1  O   UNL A   1      33.164  30.870  27.222  1.00  0.00    -0.458 OA
ENDROOT
BRANCH   1   2
ATOM      2  C   UNL A   1      33.347  29.522  27.178  1.00  0.00     0.361 C 
ATOM      3  O   UNL A   1      34.442  28.974  27.129  1.00  0.00    -0.245 OA
BRANCH   2   4
ATOM      4  C   UNL A   1      32.024  28.762  27.109  1.00  0.00     0.387 C 
BRANCH   4   5
ATOM      5  N   UNL A   1      31.793  27.887  25.918  1.00  0.00    -0.306 N 
ATOM      6  H   UNL A   1      30.806  27.650  25.818  1.00  0.00     0.350 HD
BRANCH   5   7
ATOM      7  C   UNL A   1      32.005  28.602  24.654  1.00  0.00     0.355 C 
BRANCH   7   8
ATOM      8  C   UNL A   1      30.837  29.156  23.951  1.00  0.00    -0.047 C 
ATOM      9  C   UNL A   1      29.898  29.514  23.297  1.00  0.00     0.010 C 
ENDBRANCH   7   8
ENDBRANCH   5   7
BRANCH   5  10
ATOM     10  C   UNL A   1      32.409  26.531  26.124  1.00  0.00     0.272 C 
ATOM     11  C   UNL A   1      33.662  26.146  25.311  1.00  0.00     0.086 C 
BRANCH  10  12
ATOM     12  C   UNL A   1      31.480  25.306  26.211  1.00  0.00     0.278 C 
ATOM     13  O   UNL A   1      31.398  24.641  27.251  1.00  0.00    -0.268 OA
ATOM     14  N   UNL A   1      30.792  24.848  25.120  1.00  0.00    -0.351 N 
ATOM     15  H   UNL A   1      30.446  23.929  25.196  1.00  0.00     0.163 HD
BRANCH  14  16
ATOM     16  C   UNL A   1      30.501  25.517  23.869  1.00  0.00     0.116 C 
BRANCH  16  17
ATOM     17  C   UNL A   1      31.398  25.070  22.727  1.00  0.00     0.018 C 
ATOM     18  C   UNL A   1      31.771  26.226  21.810  1.00  0.00     0.006 C 
ENDBRANCH  16  17
ENDBRANCH  14  16
ENDBRANCH  10  12
ENDBRANCH   5  10
ENDBRANCH   4   5
ENDBRANCH   2   4
ENDBRANCH   1   2
BRANCH   1  19
ATOM     19  C   UNL A   1      31.867  31.356  26.827  1.00  0.00     0.274 C 
BRANCH  19  20
ATOM     20  C   UNL A   1      31.743  32.866  27.062  1.00  0.00     0.275 C 
BRANCH  20  21
ATOM     21  O   UNL A   1      33.045  33.455  27.242  1.00  0.00    -0.458 OA
BRANCH  21  22
ATOM     22  C   UNL A   1      33.210  34.218  28.347  1.00  0.00     0.338 C 
ATOM     23  O   UNL A   1      32.527  35.157  28.713  1.00  0.00    -0.246 OA
BRANCH  22  24
ATOM     24  C   UNL A   1      34.383  33.744  29.093  1.00  0.00     0.060 A 
ATOM     25  C   UNL A   1      35.650  34.255  28.801  1.00  0.00     0.016 A 
ATOM     26  C   UNL A   1      34.226  32.716  30.020  1.00  0.00     0.016 A 
ATOM     27  C   UNL A   1      36.774  33.736  29.442  1.00  0.00     0.010 A 
ATOM     28  C   UNL A   1      35.350  32.209  30.675  1.00  0.00     0.010 A 
ATOM     29  C   UNL A   1      36.632  32.707  30.382  1.00  0.00    -0.014 A 
BRANCH  29  30
ATOM     30  C   UNL A   1      37.823  32.117  31.042  1.00  0.00     0.031 A 
ATOM     31  C   UNL A   1      38.602  31.036  30.349  1.00  0.00     0.074 A 
ATOM     32  C   UNL A   1      38.182  32.534  32.270  1.00  0.00     0.049 A 
ATOM     33  N   UNL A   1      39.586  30.302  30.802  1.00  0.00    -0.248 NA
ATOM     34  C   UNL A   1      38.213  30.733  28.963  1.00  0.00     0.031 C 
ATOM     35  C   UNL A   1      37.519  33.596  33.026  1.00  0.00     0.029 A 
ATOM     36  N   UNL A   1      39.183  32.102  33.105  1.00  0.00    -0.354 N 
ATOM     37  C   UNL A   1      39.919  29.436  29.768  1.00  0.00     0.074 A 
ATOM     38  C   UNL A   1      39.013  29.716  28.675  1.00  0.00     0.031 C 
ATOM     39  C   UNL A   1      38.129  33.734  34.214  1.00  0.00     0.029 A 
ATOM     40  C   UNL A   1      39.183  32.730  34.327  1.00  0.00     0.049 A 
ATOM     41  H   UNL A   1      39.836  31.411  32.853  1.00  0.00     0.167 HD
ATOM     42  C   UNL A   1      40.897  28.499  29.738  1.00  0.00     0.037 A 
ATOM     43  C   UNL A   1      39.925  32.495  35.425  1.00  0.00     0.037 A 
ATOM     44  C   UNL A   1      41.797  28.237  30.832  1.00  0.00     0.049 A 
ATOM     45  C   UNL A   1      40.957  31.399  35.388  1.00  0.00     0.074 A 
ATOM     46  C   UNL A   1      42.839  27.328  30.894  1.00  0.00     0.029 A 
ATOM     47  N   UNL A   1      41.756  28.881  32.061  1.00  0.00    -0.354 N 
ATOM     48  N   UNL A   1      41.280  30.597  34.402  1.00  0.00    -0.248 NA
ATOM     49  C   UNL A   1      41.728  31.175  36.619  1.00  0.00     0.031 C 
ATOM     50  C   UNL A   1      43.382  27.372  32.182  1.00  0.00     0.029 A 
ATOM     51  C   UNL A   1      42.732  28.364  32.900  1.00  0.00     0.049 A 
ATOM     52  H   UNL A   1      41.127  29.598  32.303  1.00  0.00     0.167 HD
ATOM     53  C   UNL A   1      42.311  29.799  34.880  1.00  0.00     0.074 A 
ATOM     54  C   UNL A   1      42.570  30.223  36.240  1.00  0.00     0.031 C 
ATOM     55  C   UNL A   1      42.984  28.805  34.249  1.00  0.00     0.037 A 
BRANCH  42  56
ATOM     56  C   UNL A   1      41.026  27.662  28.495  1.00  0.00     0.064 A 
ATOM     57  C   UNL A   1      40.271  26.496  28.302  1.00  0.00     0.173 A 
ATOM     58  C   UNL A   1      41.893  28.057  27.464  1.00  0.00     0.173 A 
ATOM     59  F   UNL A   1      39.432  26.068  29.257  1.00  0.00    -0.203 F 
ATOM     60  C   UNL A   1      40.401  25.741  27.138  1.00  0.00     0.198 A 
ATOM     61  C   UNL A   1      41.993  27.320  26.287  1.00  0.00     0.198 A 
ATOM     62  F   UNL A   1      42.634  29.168  27.590  1.00  0.00    -0.203 F 
ATOM     63  F   UNL A   1      39.706  24.604  26.998  1.00  0.00    -0.200 F 
ATOM     64  C   UNL A   1      41.255  26.158  26.129  1.00  0.00     0.200 A 
ATOM     65  F   UNL A   1      42.805  27.736  25.304  1.00  0.00    -0.200 F 
ATOM     66  F   UNL A   1      41.370  25.437  25.004  1.00  0.00    -0.200 F 
ENDBRANCH  42  56
BRANCH  43  67
ATOM     67  C   UNL A   1      39.705  33.297  36.659  1.00  0.00     0.064 A 
ATOM     68  C   UNL A   1      38.746  32.916  37.607  1.00  0.00     0.173 A 
ATOM     69  C   UNL A   1      40.437  34.468  36.909  1.00  0.00     0.173 A 
ATOM     70  F   UNL A   1      38.004  31.817  37.405  1.00  0.00    -0.203 F 
ATOM     71  C   UNL A   1      38.509  33.689  38.742  1.00  0.00     0.198 A 
ATOM     72  C   UNL A   1      40.225  35.220  38.061  1.00  0.00     0.198 A 
ATOM     73  F   UNL A   1      41.369  34.880  36.035  1.00  0.00    -0.203 F 
ATOM     74  F   UNL A   1      37.545  33.333  39.603  1.00  0.00    -0.200 F 
ATOM     75  C   UNL A   1      39.253  34.836  38.972  1.00  0.00     0.200 A 
ATOM     76  F   UNL A   1      40.958  36.319  38.289  1.00  0.00    -0.200 F 
ATOM     77  F   UNL A   1      39.026  35.577  40.066  1.00  0.00    -0.200 F 
ENDBRANCH  43  67
BRANCH  55  78
ATOM     78  C   UNL A   1      44.101  28.140  35.004  1.00  0.00     0.064 A 
ATOM     79  C   UNL A   1      45.410  28.642  34.988  1.00  0.00     0.173 A 
ATOM     80  C   UNL A   1      43.845  27.004  35.790  1.00  0.00     0.173 A 
ATOM     81  F   UNL A   1      45.713  29.716  34.242  1.00  0.00    -0.203 F 
ATOM     82  C   UNL A   1      46.428  28.015  35.704  1.00  0.00     0.198 A 
ATOM     83  C   UNL A   1      44.856  26.403  36.534  1.00  0.00     0.198 A 
ATOM     84  F   UNL A   1      42.609  26.486  35.848  1.00  0.00    -0.203 F 
ATOM     85  F   UNL A   1      47.683  28.479  35.627  1.00  0.00    -0.200 F 
ATOM     86  C   UNL A   1      46.148  26.903  36.483  1.00  0.00     0.200 A 
ATOM     87  F   UNL A   1      44.578  25.340  37.302  1.00  0.00    -0.200 F 
ATOM     88  F   UNL A   1      47.124  26.308  37.180  1.00  0.00    -0.200 F 
ENDBRANCH  55  78
ENDBRANCH  29  30
ENDBRANCH  22  24
ENDBRANCH  21  22
ENDBRANCH  20  21
ENDBRANCH  19  20
ENDBRANCH   1  19
TORSDOF 18
ENDMDL
