MODEL 1
REMARK VINA RESULT:     -13.7      0.000      0.000
REMARK SMILES O=C(OCCOC(=O)c1ccc2c(c1)NC1=[NH+]S(=O)(=O)[NH+]=C1N2)c1ccc(-c2c3nc(c(-c4c(F)c(F)c(F)c(F)c4F)c4ccc([nH]4)c(-c4c(F)c(F)c(F)c(F)c4F)c4nc(c(-c5c(F)c(F)c(F)c(F)c5F)c5ccc2[nH]5)C=C4)C=C3)cc1
REMARK SMILES IDX 4 1 3 2 2 3 1 4 24 5 25 6 86 7 26 8 85 9 27 10 28 11 29 12
REMARK SMILES IDX 79 13 30 14 84 15 78 16 80 17 31 18 83 19 77 20 76 21 32 23
REMARK SMILES IDX 64 24 44 25 63 26 45 27 48 28 62 29 81 30 46 31 47 32 61 34
REMARK SMILES IDX 82 35 49 36 33 37 34 38 42 39 35 40 36 41 40 42 43 43 37 44
REMARK SMILES IDX 38 45 41 46 39 47 65 48 66 49 74 50 67 51 68 52 72 53 75 54
REMARK SMILES IDX 69 55 70 56 73 57 71 58 50 59 51 60 59 61 52 62 53 63 57 64
REMARK SMILES IDX 60 65 54 66 55 67 58 68 56 69 5 70 6 71 7 72 8 73 9 74 10 75
REMARK SMILES IDX 14 76 11 77 13 78 12 79 15 80 23 81 16 82 22 84 17 86 21 87
REMARK SMILES IDX 18 88 19 91 20 92
REMARK H PARENT 80 22 48 33 15 83 23 85 17 89 21 90
REMARK Flexibility Score: inf
ROOT
ATOM      1  C   UNL A   1      38.885  31.329  29.893  1.00  0.00     0.275 C 
ENDROOT
BRANCH   1   2
ATOM      2  O   UNL A   1      37.583  31.328  29.238  1.00  0.00    -0.458 OA
BRANCH   2   3
ATOM      3  C   UNL A   1      37.208  30.593  28.157  1.00  0.00     0.338 C 
ATOM      4  O   UNL A   1      36.099  30.686  27.647  1.00  0.00    -0.246 OA
BRANCH   3   5
ATOM      5  C   UNL A   1      38.143  29.546  27.720  1.00  0.00     0.060 A 
ATOM      6  C   UNL A   1      38.081  28.339  28.407  1.00  0.00     0.016 A 
ATOM      7  C   UNL A   1      39.196  29.831  26.849  1.00  0.00     0.016 A 
ATOM      8  C   UNL A   1      39.223  27.568  28.469  1.00  0.00     0.010 A 
ATOM      9  C   UNL A   1      40.341  29.047  26.904  1.00  0.00     0.010 A 
ATOM     10  C   UNL A   1      40.388  27.978  27.800  1.00  0.00    -0.014 A 
BRANCH  10  11
ATOM     11  C   UNL A   1      41.575  27.134  27.969  1.00  0.00     0.031 A 
ATOM     12  C   UNL A   1      42.301  27.409  29.242  1.00  0.00     0.074 A 
ATOM     13  C   UNL A   1      41.945  26.149  27.123  1.00  0.00     0.049 A 
ATOM     14  N   UNL A   1      43.557  27.669  29.426  1.00  0.00    -0.248 NA
ATOM     15  C   UNL A   1      41.466  27.563  30.450  1.00  0.00     0.031 C 
ATOM     16  C   UNL A   1      41.213  25.644  25.959  1.00  0.00     0.029 A 
ATOM     17  N   UNL A   1      43.020  25.305  27.195  1.00  0.00    -0.354 N 
ATOM     18  C   UNL A   1      43.689  27.860  30.799  1.00  0.00     0.074 A 
ATOM     19  C   UNL A   1      42.364  27.949  31.349  1.00  0.00     0.031 C 
ATOM     20  C   UNL A   1      41.732  24.454  25.587  1.00  0.00     0.029 A 
ATOM     21  C   UNL A   1      42.881  24.156  26.423  1.00  0.00     0.049 A 
ATOM     22  H   UNL A   1      43.817  25.494  27.740  1.00  0.00     0.167 HD
ATOM     23  C   UNL A   1      44.867  27.693  31.451  1.00  0.00     0.037 A 
ATOM     24  C   UNL A   1      43.587  23.002  26.541  1.00  0.00     0.037 A 
ATOM     25  C   UNL A   1      46.002  27.842  30.591  1.00  0.00     0.049 A 
ATOM     26  C   UNL A   1      44.822  23.304  27.300  1.00  0.00     0.074 A 
ATOM     27  C   UNL A   1      46.548  28.889  29.879  1.00  0.00     0.029 A 
ATOM     28  N   UNL A   1      46.603  26.705  30.119  1.00  0.00    -0.354 N 
ATOM     29  N   UNL A   1      45.827  23.992  26.842  1.00  0.00    -0.248 NA
ATOM     30  C   UNL A   1      44.798  23.121  28.745  1.00  0.00     0.031 C 
ATOM     31  C   UNL A   1      47.140  28.297  28.728  1.00  0.00     0.029 A 
ATOM     32  C   UNL A   1      46.943  26.918  28.809  1.00  0.00     0.049 A 
ATOM     33  H   UNL A   1      46.762  25.879  30.632  1.00  0.00     0.167 HD
ATOM     34  C   UNL A   1      46.314  24.675  27.943  1.00  0.00     0.074 A 
ATOM     35  C   UNL A   1      45.733  24.004  29.098  1.00  0.00     0.031 C 
ATOM     36  C   UNL A   1      46.916  25.889  27.797  1.00  0.00     0.037 A 
BRANCH  23  37
ATOM     37  C   UNL A   1      44.925  27.055  32.811  1.00  0.00     0.064 A 
ATOM     38  C   UNL A   1      44.582  25.705  32.981  1.00  0.00     0.173 A 
ATOM     39  C   UNL A   1      45.075  27.807  33.999  1.00  0.00     0.173 A 
ATOM     40  F   UNL A   1      44.348  24.922  31.917  1.00  0.00    -0.203 F 
ATOM     41  C   UNL A   1      44.401  25.152  34.253  1.00  0.00     0.198 A 
ATOM     42  C   UNL A   1      44.958  27.240  35.263  1.00  0.00     0.198 A 
ATOM     43  F   UNL A   1      45.234  29.138  33.977  1.00  0.00    -0.203 F 
ATOM     44  F   UNL A   1      43.981  23.886  34.374  1.00  0.00    -0.200 F 
ATOM     45  C   UNL A   1      44.601  25.916  35.391  1.00  0.00     0.200 A 
ATOM     46  F   UNL A   1      45.127  28.008  36.348  1.00  0.00    -0.200 F 
ATOM     47  F   UNL A   1      44.398  25.395  36.608  1.00  0.00    -0.200 F 
ENDBRANCH  23  37
BRANCH  24  48
ATOM     48  C   UNL A   1      43.131  21.602  26.328  1.00  0.00     0.064 A 
ATOM     49  C   UNL A   1      43.827  20.744  25.458  1.00  0.00     0.173 A 
ATOM     50  C   UNL A   1      42.190  20.990  27.180  1.00  0.00     0.173 A 
ATOM     51  F   UNL A   1      44.768  21.231  24.638  1.00  0.00    -0.203 F 
ATOM     52  C   UNL A   1      43.626  19.359  25.472  1.00  0.00     0.198 A 
ATOM     53  C   UNL A   1      41.980  19.611  27.182  1.00  0.00     0.198 A 
ATOM     54  F   UNL A   1      41.525  21.700  28.102  1.00  0.00    -0.203 F 
ATOM     55  F   UNL A   1      44.368  18.568  24.684  1.00  0.00    -0.200 F 
ATOM     56  C   UNL A   1      42.712  18.793  26.343  1.00  0.00     0.200 A 
ATOM     57  F   UNL A   1      41.113  19.075  28.052  1.00  0.00    -0.200 F 
ATOM     58  F   UNL A   1      42.566  17.462  26.406  1.00  0.00    -0.200 F 
ENDBRANCH  24  48
BRANCH  36  59
ATOM     59  C   UNL A   1      47.355  26.282  26.413  1.00  0.00     0.064 A 
ATOM     60  C   UNL A   1      46.575  27.047  25.529  1.00  0.00     0.173 A 
ATOM     61  C   UNL A   1      48.667  25.979  26.025  1.00  0.00     0.173 A 
ATOM     62  F   UNL A   1      45.347  27.458  25.871  1.00  0.00    -0.203 F 
ATOM     63  C   UNL A   1      47.079  27.451  24.293  1.00  0.00     0.198 A 
ATOM     64  C   UNL A   1      49.180  26.421  24.809  1.00  0.00     0.198 A 
ATOM     65  F   UNL A   1      49.473  25.296  26.854  1.00  0.00    -0.203 F 
ATOM     66  F   UNL A   1      46.313  28.169  23.457  1.00  0.00    -0.200 F 
ATOM     67  C   UNL A   1      48.383  27.147  23.939  1.00  0.00     0.200 A 
ATOM     68  F   UNL A   1      50.459  26.167  24.495  1.00  0.00    -0.200 F 
ATOM     69  F   UNL A   1      48.884  27.578  22.773  1.00  0.00    -0.200 F 
ENDBRANCH  36  59
ENDBRANCH  10  11
ENDBRANCH   3   5
ENDBRANCH   2   3
ENDBRANCH   1   2
BRANCH   1  70
ATOM     70  C   UNL A   1      39.030  30.470  31.160  1.00  0.00     0.275 C 
BRANCH  70  71
ATOM     71  O   UNL A   1      37.866  29.677  31.397  1.00  0.00    -0.458 OA
BRANCH  71  72
ATOM     72  C   UNL A   1      37.419  29.667  32.676  1.00  0.00     0.338 C 
ATOM     73  O   UNL A   1      37.277  28.698  33.399  1.00  0.00    -0.246 OA
BRANCH  72  74
ATOM     74  C   UNL A   1      36.944  31.033  32.984  1.00  0.00     0.064 A 
ATOM     75  C   UNL A   1      37.476  31.696  34.097  1.00  0.00     0.020 A 
ATOM     76  C   UNL A   1      35.894  31.601  32.252  1.00  0.00     0.072 A 
ATOM     77  C   UNL A   1      36.924  32.910  34.514  1.00  0.00     0.057 A 
ATOM     78  C   UNL A   1      35.353  32.826  32.648  1.00  0.00     0.173 A 
ATOM     79  C   UNL A   1      35.865  33.484  33.803  1.00  0.00     0.172 A 
ATOM     80  N   UNL A   1      34.297  33.401  31.917  1.00  0.00    -0.229 N 
ATOM     81  N   UNL A   1      35.303  34.704  34.222  1.00  0.00    -0.229 N 
ATOM     82  C   UNL A   1      33.772  34.614  32.266  1.00  0.00     0.383 C 
ATOM     83  H   UNL A   1      33.931  32.922  31.139  1.00  0.00     0.313 HD
ATOM     84  C   UNL A   1      34.306  35.309  33.504  1.00  0.00     0.383 C 
ATOM     85  H   UNL A   1      35.633  35.132  35.044  1.00  0.00     0.313 HD
ATOM     86  N   UNL A   1      32.849  35.287  31.677  1.00  0.00    -0.122 N 
ATOM     87  N   UNL A   1      33.726  36.434  33.730  1.00  0.00    -0.122 N 
ATOM     88  S   UNL A   1      32.631  36.664  32.533  1.00  0.00     0.469 S 
ATOM     89  H   UNL A   1      32.364  35.024  30.861  1.00  0.00     0.331 HD
ATOM     90  H   UNL A   1      33.907  37.043  34.482  1.00  0.00     0.331 HD
ATOM     91  O   UNL A   1      33.087  37.780  31.718  1.00  0.00    -0.143 OA
ATOM     92  O   UNL A   1      31.313  36.649  33.105  1.00  0.00    -0.143 OA
ENDBRANCH  72  74
ENDBRANCH  71  72
ENDBRANCH  70  71
ENDBRANCH   1  70
TORSDOF 11
ENDMDL
MODEL 2
REMARK VINA RESULT:     -13.3      2.771      4.641
REMARK SMILES O=C(OCCOC(=O)c1ccc2c(c1)NC1=[NH+]S(=O)(=O)[NH+]=C1N2)c1ccc(-c2c3nc(c(-c4c(F)c(F)c(F)c(F)c4F)c4ccc([nH]4)c(-c4c(F)c(F)c(F)c(F)c4F)c4nc(c(-c5c(F)c(F)c(F)c(F)c5F)c5ccc2[nH]5)C=C4)C=C3)cc1
REMARK SMILES IDX 4 1 3 2 2 3 1 4 24 5 25 6 86 7 26 8 85 9 27 10 28 11 29 12
REMARK SMILES IDX 79 13 30 14 84 15 78 16 80 17 31 18 83 19 77 20 76 21 32 23
REMARK SMILES IDX 64 24 44 25 63 26 45 27 48 28 62 29 81 30 46 31 47 32 61 34
REMARK SMILES IDX 82 35 49 36 33 37 34 38 42 39 35 40 36 41 40 42 43 43 37 44
REMARK SMILES IDX 38 45 41 46 39 47 65 48 66 49 74 50 67 51 68 52 72 53 75 54
REMARK SMILES IDX 69 55 70 56 73 57 71 58 50 59 51 60 59 61 52 62 53 63 57 64
REMARK SMILES IDX 60 65 54 66 55 67 58 68 56 69 5 70 6 71 7 72 8 73 9 74 10 75
REMARK SMILES IDX 14 76 11 77 13 78 12 79 15 80 23 81 16 82 22 84 17 86 21 87
REMARK SMILES IDX 18 88 19 91 20 92
REMARK H PARENT 80 22 48 33 15 83 23 85 17 89 21 90
REMARK Flexibility Score: inf
ROOT
ATOM      1  C   UNL A   1      34.734  34.289  27.825  1.00  0.00     0.275 C 
ENDROOT
BRANCH   1   2
ATOM      2  O   UNL A   1      35.514  33.230  28.453  1.00  0.00    -0.458 OA
BRANCH   2   3
ATOM      3  C   UNL A   1      35.528  31.912  28.121  1.00  0.00     0.338 C 
ATOM      4  O   UNL A   1      34.682  31.404  27.397  1.00  0.00    -0.246 OA
BRANCH   3   5
ATOM      5  C   UNL A   1      36.522  31.074  28.808  1.00  0.00     0.060 A 
ATOM      6  C   UNL A   1      37.571  31.745  29.427  1.00  0.00     0.016 A 
ATOM      7  C   UNL A   1      36.550  29.689  28.633  1.00  0.00     0.016 A 
ATOM      8  C   UNL A   1      38.770  31.079  29.572  1.00  0.00     0.010 A 
ATOM      9  C   UNL A   1      37.755  29.019  28.791  1.00  0.00     0.010 A 
ATOM     10  C   UNL A   1      38.891  29.744  29.155  1.00  0.00    -0.014 A 
BRANCH  10  11
ATOM     11  C   UNL A   1      40.217  29.131  29.287  1.00  0.00     0.031 A 
ATOM     12  C   UNL A   1      40.615  28.918  30.708  1.00  0.00     0.074 A 
ATOM     13  C   UNL A   1      40.978  28.716  28.252  1.00  0.00     0.049 A 
ATOM     14  N   UNL A   1      41.702  29.277  31.314  1.00  0.00    -0.248 NA
ATOM     15  C   UNL A   1      39.578  28.363  31.600  1.00  0.00     0.031 C 
ATOM     16  C   UNL A   1      40.619  28.677  26.833  1.00  0.00     0.029 A 
ATOM     17  N   UNL A   1      42.215  28.129  28.269  1.00  0.00    -0.354 N 
ATOM     18  C   UNL A   1      41.544  28.845  32.627  1.00  0.00     0.074 A 
ATOM     19  C   UNL A   1      40.171  28.447  32.786  1.00  0.00     0.031 C 
ATOM     20  C   UNL A   1      41.498  27.893  26.171  1.00  0.00     0.029 A 
ATOM     21  C   UNL A   1      42.526  27.450  27.095  1.00  0.00     0.049 A 
ATOM     22  H   UNL A   1      42.826  28.183  29.038  1.00  0.00     0.167 HD
ATOM     23  C   UNL A   1      42.595  28.604  33.451  1.00  0.00     0.037 A 
ATOM     24  C   UNL A   1      43.489  26.508  26.928  1.00  0.00     0.037 A 
ATOM     25  C   UNL A   1      43.775  29.318  33.066  1.00  0.00     0.049 A 
ATOM     26  C   UNL A   1      44.449  26.638  28.048  1.00  0.00     0.074 A 
ATOM     27  C   UNL A   1      44.127  30.651  33.009  1.00  0.00     0.029 A 
ATOM     28  N   UNL A   1      44.733  28.641  32.360  1.00  0.00    -0.354 N 
ATOM     29  N   UNL A   1      45.291  27.620  28.195  1.00  0.00    -0.248 NA
ATOM     30  C   UNL A   1      44.232  25.820  29.233  1.00  0.00     0.031 C 
ATOM     31  C   UNL A   1      45.043  30.756  31.926  1.00  0.00     0.029 A 
ATOM     32  C   UNL A   1      45.218  29.479  31.391  1.00  0.00     0.049 A 
ATOM     33  H   UNL A   1      45.023  27.713  32.522  1.00  0.00     0.167 HD
ATOM     34  C   UNL A   1      45.381  27.801  29.564  1.00  0.00     0.074 A 
ATOM     35  C   UNL A   1      44.818  26.592  30.148  1.00  0.00     0.031 C 
ATOM     36  C   UNL A   1      45.644  29.033  30.086  1.00  0.00     0.037 A 
BRANCH  23  37
ATOM     37  C   UNL A   1      42.594  27.440  34.401  1.00  0.00     0.064 A 
ATOM     38  C   UNL A   1      43.055  26.181  33.987  1.00  0.00     0.173 A 
ATOM     39  C   UNL A   1      41.919  27.472  35.643  1.00  0.00     0.173 A 
ATOM     40  F   UNL A   1      43.645  26.030  32.793  1.00  0.00    -0.203 F 
ATOM     41  C   UNL A   1      42.850  25.036  34.765  1.00  0.00     0.198 A 
ATOM     42  C   UNL A   1      41.774  26.345  36.445  1.00  0.00     0.198 A 
ATOM     43  F   UNL A   1      41.285  28.571  36.075  1.00  0.00    -0.203 F 
ATOM     44  F   UNL A   1      43.218  23.838  34.294  1.00  0.00    -0.200 F 
ATOM     45  C   UNL A   1      42.221  25.121  35.996  1.00  0.00     0.200 A 
ATOM     46  F   UNL A   1      41.135  26.449  37.619  1.00  0.00    -0.200 F 
ATOM     47  F   UNL A   1      41.997  24.022  36.727  1.00  0.00    -0.200 F 
ENDBRANCH  23  37
BRANCH  24  48
ATOM     48  C   UNL A   1      43.475  25.301  26.057  1.00  0.00     0.064 A 
ATOM     49  C   UNL A   1      44.562  25.011  25.213  1.00  0.00     0.173 A 
ATOM     50  C   UNL A   1      42.540  24.264  26.242  1.00  0.00     0.173 A 
ATOM     51  F   UNL A   1      45.522  25.924  25.009  1.00  0.00    -0.203 F 
ATOM     52  C   UNL A   1      44.726  23.749  24.629  1.00  0.00     0.198 A 
ATOM     53  C   UNL A   1      42.696  23.012  25.647  1.00  0.00     0.198 A 
ATOM     54  F   UNL A   1      41.507  24.403  27.083  1.00  0.00    -0.203 F 
ATOM     55  F   UNL A   1      45.818  23.487  23.898  1.00  0.00    -0.200 F 
ATOM     56  C   UNL A   1      43.798  22.747  24.857  1.00  0.00     0.200 A 
ATOM     57  F   UNL A   1      41.806  22.042  25.901  1.00  0.00    -0.200 F 
ATOM     58  F   UNL A   1      43.987  21.519  24.355  1.00  0.00    -0.200 F 
ENDBRANCH  24  48
BRANCH  36  59
ATOM     59  C   UNL A   1      46.187  30.078  29.151  1.00  0.00     0.064 A 
ATOM     60  C   UNL A   1      47.556  30.268  28.893  1.00  0.00     0.173 A 
ATOM     61  C   UNL A   1      45.275  30.824  28.392  1.00  0.00     0.173 A 
ATOM     62  F   UNL A   1      48.483  29.522  29.508  1.00  0.00    -0.203 F 
ATOM     63  C   UNL A   1      47.986  31.197  27.947  1.00  0.00     0.198 A 
ATOM     64  C   UNL A   1      45.708  31.720  27.418  1.00  0.00     0.198 A 
ATOM     65  F   UNL A   1      43.955  30.644  28.560  1.00  0.00    -0.203 F 
ATOM     66  F   UNL A   1      49.298  31.373  27.726  1.00  0.00    -0.200 F 
ATOM     67  C   UNL A   1      47.063  31.914  27.203  1.00  0.00     0.200 A 
ATOM     68  F   UNL A   1      44.809  32.372  26.668  1.00  0.00    -0.200 F 
ATOM     69  F   UNL A   1      47.476  32.770  26.258  1.00  0.00    -0.200 F 
ENDBRANCH  36  59
ENDBRANCH  10  11
ENDBRANCH   3   5
ENDBRANCH   2   3
ENDBRANCH   1   2
BRANCH   1  70
ATOM     70  C   UNL A   1      33.262  34.416  28.249  1.00  0.00     0.275 C 
BRANCH  70  71
ATOM     71  O   UNL A   1      33.091  34.183  29.647  1.00  0.00    -0.458 OA
BRANCH  71  72
ATOM     72  C   UNL A   1      33.126  35.287  30.431  1.00  0.00     0.338 C 
ATOM     73  O   UNL A   1      32.751  36.409  30.140  1.00  0.00    -0.246 OA
BRANCH  72  74
ATOM     74  C   UNL A   1      33.885  34.934  31.650  1.00  0.00     0.064 A 
ATOM     75  C   UNL A   1      33.959  35.868  32.691  1.00  0.00     0.020 A 
ATOM     76  C   UNL A   1      34.617  33.742  31.710  1.00  0.00     0.072 A 
ATOM     77  C   UNL A   1      34.809  35.637  33.776  1.00  0.00     0.057 A 
ATOM     78  C   UNL A   1      35.450  33.492  32.802  1.00  0.00     0.173 A 
ATOM     79  C   UNL A   1      35.558  34.457  33.844  1.00  0.00     0.172 A 
ATOM     80  N   UNL A   1      36.188  32.296  32.868  1.00  0.00    -0.229 N 
ATOM     81  N   UNL A   1      36.419  34.221  34.932  1.00  0.00    -0.229 N 
ATOM     82  C   UNL A   1      36.986  32.013  33.941  1.00  0.00     0.383 C 
ATOM     83  H   UNL A   1      36.129  31.650  32.127  1.00  0.00     0.313 HD
ATOM     84  C   UNL A   1      37.115  33.048  35.044  1.00  0.00     0.383 C 
ATOM     85  H   UNL A   1      36.521  34.911  35.626  1.00  0.00     0.313 HD
ATOM     86  N   UNL A   1      37.677  30.955  34.169  1.00  0.00    -0.122 N 
ATOM     87  N   UNL A   1      37.898  32.668  35.991  1.00  0.00    -0.122 N 
ATOM     88  S   UNL A   1      38.430  31.167  35.607  1.00  0.00     0.469 S 
ATOM     89  H   UNL A   1      37.742  30.162  33.588  1.00  0.00     0.331 HD
ATOM     90  H   UNL A   1      38.133  33.183  36.796  1.00  0.00     0.331 HD
ATOM     91  O   UNL A   1      37.855  30.231  36.561  1.00  0.00    -0.143 OA
ATOM     92  O   UNL A   1      39.849  31.224  35.382  1.00  0.00    -0.143 OA
ENDBRANCH  72  74
ENDBRANCH  71  72
ENDBRANCH  70  71
ENDBRANCH   1  70
TORSDOF 11
ENDMDL
MODEL 3
REMARK VINA RESULT:     -13.0      7.432     13.150
REMARK SMILES O=C(OCCOC(=O)c1ccc2c(c1)NC1=[NH+]S(=O)(=O)[NH+]=C1N2)c1ccc(-c2c3nc(c(-c4c(F)c(F)c(F)c(F)c4F)c4ccc([nH]4)c(-c4c(F)c(F)c(F)c(F)c4F)c4nc(c(-c5c(F)c(F)c(F)c(F)c5F)c5ccc2[nH]5)C=C4)C=C3)cc1
REMARK SMILES IDX 4 1 3 2 2 3 1 4 24 5 25 6 86 7 26 8 85 9 27 10 28 11 29 12
REMARK SMILES IDX 79 13 30 14 84 15 78 16 80 17 31 18 83 19 77 20 76 21 32 23
REMARK SMILES IDX 64 24 44 25 63 26 45 27 48 28 62 29 81 30 46 31 47 32 61 34
REMARK SMILES IDX 82 35 49 36 33 37 34 38 42 39 35 40 36 41 40 42 43 43 37 44
REMARK SMILES IDX 38 45 41 46 39 47 65 48 66 49 74 50 67 51 68 52 72 53 75 54
REMARK SMILES IDX 69 55 70 56 73 57 71 58 50 59 51 60 59 61 52 62 53 63 57 64
REMARK SMILES IDX 60 65 54 66 55 67 58 68 56 69 5 70 6 71 7 72 8 73 9 74 10 75
REMARK SMILES IDX 14 76 11 77 13 78 12 79 15 80 23 81 16 82 22 84 17 86 21 87
REMARK SMILES IDX 18 88 19 91 20 92
REMARK H PARENT 80 22 48 33 15 83 23 85 17 89 21 90
REMARK Flexibility Score: inf
ROOT
ATOM      1  C   UNL A   1      36.743  23.686  25.975  1.00  0.00     0.275 C 
ENDROOT
BRANCH   1   2
ATOM      2  O   UNL A   1      37.536  24.389  26.976  1.00  0.00    -0.458 OA
BRANCH   2   3
ATOM      3  C   UNL A   1      38.886  24.346  27.134  1.00  0.00     0.338 C 
ATOM      4  O   UNL A   1      39.546  23.340  26.906  1.00  0.00    -0.246 OA
BRANCH   3   5
ATOM      5  C   UNL A   1      39.510  25.522  27.757  1.00  0.00     0.060 A 
ATOM      6  C   UNL A   1      39.250  25.713  29.109  1.00  0.00     0.016 A 
ATOM      7  C   UNL A   1      40.112  26.518  26.987  1.00  0.00     0.016 A 
ATOM      8  C   UNL A   1      39.293  27.000  29.602  1.00  0.00     0.010 A 
ATOM      9  C   UNL A   1      40.165  27.811  27.489  1.00  0.00     0.010 A 
ATOM     10  C   UNL A   1      39.651  28.067  28.761  1.00  0.00    -0.014 A 
BRANCH  10  11
ATOM     11  C   UNL A   1      39.611  29.409  29.347  1.00  0.00     0.031 A 
ATOM     12  C   UNL A   1      40.920  30.117  29.258  1.00  0.00     0.074 A 
ATOM     13  C   UNL A   1      38.502  29.999  29.843  1.00  0.00     0.049 A 
ATOM     14  N   UNL A   1      41.601  30.697  30.196  1.00  0.00    -0.248 NA
ATOM     15  C   UNL A   1      41.629  30.020  27.966  1.00  0.00     0.031 C 
ATOM     16  C   UNL A   1      37.126  29.501  29.801  1.00  0.00     0.029 A 
ATOM     17  N   UNL A   1      38.358  31.242  30.399  1.00  0.00    -0.354 N 
ATOM     18  C   UNL A   1      42.747  31.175  29.569  1.00  0.00     0.074 A 
ATOM     19  C   UNL A   1      42.792  30.592  28.254  1.00  0.00     0.031 C 
ATOM     20  C   UNL A   1      36.275  30.511  30.085  1.00  0.00     0.029 A 
ATOM     21  C   UNL A   1      37.044  31.699  30.413  1.00  0.00     0.049 A 
ATOM     22  H   UNL A   1      39.113  31.763  30.757  1.00  0.00     0.167 HD
ATOM     23  C   UNL A   1      43.474  32.210  30.061  1.00  0.00     0.037 A 
ATOM     24  C   UNL A   1      36.627  32.981  30.572  1.00  0.00     0.037 A 
ATOM     25  C   UNL A   1      43.297  32.389  31.469  1.00  0.00     0.049 A 
ATOM     26  C   UNL A   1      37.740  33.748  31.176  1.00  0.00     0.074 A 
ATOM     27  C   UNL A   1      43.605  31.644  32.589  1.00  0.00     0.029 A 
ATOM     28  N   UNL A   1      42.434  33.367  31.888  1.00  0.00    -0.354 N 
ATOM     29  N   UNL A   1      38.148  33.621  32.406  1.00  0.00    -0.248 NA
ATOM     30  C   UNL A   1      38.658  34.440  30.283  1.00  0.00     0.031 C 
ATOM     31  C   UNL A   1      42.591  31.950  33.539  1.00  0.00     0.029 A 
ATOM     32  C   UNL A   1      41.729  32.880  32.958  1.00  0.00     0.049 A 
ATOM     33  H   UNL A   1      42.337  34.263  31.490  1.00  0.00     0.167 HD
ATOM     34  C   UNL A   1      39.515  33.828  32.344  1.00  0.00     0.074 A 
ATOM     35  C   UNL A   1      39.748  34.454  31.049  1.00  0.00     0.031 C 
ATOM     36  C   UNL A   1      40.352  33.216  33.229  1.00  0.00     0.037 A 
BRANCH  23  37
ATOM     37  C   UNL A   1      44.072  33.247  29.152  1.00  0.00     0.064 A 
ATOM     38  C   UNL A   1      43.260  34.215  28.542  1.00  0.00     0.173 A 
ATOM     39  C   UNL A   1      45.399  33.164  28.671  1.00  0.00     0.173 A 
ATOM     40  F   UNL A   1      41.966  34.328  28.877  1.00  0.00    -0.203 F 
ATOM     41  C   UNL A   1      43.746  35.038  27.520  1.00  0.00     0.198 A 
ATOM     42  C   UNL A   1      45.898  34.026  27.701  1.00  0.00     0.198 A 
ATOM     43  F   UNL A   1      46.226  32.178  29.046  1.00  0.00    -0.203 F 
ATOM     44  F   UNL A   1      42.915  35.883  26.896  1.00  0.00    -0.200 F 
ATOM     45  C   UNL A   1      45.066  34.950  27.109  1.00  0.00     0.200 A 
ATOM     46  F   UNL A   1      47.172  33.901  27.300  1.00  0.00    -0.200 F 
ATOM     47  F   UNL A   1      45.522  35.716  26.111  1.00  0.00    -0.200 F 
ENDBRANCH  23  37
BRANCH  24  48
ATOM     48  C   UNL A   1      35.461  33.667  29.952  1.00  0.00     0.064 A 
ATOM     49  C   UNL A   1      34.438  34.210  30.751  1.00  0.00     0.173 A 
ATOM     50  C   UNL A   1      35.463  34.059  28.599  1.00  0.00     0.173 A 
ATOM     51  F   UNL A   1      34.379  33.925  32.059  1.00  0.00    -0.203 F 
ATOM     52  C   UNL A   1      33.507  35.121  30.239  1.00  0.00     0.198 A 
ATOM     53  C   UNL A   1      34.525  34.955  28.085  1.00  0.00     0.198 A 
ATOM     54  F   UNL A   1      36.434  33.664  27.764  1.00  0.00    -0.203 F 
ATOM     55  F   UNL A   1      32.599  35.678  31.052  1.00  0.00    -0.200 F 
ATOM     56  C   UNL A   1      33.560  35.502  28.909  1.00  0.00     0.200 A 
ATOM     57  F   UNL A   1      34.607  35.338  26.803  1.00  0.00    -0.200 F 
ATOM     58  F   UNL A   1      32.712  36.424  28.432  1.00  0.00    -0.200 F 
ENDBRANCH  24  48
BRANCH  36  59
ATOM     59  C   UNL A   1      39.736  32.624  34.467  1.00  0.00     0.064 A 
ATOM     60  C   UNL A   1      39.606  33.312  35.686  1.00  0.00     0.173 A 
ATOM     61  C   UNL A   1      39.140  31.360  34.369  1.00  0.00     0.173 A 
ATOM     62  F   UNL A   1      40.064  34.563  35.824  1.00  0.00    -0.203 F 
ATOM     63  C   UNL A   1      38.944  32.735  36.769  1.00  0.00     0.198 A 
ATOM     64  C   UNL A   1      38.443  30.806  35.439  1.00  0.00     0.198 A 
ATOM     65  F   UNL A   1      39.188  30.682  33.211  1.00  0.00    -0.203 F 
ATOM     66  F   UNL A   1      38.844  33.402  37.928  1.00  0.00    -0.200 F 
ATOM     67  C   UNL A   1      38.355  31.488  36.641  1.00  0.00     0.200 A 
ATOM     68  F   UNL A   1      37.832  29.621  35.293  1.00  0.00    -0.200 F 
ATOM     69  F   UNL A   1      37.676  30.955  37.666  1.00  0.00    -0.200 F 
ENDBRANCH  36  59
ENDBRANCH  10  11
ENDBRANCH   3   5
ENDBRANCH   2   3
ENDBRANCH   1   2
BRANCH   1  70
ATOM     70  C   UNL A   1      35.570  24.456  25.346  1.00  0.00     0.275 C 
BRANCH  70  71
ATOM     71  O   UNL A   1      34.378  24.327  26.120  1.00  0.00    -0.458 OA
BRANCH  71  72
ATOM     72  C   UNL A   1      33.230  24.220  25.409  1.00  0.00     0.338 C 
ATOM     73  O   UNL A   1      32.333  25.040  25.330  1.00  0.00    -0.246 OA
BRANCH  72  74
ATOM     74  C   UNL A   1      33.164  22.837  24.890  1.00  0.00     0.064 A 
ATOM     75  C   UNL A   1      32.818  22.637  23.548  1.00  0.00     0.020 A 
ATOM     76  C   UNL A   1      33.322  21.746  25.754  1.00  0.00     0.072 A 
ATOM     77  C   UNL A   1      32.578  21.344  23.075  1.00  0.00     0.057 A 
ATOM     78  C   UNL A   1      33.107  20.450  25.284  1.00  0.00     0.173 A 
ATOM     79  C   UNL A   1      32.716  20.245  23.930  1.00  0.00     0.172 A 
ATOM     80  N   UNL A   1      33.264  19.350  26.148  1.00  0.00    -0.229 N 
ATOM     81  N   UNL A   1      32.471  18.941  23.460  1.00  0.00    -0.229 N 
ATOM     82  C   UNL A   1      33.090  18.069  25.704  1.00  0.00     0.383 C 
ATOM     83  H   UNL A   1      33.503  19.506  27.090  1.00  0.00     0.313 HD
ATOM     84  C   UNL A   1      32.659  17.850  24.265  1.00  0.00     0.383 C 
ATOM     85  H   UNL A   1      32.160  18.811  22.535  1.00  0.00     0.313 HD
ATOM     86  N   UNL A   1      33.243  16.969  26.350  1.00  0.00    -0.122 N 
ATOM     87  N   UNL A   1      32.522  16.606  23.973  1.00  0.00    -0.122 N 
ATOM     88  S   UNL A   1      32.903  15.748  25.315  1.00  0.00     0.469 S 
ATOM     89  H   UNL A   1      33.514  16.878  27.292  1.00  0.00     0.331 HD
ATOM     90  H   UNL A   1      32.240  16.238  23.105  1.00  0.00     0.331 HD
ATOM     91  O   UNL A   1      34.138  15.025  25.048  1.00  0.00    -0.143 OA
ATOM     92  O   UNL A   1      31.725  15.065  25.777  1.00  0.00    -0.143 OA
ENDBRANCH  72  74
ENDBRANCH  71  72
ENDBRANCH  70  71
ENDBRANCH   1  70
TORSDOF 11
ENDMDL
