MODEL 1
REMARK VINA RESULT:     -13.4      0.000      0.000
REMARK SMILES CCN1C(=O)c2cccc3cc(S(=O)(=O)NCC(=O)OCCOC(=O)c4ccc(-c5c6nc(c(-c7c(F)c(F)c(F)c(F)c7F)c7ccc([nH]7)c(-c7c(F)c(F)c(F)c(F)c7F)c7nc(c(-c8c(F)c(F)c(F)c(F)c8F)c8ccc5[nH]8)C=C7)C=C6)cc4)cc(c23)C1=O
REMARK SMILES IDX 21 1 20 2 18 3 19 4 17 5 16 6 13 8 14 9 15 10 12 11 3 12
REMARK SMILES IDX 4 13 92 14 5 15 6 16 90 17 93 18 7 19 91 20 89 21 8 22 10 23
REMARK SMILES IDX 9 24 11 25 2 26 1 27 22 28 23 29 24 30 25 31 26 32 27 33
REMARK SMILES IDX 88 34 28 35 87 36 29 37 30 38 31 39 81 40 32 41 86 42 80 43
REMARK SMILES IDX 82 44 33 45 85 46 79 47 78 48 34 50 66 51 46 52 65 53 47 54
REMARK SMILES IDX 50 55 64 56 83 57 48 58 49 59 63 61 84 62 51 63 35 64 36 65
REMARK SMILES IDX 44 66 37 67 38 68 42 69 45 70 39 71 40 72 43 73 41 74 67 75
REMARK SMILES IDX 68 76 76 77 69 78 70 79 74 80 77 81 71 82 72 83 75 84 73 85
REMARK SMILES IDX 52 86 53 87 61 88 54 89 55 90 59 91 62 92 56 93 57 94 60 95
REMARK SMILES IDX 58 96
REMARK H PARENT 16 7 82 49 50 60
REMARK Flexibility Score: inf
ROOT
ATOM      1  C   UNL A   1      31.473  29.059  24.755  1.00  0.00     0.274 C 
ENDROOT
BRANCH   1   2
ATOM      2  O   UNL A   1      30.572  29.584  23.769  1.00  0.00    -0.461 OA
BRANCH   2   3
ATOM      3  C   UNL A   1      30.391  28.845  22.653  1.00  0.00     0.321 C 
ATOM      4  O   UNL A   1      29.847  29.234  21.626  1.00  0.00    -0.251 OA
BRANCH   3   5
ATOM      5  C   UNL A   1      30.950  27.460  22.811  1.00  0.00     0.221 C 
BRANCH   5   6
ATOM      6  N   UNL A   1      31.288  26.680  21.593  1.00  0.00    -0.200 NA
ATOM      7  H   UNL A   1      30.721  25.832  21.625  1.00  0.00     0.142 HD
BRANCH   6   8
ATOM      8  S   UNL A   1      32.880  26.188  21.299  1.00  0.00     0.241 S 
ATOM      9  O   UNL A   1      33.743  27.298  21.628  1.00  0.00    -0.207 OA
ATOM     10  O   UNL A   1      32.903  25.578  19.989  1.00  0.00    -0.207 OA
BRANCH   8  11
ATOM     11  C   UNL A   1      33.190  24.898  22.474  1.00  0.00     0.083 A 
ATOM     12  N   UNL A   1      32.751  20.244  23.795  1.00  0.00    -0.275 N 
ATOM     13  C   UNL A   1      33.730  20.389  24.787  1.00  0.00     0.261 C 
ATOM     14  C   UNL A   1      32.503  21.212  22.826  1.00  0.00     0.261 C 
ATOM     15  O   UNL A   1      34.108  19.473  25.514  1.00  0.00    -0.269 OA
ATOM     16  C   UNL A   1      34.349  21.723  24.947  1.00  0.00     0.049 A 
ATOM     17  C   UNL A   1      33.041  22.569  23.077  1.00  0.00     0.050 A 
ATOM     18  O   UNL A   1      31.898  21.023  21.775  1.00  0.00    -0.269 OA
ATOM     19  C   UNL A   1      35.335  21.922  25.923  1.00  0.00     0.014 A 
ATOM     20  C   UNL A   1      33.936  22.777  24.131  1.00  0.00     0.007 A 
ATOM     21  C   UNL A   1      32.689  23.621  22.225  1.00  0.00     0.036 A 
ATOM     22  C   UNL A   1      35.888  23.186  26.111  1.00  0.00     0.001 A 
ATOM     23  C   UNL A   1      34.462  24.072  24.358  1.00  0.00    -0.015 A 
ATOM     24  C   UNL A   1      35.437  24.262  25.348  1.00  0.00     0.009 A 
ATOM     25  C   UNL A   1      34.029  25.138  23.565  1.00  0.00     0.030 A 
BRANCH  12  26
ATOM     26  C   UNL A   1      32.153  18.909  23.706  1.00  0.00     0.126 C 
ATOM     27  C   UNL A   1      32.785  17.903  22.755  1.00  0.00     0.028 C 
ENDBRANCH  12  26
ENDBRANCH   8  11
ENDBRANCH   6   8
ENDBRANCH   5   6
ENDBRANCH   3   5
ENDBRANCH   2   3
ENDBRANCH   1   2
BRANCH   1  28
ATOM     28  C   UNL A   1      31.699  30.083  25.873  1.00  0.00     0.275 C 
BRANCH  28  29
ATOM     29  O   UNL A   1      33.101  30.310  26.123  1.00  0.00    -0.458 OA
BRANCH  29  30
ATOM     30  C   UNL A   1      33.399  31.294  27.003  1.00  0.00     0.338 C 
ATOM     31  O   UNL A   1      32.681  32.216  27.360  1.00  0.00    -0.246 OA
BRANCH  30  32
ATOM     32  C   UNL A   1      34.696  31.027  27.645  1.00  0.00     0.060 A 
ATOM     33  C   UNL A   1      35.001  29.703  27.984  1.00  0.00     0.016 A 
ATOM     34  C   UNL A   1      35.566  32.065  27.976  1.00  0.00     0.016 A 
ATOM     35  C   UNL A   1      36.179  29.409  28.666  1.00  0.00     0.010 A 
ATOM     36  C   UNL A   1      36.746  31.770  28.663  1.00  0.00     0.010 A 
ATOM     37  C   UNL A   1      37.052  30.443  29.022  1.00  0.00    -0.014 A 
BRANCH  37  38
ATOM     38  C   UNL A   1      38.258  30.160  29.832  1.00  0.00     0.031 A 
ATOM     39  C   UNL A   1      39.310  29.245  29.279  1.00  0.00     0.074 A 
ATOM     40  C   UNL A   1      38.394  30.703  31.054  1.00  0.00     0.049 A 
ATOM     41  N   UNL A   1      40.348  28.720  29.876  1.00  0.00    -0.248 NA
ATOM     42  C   UNL A   1      39.173  28.868  27.863  1.00  0.00     0.031 C 
ATOM     43  C   UNL A   1      37.467  31.657  31.663  1.00  0.00     0.029 A 
ATOM     44  N   UNL A   1      39.358  30.513  32.012  1.00  0.00    -0.354 N 
ATOM     45  C   UNL A   1      40.967  27.923  28.922  1.00  0.00     0.074 A 
ATOM     46  C   UNL A   1      40.192  28.035  27.706  1.00  0.00     0.031 C 
ATOM     47  C   UNL A   1      37.899  31.955  32.899  1.00  0.00     0.029 A 
ATOM     48  C   UNL A   1      39.097  31.172  33.188  1.00  0.00     0.049 A 
ATOM     49  H   UNL A   1      40.160  29.957  31.869  1.00  0.00     0.167 HD
ATOM     50  C   UNL A   1      42.078  27.163  29.061  1.00  0.00     0.037 A 
ATOM     51  C   UNL A   1      39.731  31.110  34.375  1.00  0.00     0.037 A 
ATOM     52  C   UNL A   1      42.853  27.082  30.269  1.00  0.00     0.049 A 
ATOM     53  C   UNL A   1      40.928  30.207  34.518  1.00  0.00     0.074 A 
ATOM     54  C   UNL A   1      44.004  26.351  30.510  1.00  0.00     0.029 A 
ATOM     55  N   UNL A   1      42.555  27.761  31.442  1.00  0.00    -0.354 N 
ATOM     56  N   UNL A   1      41.502  29.445  33.618  1.00  0.00    -0.248 NA
ATOM     57  C   UNL A   1      41.560  30.145  35.844  1.00  0.00     0.031 C 
ATOM     58  C   UNL A   1      44.378  26.556  31.842  1.00  0.00     0.029 A 
ATOM     59  C   UNL A   1      43.490  27.452  32.415  1.00  0.00     0.049 A 
ATOM     60  H   UNL A   1      41.792  28.370  31.564  1.00  0.00     0.167 HD
ATOM     61  C   UNL A   1      42.582  28.850  34.255  1.00  0.00     0.074 A 
ATOM     62  C   UNL A   1      42.584  29.335  35.619  1.00  0.00     0.031 C 
ATOM     63  C   UNL A   1      43.493  27.981  33.755  1.00  0.00     0.037 A 
BRANCH  50  64
ATOM     64  C   UNL A   1      42.507  26.328  27.892  1.00  0.00     0.064 A 
ATOM     65  C   UNL A   1      43.443  26.789  26.955  1.00  0.00     0.173 A 
ATOM     66  C   UNL A   1      42.016  25.022  27.742  1.00  0.00     0.173 A 
ATOM     67  F   UNL A   1      43.931  28.035  27.046  1.00  0.00    -0.203 F 
ATOM     68  C   UNL A   1      43.861  25.977  25.904  1.00  0.00     0.198 A 
ATOM     69  C   UNL A   1      42.455  24.204  26.705  1.00  0.00     0.198 A 
ATOM     70  F   UNL A   1      41.120  24.533  28.614  1.00  0.00    -0.203 F 
ATOM     71  F   UNL A   1      44.734  26.448  25.001  1.00  0.00    -0.200 F 
ATOM     72  C   UNL A   1      43.375  24.684  25.785  1.00  0.00     0.200 A 
ATOM     73  F   UNL A   1      41.992  22.951  26.599  1.00  0.00    -0.200 F 
ATOM     74  F   UNL A   1      43.790  23.899  24.781  1.00  0.00    -0.200 F 
ENDBRANCH  50  64
BRANCH  51  75
ATOM     75  C   UNL A   1      39.231  31.897  35.533  1.00  0.00     0.064 A 
ATOM     76  C   UNL A   1      39.652  33.217  35.744  1.00  0.00     0.173 A 
ATOM     77  C   UNL A   1      38.344  31.339  36.466  1.00  0.00     0.173 A 
ATOM     78  F   UNL A   1      40.518  33.786  34.893  1.00  0.00    -0.203 F 
ATOM     79  C   UNL A   1      39.224  33.940  36.855  1.00  0.00     0.198 A 
ATOM     80  C   UNL A   1      37.893  32.073  37.560  1.00  0.00     0.198 A 
ATOM     81  F   UNL A   1      37.912  30.078  36.312  1.00  0.00    -0.203 F 
ATOM     82  F   UNL A   1      39.682  35.182  37.059  1.00  0.00    -0.200 F 
ATOM     83  C   UNL A   1      38.340  33.370  37.759  1.00  0.00     0.200 A 
ATOM     84  F   UNL A   1      37.030  31.522  38.425  1.00  0.00    -0.200 F 
ATOM     85  F   UNL A   1      37.930  34.066  38.828  1.00  0.00    -0.200 F 
ENDBRANCH  51  75
BRANCH  63  86
ATOM     86  C   UNL A   1      44.614  27.554  34.655  1.00  0.00     0.064 A 
ATOM     87  C   UNL A   1      45.810  28.278  34.740  1.00  0.00     0.173 A 
ATOM     88  C   UNL A   1      44.452  26.444  35.498  1.00  0.00     0.173 A 
ATOM     89  F   UNL A   1      46.016  29.338  33.943  1.00  0.00    -0.203 F 
ATOM     90  C   UNL A   1      46.811  27.899  35.630  1.00  0.00     0.198 A 
ATOM     91  C   UNL A   1      45.443  26.084  36.405  1.00  0.00     0.198 A 
ATOM     92  F   UNL A   1      43.320  25.724  35.457  1.00  0.00    -0.203 F 
ATOM     93  F   UNL A   1      47.961  28.586  35.676  1.00  0.00    -0.200 F 
ATOM     94  C   UNL A   1      46.622  26.809  36.469  1.00  0.00     0.200 A 
ATOM     95  F   UNL A   1      45.253  25.039  37.223  1.00  0.00    -0.200 F 
ATOM     96  F   UNL A   1      47.580  26.456  37.338  1.00  0.00    -0.200 F 
ENDBRANCH  63  86
ENDBRANCH  37  38
ENDBRANCH  30  32
ENDBRANCH  29  30
ENDBRANCH  28  29
ENDBRANCH   1  28
TORSDOF 15
ENDMDL
MODEL 2
REMARK VINA RESULT:     -13.0      4.172      9.788
REMARK SMILES CCN1C(=O)c2cccc3cc(S(=O)(=O)NCC(=O)OCCOC(=O)c4ccc(-c5c6nc(c(-c7c(F)c(F)c(F)c(F)c7F)c7ccc([nH]7)c(-c7c(F)c(F)c(F)c(F)c7F)c7nc(c(-c8c(F)c(F)c(F)c(F)c8F)c8ccc5[nH]8)C=C7)C=C6)cc4)cc(c23)C1=O
REMARK SMILES IDX 21 1 20 2 18 3 19 4 17 5 16 6 13 8 14 9 15 10 12 11 3 12
REMARK SMILES IDX 4 13 92 14 5 15 6 16 90 17 93 18 7 19 91 20 89 21 8 22 10 23
REMARK SMILES IDX 9 24 11 25 2 26 1 27 22 28 23 29 24 30 25 31 26 32 27 33
REMARK SMILES IDX 88 34 28 35 87 36 29 37 30 38 31 39 81 40 32 41 86 42 80 43
REMARK SMILES IDX 82 44 33 45 85 46 79 47 78 48 34 50 66 51 46 52 65 53 47 54
REMARK SMILES IDX 50 55 64 56 83 57 48 58 49 59 63 61 84 62 51 63 35 64 36 65
REMARK SMILES IDX 44 66 37 67 38 68 42 69 45 70 39 71 40 72 43 73 41 74 67 75
REMARK SMILES IDX 68 76 76 77 69 78 70 79 74 80 77 81 71 82 72 83 75 84 73 85
REMARK SMILES IDX 52 86 53 87 61 88 54 89 55 90 59 91 62 92 56 93 57 94 60 95
REMARK SMILES IDX 58 96
REMARK H PARENT 16 7 82 49 50 60
REMARK Flexibility Score: inf
ROOT
ATOM      1  C   UNL A   1      35.362  22.556  24.517  1.00  0.00     0.274 C 
ENDROOT
BRANCH   1   2
ATOM      2  O   UNL A   1      34.233  21.853  23.977  1.00  0.00    -0.461 OA
BRANCH   2   3
ATOM      3  C   UNL A   1      33.360  21.329  24.863  1.00  0.00     0.321 C 
ATOM      4  O   UNL A   1      33.632  20.492  25.716  1.00  0.00    -0.251 OA
BRANCH   3   5
ATOM      5  C   UNL A   1      31.984  21.904  24.688  1.00  0.00     0.221 C 
BRANCH   5   6
ATOM      6  N   UNL A   1      31.025  21.826  25.820  1.00  0.00    -0.200 NA
ATOM      7  H   UNL A   1      30.090  21.822  25.410  1.00  0.00     0.142 HD
BRANCH   6   8
ATOM      8  S   UNL A   1      31.019  23.014  27.025  1.00  0.00     0.241 S 
ATOM      9  O   UNL A   1      32.186  22.802  27.849  1.00  0.00    -0.207 OA
ATOM     10  O   UNL A   1      29.690  23.038  27.593  1.00  0.00    -0.207 OA
BRANCH   8  11
ATOM     11  C   UNL A   1      31.239  24.548  26.165  1.00  0.00     0.083 A 
ATOM     12  N   UNL A   1      29.403  28.108  23.417  1.00  0.00    -0.275 N 
ATOM     13  C   UNL A   1      30.495  28.942  23.692  1.00  0.00     0.261 C 
ATOM     14  C   UNL A   1      29.166  26.917  24.098  1.00  0.00     0.261 C 
ATOM     15  O   UNL A   1      30.609  30.086  23.259  1.00  0.00    -0.269 OA
ATOM     16  C   UNL A   1      31.559  28.407  24.572  1.00  0.00     0.049 A 
ATOM     17  C   UNL A   1      30.293  26.351  24.874  1.00  0.00     0.050 A 
ATOM     18  O   UNL A   1      28.096  26.317  24.122  1.00  0.00    -0.269 OA
ATOM     19  C   UNL A   1      32.672  29.200  24.880  1.00  0.00     0.014 A 
ATOM     20  C   UNL A   1      31.449  27.111  25.076  1.00  0.00     0.007 A 
ATOM     21  C   UNL A   1      30.170  25.079  25.444  1.00  0.00     0.036 A 
ATOM     22  C   UNL A   1      33.700  28.688  25.668  1.00  0.00     0.001 A 
ATOM     23  C   UNL A   1      32.518  26.573  25.833  1.00  0.00    -0.015 A 
ATOM     24  C   UNL A   1      33.634  27.372  26.124  1.00  0.00     0.009 A 
ATOM     25  C   UNL A   1      32.428  25.265  26.316  1.00  0.00     0.030 A 
BRANCH  12  26
ATOM     26  C   UNL A   1      28.399  28.681  22.516  1.00  0.00     0.126 C 
ATOM     27  C   UNL A   1      27.284  29.520  23.126  1.00  0.00     0.028 C 
ENDBRANCH  12  26
ENDBRANCH   8  11
ENDBRANCH   6   8
ENDBRANCH   5   6
ENDBRANCH   3   5
ENDBRANCH   2   3
ENDBRANCH   1   2
BRANCH   1  28
ATOM     28  C   UNL A   1      36.576  21.626  24.613  1.00  0.00     0.275 C 
BRANCH  28  29
ATOM     29  O   UNL A   1      37.201  21.685  25.913  1.00  0.00    -0.458 OA
BRANCH  29  30
ATOM     30  C   UNL A   1      38.535  21.464  25.944  1.00  0.00     0.338 C 
ATOM     31  O   UNL A   1      39.145  20.518  25.468  1.00  0.00    -0.246 OA
BRANCH  30  32
ATOM     32  C   UNL A   1      39.232  22.634  26.501  1.00  0.00     0.060 A 
ATOM     33  C   UNL A   1      38.786  23.907  26.122  1.00  0.00     0.016 A 
ATOM     34  C   UNL A   1      40.348  22.488  27.324  1.00  0.00     0.016 A 
ATOM     35  C   UNL A   1      39.462  25.043  26.558  1.00  0.00     0.010 A 
ATOM     36  C   UNL A   1      41.027  23.628  27.757  1.00  0.00     0.010 A 
ATOM     37  C   UNL A   1      40.595  24.910  27.367  1.00  0.00    -0.014 A 
BRANCH  37  38
ATOM     38  C   UNL A   1      41.382  26.102  27.756  1.00  0.00     0.031 A 
ATOM     39  C   UNL A   1      40.726  27.173  28.576  1.00  0.00     0.074 A 
ATOM     40  C   UNL A   1      42.661  26.226  27.362  1.00  0.00     0.049 A 
ATOM     41  N   UNL A   1      41.160  28.370  28.876  1.00  0.00    -0.248 NA
ATOM     42  C   UNL A   1      39.400  26.856  29.131  1.00  0.00     0.031 C 
ATOM     43  C   UNL A   1      43.418  25.218  26.620  1.00  0.00     0.029 A 
ATOM     44  N   UNL A   1      43.544  27.266  27.514  1.00  0.00    -0.354 N 
ATOM     45  C   UNL A   1      40.149  28.961  29.621  1.00  0.00     0.074 A 
ATOM     46  C   UNL A   1      39.080  27.992  29.733  1.00  0.00     0.031 C 
ATOM     47  C   UNL A   1      44.648  25.697  26.367  1.00  0.00     0.029 A 
ATOM     48  C   UNL A   1      44.743  27.062  26.876  1.00  0.00     0.049 A 
ATOM     49  H   UNL A   1      43.337  28.079  28.030  1.00  0.00     0.167 HD
ATOM     50  C   UNL A   1      40.121  30.203  30.156  1.00  0.00     0.037 A 
ATOM     51  C   UNL A   1      45.779  27.902  26.689  1.00  0.00     0.037 A 
ATOM     52  C   UNL A   1      41.202  31.146  30.059  1.00  0.00     0.049 A 
ATOM     53  C   UNL A   1      45.694  29.301  27.241  1.00  0.00     0.074 A 
ATOM     54  C   UNL A   1      41.279  32.428  30.575  1.00  0.00     0.029 A 
ATOM     55  N   UNL A   1      42.400  30.906  29.401  1.00  0.00    -0.354 N 
ATOM     56  N   UNL A   1      44.731  29.860  27.933  1.00  0.00    -0.248 NA
ATOM     57  C   UNL A   1      46.833  30.190  26.975  1.00  0.00     0.031 C 
ATOM     58  C   UNL A   1      42.508  32.977  30.195  1.00  0.00     0.029 A 
ATOM     59  C   UNL A   1      43.215  32.021  29.485  1.00  0.00     0.049 A 
ATOM     60  H   UNL A   1      42.634  30.066  28.943  1.00  0.00     0.167 HD
ATOM     61  C   UNL A   1      45.165  31.147  28.221  1.00  0.00     0.074 A 
ATOM     62  C   UNL A   1      46.477  31.289  27.626  1.00  0.00     0.031 C 
ATOM     63  C   UNL A   1      44.535  32.123  28.918  1.00  0.00     0.037 A 
BRANCH  50  64
ATOM     64  C   UNL A   1      38.871  30.636  30.861  1.00  0.00     0.064 A 
ATOM     65  C   UNL A   1      38.707  30.474  32.244  1.00  0.00     0.173 A 
ATOM     66  C   UNL A   1      37.845  31.276  30.147  1.00  0.00     0.173 A 
ATOM     67  F   UNL A   1      39.652  29.857  32.968  1.00  0.00    -0.203 F 
ATOM     68  C   UNL A   1      37.556  30.927  32.885  1.00  0.00     0.198 A 
ATOM     69  C   UNL A   1      36.708  31.749  30.795  1.00  0.00     0.198 A 
ATOM     70  F   UNL A   1      37.955  31.456  28.823  1.00  0.00    -0.203 F 
ATOM     71  F   UNL A   1      37.406  30.736  34.204  1.00  0.00    -0.200 F 
ATOM     72  C   UNL A   1      36.563  31.571  32.162  1.00  0.00     0.200 A 
ATOM     73  F   UNL A   1      35.754  32.381  30.096  1.00  0.00    -0.200 F 
ATOM     74  F   UNL A   1      35.462  32.019  32.783  1.00  0.00    -0.200 F 
ENDBRANCH  50  64
BRANCH  51  75
ATOM     75  C   UNL A   1      46.971  27.460  25.920  1.00  0.00     0.064 A 
ATOM     76  C   UNL A   1      48.070  26.875  26.564  1.00  0.00     0.173 A 
ATOM     77  C   UNL A   1      47.050  27.638  24.530  1.00  0.00     0.173 A 
ATOM     78  F   UNL A   1      48.053  26.706  27.894  1.00  0.00    -0.203 F 
ATOM     79  C   UNL A   1      49.209  26.505  25.852  1.00  0.00     0.198 A 
ATOM     80  C   UNL A   1      48.177  27.241  23.815  1.00  0.00     0.198 A 
ATOM     81  F   UNL A   1      46.027  28.196  23.865  1.00  0.00    -0.203 F 
ATOM     82  F   UNL A   1      50.265  25.995  26.500  1.00  0.00    -0.200 F 
ATOM     83  C   UNL A   1      49.260  26.683  24.477  1.00  0.00     0.200 A 
ATOM     84  F   UNL A   1      48.218  27.404  22.485  1.00  0.00    -0.200 F 
ATOM     85  F   UNL A   1      50.357  26.329  23.794  1.00  0.00    -0.200 F 
ENDBRANCH  51  75
BRANCH  63  86
ATOM     86  C   UNL A   1      45.279  33.405  29.146  1.00  0.00     0.064 A 
ATOM     87  C   UNL A   1      45.173  34.488  28.264  1.00  0.00     0.173 A 
ATOM     88  C   UNL A   1      46.052  33.571  30.306  1.00  0.00     0.173 A 
ATOM     89  F   UNL A   1      44.457  34.371  27.135  1.00  0.00    -0.203 F 
ATOM     90  C   UNL A   1      45.823  35.690  28.530  1.00  0.00     0.198 A 
ATOM     91  C   UNL A   1      46.678  34.781  30.581  1.00  0.00     0.198 A 
ATOM     92  F   UNL A   1      46.178  32.563  31.183  1.00  0.00    -0.203 F 
ATOM     93  F   UNL A   1      45.732  36.705  27.659  1.00  0.00    -0.200 F 
ATOM     94  C   UNL A   1      46.565  35.839  29.693  1.00  0.00     0.200 A 
ATOM     95  F   UNL A   1      47.384  34.928  31.711  1.00  0.00    -0.200 F 
ATOM     96  F   UNL A   1      47.176  37.003  29.955  1.00  0.00    -0.200 F 
ENDBRANCH  63  86
ENDBRANCH  37  38
ENDBRANCH  30  32
ENDBRANCH  29  30
ENDBRANCH  28  29
ENDBRANCH   1  28
TORSDOF 15
ENDMDL
MODEL 3
REMARK VINA RESULT:     -12.6      4.570     10.009
REMARK SMILES CCN1C(=O)c2cccc3cc(S(=O)(=O)NCC(=O)OCCOC(=O)c4ccc(-c5c6nc(c(-c7c(F)c(F)c(F)c(F)c7F)c7ccc([nH]7)c(-c7c(F)c(F)c(F)c(F)c7F)c7nc(c(-c8c(F)c(F)c(F)c(F)c8F)c8ccc5[nH]8)C=C7)C=C6)cc4)cc(c23)C1=O
REMARK SMILES IDX 21 1 20 2 18 3 19 4 17 5 16 6 13 8 14 9 15 10 12 11 3 12
REMARK SMILES IDX 4 13 92 14 5 15 6 16 90 17 93 18 7 19 91 20 89 21 8 22 10 23
REMARK SMILES IDX 9 24 11 25 2 26 1 27 22 28 23 29 24 30 25 31 26 32 27 33
REMARK SMILES IDX 88 34 28 35 87 36 29 37 30 38 31 39 81 40 32 41 86 42 80 43
REMARK SMILES IDX 82 44 33 45 85 46 79 47 78 48 34 50 66 51 46 52 65 53 47 54
REMARK SMILES IDX 50 55 64 56 83 57 48 58 49 59 63 61 84 62 51 63 35 64 36 65
REMARK SMILES IDX 44 66 37 67 38 68 42 69 45 70 39 71 40 72 43 73 41 74 67 75
REMARK SMILES IDX 68 76 76 77 69 78 70 79 74 80 77 81 71 82 72 83 75 84 73 85
REMARK SMILES IDX 52 86 53 87 61 88 54 89 55 90 59 91 62 92 56 93 57 94 60 95
REMARK SMILES IDX 58 96
REMARK H PARENT 16 7 82 49 50 60
REMARK Flexibility Score: inf
ROOT
ATOM      1  C   UNL A   1      38.682  21.323  25.761  1.00  0.00     0.274 C 
ENDROOT
BRANCH   1   2
ATOM      2  O   UNL A   1      37.743  21.690  24.739  1.00  0.00    -0.461 OA
BRANCH   2   3
ATOM      3  C   UNL A   1      36.440  21.726  25.093  1.00  0.00     0.321 C 
ATOM      4  O   UNL A   1      35.685  20.760  25.114  1.00  0.00    -0.251 OA
BRANCH   3   5
ATOM      5  C   UNL A   1      36.008  23.113  25.472  1.00  0.00     0.221 C 
BRANCH   5   6
ATOM      6  N   UNL A   1      35.595  24.053  24.398  1.00  0.00    -0.200 NA
ATOM      7  H   UNL A   1      35.797  24.993  24.741  1.00  0.00     0.142 HD
BRANCH   6   8
ATOM      8  S   UNL A   1      33.997  24.074  23.842  1.00  0.00     0.241 S 
ATOM      9  O   UNL A   1      33.239  23.164  24.667  1.00  0.00    -0.207 OA
ATOM     10  O   UNL A   1      34.045  23.927  22.405  1.00  0.00    -0.207 OA
BRANCH   8  11
ATOM     11  C   UNL A   1      33.412  25.714  24.171  1.00  0.00     0.083 A 
ATOM     12  N   UNL A   1      30.428  29.391  23.092  1.00  0.00    -0.275 N 
ATOM     13  C   UNL A   1      30.692  30.022  24.315  1.00  0.00     0.261 C 
ATOM     14  C   UNL A   1      30.828  28.089  22.806  1.00  0.00     0.261 C 
ATOM     15  O   UNL A   1      30.173  31.078  24.667  1.00  0.00    -0.269 OA
ATOM     16  C   UNL A   1      31.641  29.357  25.235  1.00  0.00     0.049 A 
ATOM     17  C   UNL A   1      31.867  27.498  23.681  1.00  0.00     0.050 A 
ATOM     18  O   UNL A   1      30.373  27.390  21.906  1.00  0.00    -0.269 OA
ATOM     19  C   UNL A   1      31.941  29.944  26.472  1.00  0.00     0.014 A 
ATOM     20  C   UNL A   1      32.241  28.155  24.856  1.00  0.00     0.007 A 
ATOM     21  C   UNL A   1      32.427  26.260  23.349  1.00  0.00     0.036 A 
ATOM     22  C   UNL A   1      32.868  29.349  27.323  1.00  0.00     0.001 A 
ATOM     23  C   UNL A   1      33.223  27.579  25.700  1.00  0.00    -0.015 A 
ATOM     24  C   UNL A   1      33.524  28.183  26.929  1.00  0.00     0.009 A 
ATOM     25  C   UNL A   1      33.850  26.391  25.312  1.00  0.00     0.030 A 
BRANCH  12  26
ATOM     26  C   UNL A   1      29.505  30.113  22.211  1.00  0.00     0.126 C 
ATOM     27  C   UNL A   1      28.014  29.846  22.362  1.00  0.00     0.028 C 
ENDBRANCH  12  26
ENDBRANCH   8  11
ENDBRANCH   6   8
ENDBRANCH   5   6
ENDBRANCH   3   5
ENDBRANCH   2   3
ENDBRANCH   1   2
BRANCH   1  28
ATOM     28  C   UNL A   1      39.387  20.013  25.394  1.00  0.00     0.275 C 
BRANCH  28  29
ATOM     29  O   UNL A   1      40.284  19.571  26.435  1.00  0.00    -0.458 OA
BRANCH  29  30
ATOM     30  C   UNL A   1      41.601  19.571  26.128  1.00  0.00     0.338 C 
ATOM     31  O   UNL A   1      42.216  18.731  25.488  1.00  0.00    -0.246 OA
BRANCH  30  32
ATOM     32  C   UNL A   1      42.217  20.845  26.530  1.00  0.00     0.060 A 
ATOM     33  C   UNL A   1      42.323  21.121  27.899  1.00  0.00     0.016 A 
ATOM     34  C   UNL A   1      42.618  21.786  25.582  1.00  0.00     0.016 A 
ATOM     35  C   UNL A   1      42.824  22.347  28.329  1.00  0.00     0.010 A 
ATOM     36  C   UNL A   1      43.118  23.016  26.014  1.00  0.00     0.010 A 
ATOM     37  C   UNL A   1      43.212  23.307  27.388  1.00  0.00    -0.014 A 
BRANCH  37  38
ATOM     38  C   UNL A   1      43.653  24.650  27.827  1.00  0.00     0.031 A 
ATOM     39  C   UNL A   1      42.619  25.679  28.180  1.00  0.00     0.074 A 
ATOM     40  C   UNL A   1      44.963  24.945  27.889  1.00  0.00     0.049 A 
ATOM     41  N   UNL A   1      42.768  26.957  28.412  1.00  0.00    -0.248 NA
ATOM     42  C   UNL A   1      41.229  25.204  28.280  1.00  0.00     0.031 C 
ATOM     43  C   UNL A   1      46.053  24.004  27.633  1.00  0.00     0.029 A 
ATOM     44  N   UNL A   1      45.598  26.129  28.166  1.00  0.00    -0.354 N 
ATOM     45  C   UNL A   1      41.491  27.447  28.650  1.00  0.00     0.074 A 
ATOM     46  C   UNL A   1      40.578  26.330  28.538  1.00  0.00     0.031 C 
ATOM     47  C   UNL A   1      47.224  24.653  27.749  1.00  0.00     0.029 A 
ATOM     48  C   UNL A   1      46.963  26.062  28.030  1.00  0.00     0.049 A 
ATOM     49  H   UNL A   1      45.121  26.948  28.438  1.00  0.00     0.167 HD
ATOM     50  C   UNL A   1      41.121  28.718  28.930  1.00  0.00     0.037 A 
ATOM     51  C   UNL A   1      47.888  27.039  28.081  1.00  0.00     0.037 A 
ATOM     52  C   UNL A   1      42.043  29.814  29.064  1.00  0.00     0.049 A 
ATOM     53  C   UNL A   1      47.442  28.456  28.332  1.00  0.00     0.074 A 
ATOM     54  C   UNL A   1      41.773  31.139  29.358  1.00  0.00     0.029 A 
ATOM     55  N   UNL A   1      43.418  29.708  28.913  1.00  0.00    -0.354 N 
ATOM     56  N   UNL A   1      46.233  28.917  28.543  1.00  0.00    -0.248 NA
ATOM     57  C   UNL A   1      48.485  29.491  28.338  1.00  0.00     0.031 C 
ATOM     58  C   UNL A   1      42.981  31.843  29.345  1.00  0.00     0.029 A 
ATOM     59  C   UNL A   1      44.008  30.947  29.093  1.00  0.00     0.049 A 
ATOM     60  H   UNL A   1      43.902  28.875  28.710  1.00  0.00     0.167 HD
ATOM     61  C   UNL A   1      46.375  30.282  28.750  1.00  0.00     0.074 A 
ATOM     62  C   UNL A   1      47.787  30.578  28.635  1.00  0.00     0.031 C 
ATOM     63  C   UNL A   1      45.422  31.208  29.014  1.00  0.00     0.037 A 
BRANCH  50  64
ATOM     64  C   UNL A   1      39.658  29.007  29.074  1.00  0.00     0.064 A 
ATOM     65  C   UNL A   1      38.856  29.343  27.973  1.00  0.00     0.173 A 
ATOM     66  C   UNL A   1      39.037  28.888  30.328  1.00  0.00     0.173 A 
ATOM     67  F   UNL A   1      39.405  29.482  26.758  1.00  0.00    -0.203 F 
ATOM     68  C   UNL A   1      37.489  29.561  28.125  1.00  0.00     0.198 A 
ATOM     69  C   UNL A   1      37.666  29.082  30.471  1.00  0.00     0.198 A 
ATOM     70  F   UNL A   1      39.759  28.567  31.411  1.00  0.00    -0.203 F 
ATOM     71  F   UNL A   1      36.747  29.910  27.064  1.00  0.00    -0.200 F 
ATOM     72  C   UNL A   1      36.894  29.422  29.370  1.00  0.00     0.200 A 
ATOM     73  F   UNL A   1      37.091  28.936  31.673  1.00  0.00    -0.200 F 
ATOM     74  F   UNL A   1      35.576  29.618  29.511  1.00  0.00    -0.200 F 
ENDBRANCH  50  64
BRANCH  51  75
ATOM     75  C   UNL A   1      49.324  26.724  27.859  1.00  0.00     0.064 A 
ATOM     76  C   UNL A   1      49.850  26.632  26.564  1.00  0.00     0.173 A 
ATOM     77  C   UNL A   1      50.192  26.481  28.934  1.00  0.00     0.173 A 
ATOM     78  F   UNL A   1      49.054  26.831  25.503  1.00  0.00    -0.203 F 
ATOM     79  C   UNL A   1      51.184  26.289  26.351  1.00  0.00     0.198 A 
ATOM     80  C   UNL A   1      51.532  26.168  28.722  1.00  0.00     0.198 A 
ATOM     81  F   UNL A   1      49.738  26.553  30.195  1.00  0.00    -0.203 F 
ATOM     82  F   UNL A   1      51.648  26.158  25.101  1.00  0.00    -0.200 F 
ATOM     83  C   UNL A   1      52.026  26.062  27.430  1.00  0.00     0.200 A 
ATOM     84  F   UNL A   1      52.345  25.960  29.767  1.00  0.00    -0.200 F 
ATOM     85  F   UNL A   1      53.307  25.730  27.225  1.00  0.00    -0.200 F 
ENDBRANCH  51  75
BRANCH  63  86
ATOM     86  C   UNL A   1      45.873  32.614  29.274  1.00  0.00     0.064 A 
ATOM     87  C   UNL A   1      45.951  33.567  28.250  1.00  0.00     0.173 A 
ATOM     88  C   UNL A   1      46.159  33.028  30.584  1.00  0.00     0.173 A 
ATOM     89  F   UNL A   1      45.701  33.214  26.979  1.00  0.00    -0.203 F 
ATOM     90  C   UNL A   1      46.312  34.883  28.526  1.00  0.00     0.198 A 
ATOM     91  C   UNL A   1      46.493  34.350  30.860  1.00  0.00     0.198 A 
ATOM     92  F   UNL A   1      46.091  32.153  31.599  1.00  0.00    -0.203 F 
ATOM     93  F   UNL A   1      46.410  35.773  27.528  1.00  0.00    -0.200 F 
ATOM     94  C   UNL A   1      46.571  35.275  29.831  1.00  0.00     0.200 A 
ATOM     95  F   UNL A   1      46.731  34.730  32.123  1.00  0.00    -0.200 F 
ATOM     96  F   UNL A   1      46.901  36.547  30.097  1.00  0.00    -0.200 F 
ENDBRANCH  63  86
ENDBRANCH  37  38
ENDBRANCH  30  32
ENDBRANCH  29  30
ENDBRANCH  28  29
ENDBRANCH   1  28
TORSDOF 15
ENDMDL
