MODEL 1
REMARK VINA RESULT:     -12.9      0.000      0.000
REMARK SMILES Cc1ccc(Nc2c(Cl)cccc2Cl)c(CC(=O)OCCOC(=O)c2ccc(-c3c4nc(c(-c5c(F)c(F)c(F)c(F)c5F)c5ccc([nH]5)c(-c5c(F)c(F)c(F)c(F)c5F)c5nc(c(-c6c(F)c(F)c(F)c(F)c6F)c6ccc3[nH]6)C=C5)C=C4)cc2)c1
REMARK SMILES IDX 20 1 19 2 17 3 18 4 16 5 15 6 1 7 2 8 3 9 88 10 4 11 5 12
REMARK SMILES IDX 6 13 7 15 8 16 13 17 9 18 10 19 12 20 14 21 11 22 21 23
REMARK SMILES IDX 22 24 23 25 24 26 25 27 26 28 87 29 27 30 86 31 28 32 29 33
REMARK SMILES IDX 30 34 80 35 31 36 85 37 79 38 81 39 32 40 84 41 78 42 77 43
REMARK SMILES IDX 33 45 65 46 45 47 64 48 46 49 49 50 63 51 82 52 47 53 48 54
REMARK SMILES IDX 62 56 83 57 50 58 34 59 35 60 43 61 36 62 37 63 41 64 44 65
REMARK SMILES IDX 38 66 39 67 42 68 40 69 66 70 67 71 75 72 68 73 69 74 73 75
REMARK SMILES IDX 76 76 70 77 71 78 74 79 72 80 51 81 52 82 60 83 53 84 54 85
REMARK SMILES IDX 58 86 61 87 55 88 56 89 59 90 57 91
REMARK H PARENT 6 14 81 44 49 55
REMARK Flexibility Score: inf
ROOT
ATOM      1  C   UNL A   1      34.023  28.136  26.097  1.00  0.00     0.274 C 
ENDROOT
BRANCH   1   2
ATOM      2  O   UNL A   1      32.877  27.387  26.476  1.00  0.00    -0.462 OA
BRANCH   2   3
ATOM      3  C   UNL A   1      32.841  26.067  26.140  1.00  0.00     0.310 C 
ATOM      4  O   UNL A   1      31.901  25.322  26.290  1.00  0.00    -0.252 OA
BRANCH   3   5
ATOM      5  C   UNL A   1      34.184  25.684  25.547  1.00  0.00     0.160 C 
BRANCH   5   6
ATOM      6  C   UNL A   1      33.952  24.934  24.265  1.00  0.00    -0.013 A 
ATOM      7  C   UNL A   1      32.373  25.936  20.955  1.00  0.00     0.044 C 
ATOM      8  C   UNL A   1      32.986  25.104  22.038  1.00  0.00    -0.051 A 
ATOM      9  C   UNL A   1      33.026  23.713  21.942  1.00  0.00     0.005 A 
ATOM     10  C   UNL A   1      33.469  25.708  23.193  1.00  0.00     0.009 A 
ATOM     11  C   UNL A   1      33.542  22.939  22.987  1.00  0.00     0.026 A 
ATOM     12  C   UNL A   1      34.007  23.524  24.169  1.00  0.00     0.042 A 
BRANCH  12  13
ATOM     13  N   UNL A   1      34.427  22.711  25.240  1.00  0.00    -0.353 N 
ATOM     14  H   UNL A   1      33.880  22.779  26.056  1.00  0.00     0.167 HD
BRANCH  13  15
ATOM     15  C   UNL A   1      35.522  21.809  25.320  1.00  0.00     0.076 A 
ATOM     16  C   UNL A   1      35.370  20.447  25.002  1.00  0.00     0.066 A 
ATOM     17  C   UNL A   1      36.838  22.281  25.497  1.00  0.00     0.066 A 
ATOM     18  Cl  UNL A   1      33.810  19.742  24.743  1.00  0.00    -0.082 Cl
ATOM     19  C   UNL A   1      36.482  19.603  24.879  1.00  0.00     0.023 A 
ATOM     20  C   UNL A   1      37.951  21.456  25.300  1.00  0.00     0.023 A 
ATOM     21  Cl  UNL A   1      37.157  23.854  26.123  1.00  0.00    -0.082 Cl
ATOM     22  C   UNL A   1      37.774  20.112  24.997  1.00  0.00     0.003 A 
ENDBRANCH  13  15
ENDBRANCH  12  13
ENDBRANCH   5   6
ENDBRANCH   3   5
ENDBRANCH   2   3
ENDBRANCH   1   2
BRANCH   1  23
ATOM     23  C   UNL A   1      34.008  29.492  26.820  1.00  0.00     0.275 C 
BRANCH  23  24
ATOM     24  O   UNL A   1      34.874  29.668  28.006  1.00  0.00    -0.458 OA
BRANCH  24  25
ATOM     25  C   UNL A   1      35.956  30.475  28.198  1.00  0.00     0.338 C 
ATOM     26  O   UNL A   1      35.886  31.695  28.158  1.00  0.00    -0.246 OA
BRANCH  25  27
ATOM     27  C   UNL A   1      37.223  29.818  28.550  1.00  0.00     0.060 A 
ATOM     28  C   UNL A   1      37.341  28.953  29.653  1.00  0.00     0.016 A 
ATOM     29  C   UNL A   1      38.245  29.935  27.635  1.00  0.00     0.016 A 
ATOM     30  C   UNL A   1      38.438  28.096  29.727  1.00  0.00     0.010 A 
ATOM     31  C   UNL A   1      39.114  28.895  27.530  1.00  0.00     0.010 A 
ATOM     32  C   UNL A   1      39.297  28.051  28.628  1.00  0.00    -0.014 A 
BRANCH  32  33
ATOM     33  C   UNL A   1      40.620  27.455  28.616  1.00  0.00     0.031 A 
ATOM     34  C   UNL A   1      40.875  26.088  28.165  1.00  0.00     0.074 A 
ATOM     35  C   UNL A   1      41.585  28.343  28.957  1.00  0.00     0.049 A 
ATOM     36  N   UNL A   1      41.715  25.299  28.740  1.00  0.00    -0.248 NA
ATOM     37  C   UNL A   1      40.209  25.482  27.014  1.00  0.00     0.031 C 
ATOM     38  C   UNL A   1      43.028  28.272  28.886  1.00  0.00     0.029 A 
ATOM     39  N   UNL A   1      41.346  29.595  29.563  1.00  0.00    -0.354 N 
ATOM     40  C   UNL A   1      41.955  24.274  27.851  1.00  0.00     0.074 A 
ATOM     41  C   UNL A   1      40.881  24.328  26.888  1.00  0.00     0.031 C 
ATOM     42  C   UNL A   1      43.534  29.220  29.704  1.00  0.00     0.029 A 
ATOM     43  C   UNL A   1      42.421  29.860  30.401  1.00  0.00     0.049 A 
ATOM     44  H   UNL A   1      40.563  30.174  29.418  1.00  0.00     0.167 HD
ATOM     45  C   UNL A   1      43.171  23.656  27.854  1.00  0.00     0.037 A 
ATOM     46  C   UNL A   1      42.167  29.874  31.741  1.00  0.00     0.037 A 
ATOM     47  C   UNL A   1      44.067  24.328  28.790  1.00  0.00     0.049 A 
ATOM     48  C   UNL A   1      42.832  28.698  32.401  1.00  0.00     0.074 A 
ATOM     49  C   UNL A   1      45.008  25.325  28.582  1.00  0.00     0.029 A 
ATOM     50  N   UNL A   1      43.780  24.339  30.151  1.00  0.00    -0.354 N 
ATOM     51  N   UNL A   1      43.117  27.586  31.782  1.00  0.00    -0.248 NA
ATOM     52  C   UNL A   1      43.272  28.704  33.789  1.00  0.00     0.031 C 
ATOM     53  C   UNL A   1      45.244  25.975  29.817  1.00  0.00     0.029 A 
ATOM     54  C   UNL A   1      44.451  25.373  30.778  1.00  0.00     0.049 A 
ATOM     55  H   UNL A   1      43.183  23.699  30.604  1.00  0.00     0.167 HD
ATOM     56  C   UNL A   1      43.827  26.774  32.619  1.00  0.00     0.074 A 
ATOM     57  C   UNL A   1      43.883  27.509  33.870  1.00  0.00     0.031 C 
ATOM     58  C   UNL A   1      44.341  25.577  32.211  1.00  0.00     0.037 A 
BRANCH  45  59
ATOM     59  C   UNL A   1      43.634  22.727  26.758  1.00  0.00     0.064 A 
ATOM     60  C   UNL A   1      43.142  21.408  26.651  1.00  0.00     0.173 A 
ATOM     61  C   UNL A   1      44.565  23.100  25.770  1.00  0.00     0.173 A 
ATOM     62  F   UNL A   1      42.212  20.933  27.486  1.00  0.00    -0.203 F 
ATOM     63  C   UNL A   1      43.595  20.513  25.679  1.00  0.00     0.198 A 
ATOM     64  C   UNL A   1      45.038  22.194  24.812  1.00  0.00     0.198 A 
ATOM     65  F   UNL A   1      45.022  24.359  25.699  1.00  0.00    -0.203 F 
ATOM     66  F   UNL A   1      43.096  19.269  25.638  1.00  0.00    -0.200 F 
ATOM     67  C   UNL A   1      44.557  20.899  24.771  1.00  0.00     0.200 A 
ATOM     68  F   UNL A   1      45.968  22.582  23.926  1.00  0.00    -0.200 F 
ATOM     69  F   UNL A   1      45.006  20.031  23.853  1.00  0.00    -0.200 F 
ENDBRANCH  45  59
BRANCH  46  70
ATOM     70  C   UNL A   1      40.821  30.442  32.097  1.00  0.00     0.064 A 
ATOM     71  C   UNL A   1      39.797  29.545  32.484  1.00  0.00     0.173 A 
ATOM     72  C   UNL A   1      40.595  31.800  32.363  1.00  0.00     0.173 A 
ATOM     73  F   UNL A   1      39.946  28.228  32.269  1.00  0.00    -0.203 F 
ATOM     74  C   UNL A   1      38.665  29.967  33.182  1.00  0.00     0.198 A 
ATOM     75  C   UNL A   1      39.442  32.224  33.044  1.00  0.00     0.198 A 
ATOM     76  F   UNL A   1      41.514  32.719  32.037  1.00  0.00    -0.203 F 
ATOM     77  F   UNL A   1      37.776  29.066  33.625  1.00  0.00    -0.200 F 
ATOM     78  C   UNL A   1      38.495  31.307  33.476  1.00  0.00     0.200 A 
ATOM     79  F   UNL A   1      39.282  33.522  33.343  1.00  0.00    -0.200 F 
ATOM     80  F   UNL A   1      37.442  31.705  34.204  1.00  0.00    -0.200 F 
ENDBRANCH  46  70
BRANCH  58  81
ATOM     81  C   UNL A   1      44.912  24.523  33.116  1.00  0.00     0.064 A 
ATOM     82  C   UNL A   1      44.244  23.330  33.425  1.00  0.00     0.173 A 
ATOM     83  C   UNL A   1      46.251  24.619  33.571  1.00  0.00     0.173 A 
ATOM     84  F   UNL A   1      43.020  23.070  32.947  1.00  0.00    -0.203 F 
ATOM     85  C   UNL A   1      44.845  22.335  34.193  1.00  0.00     0.198 A 
ATOM     86  C   UNL A   1      46.871  23.591  34.271  1.00  0.00     0.198 A 
ATOM     87  F   UNL A   1      47.007  25.698  33.322  1.00  0.00    -0.203 F 
ATOM     88  F   UNL A   1      44.148  21.236  34.511  1.00  0.00    -0.200 F 
ATOM     89  C   UNL A   1      46.161  22.457  34.602  1.00  0.00     0.200 A 
ATOM     90  F   UNL A   1      48.165  23.700  34.602  1.00  0.00    -0.200 F 
ATOM     91  F   UNL A   1      46.749  21.474  35.293  1.00  0.00    -0.200 F 
ENDBRANCH  58  81
ENDBRANCH  32  33
ENDBRANCH  25  27
ENDBRANCH  24  25
ENDBRANCH  23  24
ENDBRANCH   1  23
TORSDOF 14
ENDMDL
MODEL 2
REMARK VINA RESULT:     -12.8      1.878      2.548
REMARK SMILES Cc1ccc(Nc2c(Cl)cccc2Cl)c(CC(=O)OCCOC(=O)c2ccc(-c3c4nc(c(-c5c(F)c(F)c(F)c(F)c5F)c5ccc([nH]5)c(-c5c(F)c(F)c(F)c(F)c5F)c5nc(c(-c6c(F)c(F)c(F)c(F)c6F)c6ccc3[nH]6)C=C5)C=C4)cc2)c1
REMARK SMILES IDX 20 1 19 2 17 3 18 4 16 5 15 6 1 7 2 8 3 9 88 10 4 11 5 12
REMARK SMILES IDX 6 13 7 15 8 16 13 17 9 18 10 19 12 20 14 21 11 22 21 23
REMARK SMILES IDX 22 24 23 25 24 26 25 27 26 28 87 29 27 30 86 31 28 32 29 33
REMARK SMILES IDX 30 34 80 35 31 36 85 37 79 38 81 39 32 40 84 41 78 42 77 43
REMARK SMILES IDX 33 45 65 46 45 47 64 48 46 49 49 50 63 51 82 52 47 53 48 54
REMARK SMILES IDX 62 56 83 57 50 58 34 59 35 60 43 61 36 62 37 63 41 64 44 65
REMARK SMILES IDX 38 66 39 67 42 68 40 69 66 70 67 71 75 72 68 73 69 74 73 75
REMARK SMILES IDX 76 76 70 77 71 78 74 79 72 80 51 81 52 82 60 83 53 84 54 85
REMARK SMILES IDX 58 86 61 87 55 88 56 89 59 90 57 91
REMARK H PARENT 6 14 81 44 49 55
REMARK Flexibility Score: inf
ROOT
ATOM      1  C   UNL A   1      33.311  28.790  27.329  1.00  0.00     0.274 C 
ENDROOT
BRANCH   1   2
ATOM      2  O   UNL A   1      32.537  28.431  26.194  1.00  0.00    -0.462 OA
BRANCH   2   3
ATOM      3  C   UNL A   1      32.096  29.433  25.382  1.00  0.00     0.310 C 
ATOM      4  O   UNL A   1      31.761  30.538  25.737  1.00  0.00    -0.252 OA
BRANCH   3   5
ATOM      5  C   UNL A   1      32.095  28.927  23.951  1.00  0.00     0.160 C 
BRANCH   5   6
ATOM      6  C   UNL A   1      30.820  28.170  23.706  1.00  0.00    -0.013 A 
ATOM      7  C   UNL A   1      27.275  29.295  22.921  1.00  0.00     0.044 C 
ATOM      8  C   UNL A   1      28.441  28.421  23.261  1.00  0.00    -0.051 A 
ATOM      9  C   UNL A   1      28.259  27.084  23.620  1.00  0.00     0.005 A 
ATOM     10  C   UNL A   1      29.725  28.949  23.287  1.00  0.00     0.009 A 
ATOM     11  C   UNL A   1      29.347  26.291  23.998  1.00  0.00     0.026 A 
ATOM     12  C   UNL A   1      30.644  26.811  24.059  1.00  0.00     0.042 A 
BRANCH  12  13
ATOM     13  N   UNL A   1      31.701  26.014  24.539  1.00  0.00    -0.353 N 
ATOM     14  H   UNL A   1      32.201  26.394  25.297  1.00  0.00     0.167 HD
BRANCH  13  15
ATOM     15  C   UNL A   1      32.155  24.743  24.094  1.00  0.00     0.076 A 
ATOM     16  C   UNL A   1      33.036  24.623  23.004  1.00  0.00     0.066 A 
ATOM     17  C   UNL A   1      31.926  23.583  24.861  1.00  0.00     0.066 A 
ATOM     18  Cl  UNL A   1      33.416  25.973  21.989  1.00  0.00    -0.082 Cl
ATOM     19  C   UNL A   1      33.646  23.399  22.696  1.00  0.00     0.023 A 
ATOM     20  C   UNL A   1      32.593  22.381  24.599  1.00  0.00     0.023 A 
ATOM     21  Cl  UNL A   1      30.696  23.524  26.066  1.00  0.00    -0.082 Cl
ATOM     22  C   UNL A   1      33.450  22.286  23.510  1.00  0.00     0.003 A 
ENDBRANCH  13  15
ENDBRANCH  12  13
ENDBRANCH   5   6
ENDBRANCH   3   5
ENDBRANCH   2   3
ENDBRANCH   1   2
BRANCH   1  23
ATOM     23  C   UNL A   1      34.783  28.948  26.914  1.00  0.00     0.275 C 
BRANCH  23  24
ATOM     24  O   UNL A   1      35.479  30.208  27.255  1.00  0.00    -0.458 OA
BRANCH  24  25
ATOM     25  C   UNL A   1      36.154  30.565  28.384  1.00  0.00     0.338 C 
ATOM     26  O   UNL A   1      35.738  31.411  29.164  1.00  0.00    -0.246 OA
BRANCH  25  27
ATOM     27  C   UNL A   1      37.384  29.820  28.688  1.00  0.00     0.060 A 
ATOM     28  C   UNL A   1      37.498  28.983  29.812  1.00  0.00     0.016 A 
ATOM     29  C   UNL A   1      38.358  29.828  27.715  1.00  0.00     0.016 A 
ATOM     30  C   UNL A   1      38.527  28.043  29.855  1.00  0.00     0.010 A 
ATOM     31  C   UNL A   1      39.136  28.719  27.598  1.00  0.00     0.010 A 
ATOM     32  C   UNL A   1      39.315  27.897  28.713  1.00  0.00    -0.014 A 
BRANCH  32  33
ATOM     33  C   UNL A   1      40.585  27.197  28.648  1.00  0.00     0.031 A 
ATOM     34  C   UNL A   1      40.697  25.774  28.334  1.00  0.00     0.074 A 
ATOM     35  C   UNL A   1      41.640  28.035  28.797  1.00  0.00     0.049 A 
ATOM     36  N   UNL A   1      41.531  24.985  28.916  1.00  0.00    -0.248 NA
ATOM     37  C   UNL A   1      39.878  25.105  27.324  1.00  0.00     0.031 C 
ATOM     38  C   UNL A   1      43.060  27.839  28.604  1.00  0.00     0.029 A 
ATOM     39  N   UNL A   1      41.552  29.359  29.276  1.00  0.00    -0.354 N 
ATOM     40  C   UNL A   1      41.609  23.855  28.131  1.00  0.00     0.074 A 
ATOM     41  C   UNL A   1      40.451  23.894  27.270  1.00  0.00     0.031 C 
ATOM     42  C   UNL A   1      43.711  28.824  29.260  1.00  0.00     0.029 A 
ATOM     43  C   UNL A   1      42.721  29.623  29.977  1.00  0.00     0.049 A 
ATOM     44  H   UNL A   1      40.801  29.981  29.138  1.00  0.00     0.167 HD
ATOM     45  C   UNL A   1      42.772  23.143  28.094  1.00  0.00     0.037 A 
ATOM     46  C   UNL A   1      42.603  29.800  31.325  1.00  0.00     0.037 A 
ATOM     47  C   UNL A   1      43.802  23.835  28.862  1.00  0.00     0.049 A 
ATOM     48  C   UNL A   1      43.245  28.650  32.051  1.00  0.00     0.074 A 
ATOM     49  C   UNL A   1      44.785  24.725  28.458  1.00  0.00     0.029 A 
ATOM     50  N   UNL A   1      43.653  24.014  30.233  1.00  0.00    -0.354 N 
ATOM     51  N   UNL A   1      43.387  27.460  31.538  1.00  0.00    -0.248 NA
ATOM     52  C   UNL A   1      43.820  28.768  33.383  1.00  0.00     0.031 C 
ATOM     53  C   UNL A   1      45.189  25.481  29.585  1.00  0.00     0.029 A 
ATOM     54  C   UNL A   1      44.455  25.051  30.675  1.00  0.00     0.049 A 
ATOM     55  H   UNL A   1      43.060  23.477  30.809  1.00  0.00     0.167 HD
ATOM     56  C   UNL A   1      44.118  26.686  32.394  1.00  0.00     0.074 A 
ATOM     57  C   UNL A   1      44.349  27.543  33.543  1.00  0.00     0.031 C 
ATOM     58  C   UNL A   1      44.503  25.415  32.080  1.00  0.00     0.037 A 
BRANCH  45  59
ATOM     59  C   UNL A   1      43.057  22.069  27.073  1.00  0.00     0.064 A 
ATOM     60  C   UNL A   1      42.369  20.836  27.087  1.00  0.00     0.173 A 
ATOM     61  C   UNL A   1      44.003  22.214  26.041  1.00  0.00     0.173 A 
ATOM     62  F   UNL A   1      41.403  20.578  27.975  1.00  0.00    -0.203 F 
ATOM     63  C   UNL A   1      42.652  19.806  26.187  1.00  0.00     0.198 A 
ATOM     64  C   UNL A   1      44.306  21.171  25.155  1.00  0.00     0.198 A 
ATOM     65  F   UNL A   1      44.642  23.379  25.855  1.00  0.00    -0.203 F 
ATOM     66  F   UNL A   1      41.971  18.654  26.260  1.00  0.00    -0.200 F 
ATOM     67  C   UNL A   1      43.634  19.966  25.232  1.00  0.00     0.200 A 
ATOM     68  F   UNL A   1      45.257  21.340  24.223  1.00  0.00    -0.200 F 
ATOM     69  F   UNL A   1      43.920  18.968  24.384  1.00  0.00    -0.200 F 
ENDBRANCH  45  59
BRANCH  46  70
ATOM     70  C   UNL A   1      41.342  30.511  31.735  1.00  0.00     0.064 A 
ATOM     71  C   UNL A   1      40.358  29.776  32.437  1.00  0.00     0.173 A 
ATOM     72  C   UNL A   1      41.201  31.905  31.739  1.00  0.00     0.173 A 
ATOM     73  F   UNL A   1      40.431  28.436  32.484  1.00  0.00    -0.203 F 
ATOM     74  C   UNL A   1      39.354  30.399  33.180  1.00  0.00     0.198 A 
ATOM     75  C   UNL A   1      40.175  32.529  32.467  1.00  0.00     0.198 A 
ATOM     76  F   UNL A   1      42.092  32.681  31.106  1.00  0.00    -0.203 F 
ATOM     77  F   UNL A   1      38.512  29.663  33.919  1.00  0.00    -0.200 F 
ATOM     78  C   UNL A   1      39.273  31.779  33.207  1.00  0.00     0.200 A 
ATOM     79  F   UNL A   1      40.103  33.868  32.508  1.00  0.00    -0.200 F 
ATOM     80  F   UNL A   1      38.351  32.380  33.974  1.00  0.00    -0.200 F 
ENDBRANCH  46  70
BRANCH  58  81
ATOM     81  C   UNL A   1      45.083  24.419  33.044  1.00  0.00     0.064 A 
ATOM     82  C   UNL A   1      44.407  23.265  33.459  1.00  0.00     0.173 A 
ATOM     83  C   UNL A   1      46.437  24.525  33.451  1.00  0.00     0.173 A 
ATOM     84  F   UNL A   1      43.165  22.992  33.037  1.00  0.00    -0.203 F 
ATOM     85  C   UNL A   1      45.016  22.318  34.281  1.00  0.00     0.198 A 
ATOM     86  C   UNL A   1      47.062  23.540  34.206  1.00  0.00     0.198 A 
ATOM     87  F   UNL A   1      47.202  25.569  33.101  1.00  0.00    -0.203 F 
ATOM     88  F   UNL A   1      44.311  21.258  34.699  1.00  0.00    -0.200 F 
ATOM     89  C   UNL A   1      46.345  22.446  34.640  1.00  0.00     0.200 A 
ATOM     90  F   UNL A   1      48.367  23.650  34.490  1.00  0.00    -0.200 F 
ATOM     91  F   UNL A   1      46.939  21.506  35.385  1.00  0.00    -0.200 F 
ENDBRANCH  58  81
ENDBRANCH  32  33
ENDBRANCH  25  27
ENDBRANCH  24  25
ENDBRANCH  23  24
ENDBRANCH   1  23
TORSDOF 14
ENDMDL
MODEL 3
REMARK VINA RESULT:     -12.8      4.011     10.218
REMARK SMILES Cc1ccc(Nc2c(Cl)cccc2Cl)c(CC(=O)OCCOC(=O)c2ccc(-c3c4nc(c(-c5c(F)c(F)c(F)c(F)c5F)c5ccc([nH]5)c(-c5c(F)c(F)c(F)c(F)c5F)c5nc(c(-c6c(F)c(F)c(F)c(F)c6F)c6ccc3[nH]6)C=C5)C=C4)cc2)c1
REMARK SMILES IDX 20 1 19 2 17 3 18 4 16 5 15 6 1 7 2 8 3 9 88 10 4 11 5 12
REMARK SMILES IDX 6 13 7 15 8 16 13 17 9 18 10 19 12 20 14 21 11 22 21 23
REMARK SMILES IDX 22 24 23 25 24 26 25 27 26 28 87 29 27 30 86 31 28 32 29 33
REMARK SMILES IDX 30 34 80 35 31 36 85 37 79 38 81 39 32 40 84 41 78 42 77 43
REMARK SMILES IDX 33 45 65 46 45 47 64 48 46 49 49 50 63 51 82 52 47 53 48 54
REMARK SMILES IDX 62 56 83 57 50 58 34 59 35 60 43 61 36 62 37 63 41 64 44 65
REMARK SMILES IDX 38 66 39 67 42 68 40 69 66 70 67 71 75 72 68 73 69 74 73 75
REMARK SMILES IDX 76 76 70 77 71 78 74 79 72 80 51 81 52 82 60 83 53 84 54 85
REMARK SMILES IDX 58 86 61 87 55 88 56 89 59 90 57 91
REMARK H PARENT 6 14 81 44 49 55
REMARK Flexibility Score: inf
ROOT
ATOM      1  C   UNL A   1      36.927  22.857  24.649  1.00  0.00     0.274 C 
ENDROOT
BRANCH   1   2
ATOM      2  O   UNL A   1      35.729  23.427  25.156  1.00  0.00    -0.462 OA
BRANCH   2   3
ATOM      3  C   UNL A   1      34.762  22.578  25.604  1.00  0.00     0.310 C 
ATOM      4  O   UNL A   1      34.355  21.598  25.028  1.00  0.00    -0.252 OA
BRANCH   3   5
ATOM      5  C   UNL A   1      34.275  23.073  26.954  1.00  0.00     0.160 C 
BRANCH   5   6
ATOM      6  C   UNL A   1      32.931  23.723  26.776  1.00  0.00    -0.013 A 
ATOM      7  C   UNL A   1      29.380  22.430  27.188  1.00  0.00     0.044 C 
ATOM      8  C   UNL A   1      30.532  23.324  26.849  1.00  0.00    -0.051 A 
ATOM      9  C   UNL A   1      30.339  24.511  26.142  1.00  0.00     0.005 A 
ATOM     10  C   UNL A   1      31.828  22.947  27.179  1.00  0.00     0.009 A 
ATOM     11  C   UNL A   1      31.427  25.309  25.773  1.00  0.00     0.026 A 
ATOM     12  C   UNL A   1      32.742  24.934  26.071  1.00  0.00     0.042 A 
BRANCH  12  13
ATOM     13  N   UNL A   1      33.819  25.709  25.598  1.00  0.00    -0.353 N 
ATOM     14  H   UNL A   1      34.702  25.456  25.953  1.00  0.00     0.167 HD
BRANCH  13  15
ATOM     15  C   UNL A   1      33.823  26.799  24.688  1.00  0.00     0.076 A 
ATOM     16  C   UNL A   1      33.760  26.591  23.298  1.00  0.00     0.066 A 
ATOM     17  C   UNL A   1      33.660  28.123  25.143  1.00  0.00     0.066 A 
ATOM     18  Cl  UNL A   1      33.929  25.013  22.607  1.00  0.00    -0.082 Cl
ATOM     19  C   UNL A   1      33.554  27.658  22.414  1.00  0.00     0.023 A 
ATOM     20  C   UNL A   1      33.380  29.176  24.265  1.00  0.00     0.023 A 
ATOM     21  Cl  UNL A   1      33.954  28.557  26.784  1.00  0.00    -0.082 Cl
ATOM     22  C   UNL A   1      33.333  28.946  22.897  1.00  0.00     0.003 A 
ENDBRANCH  13  15
ENDBRANCH  12  13
ENDBRANCH   5   6
ENDBRANCH   3   5
ENDBRANCH   2   3
ENDBRANCH   1   2
BRANCH   1  23
ATOM     23  C   UNL A   1      37.956  22.740  25.785  1.00  0.00     0.275 C 
BRANCH  23  24
ATOM     24  O   UNL A   1      38.440  23.981  26.429  1.00  0.00    -0.458 OA
BRANCH  24  25
ATOM     25  C   UNL A   1      39.670  24.297  26.923  1.00  0.00     0.338 C 
ATOM     26  O   UNL A   1      40.629  23.541  26.845  1.00  0.00    -0.246 OA
BRANCH  25  27
ATOM     27  C   UNL A   1      39.835  25.644  27.488  1.00  0.00     0.060 A 
ATOM     28  C   UNL A   1      40.341  26.719  26.736  1.00  0.00     0.016 A 
ATOM     29  C   UNL A   1      39.288  25.853  28.734  1.00  0.00     0.016 A 
ATOM     30  C   UNL A   1      40.140  28.020  27.194  1.00  0.00     0.010 A 
ATOM     31  C   UNL A   1      38.806  27.094  29.007  1.00  0.00     0.010 A 
ATOM     32  C   UNL A   1      39.329  28.191  28.317  1.00  0.00    -0.014 A 
BRANCH  32  33
ATOM     33  C   UNL A   1      39.227  29.404  29.106  1.00  0.00     0.031 A 
ATOM     34  C   UNL A   1      38.202  30.421  28.877  1.00  0.00     0.074 A 
ATOM     35  C   UNL A   1      40.108  29.421  30.136  1.00  0.00     0.049 A 
ATOM     36  N   UNL A   1      38.430  31.685  28.957  1.00  0.00    -0.248 NA
ATOM     37  C   UNL A   1      36.815  30.106  28.541  1.00  0.00     0.031 C 
ATOM     38  C   UNL A   1      40.234  30.296  31.280  1.00  0.00     0.029 A 
ATOM     39  N   UNL A   1      41.210  28.550  30.264  1.00  0.00    -0.354 N 
ATOM     40  C   UNL A   1      37.199  32.297  29.047  1.00  0.00     0.074 A 
ATOM     41  C   UNL A   1      36.238  31.314  28.607  1.00  0.00     0.031 C 
ATOM     42  C   UNL A   1      41.482  30.156  31.778  1.00  0.00     0.029 A 
ATOM     43  C   UNL A   1      42.223  29.256  30.899  1.00  0.00     0.049 A 
ATOM     44  H   UNL A   1      41.253  27.615  29.959  1.00  0.00     0.167 HD
ATOM     45  C   UNL A   1      37.082  33.469  29.736  1.00  0.00     0.037 A 
ATOM     46  C   UNL A   1      43.336  29.534  30.159  1.00  0.00     0.037 A 
ATOM     47  C   UNL A   1      38.353  33.801  30.372  1.00  0.00     0.049 A 
ATOM     48  C   UNL A   1      43.418  31.011  29.892  1.00  0.00     0.074 A 
ATOM     49  C   UNL A   1      38.816  33.544  31.653  1.00  0.00     0.029 A 
ATOM     50  N   UNL A   1      39.476  34.068  29.596  1.00  0.00    -0.354 N 
ATOM     51  N   UNL A   1      42.380  31.801  29.869  1.00  0.00    -0.248 NA
ATOM     52  C   UNL A   1      44.674  31.717  29.682  1.00  0.00     0.031 C 
ATOM     53  C   UNL A   1      40.230  33.602  31.633  1.00  0.00     0.029 A 
ATOM     54  C   UNL A   1      40.629  33.898  30.342  1.00  0.00     0.049 A 
ATOM     55  H   UNL A   1      39.454  34.341  28.650  1.00  0.00     0.167 HD
ATOM     56  C   UNL A   1      42.801  33.093  29.730  1.00  0.00     0.074 A 
ATOM     57  C   UNL A   1      44.244  32.987  29.598  1.00  0.00     0.031 C 
ATOM     58  C   UNL A   1      41.938  34.149  29.766  1.00  0.00     0.037 A 
BRANCH  45  59
ATOM     59  C   UNL A   1      35.756  34.073  30.130  1.00  0.00     0.064 A 
ATOM     60  C   UNL A   1      34.902  34.670  29.177  1.00  0.00     0.173 A 
ATOM     61  C   UNL A   1      35.270  34.076  31.452  1.00  0.00     0.173 A 
ATOM     62  F   UNL A   1      35.207  34.690  27.875  1.00  0.00    -0.203 F 
ATOM     63  C   UNL A   1      33.696  35.282  29.525  1.00  0.00     0.198 A 
ATOM     64  C   UNL A   1      34.073  34.714  31.805  1.00  0.00     0.198 A 
ATOM     65  F   UNL A   1      35.937  33.443  32.429  1.00  0.00    -0.203 F 
ATOM     66  F   UNL A   1      32.937  35.842  28.572  1.00  0.00    -0.200 F 
ATOM     67  C   UNL A   1      33.290  35.321  30.841  1.00  0.00     0.200 A 
ATOM     68  F   UNL A   1      33.682  34.739  33.088  1.00  0.00    -0.200 F 
ATOM     69  F   UNL A   1      32.143  35.929  31.176  1.00  0.00    -0.200 F 
ENDBRANCH  45  59
BRANCH  46  70
ATOM     70  C   UNL A   1      43.715  28.440  29.200  1.00  0.00     0.064 A 
ATOM     71  C   UNL A   1      43.535  28.672  27.816  1.00  0.00     0.173 A 
ATOM     72  C   UNL A   1      44.505  27.336  29.550  1.00  0.00     0.173 A 
ATOM     73  F   UNL A   1      42.797  29.715  27.403  1.00  0.00    -0.203 F 
ATOM     74  C   UNL A   1      44.185  27.910  26.844  1.00  0.00     0.198 A 
ATOM     75  C   UNL A   1      45.138  26.556  28.569  1.00  0.00     0.198 A 
ATOM     76  F   UNL A   1      44.734  27.045  30.838  1.00  0.00    -0.203 F 
ATOM     77  F   UNL A   1      44.073  28.238  25.548  1.00  0.00    -0.200 F 
ATOM     78  C   UNL A   1      45.001  26.860  27.222  1.00  0.00     0.200 A 
ATOM     79  F   UNL A   1      45.941  25.546  28.934  1.00  0.00    -0.200 F 
ATOM     80  F   UNL A   1      45.679  26.170  26.294  1.00  0.00    -0.200 F 
ENDBRANCH  46  70
BRANCH  58  81
ATOM     81  C   UNL A   1      42.275  35.561  29.378  1.00  0.00     0.064 A 
ATOM     82  C   UNL A   1      43.152  36.371  30.110  1.00  0.00     0.173 A 
ATOM     83  C   UNL A   1      41.840  36.084  28.135  1.00  0.00     0.173 A 
ATOM     84  F   UNL A   1      43.728  35.937  31.239  1.00  0.00    -0.203 F 
ATOM     85  C   UNL A   1      43.514  37.643  29.667  1.00  0.00     0.198 A 
ATOM     86  C   UNL A   1      42.264  37.320  27.662  1.00  0.00     0.198 A 
ATOM     87  F   UNL A   1      41.017  35.399  27.327  1.00  0.00    -0.203 F 
ATOM     88  F   UNL A   1      44.311  38.404  30.429  1.00  0.00    -0.200 F 
ATOM     89  C   UNL A   1      43.084  38.110  28.439  1.00  0.00     0.200 A 
ATOM     90  F   UNL A   1      41.889  37.728  26.442  1.00  0.00    -0.200 F 
ATOM     91  F   UNL A   1      43.478  39.309  27.995  1.00  0.00    -0.200 F 
ENDBRANCH  58  81
ENDBRANCH  32  33
ENDBRANCH  25  27
ENDBRANCH  24  25
ENDBRANCH  23  24
ENDBRANCH   1  23
TORSDOF 14
ENDMDL
