MODEL 1
REMARK VINA RESULT:     -11.9      0.000      0.000
REMARK SMILES COc1ccc(/C=C2\SC(=S)N=C2OCCOC(=O)c2ccc(-c3c4nc(c(-c5c(F)c(F)c(F)c(F)c5F)c5ccc([nH]5)c(-c5c(F)c(F)c(F)c(F)c5F)c5nc(c(-c6c(F)c(F)c(F)c(F)c6F)c6ccc3[nH]6)C=C5)C=C4)cc2)c(C(=O)[O-])c1OC
REMARK SMILES IDX 16 1 15 2 14 3 13 4 7 5 8 6 9 7 10 8 12 9 11 10 6 11 3 12
REMARK SMILES IDX 4 13 87 14 5 15 83 16 2 17 1 18 88 19 89 20 84 21 85 22
REMARK SMILES IDX 86 23 17 24 18 25 19 26 20 27 21 28 82 29 22 30 81 31 23 32
REMARK SMILES IDX 24 33 25 34 75 35 26 36 80 37 74 38 76 39 27 40 79 41 73 42
REMARK SMILES IDX 72 43 28 45 60 46 40 47 59 48 41 49 44 50 58 51 77 52 42 53
REMARK SMILES IDX 43 54 57 56 78 57 45 58 29 59 30 60 38 61 31 62 32 63 36 64
REMARK SMILES IDX 39 65 33 66 34 67 37 68 35 69 61 70 62 71 70 72 63 73 64 74
REMARK SMILES IDX 68 75 71 76 65 77 66 78 69 79 67 80 46 81 47 82 55 83 48 84
REMARK SMILES IDX 49 85 53 86 56 87 50 88 51 89 54 90 52 91
REMARK H PARENT 76 44 44 55
REMARK Flexibility Score: inf
ROOT
ATOM      1  C   UNL A   1      31.628  32.302  26.905  1.00  0.00     0.274 C 
ENDROOT
BRANCH   1   2
ATOM      2  C   UNL A   1      31.735  30.780  26.705  1.00  0.00     0.273 C 
BRANCH   2   3
ATOM      3  O   UNL A   1      31.967  30.408  25.330  1.00  0.00    -0.473 OA
BRANCH   3   4
ATOM      4  C   UNL A   1      31.190  29.748  24.460  1.00  0.00     0.229 C 
ATOM      5  C   UNL A   1      32.314  27.461  24.297  1.00  0.00     0.030 C 
ATOM      6  C   UNL A   1      31.405  28.373  23.923  1.00  0.00     0.077 C 
ATOM      7  S   UNL A   1      30.121  28.105  22.784  1.00  0.00    -0.053 SA
ATOM      8  C   UNL A   1      29.336  29.617  23.264  1.00  0.00     0.168 C 
ATOM      9  N   UNL A   1      30.115  30.380  24.092  1.00  0.00    -0.194 NA
ATOM     10  S   UNL A   1      27.771  29.982  22.805  1.00  0.00    -0.050 S 
BRANCH   5  11
ATOM     11  C   UNL A   1      32.521  26.008  24.059  1.00  0.00    -0.011 A 
ATOM     12  C   UNL A   1      32.534  23.308  23.185  1.00  0.00     0.161 A 
ATOM     13  C   UNL A   1      33.333  24.261  22.558  1.00  0.00     0.051 A 
ATOM     14  C   UNL A   1      31.720  23.673  24.266  1.00  0.00     0.170 A 
ATOM     15  C   UNL A   1      33.302  25.596  22.972  1.00  0.00     0.013 A 
ATOM     16  C   UNL A   1      31.752  25.018  24.727  1.00  0.00     0.050 A 
BRANCH  12  17
ATOM     17  O   UNL A   1      32.670  22.013  22.767  1.00  0.00    -0.493 OA
ATOM     18  C   UNL A   1      33.554  21.252  23.587  1.00  0.00     0.278 C 
ENDBRANCH  12  17
BRANCH  14  19
ATOM     19  O   UNL A   1      30.779  22.872  24.859  1.00  0.00    -0.492 OA
ATOM     20  C   UNL A   1      31.143  22.046  25.951  1.00  0.00     0.278 C 
ENDBRANCH  14  19
BRANCH  16  21
ATOM     21  C   UNL A   1      30.938  25.376  25.927  1.00  0.00     0.076 C 
ATOM     22  O   UNL A   1      31.292  25.357  27.092  1.00  0.00    -0.545 OA
ATOM     23  O   UNL A   1      29.665  25.679  25.608  1.00  0.00    -0.545 OA
ENDBRANCH  16  21
ENDBRANCH   5  11
ENDBRANCH   3   4
ENDBRANCH   2   3
ENDBRANCH   1   2
BRANCH   1  24
ATOM     24  O   UNL A   1      32.888  32.993  26.755  1.00  0.00    -0.458 OA
BRANCH  24  25
ATOM     25  C   UNL A   1      33.381  33.576  27.875  1.00  0.00     0.338 C 
ATOM     26  O   UNL A   1      32.834  34.431  28.551  1.00  0.00    -0.246 OA
BRANCH  25  27
ATOM     27  C   UNL A   1      34.644  32.914  28.287  1.00  0.00     0.060 A 
ATOM     28  C   UNL A   1      34.576  31.578  28.705  1.00  0.00     0.016 A 
ATOM     29  C   UNL A   1      35.875  33.577  28.291  1.00  0.00     0.016 A 
ATOM     30  C   UNL A   1      35.725  30.906  29.130  1.00  0.00     0.010 A 
ATOM     31  C   UNL A   1      37.026  32.906  28.733  1.00  0.00     0.010 A 
ATOM     32  C   UNL A   1      36.958  31.568  29.174  1.00  0.00    -0.014 A 
BRANCH  32  33
ATOM     33  C   UNL A   1      38.120  30.923  29.850  1.00  0.00     0.031 A 
ATOM     34  C   UNL A   1      38.369  31.243  31.301  1.00  0.00     0.074 A 
ATOM     35  C   UNL A   1      38.911  30.029  29.223  1.00  0.00     0.049 A 
ATOM     36  N   UNL A   1      39.294  30.790  32.111  1.00  0.00    -0.248 NA
ATOM     37  C   UNL A   1      37.442  32.201  31.926  1.00  0.00     0.031 C 
ATOM     38  C   UNL A   1      38.753  29.575  27.845  1.00  0.00     0.029 A 
ATOM     39  N   UNL A   1      40.010  29.334  29.674  1.00  0.00    -0.354 N 
ATOM     40  C   UNL A   1      39.056  31.402  33.335  1.00  0.00     0.074 A 
ATOM     41  C   UNL A   1      37.933  32.295  33.151  1.00  0.00     0.031 C 
ATOM     42  C   UNL A   1      39.726  28.693  27.554  1.00  0.00     0.029 A 
ATOM     43  C   UNL A   1      40.579  28.515  28.727  1.00  0.00     0.049 A 
ATOM     44  H   UNL A   1      40.358  29.417  30.592  1.00  0.00     0.167 HD
ATOM     45  C   UNL A   1      39.699  31.225  34.512  1.00  0.00     0.037 A 
ATOM     46  C   UNL A   1      41.659  27.710  28.800  1.00  0.00     0.037 A 
ATOM     47  C   UNL A   1      40.812  30.334  34.705  1.00  0.00     0.049 A 
ATOM     48  C   UNL A   1      42.406  27.591  30.108  1.00  0.00     0.074 A 
ATOM     49  C   UNL A   1      41.528  30.085  35.863  1.00  0.00     0.029 A 
ATOM     50  N   UNL A   1      41.374  29.548  33.711  1.00  0.00    -0.354 N 
ATOM     51  N   UNL A   1      42.147  28.147  31.266  1.00  0.00    -0.248 NA
ATOM     52  C   UNL A   1      43.585  26.712  30.120  1.00  0.00     0.031 C 
ATOM     53  C   UNL A   1      42.561  29.195  35.557  1.00  0.00     0.029 A 
ATOM     54  C   UNL A   1      42.445  28.833  34.225  1.00  0.00     0.049 A 
ATOM     55  H   UNL A   1      41.060  29.504  32.779  1.00  0.00     0.167 HD
ATOM     56  C   UNL A   1      43.090  27.640  32.154  1.00  0.00     0.074 A 
ATOM     57  C   UNL A   1      43.924  26.730  31.401  1.00  0.00     0.031 C 
ATOM     58  C   UNL A   1      43.247  27.901  33.475  1.00  0.00     0.037 A 
BRANCH  45  59
ATOM     59  C   UNL A   1      39.233  32.040  35.684  1.00  0.00     0.064 A 
ATOM     60  C   UNL A   1      38.341  31.525  36.637  1.00  0.00     0.173 A 
ATOM     61  C   UNL A   1      39.701  33.350  35.864  1.00  0.00     0.173 A 
ATOM     62  F   UNL A   1      37.849  30.284  36.501  1.00  0.00    -0.203 F 
ATOM     63  C   UNL A   1      37.913  32.302  37.710  1.00  0.00     0.198 A 
ATOM     64  C   UNL A   1      39.297  34.113  36.956  1.00  0.00     0.198 A 
ATOM     65  F   UNL A   1      40.557  33.890  34.983  1.00  0.00    -0.203 F 
ATOM     66  F   UNL A   1      37.018  31.809  38.578  1.00  0.00    -0.200 F 
ATOM     67  C   UNL A   1      38.396  33.593  37.872  1.00  0.00     0.200 A 
ATOM     68  F   UNL A   1      39.774  35.354  37.117  1.00  0.00    -0.200 F 
ATOM     69  F   UNL A   1      37.986  34.338  38.908  1.00  0.00    -0.200 F 
ENDBRANCH  45  59
BRANCH  46  70
ATOM     70  C   UNL A   1      42.114  26.928  27.613  1.00  0.00     0.064 A 
ATOM     71  C   UNL A   1      41.641  25.629  27.374  1.00  0.00     0.173 A 
ATOM     72  C   UNL A   1      43.095  27.428  26.745  1.00  0.00     0.173 A 
ATOM     73  F   UNL A   1      40.722  25.090  28.190  1.00  0.00    -0.203 F 
ATOM     74  C   UNL A   1      42.163  24.846  26.345  1.00  0.00     0.198 A 
ATOM     75  C   UNL A   1      43.593  26.658  25.696  1.00  0.00     0.198 A 
ATOM     76  F   UNL A   1      43.589  28.662  26.929  1.00  0.00    -0.203 F 
ATOM     77  F   UNL A   1      41.750  23.581  26.193  1.00  0.00    -0.200 F 
ATOM     78  C   UNL A   1      43.138  25.361  25.505  1.00  0.00     0.200 A 
ATOM     79  F   UNL A   1      44.531  27.162  24.882  1.00  0.00    -0.200 F 
ATOM     80  F   UNL A   1      43.653  24.604  24.528  1.00  0.00    -0.200 F 
ENDBRANCH  46  70
BRANCH  58  81
ATOM     81  C   UNL A   1      44.305  27.133  34.217  1.00  0.00     0.064 A 
ATOM     82  C   UNL A   1      45.613  27.616  34.371  1.00  0.00     0.173 A 
ATOM     83  C   UNL A   1      43.989  25.903  34.817  1.00  0.00     0.173 A 
ATOM     84  F   UNL A   1      45.972  28.782  33.810  1.00  0.00    -0.203 F 
ATOM     85  C   UNL A   1      46.573  26.881  35.062  1.00  0.00     0.198 A 
ATOM     86  C   UNL A   1      44.940  25.189  35.541  1.00  0.00     0.198 A 
ATOM     87  F   UNL A   1      42.751  25.398  34.714  1.00  0.00    -0.203 F 
ATOM     88  F   UNL A   1      47.831  27.335  35.142  1.00  0.00    -0.200 F 
ATOM     89  C   UNL A   1      46.234  25.672  35.652  1.00  0.00     0.200 A 
ATOM     90  F   UNL A   1      44.604  24.031  36.126  1.00  0.00    -0.200 F 
ATOM     91  F   UNL A   1      47.158  24.970  36.323  1.00  0.00    -0.200 F 
ENDBRANCH  58  81
ENDBRANCH  32  33
ENDBRANCH  25  27
ENDBRANCH  24  25
ENDBRANCH   1  24
TORSDOF 14
ENDMDL
MODEL 2
REMARK VINA RESULT:     -11.8      4.777     10.353
REMARK SMILES COc1ccc(/C=C2\SC(=S)N=C2OCCOC(=O)c2ccc(-c3c4nc(c(-c5c(F)c(F)c(F)c(F)c5F)c5ccc([nH]5)c(-c5c(F)c(F)c(F)c(F)c5F)c5nc(c(-c6c(F)c(F)c(F)c(F)c6F)c6ccc3[nH]6)C=C5)C=C4)cc2)c(C(=O)[O-])c1OC
REMARK SMILES IDX 16 1 15 2 14 3 13 4 7 5 8 6 9 7 10 8 12 9 11 10 6 11 3 12
REMARK SMILES IDX 4 13 87 14 5 15 83 16 2 17 1 18 88 19 89 20 84 21 85 22
REMARK SMILES IDX 86 23 17 24 18 25 19 26 20 27 21 28 82 29 22 30 81 31 23 32
REMARK SMILES IDX 24 33 25 34 75 35 26 36 80 37 74 38 76 39 27 40 79 41 73 42
REMARK SMILES IDX 72 43 28 45 60 46 40 47 59 48 41 49 44 50 58 51 77 52 42 53
REMARK SMILES IDX 43 54 57 56 78 57 45 58 29 59 30 60 38 61 31 62 32 63 36 64
REMARK SMILES IDX 39 65 33 66 34 67 37 68 35 69 61 70 62 71 70 72 63 73 64 74
REMARK SMILES IDX 68 75 71 76 65 77 66 78 69 79 67 80 46 81 47 82 55 83 48 84
REMARK SMILES IDX 49 85 53 86 56 87 50 88 51 89 54 90 52 91
REMARK H PARENT 76 44 44 55
REMARK Flexibility Score: inf
ROOT
ATOM      1  C   UNL A   1      38.538  20.038  25.168  1.00  0.00     0.274 C 
ENDROOT
BRANCH   1   2
ATOM      2  C   UNL A   1      37.393  20.931  24.659  1.00  0.00     0.273 C 
BRANCH   2   3
ATOM      3  O   UNL A   1      36.156  20.721  25.372  1.00  0.00    -0.473 OA
BRANCH   3   4
ATOM      4  C   UNL A   1      34.953  20.325  24.935  1.00  0.00     0.229 C 
ATOM      5  C   UNL A   1      33.710  22.528  24.582  1.00  0.00     0.030 C 
ATOM      6  C   UNL A   1      33.775  21.189  24.631  1.00  0.00     0.077 C 
ATOM      7  S   UNL A   1      32.493  20.103  24.190  1.00  0.00    -0.053 SA
ATOM      8  C   UNL A   1      33.608  18.729  24.206  1.00  0.00     0.168 C 
ATOM      9  N   UNL A   1      34.837  19.047  24.720  1.00  0.00    -0.194 NA
ATOM     10  S   UNL A   1      33.188  17.245  23.562  1.00  0.00    -0.050 S 
BRANCH   5  11
ATOM     11  C   UNL A   1      32.728  23.525  24.080  1.00  0.00    -0.011 A 
ATOM     12  C   UNL A   1      31.247  25.810  23.280  1.00  0.00     0.161 A 
ATOM     13  C   UNL A   1      32.200  25.248  22.432  1.00  0.00     0.051 A 
ATOM     14  C   UNL A   1      31.003  25.243  24.538  1.00  0.00     0.170 A 
ATOM     15  C   UNL A   1      32.947  24.140  22.842  1.00  0.00     0.013 A 
ATOM     16  C   UNL A   1      31.716  24.072  24.915  1.00  0.00     0.050 A 
BRANCH  12  17
ATOM     17  O   UNL A   1      30.511  26.850  22.783  1.00  0.00    -0.493 OA
ATOM     18  C   UNL A   1      31.277  28.039  22.602  1.00  0.00     0.278 C 
ENDBRANCH  12  17
BRANCH  14  19
ATOM     19  O   UNL A   1      30.215  25.790  25.518  1.00  0.00    -0.492 OA
ATOM     20  C   UNL A   1      30.751  26.772  26.388  1.00  0.00     0.278 C 
ENDBRANCH  14  19
BRANCH  16  21
ATOM     21  C   UNL A   1      31.392  23.433  26.226  1.00  0.00     0.076 C 
ATOM     22  O   UNL A   1      31.932  23.634  27.299  1.00  0.00    -0.545 OA
ATOM     23  O   UNL A   1      30.431  22.497  26.112  1.00  0.00    -0.545 OA
ENDBRANCH  16  21
ENDBRANCH   5  11
ENDBRANCH   3   4
ENDBRANCH   2   3
ENDBRANCH   1   2
BRANCH   1  24
ATOM     24  O   UNL A   1      39.053  20.439  26.456  1.00  0.00    -0.458 OA
BRANCH  24  25
ATOM     25  C   UNL A   1      40.399  20.576  26.540  1.00  0.00     0.338 C 
ATOM     26  O   UNL A   1      41.236  19.776  26.158  1.00  0.00    -0.246 OA
BRANCH  25  27
ATOM     27  C   UNL A   1      40.749  21.935  27.025  1.00  0.00     0.060 A 
ATOM     28  C   UNL A   1      40.149  23.030  26.390  1.00  0.00     0.016 A 
ATOM     29  C   UNL A   1      41.661  22.152  28.063  1.00  0.00     0.016 A 
ATOM     30  C   UNL A   1      40.457  24.336  26.782  1.00  0.00     0.010 A 
ATOM     31  C   UNL A   1      41.981  23.464  28.446  1.00  0.00     0.010 A 
ATOM     32  C   UNL A   1      41.394  24.569  27.796  1.00  0.00    -0.014 A 
BRANCH  32  33
ATOM     33  C   UNL A   1      41.890  25.954  28.039  1.00  0.00     0.031 A 
ATOM     34  C   UNL A   1      43.246  26.332  27.499  1.00  0.00     0.074 A 
ATOM     35  C   UNL A   1      41.146  26.884  28.672  1.00  0.00     0.049 A 
ATOM     36  N   UNL A   1      43.879  27.477  27.558  1.00  0.00    -0.248 NA
ATOM     37  C   UNL A   1      43.983  25.274  26.790  1.00  0.00     0.031 C 
ATOM     38  C   UNL A   1      39.797  26.682  29.190  1.00  0.00     0.029 A 
ATOM     39  N   UNL A   1      41.424  28.195  28.981  1.00  0.00    -0.354 N 
ATOM     40  C   UNL A   1      45.082  27.276  26.891  1.00  0.00     0.074 A 
ATOM     41  C   UNL A   1      45.112  25.890  26.479  1.00  0.00     0.031 C 
ATOM     42  C   UNL A   1      39.369  27.819  29.768  1.00  0.00     0.029 A 
ATOM     43  C   UNL A   1      40.414  28.835  29.661  1.00  0.00     0.049 A 
ATOM     44  H   UNL A   1      42.271  28.636  28.739  1.00  0.00     0.167 HD
ATOM     45  C   UNL A   1      46.065  28.168  26.626  1.00  0.00     0.037 A 
ATOM     46  C   UNL A   1      40.338  30.095  30.135  1.00  0.00     0.037 A 
ATOM     47  C   UNL A   1      46.040  29.549  27.026  1.00  0.00     0.049 A 
ATOM     48  C   UNL A   1      41.486  31.047  29.892  1.00  0.00     0.074 A 
ATOM     49  C   UNL A   1      46.990  30.530  26.800  1.00  0.00     0.029 A 
ATOM     50  N   UNL A   1      45.011  30.145  27.739  1.00  0.00    -0.354 N 
ATOM     51  N   UNL A   1      42.599  30.855  29.229  1.00  0.00    -0.248 NA
ATOM     52  C   UNL A   1      41.352  32.402  30.449  1.00  0.00     0.031 C 
ATOM     53  C   UNL A   1      46.564  31.704  27.429  1.00  0.00     0.029 A 
ATOM     54  C   UNL A   1      45.316  31.475  27.984  1.00  0.00     0.049 A 
ATOM     55  H   UNL A   1      44.186  29.691  28.028  1.00  0.00     0.167 HD
ATOM     56  C   UNL A   1      43.266  32.074  29.236  1.00  0.00     0.074 A 
ATOM     57  C   UNL A   1      42.432  33.001  29.968  1.00  0.00     0.031 C 
ATOM     58  C   UNL A   1      44.461  32.400  28.683  1.00  0.00     0.037 A 
BRANCH  45  59
ATOM     59  C   UNL A   1      47.274  27.664  25.892  1.00  0.00     0.064 A 
ATOM     60  C   UNL A   1      47.361  27.705  24.492  1.00  0.00     0.173 A 
ATOM     61  C   UNL A   1      48.370  27.152  26.602  1.00  0.00     0.173 A 
ATOM     62  F   UNL A   1      46.334  28.169  23.764  1.00  0.00    -0.203 F 
ATOM     63  C   UNL A   1      48.488  27.223  23.830  1.00  0.00     0.198 A 
ATOM     64  C   UNL A   1      49.508  26.701  25.940  1.00  0.00     0.198 A 
ATOM     65  F   UNL A   1      48.338  27.092  27.943  1.00  0.00    -0.203 F 
ATOM     66  F   UNL A   1      48.526  27.220  22.491  1.00  0.00    -0.200 F 
ATOM     67  C   UNL A   1      49.562  26.728  24.555  1.00  0.00     0.200 A 
ATOM     68  F   UNL A   1      50.549  26.234  26.642  1.00  0.00    -0.200 F 
ATOM     69  F   UNL A   1      50.648  26.268  23.917  1.00  0.00    -0.200 F 
ENDBRANCH  45  59
BRANCH  46  70
ATOM     70  C   UNL A   1      39.133  30.562  30.881  1.00  0.00     0.064 A 
ATOM     71  C   UNL A   1      39.031  30.398  32.271  1.00  0.00     0.173 A 
ATOM     72  C   UNL A   1      38.025  31.100  30.211  1.00  0.00     0.173 A 
ATOM     73  F   UNL A   1      40.050  29.861  32.959  1.00  0.00    -0.203 F 
ATOM     74  C   UNL A   1      37.855  30.709  32.952  1.00  0.00     0.198 A 
ATOM     75  C   UNL A   1      36.862  31.443  30.897  1.00  0.00     0.198 A 
ATOM     76  F   UNL A   1      38.064  31.274  28.881  1.00  0.00    -0.203 F 
ATOM     77  F   UNL A   1      37.759  30.465  34.266  1.00  0.00    -0.200 F 
ATOM     78  C   UNL A   1      36.771  31.233  32.265  1.00  0.00     0.200 A 
ATOM     79  F   UNL A   1      35.818  31.955  30.230  1.00  0.00    -0.200 F 
ATOM     80  F   UNL A   1      35.634  31.516  32.916  1.00  0.00    -0.200 F 
ENDBRANCH  46  70
BRANCH  58  81
ATOM     81  C   UNL A   1      44.903  33.834  28.769  1.00  0.00     0.064 A 
ATOM     82  C   UNL A   1      44.533  34.791  27.813  1.00  0.00     0.173 A 
ATOM     83  C   UNL A   1      45.688  34.262  29.853  1.00  0.00     0.173 A 
ATOM     84  F   UNL A   1      43.792  34.435  26.752  1.00  0.00    -0.203 F 
ATOM     85  C   UNL A   1      44.961  36.113  27.919  1.00  0.00     0.198 A 
ATOM     86  C   UNL A   1      46.080  35.592  29.976  1.00  0.00     0.198 A 
ATOM     87  F   UNL A   1      46.061  33.393  30.803  1.00  0.00    -0.203 F 
ATOM     88  F   UNL A   1      44.644  36.995  26.961  1.00  0.00    -0.200 F 
ATOM     89  C   UNL A   1      45.728  36.513  29.002  1.00  0.00     0.200 A 
ATOM     90  F   UNL A   1      46.805  35.980  31.035  1.00  0.00    -0.200 F 
ATOM     91  F   UNL A   1      46.132  37.787  29.105  1.00  0.00    -0.200 F 
ENDBRANCH  58  81
ENDBRANCH  32  33
ENDBRANCH  25  27
ENDBRANCH  24  25
ENDBRANCH   1  24
TORSDOF 14
ENDMDL
MODEL 3
REMARK VINA RESULT:     -11.8      4.688     10.262
REMARK SMILES COc1ccc(/C=C2\SC(=S)N=C2OCCOC(=O)c2ccc(-c3c4nc(c(-c5c(F)c(F)c(F)c(F)c5F)c5ccc([nH]5)c(-c5c(F)c(F)c(F)c(F)c5F)c5nc(c(-c6c(F)c(F)c(F)c(F)c6F)c6ccc3[nH]6)C=C5)C=C4)cc2)c(C(=O)[O-])c1OC
REMARK SMILES IDX 16 1 15 2 14 3 13 4 7 5 8 6 9 7 10 8 12 9 11 10 6 11 3 12
REMARK SMILES IDX 4 13 87 14 5 15 83 16 2 17 1 18 88 19 89 20 84 21 85 22
REMARK SMILES IDX 86 23 17 24 18 25 19 26 20 27 21 28 82 29 22 30 81 31 23 32
REMARK SMILES IDX 24 33 25 34 75 35 26 36 80 37 74 38 76 39 27 40 79 41 73 42
REMARK SMILES IDX 72 43 28 45 60 46 40 47 59 48 41 49 44 50 58 51 77 52 42 53
REMARK SMILES IDX 43 54 57 56 78 57 45 58 29 59 30 60 38 61 31 62 32 63 36 64
REMARK SMILES IDX 39 65 33 66 34 67 37 68 35 69 61 70 62 71 70 72 63 73 64 74
REMARK SMILES IDX 68 75 71 76 65 77 66 78 69 79 67 80 46 81 47 82 55 83 48 84
REMARK SMILES IDX 49 85 53 86 56 87 50 88 51 89 54 90 52 91
REMARK H PARENT 76 44 44 55
REMARK Flexibility Score: inf
ROOT
ATOM      1  C   UNL A   1      38.086  20.819  25.403  1.00  0.00     0.274 C 
ENDROOT
BRANCH   1   2
ATOM      2  C   UNL A   1      37.364  21.529  24.245  1.00  0.00     0.273 C 
BRANCH   2   3
ATOM      3  O   UNL A   1      36.522  22.615  24.687  1.00  0.00    -0.473 OA
BRANCH   3   4
ATOM      4  C   UNL A   1      35.207  22.654  24.940  1.00  0.00     0.229 C 
ATOM      5  C   UNL A   1      34.693  25.156  24.950  1.00  0.00     0.030 C 
ATOM      6  C   UNL A   1      34.362  23.869  25.134  1.00  0.00     0.077 C 
ATOM      7  S   UNL A   1      32.771  23.283  25.510  1.00  0.00    -0.053 SA
ATOM      8  C   UNL A   1      33.267  21.620  25.162  1.00  0.00     0.168 C 
ATOM      9  N   UNL A   1      34.617  21.495  24.973  1.00  0.00    -0.194 NA
ATOM     10  S   UNL A   1      32.153  20.384  24.998  1.00  0.00    -0.050 S 
BRANCH   5  11
ATOM     11  C   UNL A   1      33.950  26.440  24.861  1.00  0.00    -0.011 A 
ATOM     12  C   UNL A   1      32.132  28.616  24.990  1.00  0.00     0.161 A 
ATOM     13  C   UNL A   1      33.021  28.370  26.034  1.00  0.00     0.051 A 
ATOM     14  C   UNL A   1      32.135  27.793  23.856  1.00  0.00     0.170 A 
ATOM     15  C   UNL A   1      33.895  27.280  25.979  1.00  0.00     0.013 A 
ATOM     16  C   UNL A   1      33.077  26.732  23.778  1.00  0.00     0.050 A 
BRANCH  12  17
ATOM     17  O   UNL A   1      31.357  29.738  25.087  1.00  0.00    -0.493 OA
ATOM     18  C   UNL A   1      31.764  30.608  26.141  1.00  0.00     0.278 C 
ENDBRANCH  12  17
BRANCH  14  19
ATOM     19  O   UNL A   1      31.212  27.833  22.842  1.00  0.00    -0.492 OA
ATOM     20  C   UNL A   1      29.839  27.627  23.130  1.00  0.00     0.278 C 
ENDBRANCH  14  19
BRANCH  16  21
ATOM     21  C   UNL A   1      33.121  25.910  22.530  1.00  0.00     0.076 C 
ATOM     22  O   UNL A   1      32.503  24.887  22.298  1.00  0.00    -0.545 OA
ATOM     23  O   UNL A   1      34.014  26.382  21.640  1.00  0.00    -0.545 OA
ENDBRANCH  16  21
ENDBRANCH   5  11
ENDBRANCH   3   4
ENDBRANCH   2   3
ENDBRANCH   1   2
BRANCH   1  24
ATOM     24  O   UNL A   1      39.513  21.044  25.417  1.00  0.00    -0.458 OA
BRANCH  24  25
ATOM     25  C   UNL A   1      40.114  20.959  26.630  1.00  0.00     0.338 C 
ATOM     26  O   UNL A   1      40.430  19.937  27.214  1.00  0.00    -0.246 OA
BRANCH  25  27
ATOM     27  C   UNL A   1      40.500  22.310  27.108  1.00  0.00     0.060 A 
ATOM     28  C   UNL A   1      39.872  23.416  26.521  1.00  0.00     0.016 A 
ATOM     29  C   UNL A   1      41.470  22.509  28.095  1.00  0.00     0.016 A 
ATOM     30  C   UNL A   1      40.211  24.716  26.909  1.00  0.00     0.010 A 
ATOM     31  C   UNL A   1      41.821  23.815  28.474  1.00  0.00     0.010 A 
ATOM     32  C   UNL A   1      41.206  24.931  27.871  1.00  0.00    -0.014 A 
BRANCH  32  33
ATOM     33  C   UNL A   1      41.724  26.310  28.100  1.00  0.00     0.031 A 
ATOM     34  C   UNL A   1      43.091  26.657  27.568  1.00  0.00     0.074 A 
ATOM     35  C   UNL A   1      40.991  27.261  28.715  1.00  0.00     0.049 A 
ATOM     36  N   UNL A   1      43.744  27.791  27.618  1.00  0.00    -0.248 NA
ATOM     37  C   UNL A   1      43.815  25.577  26.880  1.00  0.00     0.031 C 
ATOM     38  C   UNL A   1      39.633  27.090  29.223  1.00  0.00     0.029 A 
ATOM     39  N   UNL A   1      41.290  28.571  29.010  1.00  0.00    -0.354 N 
ATOM     40  C   UNL A   1      44.949  27.560  26.966  1.00  0.00     0.074 A 
ATOM     41  C   UNL A   1      44.958  26.169  26.572  1.00  0.00     0.031 C 
ATOM     42  C   UNL A   1      39.221  28.242  29.782  1.00  0.00     0.029 A 
ATOM     43  C   UNL A   1      40.285  29.238  29.672  1.00  0.00     0.049 A 
ATOM     44  H   UNL A   1      42.146  28.994  28.769  1.00  0.00     0.167 HD
ATOM     45  C   UNL A   1      45.951  28.431  26.698  1.00  0.00     0.037 A 
ATOM     46  C   UNL A   1      40.227  30.505  30.129  1.00  0.00     0.037 A 
ATOM     47  C   UNL A   1      45.946  29.818  27.080  1.00  0.00     0.049 A 
ATOM     48  C   UNL A   1      41.394  31.434  29.884  1.00  0.00     0.074 A 
ATOM     49  C   UNL A   1      46.915  30.779  26.851  1.00  0.00     0.029 A 
ATOM     50  N   UNL A   1      44.922  30.441  27.776  1.00  0.00    -0.354 N 
ATOM     51  N   UNL A   1      42.510  31.213  29.234  1.00  0.00    -0.248 NA
ATOM     52  C   UNL A   1      41.279  32.797  30.422  1.00  0.00     0.031 C 
ATOM     53  C   UNL A   1      46.505  31.968  27.460  1.00  0.00     0.029 A 
ATOM     54  C   UNL A   1      45.248  31.768  28.007  1.00  0.00     0.049 A 
ATOM     55  H   UNL A   1      44.086  30.006  28.063  1.00  0.00     0.167 HD
ATOM     56  C   UNL A   1      43.198  32.421  29.232  1.00  0.00     0.074 A 
ATOM     57  C   UNL A   1      42.374  33.371  29.944  1.00  0.00     0.031 C 
ATOM     58  C   UNL A   1      44.403  32.717  28.685  1.00  0.00     0.037 A 
BRANCH  45  59
ATOM     59  C   UNL A   1      47.157  27.897  25.981  1.00  0.00     0.064 A 
ATOM     60  C   UNL A   1      47.215  27.824  24.582  1.00  0.00     0.173 A 
ATOM     61  C   UNL A   1      48.278  27.470  26.708  1.00  0.00     0.173 A 
ATOM     62  F   UNL A   1      46.163  28.203  23.841  1.00  0.00    -0.203 F 
ATOM     63  C   UNL A   1      48.340  27.315  23.938  1.00  0.00     0.198 A 
ATOM     64  C   UNL A   1      49.414  26.992  26.060  1.00  0.00     0.198 A 
ATOM     65  F   UNL A   1      48.275  27.520  28.049  1.00  0.00    -0.203 F 
ATOM     66  F   UNL A   1      48.353  27.203  22.602  1.00  0.00    -0.200 F 
ATOM     67  C   UNL A   1      49.441  26.906  24.677  1.00  0.00     0.200 A 
ATOM     68  F   UNL A   1      50.480  26.609  26.776  1.00  0.00    -0.200 F 
ATOM     69  F   UNL A   1      50.524  26.420  24.056  1.00  0.00    -0.200 F 
ENDBRANCH  45  59
BRANCH  46  70
ATOM     70  C   UNL A   1      39.024  31.003  30.858  1.00  0.00     0.064 A 
ATOM     71  C   UNL A   1      38.905  30.857  32.249  1.00  0.00     0.173 A 
ATOM     72  C   UNL A   1      37.933  31.554  30.170  1.00  0.00     0.173 A 
ATOM     73  F   UNL A   1      39.908  30.309  32.953  1.00  0.00    -0.203 F 
ATOM     74  C   UNL A   1      37.729  31.198  32.914  1.00  0.00     0.198 A 
ATOM     75  C   UNL A   1      36.769  31.926  30.842  1.00  0.00     0.198 A 
ATOM     76  F   UNL A   1      37.988  31.712  28.839  1.00  0.00    -0.203 F 
ATOM     77  F   UNL A   1      37.616  30.970  34.230  1.00  0.00    -0.200 F 
ATOM     78  C   UNL A   1      36.661  31.734  32.211  1.00  0.00     0.200 A 
ATOM     79  F   UNL A   1      35.742  32.450  30.158  1.00  0.00    -0.200 F 
ATOM     80  F   UNL A   1      35.525  32.045  32.847  1.00  0.00    -0.200 F 
ENDBRANCH  46  70
BRANCH  58  81
ATOM     81  C   UNL A   1      44.871  34.144  28.757  1.00  0.00     0.064 A 
ATOM     82  C   UNL A   1      45.723  34.604  29.771  1.00  0.00     0.173 A 
ATOM     83  C   UNL A   1      44.481  35.061  27.766  1.00  0.00     0.173 A 
ATOM     84  F   UNL A   1      46.119  33.773  30.749  1.00  0.00    -0.203 F 
ATOM     85  C   UNL A   1      46.138  35.933  29.812  1.00  0.00     0.198 A 
ATOM     86  C   UNL A   1      44.928  36.379  27.788  1.00  0.00     0.198 A 
ATOM     87  F   UNL A   1      43.676  34.674  26.765  1.00  0.00    -0.203 F 
ATOM     88  F   UNL A   1      46.902  36.362  30.826  1.00  0.00    -0.200 F 
ATOM     89  C   UNL A   1      45.746  36.817  28.818  1.00  0.00     0.200 A 
ATOM     90  F   UNL A   1      44.564  37.225  26.815  1.00  0.00    -0.200 F 
ATOM     91  F   UNL A   1      46.152  38.093  28.857  1.00  0.00    -0.200 F 
ENDBRANCH  58  81
ENDBRANCH  32  33
ENDBRANCH  25  27
ENDBRANCH  24  25
ENDBRANCH   1  24
TORSDOF 14
ENDMDL
